data_PCOD8307573
_publ_section_title
;
Structure prediction by ZEFSAII (Michael W. Deem and Ramdas Pophale) SiO2 
 PCOD8307573
Probable space group: I 4 M M
;
_chemical_formula_sum "Si O2"
_cell_formula_units_Z 128
_cell_length_a 24.982949
_cell_length_b 24.982949
_cell_length_c 12.039575
_cell_angle_alpha 90.000000
_cell_angle_beta 90.000000
_cell_angle_gamma 90.000000
_cell_volume 7514.473536
_symmetry_space_group_name_H-M "I 4 M M"
_symmetry_group_IT_number 107
_symmetry_cell_setting 'tetragonal'
loop_
_space_group_symop_operation_xyz
x,y,z
-y,x,z
-x,-y,z
y,-x,z
-x,y,z
x,-y,z
-y,-x,z
y,x,z
1/2+x,1/2+y,1/2+z
1/2-y,1/2+x,1/2+z
1/2-x,1/2-y,1/2+z
1/2+y,1/2-x,1/2+z
1/2-x,1/2+y,1/2+z
1/2+x,1/2-y,1/2+z
1/2-y,1/2-x,1/2+z
1/2+y,1/2+x,1/2+z
loop_
_atom_site_type_symbol
_atom_site_label
_atom_site_fract_x
_atom_site_fract_y
_atom_site_fract_z
Si Si1 0.648328 0.063247 0.616270
Si Si2 0.251765 0.936536 0.471115
Si Si3 0.314855 0.437507 0.346051
Si Si4 0.251766 0.936536 0.220984
Si Si5 0.436753 0.851673 0.575828
Si Si6 0.437095 0.647196 0.105814
Si Si7 0.563289 0.197562 0.346050
Si Si8 0.147196 0.937095 0.086289
O O1 0.693911 0.083142 0.530381
O O2 0.592091 0.092090 0.596049
O O3 0.666000 0.081876 0.737952
O O4 0.638518 0.000000 0.606591
O O5 0.249508 0.913158 0.346050
O O6 0.199838 0.917583 0.539785
O O7 0.251954 0.000000 0.469213
O O8 0.304312 0.500000 0.346049
O O9 0.346708 0.421854 0.235373
O O10 0.256409 0.409794 0.346052
O O11 0.346709 0.421856 0.456729
O O12 0.306090 0.916858 0.161718
O O13 0.199839 0.917583 0.152314
O O14 0.251955 0.000000 0.222888
O O15 0.500000 0.861483 0.585506
O O16 0.418124 0.834001 0.454146
O O17 0.500000 0.636092 0.087638
O O18 0.403901 0.596100 0.060643
O O19 0.500000 0.203638 0.346050
O O20 0.096100 0.903900 0.131460
O O21 0.136092 0.000000 0.104468
#
# Coordination Sequence:
#
# PCOD8307573 Si02
#       8
#    16  16  16  16  16  16  16  16
#     4  10  20  33  52  77 105 134 165 204 250 300
#     4   9  18  33  51  71  96 131 174 211 243 286
#     4   9  15  29  50  72  99 130 170 211 244 285
#     4   9  18  33  51  71  96 131 174 211 243 286
#     4  10  20  33  52  77 105 134 165 204 250 300
#     4  10  19  31  50  76 104 133 165 204 251 302
#     4   9  16  31  52  74  98 130 174 211 239 283
#     4  10  19  31  50  76 104 133 165 204 251 302
#
# _framework density 17.033795000000001
#
# number of rings (size 3 to 8) (size 9 to 14) (size 15 to 20)
#    0.000    2.500    2.500    0.375    1.750    1.000 
#    0.000    0.000    0.000    5.250    0.000    3.500 
#    0.000    0.000    0.000    0.000    0.000    0.000 
#
# Total GULP energy -793288.740013 kJ/mol
# GULP energy per Si atom -12395.136563 kJ/mol
# Density = 1.699503 g / cm^3
# Si number density = 17.033795 Si / 1000 Ang^3
#
#
#
# Elastic Constant Matrix: (Units=GPa)
#
#
# Indices 1 2 3 4 5 6 
#
# 1 79.8665 54.3257 34.1743 0.0000 0.0000 0.0000
# 2 54.3257 79.8665 34.1743 0.0000 0.0000 0.0000
# 3 34.1743 34.1743 122.8789 0.0000 0.0000 0.0000
# 4 0.0000 0.0000 0.0000 20.3763 0.0000 0.0000
# 5 0.0000 0.0000 0.0000 0.0000 20.3763 0.0000
# 6 0.0000 0.0000 0.0000 0.0000 0.0000 10.0260
#
#
#
# Elastic Compliance Matrix: (Units=1/GPa)
#
#
# Indices 1 2 3 4 5 6 
#
# 1 0.023917 -0.015236 -0.002415 0.000000 0.000000 0.000000
# 2 -0.015236 0.023917 -0.002415 0.000000 0.000000 0.000000
# 3 -0.002415 -0.002415 0.009481 0.000000 0.000000 0.000000
# 4 0.000000 0.000000 0.000000 0.049077 0.000000 0.000000
# 5 0.000000 0.000000 0.000000 0.000000 0.049077 0.000000
# 6 0.000000 0.000000 0.000000 0.000000 0.000000 0.099740
#
#
# Mechanical properties :
#
#
# Convention : Reuss Voigt Hill
#
# Bulk Modulus (GPa) = 58.18486 58.66231 58.42359
# Shear Modulus (GPa) = 16.60756 20.81822 18.71289
#
# Velocity S-wave (km/s) = 3.12585 3.49975 3.31807
# Velocity P-wave (km/s) = 6.87463 7.13054 7.00375
#
# Compressibility (1/GPa) = 0.01718660
#
# Stress axis : x y z
#
# Youngs Moduli (GPa) = 41.81063 41.81063 105.47276
#
# Poissons Ratio (x) = 0.63701 0.25467
# Poissons Ratio (y) = 0.63701 0.25467
# Poissons Ratio (z) = 0.10095 0.10095
#
# Static dielectric constant tensor:
#      x y z
#    x 2.908210 0.000000 0.000000 
#    y 0.000000 2.908210 0.000000 
#    z 0.000000 0.000000 3.627920 
# 
# 
# High freq. dielectric constant tensor:
#      x y z
#    x 1.631330 0.000000 0.000000 
#    y 0.000000 1.631330 0.000000 
#    z 0.000000 0.000000 1.671170 
# 
# From -- ./inp_files/2660.got.cif
#   From: 2010.03.12/outbox.cif.g09.slc.cpg/sg107_2_cif.got.tgz:2660.got - 2010.04.14 01:49:11.
