data_PCOD8307862
_publ_section_title
;
Structure prediction by ZEFSAII (Michael W. Deem and Ramdas Pophale) SiO2 
 PCOD8307862
Probable space group: I 41 M D
;
_chemical_formula_sum "Si O2"
_cell_formula_units_Z 112
_cell_length_a 16.134005
_cell_length_b 16.134005
_cell_length_c 24.956058
_cell_angle_alpha 90.000000
_cell_angle_beta 90.000000
_cell_angle_gamma 90.000000
_cell_volume 6496.214562
_symmetry_space_group_name_H-M "I 41 M D"
_symmetry_group_IT_number 109
_symmetry_cell_setting 'tetragonal'
loop_
_space_group_symop_operation_xyz
x,y,z
-y,1/2+x,1/4+z
-x,-y,z
y,1/2-x,1/4+z
-x,y,z
x,-y,z
-y,1/2-x,1/4+z
y,1/2+x,1/4+z
1/2+x,1/2+y,1/2+z
1/2-y,x,3/4+z
1/2-x,1/2-y,1/2+z
1/2+y,-x,3/4+z
1/2-x,1/2+y,1/2+z
1/2+x,1/2-y,1/2+z
1/2-y,-x,3/4+z
1/2+y,x,3/4+z
loop_
_atom_site_type_symbol
_atom_site_label
_atom_site_fract_x
_atom_site_fract_y
_atom_site_fract_z
Si Si1 0.000000 0.901764 0.081061
Si Si2 0.000000 0.901854 0.200457
Si Si3 0.143708 0.096772 0.004593
Si Si4 0.229198 0.593639 0.178085
Si Si5 0.157174 0.822111 0.255920
Si Si6 0.749804 0.318196 0.960778
Si Si7 0.800987 0.905191 0.566837
Si Si8 0.747821 0.902531 0.350212
O O1 0.081480 0.870549 0.050219
O O2 0.000000 0.864571 0.140555
O O3 0.000000 0.000000 0.084028
O O4 0.915811 0.871501 0.227412
O O5 0.000000 0.000000 0.201441
O O6 0.233945 0.122281 0.025270
O O7 0.136898 0.000000 0.994565
O O8 0.119285 0.137692 0.947725
O O9 0.251741 0.500000 0.194672
O O10 0.294977 0.653142 0.207722
O O11 0.232150 0.604228 0.113681
O O12 0.236188 0.807617 0.216932
O O13 0.184212 0.873795 0.307482
O O14 0.723358 0.363690 0.906484
O O15 0.740059 0.379537 0.010893
O O16 0.876905 0.844672 0.581734
O O17 0.833485 0.000000 0.563233
O O18 0.749470 0.000000 0.355875
#
# Coordination Sequence:
#
# PCOD8307862 Si02
#       8
#     8   8  16  16  16  16  16  16
#     4   9  20  32  54  76 105 145 185 224 264 313
#     4  11  22  38  54  77 107 145 183 229 282 329
#     4  10  18  34  51  78 108 144 185 221 262 316
#     4   9  17  31  50  75 107 141 174 219 263 312
#     4  10  21  35  54  80 109 139 179 225 271 327
#     4   9  19  34  54  79 105 140 179 219 267 327
#     4   9  18  34  55  78 107 138 176 219 269 317
#     4  10  20  35  57  80 104 139 177 221 276 323
#
# _framework density 17.240808999999999
#
# number of rings (size 3 to 8) (size 9 to 14) (size 15 to 20)
#    0.000    2.429    1.429    0.857    2.000    0.286 
#    2.571    0.714    6.286    2.143    0.000    0.000 
#    0.000    0.000    0.000    0.000    0.000    0.000 
#
# Total GULP energy -694258.237240 kJ/mol
# GULP energy per Si atom -12397.468522 kJ/mol
# Density = 1.720157 g / cm^3
# Si number density = 17.240809 Si / 1000 Ang^3
#
#
#
# Elastic Constant Matrix: (Units=GPa)
#
#
# Indices 1 2 3 4 5 6 
#
# 1 113.1025 44.6695 63.5674 0.0000 0.0000 0.0000
# 2 44.6695 113.1025 63.5674 0.0000 0.0000 0.0000
# 3 63.5674 63.5674 132.6675 0.0000 0.0000 0.0000
# 4 0.0000 0.0000 0.0000 23.9321 0.0000 0.0000
# 5 0.0000 0.0000 0.0000 0.0000 23.9321 0.0000
# 6 0.0000 0.0000 0.0000 0.0000 0.0000 17.2749
#
#
#
# Elastic Compliance Matrix: (Units=1/GPa)
#
#
# Indices 1 2 3 4 5 6 
#
# 1 0.012469 -0.002144 -0.004947 0.000000 0.000000 0.000000
# 2 -0.002144 0.012469 -0.004947 0.000000 0.000000 0.000000
# 3 -0.004947 -0.004947 0.012278 0.000000 0.000000 0.000000
# 4 0.000000 0.000000 0.000000 0.041785 0.000000 0.000000
# 5 0.000000 0.000000 0.000000 0.000000 0.041785 0.000000
# 6 0.000000 0.000000 0.000000 0.000000 0.000000 0.057887
#
#
# Mechanical properties :
#
#
# Convention : Reuss Voigt Hill
#
# Bulk Modulus (GPa) = 76.10630 78.05347 77.07989
# Shear Modulus (GPa) = 24.13953 25.49904 24.81928
#
# Velocity S-wave (km/s) = 3.74590 3.84994 3.79828
# Velocity P-wave (km/s) = 7.93398 8.07053 8.00255
#
# Compressibility (1/GPa) = 0.01313952
#
# Stress axis : x y z
#
# Youngs Moduli (GPa) = 80.20057 80.20057 81.44398
#
# Poissons Ratio (x) = 0.17196 0.40291
# Poissons Ratio (y) = 0.17196 0.40291
# Poissons Ratio (z) = 0.39676 0.39676
#
# Static dielectric constant tensor:
#      x y z
#    x 3.234700 0.000000 0.000000 
#    y 0.000000 3.234700 0.000000 
#    z 0.000000 0.000000 3.334720 
# 
# 
# High freq. dielectric constant tensor:
#      x y z
#    x 1.663530 0.000000 0.000000 
#    y 0.000000 1.663530 0.000000 
#    z 0.000000 0.000000 1.668560 
# 
# From -- ./inp_files/5074.got.cif
#   From: 2010.03.12/outbox.cif.g09.slc.cpg/sg109_3_cif.got.tgz:5074.got - 2010.04.14 01:55:16.
