data_PCOD8307878
_publ_section_title
;
Structure prediction by ZEFSAII (Michael W. Deem and Ramdas Pophale) SiO2 
 PCOD8307878
Probable space group: I 41 M D
;
_chemical_formula_sum "Si O2"
_cell_formula_units_Z 88
_cell_length_a 12.065061
_cell_length_b 12.065061
_cell_length_c 32.906356
_cell_angle_alpha 90.000000
_cell_angle_beta 90.000000
_cell_angle_gamma 90.000000
_cell_volume 4790.036645
_symmetry_space_group_name_H-M "I 41 M D"
_symmetry_group_IT_number 109
_symmetry_cell_setting 'tetragonal'
loop_
_space_group_symop_operation_xyz
x,y,z
-y,1/2+x,1/4+z
-x,-y,z
y,1/2-x,1/4+z
-x,y,z
x,-y,z
-y,1/2-x,1/4+z
y,1/2+x,1/4+z
1/2+x,1/2+y,1/2+z
1/2-y,x,3/4+z
1/2-x,1/2-y,1/2+z
1/2+y,-x,3/4+z
1/2-x,1/2+y,1/2+z
1/2+x,1/2-y,1/2+z
1/2-y,-x,3/4+z
1/2+y,x,3/4+z
loop_
_atom_site_type_symbol
_atom_site_label
_atom_site_fract_x
_atom_site_fract_y
_atom_site_fract_z
Si Si1 0.869764 0.000000 0.757990
Si Si2 0.000000 0.627706 0.188353
Si Si3 0.791536 0.308743 0.239726
Si Si4 0.629919 0.372043 0.968618
Si Si5 0.000000 0.708513 0.099390
Si Si6 0.130500 0.882308 0.377978
Si Si7 0.626558 0.820418 0.827939
O O1 0.808156 0.897013 0.736817
O O2 0.860994 0.000000 0.807338
O O3 0.000000 0.000000 0.746436
O O4 0.885559 0.684573 0.204496
O O5 0.000000 0.631524 0.139188
O O6 0.000000 0.500000 0.202320
O O7 0.725323 0.192435 0.243213
O O8 0.862186 0.330966 0.280015
O O9 0.500000 0.351552 0.974626
O O10 0.658780 0.500000 0.981475
O O11 0.672605 0.349387 0.922723
O O12 0.896764 0.790031 0.102216
O O13 0.164107 0.800383 0.342358
O O14 0.000000 0.893310 0.382280
O O15 0.182851 0.000000 0.365259
O O16 0.500000 0.848414 0.840207
#
# Coordination Sequence:
#
# PCOD8307878 Si02
#       7
#     8   8  16  16   8  16  16
#     4  10  21  38  56  80 104 144 198 242 266 344
#     4  12  23  39  55  82 117 151 182 243 305 351
#     4  11  21  34  56  81 112 149 186 232 294 347
#     4   9  18  34  55  80 110 146 188 239 289 340
#     4  10  22  34  56  77 106 146 194 226 284 344
#     4   8  15  29  49  70  98 137 181 220 270 331
#     4  10  19  33  52  77 109 146 186 230 278 351
#
# _framework density 18.371468
#
# number of rings (size 3 to 8) (size 9 to 14) (size 15 to 20)
#    0.000    2.182    1.818    3.273    0.000    0.727 
#    0.000    1.364    0.000    0.000    0.000    0.000 
#    0.000    0.000    0.000    0.000    0.000    0.000 
#
# Total GULP energy -545142.128985 kJ/mol
# GULP energy per Si atom -12389.593841 kJ/mol
# Density = 1.832965 g / cm^3
# Si number density = 18.371468 Si / 1000 Ang^3
#
#
#
# Elastic Constant Matrix: (Units=GPa)
#
#
# Indices 1 2 3 4 5 6 
#
# 1 94.4290 44.8215 14.0376 0.0000 0.0000 0.0000
# 2 44.8215 94.4290 14.0376 0.0000 0.0000 0.0000
# 3 14.0376 14.0376 47.0446 0.0000 0.0000 0.0000
# 4 0.0000 0.0000 0.0000 21.8593 0.0000 0.0000
# 5 0.0000 0.0000 0.0000 0.0000 21.8593 0.0000
# 6 0.0000 0.0000 0.0000 0.0000 0.0000 8.0306
#
#
#
# Elastic Compliance Matrix: (Units=1/GPa)
#
#
# Indices 1 2 3 4 5 6 
#
# 1 0.013900 -0.006259 -0.002280 0.000000 0.000000 0.000000
# 2 -0.006259 0.013900 -0.002280 0.000000 0.000000 0.000000
# 3 -0.002280 -0.002280 0.022617 0.000000 0.000000 0.000000
# 4 0.000000 0.000000 0.000000 0.045747 0.000000 0.000000
# 5 0.000000 0.000000 0.000000 0.000000 0.045747 0.000000
# 6 0.000000 0.000000 0.000000 0.000000 0.000000 0.124524
#
#
# Mechanical properties :
#
#
# Convention : Reuss Voigt Hill
#
# Bulk Modulus (GPa) = 34.74746 42.41066 38.57906
# Shear Modulus (GPa) = 16.79741 21.21689 19.00715
#
# Velocity S-wave (km/s) = 3.02705 3.40204 3.22001
# Velocity P-wave (km/s) = 5.58321 6.21024 5.90505
#
# Compressibility (1/GPa) = 0.02877908
#
# Stress axis : x y z
#
# Youngs Moduli (GPa) = 71.94448 71.94447 44.21444
#
# Poissons Ratio (x) = 0.45027 0.10081
# Poissons Ratio (y) = 0.45027 0.10081
# Poissons Ratio (z) = 0.16403 0.16403
#
# Static dielectric constant tensor:
#      x y z
#    x 3.276470 0.000000 0.000000 
#    y 0.000000 3.276470 0.000000 
#    z 0.000000 0.000000 3.178460 
# 
# 
# High freq. dielectric constant tensor:
#      x y z
#    x 1.711800 0.000000 0.000000 
#    y 0.000000 1.711800 0.000000 
#    z 0.000000 0.000000 1.696150 
# 
# From -- ./inp_files/5611.got.cif
#   From: 2010.03.12/outbox.cif.g09.slc.cpg/sg109_3_cif.got.tgz:5611.got - 2010.04.14 01:55:16.
