data_PCOD8307554
_publ_section_title
;
Structure prediction by ZEFSAII (Michael W. Deem and Ramdas Pophale) SiO2 
 PCOD8307554
Probable space group: I 4 M M
;
_chemical_formula_sum "Si O2"
_cell_formula_units_Z 96
_cell_length_a 18.392745
_cell_length_b 18.392745
_cell_length_c 15.888533
_cell_angle_alpha 90.000000
_cell_angle_beta 90.000000
_cell_angle_gamma 90.000000
_cell_volume 5374.980585
_symmetry_space_group_name_H-M "I 4 M M"
_symmetry_group_IT_number 107
_symmetry_cell_setting 'tetragonal'
loop_
_space_group_symop_operation_xyz
x,y,z
-y,x,z
-x,-y,z
y,-x,z
-x,y,z
x,-y,z
-y,-x,z
y,x,z
1/2+x,1/2+y,1/2+z
1/2-y,1/2+x,1/2+z
1/2-x,1/2-y,1/2+z
1/2+y,1/2-x,1/2+z
1/2-x,1/2+y,1/2+z
1/2+x,1/2-y,1/2+z
1/2-y,1/2-x,1/2+z
1/2+y,1/2+x,1/2+z
loop_
_atom_site_type_symbol
_atom_site_label
_atom_site_fract_x
_atom_site_fract_y
_atom_site_fract_z
Si Si1 0.698406 0.581008 0.894550
Si Si2 0.643553 0.764309 0.230740
Si Si3 0.643553 0.764309 0.558362
Si Si4 0.710853 0.083623 0.227776
Si Si5 0.210854 0.416378 0.061326
Si Si6 0.300327 0.581788 0.394551
O O1 0.669570 0.500000 0.894546
O O2 0.627345 0.627345 0.894551
O O3 0.743168 0.597651 0.810965
O O4 0.743166 0.597647 0.978137
O O5 0.721054 0.721054 0.230977
O O6 0.651091 0.852147 0.230362
O O7 0.597513 0.742538 0.147043
O O8 0.597538 0.746951 0.312598
O O9 0.721054 0.721054 0.558123
O O10 0.597513 0.742538 0.642059
O O11 0.651092 0.852147 0.558738
O O12 0.597537 0.746951 0.476504
O O13 0.679867 0.000000 0.227744
O O14 0.179866 0.500000 0.061359
O O15 0.326177 0.500000 0.394550
O O16 0.373627 0.626374 0.394551
#
# Coordination Sequence:
#
# PCOD8307554 Si02
#       6
#    16  16  16  16  16  16
#     4  10  19  30  45  67  96 128 163 202 246 294
#     4  10  19  33  54  76 101 134 173 211 250 305
#     4  10  19  33  54  76 101 134 173 211 250 305
#     4  10  19  31  50  74 100 129 165 213 255 290
#     4  10  19  31  50  74 100 129 165 213 255 290
#     4  10  21  36  56  80 104 132 165 206 254 304
#
# _framework density 17.860529
#
# number of rings (size 3 to 8) (size 9 to 14) (size 15 to 20)
#    0.000    2.000    0.000    6.000    0.000    1.667 
#    0.000    0.000    0.000   18.000    0.000    4.667 
#    0.000    0.000    0.000    0.000    0.000    0.000 
#
# Total GULP energy -594640.984666 kJ/mol
# GULP energy per Si atom -12388.353847 kJ/mol
# Density = 1.781988 g / cm^3
# Si number density = 17.860529 Si / 1000 Ang^3
#
#
#
# Elastic Constant Matrix: (Units=GPa)
#
#
# Indices 1 2 3 4 5 6 
#
# 1 99.0303 44.4526 50.9226 0.0000 0.0000 0.0007
# 2 44.4526 99.0303 50.9226 0.0000 0.0000 -0.0007
# 3 50.9226 50.9226 192.1894 0.0000 0.0000 0.0000
# 4 0.0000 0.0000 0.0000 20.9798 0.0000 0.0000
# 5 0.0000 0.0000 0.0000 0.0000 20.9798 0.0000
# 6 0.0007 -0.0007 0.0000 0.0000 0.0000 14.4515
#
#
#
# Elastic Compliance Matrix: (Units=1/GPa)
#
#
# Indices 1 2 3 4 5 6 
#
# 1 0.013453 -0.004869 -0.002274 0.000000 0.000000 -0.000001
# 2 -0.004869 0.013453 -0.002274 0.000000 0.000000 0.000001
# 3 -0.002274 -0.002274 0.006408 0.000000 0.000000 0.000000
# 4 0.000000 0.000000 0.000000 0.047665 0.000000 0.000000
# 5 0.000000 0.000000 0.000000 0.000000 0.047665 0.000000
# 6 -0.000001 0.000001 0.000000 0.000000 0.000000 0.069197
#
#
# Mechanical properties :
#
#
# Convention : Reuss Voigt Hill
#
# Bulk Modulus (GPa) = 69.06738 75.87172 72.46955
# Shear Modulus (GPa) = 22.57296 27.54569 25.05932
#
# Velocity S-wave (km/s) = 3.55892 3.93143 3.74980
# Velocity P-wave (km/s) = 7.45937 7.94862 7.70788
#
# Compressibility (1/GPa) = 0.01447862
#
# Stress axis : x y z
#
# Youngs Moduli (GPa) = 74.33188 74.33188 156.04418
#
# Poissons Ratio (x) = 0.36195 0.35490
# Poissons Ratio (y) = 0.36195 0.35490
# Poissons Ratio (z) = 0.16906 0.16906
#
# Static dielectric constant tensor:
#      x y z
#    x 3.184080 0.000000 0.000000 
#    y 0.000000 3.184080 0.000000 
#    z 0.000000 0.000000 4.305800 
# 
# 
# High freq. dielectric constant tensor:
#      x y z
#    x 1.670190 0.000000 0.000000 
#    y 0.000000 1.670190 0.000000 
#    z 0.000000 0.000000 1.731600 
# 
# From -- ./inp_files/4053.got.cif
#   From: 2010.03.12/outbox.cif.g09.slc.cpg/sg107_3_cif.got.tgz:4053.got - 2010.04.14 01:49:11.
