data_PCOD8307407
_publ_section_title
;
Structure prediction by ZEFSAII (Michael W. Deem and Ramdas Pophale) SiO2 
 PCOD8307407
Probable space group: P 42 B C
;
_chemical_formula_sum "Si O2"
_cell_formula_units_Z 60
_cell_length_a 17.436106
_cell_length_b 17.436106
_cell_length_c 9.796941
_cell_angle_alpha 90.000000
_cell_angle_beta 90.000000
_cell_angle_gamma 90.000000
_cell_volume 2978.444376
_symmetry_space_group_name_H-M "P 42 B C"
_symmetry_group_IT_number 106
_symmetry_cell_setting 'tetragonal'
loop_
_space_group_symop_operation_xyz
x,y,z
-y,x,1/2+z
-x,-y,z
y,-x,1/2+z
1/2-x,1/2+y,z
1/2+x,1/2-y,z
1/2-y,1/2-x,1/2+z
1/2+y,1/2+x,1/2+z
loop_
_atom_site_type_symbol
_atom_site_label
_atom_site_fract_x
_atom_site_fract_y
_atom_site_fract_z
Si Si1 0.000000 0.500000 0.172910
Si Si2 0.163851 0.481657 0.070425
Si Si3 0.364055 0.657487 0.770737
Si Si4 0.817598 0.682403 0.672888
Si Si5 0.788961 0.965891 0.580649
Si Si6 0.342500 0.364041 0.575040
Si Si7 0.034115 0.788969 0.765142
Si Si8 0.018363 0.336134 0.275382
O O1 0.074170 0.499637 0.077175
O O2 0.000454 0.425830 0.268645
O O3 0.178514 0.390380 0.072687
O O4 0.206644 0.526037 0.192235
O O5 0.193821 0.510797 0.922902
O O6 0.320964 0.738908 0.757930
O O7 0.336909 0.600095 0.653919
O O8 0.455082 0.665236 0.751380
O O9 0.346487 0.625672 0.922890
O O10 0.738915 0.679067 0.587815
O O11 0.821410 0.609631 0.773122
O O12 0.775273 0.943385 0.422896
O O13 0.834738 0.044934 0.594404
O O14 0.706636 0.973956 0.653570
O O15 0.399886 0.336900 0.691871
#
# Coordination Sequence:
#
# PCOD8307407 Si02
#       8
#     4   8   8   8   8   8   8   8
#     4  10  22  34  56  86 118 150 188 232 278 328
#     4  10  20  37  59  83 112 150 189 229 277 332
#     4  10  21  39  60  84 113 148 186 230 281 334
#     4   9  20  36  60  86 110 142 188 233 274 328
#     4  10  23  39  58  85 115 145 188 236 280 334
#     4  10  21  39  60  84 113 148 186 230 281 334
#     4  10  23  39  58  85 115 145 188 236 280 334
#     4  10  20  37  59  83 112 150 189 229 277 332
#
# _framework density 20.144742999999998
#
# number of rings (size 3 to 8) (size 9 to 14) (size 15 to 20)
#    0.000    2.133    0.000    2.000    0.000   15.467 
#    0.000    2.667    0.000    0.000    0.000    0.000 
#    0.000    0.000    0.000    0.000    0.000    0.000 
#
# Total GULP energy -743940.914510 kJ/mol
# GULP energy per Si atom -12399.015242 kJ/mol
# Density = 2.009889 g / cm^3
# Si number density = 20.144743 Si / 1000 Ang^3
#
#
#
# Elastic Constant Matrix: (Units=GPa)
#
#
# Indices 1 2 3 4 5 6 
#
# 1 84.4384 52.9959 62.6868 0.0000 0.0000 0.0000
# 2 52.9959 84.4384 62.6868 0.0000 0.0000 0.0000
# 3 62.6868 62.6868 191.8504 0.0000 0.0000 0.0000
# 4 0.0000 0.0000 0.0000 22.6248 0.0000 0.0000
# 5 0.0000 0.0000 0.0000 0.0000 22.6248 0.0000
# 6 0.0000 0.0000 0.0000 0.0000 0.0000 27.8686
#
#
#
# Elastic Compliance Matrix: (Units=1/GPa)
#
#
# Indices 1 2 3 4 5 6 
#
# 1 0.021085 -0.010719 -0.003387 0.000000 0.000000 0.000000
# 2 -0.010719 0.021085 -0.003387 0.000000 0.000000 0.000000
# 3 -0.003387 -0.003387 0.007426 0.000000 0.000000 0.000000
# 4 0.000000 0.000000 0.000000 0.044199 0.000000 0.000000
# 5 0.000000 0.000000 0.000000 0.000000 0.044199 0.000000
# 6 0.000000 0.000000 0.000000 0.000000 0.000000 0.035883
#
#
# Mechanical properties :
#
#
# Convention : Reuss Voigt Hill
#
# Bulk Modulus (GPa) = 68.44814 79.71846 74.08330
# Shear Modulus (GPa) = 23.39360 26.78080 25.08720
#
# Velocity S-wave (km/s) = 3.41145 3.65008 3.53278
# Velocity P-wave (km/s) = 7.04054 7.57778 7.31410
#
# Compressibility (1/GPa) = 0.01460960
#
# Stress axis : x y z
#
# Youngs Moduli (GPa) = 47.42688 47.42688 134.66465
#
# Poissons Ratio (x) = 0.50837 0.45612
# Poissons Ratio (y) = 0.50837 0.45612
# Poissons Ratio (z) = 0.16064 0.16064
#
# Static dielectric constant tensor:
#      x y z
#    x 3.573650 0.000000 0.000000 
#    y 0.000000 3.573650 0.000000 
#    z 0.000000 0.000000 3.689570 
# 
# 
# High freq. dielectric constant tensor:
#      x y z
#    x 1.779960 0.000000 0.000000 
#    y 0.000000 1.779960 0.000000 
#    z 0.000000 0.000000 1.795980 
# 
# From -- ./inp_files/541.got.cif
#   From: 2010.03.12/outbox.cif.g09.slc.cpg/sg106_cif.got.tgz:541.got - 2010.04.14 01:48:02.
