data_PCOD8307393
_publ_section_title
;
Structure prediction by ZEFSAII (Michael W. Deem and Ramdas Pophale) SiO2 
 PCOD8307393
Probable space group: P 42 M C
;
_chemical_formula_sum "Si O2"
_cell_formula_units_Z 32
_cell_length_a 7.933782
_cell_length_b 7.933782
_cell_length_c 24.060729
_cell_angle_alpha 90.000000
_cell_angle_beta 90.000000
_cell_angle_gamma 90.000000
_cell_volume 1514.500104
_symmetry_space_group_name_H-M "P 42 M C"
_symmetry_group_IT_number 105
_symmetry_cell_setting 'tetragonal'
loop_
_space_group_symop_operation_xyz
x,y,z
-y,x,1/2+z
-x,-y,z
y,-x,1/2+z
-x,y,z
x,-y,z
-y,-x,1/2+z
y,x,1/2+z
loop_
_atom_site_type_symbol
_atom_site_label
_atom_site_fract_x
_atom_site_fract_y
_atom_site_fract_z
Si Si1 0.500000 0.298509 0.464401
Si Si2 0.187184 0.692546 0.396119
Si Si3 0.500000 0.701491 0.590980
Si Si4 0.692546 0.187184 0.159262
Si Si5 0.807330 0.192670 0.777690
O O1 0.500000 0.500000 0.459368
O O2 0.668794 0.223804 0.434930
O O3 0.500000 0.236482 0.527690
O O4 0.170210 0.500000 0.413726
O O5 0.246387 0.701977 0.331880
O O6 0.000000 0.778380 0.403584
O O7 0.500000 0.500000 0.596012
O O8 0.668794 0.776196 0.620450
O O9 0.500000 0.170209 0.141655
O O10 0.701977 0.246388 0.223501
O O11 0.778380 0.000000 0.151797
O O12 0.000000 0.227047 0.793408
O O13 0.772954 0.000000 0.761973
#
# Coordination Sequence:
#
# PCOD8307393 Si02
#       5
#     4   8   4   8   8
#     4   9  18  32  49  73 103 135 171 212 259 306
#     4   9  18  31  48  73  99 129 171 214 260 313
#     4   9  18  32  49  73 103 135 171 212 259 306
#     4   9  18  31  48  73  99 129 171 214 260 313
#     4   9  18  32  49  70  98 130 161 202 260 313
#
# _framework density 21.129082
#
# number of rings (size 3 to 8) (size 9 to 14) (size 15 to 20)
#    0.000    3.000    0.000    0.000    3.500    1.000 
#    0.000    5.000    0.000    3.000    0.000    7.000 
#    0.000    0.000    0.000    0.000    0.000    0.000 
#
# Total GULP energy -396512.267734 kJ/mol
# GULP energy per Si atom -12391.008367 kJ/mol
# Density = 2.108099 g / cm^3
# Si number density = 21.129082 Si / 1000 Ang^3
#
#
#
# Elastic Constant Matrix: (Units=GPa)
#
#
# Indices 1 2 3 4 5 6 
#
# 1 71.5051 27.0119 54.9764 0.0000 0.0000 0.0000
# 2 27.0119 71.5051 54.9764 0.0000 0.0000 0.0000
# 3 54.9764 54.9764 158.8938 0.0000 0.0000 0.0000
# 4 0.0000 0.0000 0.0000 5.0660 0.0000 0.0000
# 5 0.0000 0.0000 0.0000 0.0000 5.0660 0.0000
# 6 0.0000 0.0000 0.0000 0.0000 0.0000 10.1906
#
#
#
# Elastic Compliance Matrix: (Units=1/GPa)
#
#
# Indices 1 2 3 4 5 6 
#
# 1 0.019506 -0.002970 -0.005721 0.000000 0.000000 0.000000
# 2 -0.002970 0.019506 -0.005721 0.000000 0.000000 0.000000
# 3 -0.005721 -0.005721 0.010253 0.000000 0.000000 0.000000
# 4 0.000000 0.000000 0.000000 0.197396 0.000000 0.000000
# 5 0.000000 0.000000 0.000000 0.000000 0.197396 0.000000
# 6 0.000000 0.000000 0.000000 0.000000 0.000000 0.098129
#
#
# Mechanical properties :
#
#
# Convention : Reuss Voigt Hill
#
# Bulk Modulus (GPa) = 48.92558 63.98147 56.45353
# Shear Modulus (GPa) = 8.65317 15.06048 11.85682
#
# Velocity S-wave (km/s) = 2.02590 2.67270 2.37145
# Velocity P-wave (km/s) = 5.35520 6.31438 5.85447
#
# Compressibility (1/GPa) = 0.02043921
#
# Stress axis : x y z
#
# Youngs Moduli (GPa) = 51.26713 51.26713 97.53582
#
# Poissons Ratio (x) = 0.15224 0.55804
# Poissons Ratio (y) = 0.15224 0.55804
# Poissons Ratio (z) = 0.29332 0.29332
#
# Static dielectric constant tensor:
#      x y z
#    x 3.774830 0.000000 0.000000 
#    y 0.000000 3.774830 0.000000 
#    z 0.000000 0.000000 3.773160 
# 
# 
# High freq. dielectric constant tensor:
#      x y z
#    x 1.806860 0.000000 0.000000 
#    y 0.000000 1.806860 0.000000 
#    z 0.000000 0.000000 1.817650 
# 
# From -- ./inp_files/3343.got.cif
#   From: 2010.03.12/outbox.cif.g09.slc.cpg/sg105_2_cif.got.tgz:3343.got - 2010.04.14 01:45:32.
