data_PCOD8307958
_publ_section_title
;
Structure prediction by ZEFSAII (Michael W. Deem and Ramdas Pophale) SiO2 
 PCOD8307958
Probable space group: I 41 M D
;
_chemical_formula_sum "Si O2"
_cell_formula_units_Z 112
_cell_length_a 28.704154
_cell_length_b 28.704154
_cell_length_c 6.733177
_cell_angle_alpha 90.000000
_cell_angle_beta 90.000000
_cell_angle_gamma 90.000000
_cell_volume 5547.656135
_symmetry_space_group_name_H-M "I 41 M D"
_symmetry_group_IT_number 109
_symmetry_cell_setting 'tetragonal'
loop_
_space_group_symop_operation_xyz
x,y,z
-y,1/2+x,1/4+z
-x,-y,z
y,1/2-x,1/4+z
-x,y,z
x,-y,z
-y,1/2-x,1/4+z
y,1/2+x,1/4+z
1/2+x,1/2+y,1/2+z
1/2-y,x,3/4+z
1/2-x,1/2-y,1/2+z
1/2+y,-x,3/4+z
1/2-x,1/2+y,1/2+z
1/2+x,1/2-y,1/2+z
1/2-y,-x,3/4+z
1/2+y,x,3/4+z
loop_
_atom_site_type_symbol
_atom_site_label
_atom_site_fract_x
_atom_site_fract_y
_atom_site_fract_z
Si Si1 0.122973 0.217547 0.959640
Si Si2 0.186196 0.746413 0.631368
Si Si3 0.286067 0.052806 0.370101
Si Si4 0.608428 0.223423 0.839134
Si Si5 0.610931 0.119298 0.781854
Si Si6 0.553450 0.947726 0.048133
Si Si7 0.948359 0.109121 0.680188
O O1 0.167273 0.222213 0.813064
O O2 0.077818 0.227944 0.825602
O O3 0.127525 0.254973 0.134715
O O4 0.121650 0.166579 0.056310
O O5 0.221317 0.708966 0.715960
O O6 0.147034 0.718250 0.511424
O O7 0.256824 0.068571 0.177557
O O8 0.340898 0.061035 0.324558
O O9 0.273229 0.000000 0.408533
O O10 0.589894 0.171514 0.789151
O O11 0.597595 0.093287 0.579384
O O12 0.588323 0.089209 0.954618
O O13 0.500000 0.931792 0.021817
O O14 0.566477 0.948256 0.278760
O O15 0.560347 0.000000 0.959721
O O16 0.000000 0.111360 0.782731
#
# Coordination Sequence:
#
# PCOD8307958 Si02
#       7
#    16  16  16  16  16  16  16
#     4  10  22  40  59  85 120 158 203 250 300 357
#     4  11  25  38  60  86 118 158 204 251 299 357
#     4   9  20  38  59  85 114 153 204 250 295 358
#     4  11  23  38  57  86 123 159 195 247 308 364
#     4  11  22  36  61  87 119 154 202 246 300 358
#     4  10  22  40  62  89 120 154 196 250 310 369
#     4   9  19  38  62  85 111 151 200 251 299 354
#
# _framework density 20.188706
#
# number of rings (size 3 to 8) (size 9 to 14) (size 15 to 20)
#    0.000    1.857    0.000    3.000    4.000    6.857 
#    0.000    1.429    0.000    0.000    0.000    0.000 
#    0.000    0.000    0.000    0.000    0.000    0.000 
#
# Total GULP energy -694311.597200 kJ/mol
# GULP energy per Si atom -12398.421379 kJ/mol
# Density = 2.014276 g / cm^3
# Si number density = 20.188706 Si / 1000 Ang^3
#
#
#
# Elastic Constant Matrix: (Units=GPa)
#
#
# Indices 1 2 3 4 5 6 
#
# 1 91.7801 14.8962 32.6268 0.0000 0.0000 0.0000
# 2 14.8962 91.7801 32.6268 0.0000 0.0000 0.0000
# 3 32.6268 32.6268 82.7371 0.0000 0.0000 0.0000
# 4 0.0000 0.0000 0.0000 32.3023 0.0000 0.0000
# 5 0.0000 0.0000 0.0000 0.0000 32.3023 0.0000
# 6 0.0000 0.0000 0.0000 0.0000 0.0000 14.8221
#
#
#
# Elastic Compliance Matrix: (Units=1/GPa)
#
#
# Indices 1 2 3 4 5 6 
#
# 1 0.012680 -0.000326 -0.004872 0.000000 0.000000 0.000000
# 2 -0.000326 0.012680 -0.004872 0.000000 0.000000 0.000000
# 3 -0.004872 -0.004872 0.015929 0.000000 0.000000 0.000000
# 4 0.000000 0.000000 0.000000 0.030958 0.000000 0.000000
# 5 0.000000 0.000000 0.000000 0.000000 0.030958 0.000000
# 6 0.000000 0.000000 0.000000 0.000000 0.000000 0.067467
#
#
# Mechanical properties :
#
#
# Convention : Reuss Voigt Hill
#
# Bulk Modulus (GPa) = 47.28123 47.39964 47.34044
# Shear Modulus (GPa) = 25.27027 28.29520 26.78274
#
# Velocity S-wave (km/s) = 3.54178 3.74777 3.64623
# Velocity P-wave (km/s) = 6.34004 6.50054 6.42079
#
# Compressibility (1/GPa) = 0.02115004
#
# Stress axis : x y z
#
# Youngs Moduli (GPa) = 78.86173 78.86173 62.77934
#
# Poissons Ratio (x) = 0.02572 0.30585
# Poissons Ratio (y) = 0.02572 0.30585
# Poissons Ratio (z) = 0.38420 0.38420
#
# Static dielectric constant tensor:
#      x y z
#    x 3.662870 0.000000 0.000000 
#    y 0.000000 3.662870 0.000000 
#    z 0.000000 0.000000 3.599770 
# 
# 
# High freq. dielectric constant tensor:
#      x y z
#    x 1.786790 0.000000 0.000000 
#    y 0.000000 1.786790 0.000000 
#    z 0.000000 0.000000 1.787440 
# 
# From -- ./inp_files/728.got.cif
#   From: 2010.03.12/outbox.cif.g09.slc.cpg/sg109_1_cif.got.tgz:728.got - 2010.04.14 01:55:16.
