data_PCOD8307916
_publ_section_title
;
Structure prediction by ZEFSAII (Michael W. Deem and Ramdas Pophale) SiO2 
 PCOD8307916
Probable space group: I 41 M D
;
_chemical_formula_sum "Si O2"
_cell_formula_units_Z 64
_cell_length_a 17.423083
_cell_length_b 17.423083
_cell_length_c 10.546845
_cell_angle_alpha 90.000000
_cell_angle_beta 90.000000
_cell_angle_gamma 90.000000
_cell_volume 3201.640570
_symmetry_space_group_name_H-M "I 41 M D"
_symmetry_group_IT_number 109
_symmetry_cell_setting 'tetragonal'
loop_
_space_group_symop_operation_xyz
x,y,z
-y,1/2+x,1/4+z
-x,-y,z
y,1/2-x,1/4+z
-x,y,z
x,-y,z
-y,1/2-x,1/4+z
y,1/2+x,1/4+z
1/2+x,1/2+y,1/2+z
1/2-y,x,3/4+z
1/2-x,1/2-y,1/2+z
1/2+y,-x,3/4+z
1/2-x,1/2+y,1/2+z
1/2+x,1/2-y,1/2+z
1/2-y,-x,3/4+z
1/2+y,x,3/4+z
loop_
_atom_site_type_symbol
_atom_site_label
_atom_site_fract_x
_atom_site_fract_y
_atom_site_fract_z
Si Si1 0.332416 0.408945 0.800720
Si Si2 0.185621 0.590023 0.062914
Si Si3 0.849700 0.836973 0.553412
Si Si4 0.909517 0.915160 0.045202
O O1 0.316858 0.500000 0.808455
O O2 0.253526 0.362535 0.785980
O O3 0.382729 0.383674 0.680852
O O4 0.378442 0.382270 0.927640
O O5 0.206595 0.500000 0.073393
O O6 0.260409 0.642780 0.067329
O O7 0.136078 0.620523 0.180196
O O8 0.138615 0.604897 0.931658
O O9 0.000000 0.916958 0.044866
O O10 0.875420 0.000000 0.024034
#
# Coordination Sequence:
#
# PCOD8307916 Si02
#       4
#    16  16  16  16
#     4  10  22  38  57  84 113 144 187 230 272 330
#     4  10  22  38  57  84 113 144 187 230 272 330
#     4  10  20  35  56  80 114 147 178 226 276 322
#     4   9  20  39  60  83 112 145 184 230 276 326
#
# _framework density 19.989751999999999
#
# number of rings (size 3 to 8) (size 9 to 14) (size 15 to 20)
#    0.000    2.250    0.000    3.000    0.000   14.000 
#    0.000    5.000    0.000    6.750    0.000    0.000 
#    0.000    0.000    0.000    0.000    0.000    0.000 
#
# Total GULP energy -396606.608143 kJ/mol
# GULP energy per Si atom -12393.956504 kJ/mol
# Density = 1.994425 g / cm^3
# Si number density = 19.989752 Si / 1000 Ang^3
#
#
#
# Elastic Constant Matrix: (Units=GPa)
#
#
# Indices 1 2 3 4 5 6 
#
# 1 25.5024 13.7866 8.9329 0.0000 0.0000 0.0000
# 2 13.7866 25.5024 8.9329 0.0000 0.0000 0.0000
# 3 8.9329 8.9329 142.7825 0.0000 0.0000 0.0000
# 4 0.0000 0.0000 0.0000 41.6273 0.0000 0.0000
# 5 0.0000 0.0000 0.0000 0.0000 41.6273 0.0000
# 6 0.0000 0.0000 0.0000 0.0000 0.0000 28.9483
#
#
#
# Elastic Compliance Matrix: (Units=1/GPa)
#
#
# Indices 1 2 3 4 5 6 
#
# 1 0.055776 -0.029578 -0.001639 0.000000 0.000000 0.000000
# 2 -0.029578 0.055776 -0.001639 0.000000 0.000000 0.000000
# 3 -0.001639 -0.001639 0.007209 0.000000 0.000000 0.000000
# 4 0.000000 0.000000 0.000000 0.024023 0.000000 0.000000
# 5 0.000000 0.000000 0.000000 0.000000 0.024023 0.000000
# 6 0.000000 0.000000 0.000000 0.000000 0.000000 0.034544
#
#
# Mechanical properties :
#
#
# Convention : Reuss Voigt Hill
#
# Bulk Modulus (GPa) = 18.85080 28.56580 23.70830
# Shear Modulus (GPa) = 17.55950 33.24955 25.40453
#
# Velocity S-wave (km/s) = 2.96704 4.08282 3.56880
# Velocity P-wave (km/s) = 4.60309 6.04542 5.37288
#
# Compressibility (1/GPa) = 0.05304814
#
# Stress axis : x y z
#
# Youngs Moduli (GPa) = 17.92884 17.92884 138.72038
#
# Poissons Ratio (x) = 0.53031 0.22737
# Poissons Ratio (y) = 0.53031 0.22737
# Poissons Ratio (z) = 0.02939 0.02939
#
# Static dielectric constant tensor:
#      x y z
#    x 3.511310 0.000000 0.000000 
#    y 0.000000 3.511310 0.000000 
#    z 0.000000 0.000000 4.386900 
# 
# 
# High freq. dielectric constant tensor:
#      x y z
#    x 1.765940 0.000000 0.000000 
#    y 0.000000 1.765940 0.000000 
#    z 0.000000 0.000000 1.809420 
# 
# From -- ./inp_files/1848.got.cif
#   From: 2010.03.12/outbox.cif.g09.slc.cpg/sg109_1_cif.got.tgz:1848.got - 2010.04.14 01:55:16.
