data_PCOD8307960
_publ_section_title
;
Structure prediction by ZEFSAII (Michael W. Deem and Ramdas Pophale) SiO2 
 PCOD8307960
Probable space group: I 41 M D
;
_chemical_formula_sum "Si O2"
_cell_formula_units_Z 48
_cell_length_a 16.869671
_cell_length_b 16.869671
_cell_length_c 7.634750
_cell_angle_alpha 90.000000
_cell_angle_beta 90.000000
_cell_angle_gamma 90.000000
_cell_volume 2172.741434
_symmetry_space_group_name_H-M "I 41 M D"
_symmetry_group_IT_number 109
_symmetry_cell_setting 'tetragonal'
loop_
_space_group_symop_operation_xyz
x,y,z
-y,1/2+x,1/4+z
-x,-y,z
y,1/2-x,1/4+z
-x,y,z
x,-y,z
-y,1/2-x,1/4+z
y,1/2+x,1/4+z
1/2+x,1/2+y,1/2+z
1/2-y,x,3/4+z
1/2-x,1/2-y,1/2+z
1/2+y,-x,3/4+z
1/2-x,1/2+y,1/2+z
1/2+x,1/2-y,1/2+z
1/2-y,-x,3/4+z
1/2+y,x,3/4+z
loop_
_atom_site_type_symbol
_atom_site_label
_atom_site_fract_x
_atom_site_fract_y
_atom_site_fract_z
Si Si1 0.319380 0.590251 0.637990
Si Si2 0.152092 0.347908 0.737933
Si Si3 0.180620 0.590251 0.087877
O O1 0.298684 0.500000 0.589051
O O2 0.240224 0.642081 0.658614
O O3 0.374438 0.625561 0.487933
O O4 0.364170 0.592169 0.826778
O O5 0.142081 0.259776 0.817253
O O6 0.135830 0.407831 0.899088
O O7 0.201315 0.500000 0.136817
#
# Coordination Sequence:
#
# PCOD8307960 Si02
#       3
#    16  16  16
#     4  11  25  42  67 101 135 175 225 282 340 402
#     4  10  22  40  70  93 130 172 231 282 322 396
#     4  11  25  42  67 101 135 175 225 282 340 402
#
# _framework density 22.091904
#
# number of rings (size 3 to 8) (size 9 to 14) (size 15 to 20)
#    0.000    1.333    0.000    6.000   18.667    8.667 
#    0.000    0.000    0.000    9.000    0.000    0.000 
#    0.000    0.000    0.000    0.000    0.000    0.000 
#
# Total GULP energy -297491.885051 kJ/mol
# GULP energy per Si atom -12395.495210 kJ/mol
# Density = 2.204162 g / cm^3
# Si number density = 22.091904 Si / 1000 Ang^3
#
#
#
# Elastic Constant Matrix: (Units=GPa)
#
#
# Indices 1 2 3 4 5 6 
#
# 1 113.4010 84.1969 44.1046 0.0000 0.0000 0.0000
# 2 84.1969 113.4010 44.1046 0.0000 0.0000 0.0000
# 3 44.1046 44.1046 135.3450 0.0000 0.0000 0.0000
# 4 0.0000 0.0000 0.0000 8.1881 0.0000 0.0000
# 5 0.0000 0.0000 0.0000 0.0000 8.1881 0.0000
# 6 0.0000 0.0000 0.0000 0.0000 0.0000 6.3248
#
#
#
# Elastic Compliance Matrix: (Units=1/GPa)
#
#
# Indices 1 2 3 4 5 6 
#
# 1 0.020082 -0.014160 -0.001930 0.000000 0.000000 0.000000
# 2 -0.014160 0.020082 -0.001930 0.000000 0.000000 0.000000
# 3 -0.001930 -0.001930 0.008646 0.000000 0.000000 0.000000
# 4 0.000000 0.000000 0.000000 0.122129 0.000000 0.000000
# 5 0.000000 0.000000 0.000000 0.000000 0.122129 0.000000
# 6 0.000000 0.000000 0.000000 0.000000 0.000000 0.158108
#
#
# Mechanical properties :
#
#
# Convention : Reuss Voigt Hill
#
# Bulk Modulus (GPa) = 78.30027 78.55103 78.42565
# Shear Modulus (GPa) = 10.17351 17.18958 13.68154
#
# Velocity S-wave (km/s) = 2.14827 2.79246 2.49128
# Velocity P-wave (km/s) = 6.45549 6.78460 6.62209
#
# Compressibility (1/GPa) = 0.01277135
#
# Stress axis : x y z
#
# Youngs Moduli (GPa) = 49.79582 49.79582 115.65635
#
# Poissons Ratio (x) = 0.70509 0.22320
# Poissons Ratio (y) = 0.70509 0.22320
# Poissons Ratio (z) = 0.09610 0.09610
#
# Static dielectric constant tensor:
#      x y z
#    x 3.799540 0.000000 0.000000 
#    y 0.000000 3.799540 0.000000 
#    z 0.000000 0.000000 4.699950 
# 
# 
# High freq. dielectric constant tensor:
#      x y z
#    x 1.849750 0.000000 0.000000 
#    y 0.000000 1.849750 0.000000 
#    z 0.000000 0.000000 1.900650 
# 
# From -- ./inp_files/944.got.cif
#   From: 2010.03.12/outbox.cif.g09.slc.cpg/sg109_1_cif.got.tgz:944.got - 2010.04.14 01:55:16.
