data_PCOD8307112
_publ_section_title
;
Structure prediction by ZEFSAII (Michael W. Deem and Ramdas Pophale) SiO2 
 PCOD8307112
Probable space group: P 42 M C
;
_chemical_formula_sum "Si O2"
_cell_formula_units_Z 48
_cell_length_a 12.070671
_cell_length_b 12.070671
_cell_length_c 19.081144
_cell_angle_alpha 90.000000
_cell_angle_beta 90.000000
_cell_angle_gamma 90.000000
_cell_volume 2780.143639
_symmetry_space_group_name_H-M "P 42 M C"
_symmetry_group_IT_number 105
_symmetry_cell_setting 'tetragonal'
loop_
_space_group_symop_operation_xyz
x,y,z
-y,x,1/2+z
-x,-y,z
y,-x,1/2+z
-x,y,z
x,-y,z
-y,-x,1/2+z
y,x,1/2+z
loop_
_atom_site_type_symbol
_atom_site_label
_atom_site_fract_x
_atom_site_fract_y
_atom_site_fract_z
Si Si1 0.624526 0.500000 0.191561
Si Si2 0.500000 0.624526 0.525350
Si Si3 0.736041 0.709200 0.691539
Si Si4 0.263959 0.709200 0.525371
Si Si5 0.500000 0.875847 0.191635
Si Si6 0.129675 0.124514 0.278506
Si Si7 0.129675 0.124514 0.938404
Si Si8 0.124153 0.500000 0.525275
O O1 0.500000 0.500000 0.223160
O O2 0.614098 0.500000 0.108455
O O3 0.690204 0.390581 0.216389
O O4 0.500000 0.500000 0.493750
O O5 0.390581 0.690204 0.500522
O O6 0.743101 0.724339 0.608455
O O7 0.810151 0.607028 0.718293
O O8 0.784321 0.817857 0.727751
O O9 0.215679 0.817857 0.489159
O O10 0.189849 0.607027 0.498617
O O11 0.500000 0.879691 0.108455
O O12 0.500000 0.000000 0.223107
O O13 0.156607 0.156607 0.358455
O O14 0.000000 0.128046 0.264812
O O15 0.173718 0.000000 0.261836
O O16 0.000000 0.128046 0.952098
O O17 0.173718 0.000000 0.955074
O O18 0.000000 0.500000 0.493803
#
# Coordination Sequence:
#
# PCOD8307112 Si02
#       8
#     4   4   8   8   4   8   8   4
#     4   9  16  30  50  73 103 138 166 195 244 301
#     4   9  16  30  50  73 103 138 166 195 244 301
#     4  10  18  30  51  76 101 130 168 208 246 294
#     4  10  18  30  51  76 101 130 168 208 246 294
#     4   9  16  25  42  73 105 125 153 206 257 287
#     4   9  19  36  54  71  97 133 167 204 256 308
#     4   9  19  36  54  71  97 133 167 204 256 308
#     4   9  16  25  42  73 105 125 153 206 257 287
#
# _framework density 17.265294999999998
#
# number of rings (size 3 to 8) (size 9 to 14) (size 15 to 20)
#    0.000    2.667    1.667    2.000    0.000    2.667 
#    0.000    4.167    0.000    7.000    0.000    0.000 
#    0.000    0.000    0.000    0.000    0.000    0.000 
#
# Total GULP energy -595098.974038 kJ/mol
# GULP energy per Si atom -12397.895292 kJ/mol
# Density = 1.722600 g / cm^3
# Si number density = 17.265295 Si / 1000 Ang^3
#
#
#
# Elastic Constant Matrix: (Units=GPa)
#
#
# Indices 1 2 3 4 5 6 
#
# 1 113.1792 56.7353 39.8693 0.0000 0.0000 0.0000
# 2 56.7353 113.1792 39.8693 0.0000 0.0000 0.0000
# 3 39.8693 39.8693 40.8283 0.0000 0.0000 0.0000
# 4 0.0000 0.0000 0.0000 15.6328 0.0000 0.0000
# 5 0.0000 0.0000 0.0000 0.0000 15.6328 0.0000
# 6 0.0000 0.0000 0.0000 0.0000 0.0000 34.0943
#
#
#
# Elastic Compliance Matrix: (Units=1/GPa)
#
#
# Indices 1 2 3 4 5 6 
#
# 1 0.014290 -0.003426 -0.010609 0.000000 0.000000 0.000000
# 2 -0.003426 0.014290 -0.010609 0.000000 0.000000 0.000000
# 3 -0.010609 -0.010609 0.045212 0.000000 0.000000 0.000000
# 4 0.000000 0.000000 0.000000 0.063968 0.000000 0.000000
# 5 0.000000 0.000000 0.000000 0.000000 0.063968 0.000000
# 6 0.000000 0.000000 0.000000 0.000000 0.000000 0.029330
#
#
# Mechanical properties :
#
#
# Convention : Reuss Voigt Hill
#
# Bulk Modulus (GPa) = 40.80835 60.01495 50.41165
# Shear Modulus (GPa) = 17.33016 21.78616 19.55816
#
# Velocity S-wave (km/s) = 3.17165 3.55610 3.36936
# Velocity P-wave (km/s) = 6.09096 7.19007 6.66322
#
# Compressibility (1/GPa) = 0.02450479
#
# Stress axis : x y z
#
# Youngs Moduli (GPa) = 69.97773 69.97773 22.11820
#
# Poissons Ratio (x) = 0.23978 0.23464
# Poissons Ratio (y) = 0.23978 0.23464
# Poissons Ratio (z) = 0.74237 0.74237
#
# Static dielectric constant tensor:
#      x y z
#    x 3.290360 0.000000 0.000000 
#    y 0.000000 3.290360 0.000000 
#    z 0.000000 0.000000 2.806440 
# 
# 
# High freq. dielectric constant tensor:
#      x y z
#    x 1.670790 0.000000 0.000000 
#    y 0.000000 1.670790 0.000000 
#    z 0.000000 0.000000 1.624250 
# 
# From -- ./inp_files/3705.got.cif
#   From: 2010.03.12/outbox.cif.g09.slc.cpg/sg105_2_cif.got.tgz:3705.got - 2010.04.14 01:45:32.
