data_PCOD8307618
_publ_section_title
;
Structure prediction by ZEFSAII (Michael W. Deem and Ramdas Pophale) SiO2 
 PCOD8307618
Probable space group: I 4 M M
;
_chemical_formula_sum "Si O2"
_cell_formula_units_Z 96
_cell_length_a 13.907990
_cell_length_b 13.907990
_cell_length_c 29.899508
_cell_angle_alpha 90.000000
_cell_angle_beta 90.000000
_cell_angle_gamma 90.000000
_cell_volume 5783.527188
_symmetry_space_group_name_H-M "I 4 M M"
_symmetry_group_IT_number 107
_symmetry_cell_setting 'tetragonal'
loop_
_space_group_symop_operation_xyz
x,y,z
-y,x,z
-x,-y,z
y,-x,z
-x,y,z
x,-y,z
-y,-x,z
y,x,z
1/2+x,1/2+y,1/2+z
1/2-y,1/2+x,1/2+z
1/2-x,1/2-y,1/2+z
1/2+y,1/2-x,1/2+z
1/2-x,1/2+y,1/2+z
1/2+x,1/2-y,1/2+z
1/2-y,1/2-x,1/2+z
1/2+y,1/2+x,1/2+z
loop_
_atom_site_type_symbol
_atom_site_label
_atom_site_fract_x
_atom_site_fract_y
_atom_site_fract_z
Si Si1 0.109749 0.736489 0.811630
Si Si2 0.229799 0.386330 0.643318
Si Si3 0.732552 0.110926 0.912519
Si Si4 0.608960 0.112113 0.229190
Si Si5 0.264940 0.109490 0.473686
Si Si6 0.766225 0.610776 0.077310
O O1 0.165645 0.834356 0.803327
O O2 0.127181 0.696217 0.861647
O O3 0.144302 0.658275 0.775635
O O4 0.000000 0.764010 0.804159
O O5 0.248575 0.500000 0.639802
O O6 0.331772 0.331772 0.639665
O O7 0.179475 0.355974 0.689618
O O8 0.158335 0.354713 0.603710
O O9 0.830203 0.169798 0.922040
O O10 0.647704 0.145587 0.944944
O O11 0.755461 0.000000 0.922358
O O12 0.500000 0.143432 0.216890
O O13 0.614773 0.000000 0.237151
O O14 0.169119 0.169119 0.462114
O O15 0.293250 0.119548 0.525407
O O16 0.243418 0.000000 0.460594
O O17 0.752234 0.500000 0.091697
O O18 0.667012 0.667012 0.088115
#
# Coordination Sequence:
#
# PCOD8307618 Si02
#       6
#    16  16  16  16  16  16
#     4   9  17  29  45  65  90 119 149 183 223 267
#     4  10  20  33  49  68  91 121 156 193 230 267
#     4   9  18  31  46  66  92 122 157 194 230 269
#     4   9  17  29  46  68  91 115 146 184 226 273
#     4   9  18  32  49  70  95 121 150 185 225 271
#     4   9  18  32  50  72  96 121 149 182 223 272
#
# _framework density 16.598866999999998
#
# number of rings (size 3 to 8) (size 9 to 14) (size 15 to 20)
#    0.000    2.833    0.000    1.000    0.000    3.500 
#    0.000    6.667    0.000    0.000    0.000    7.000 
#    0.000    4.000    0.000    0.000    0.000    0.000 
#
# Total GULP energy -595168.216321 kJ/mol
# GULP energy per Si atom -12399.337840 kJ/mol
# Density = 1.656109 g / cm^3
# Si number density = 16.598867 Si / 1000 Ang^3
#
#
#
# Elastic Constant Matrix: (Units=GPa)
#
#
# Indices 1 2 3 4 5 6 
#
# 1 96.3121 49.8564 55.4757 0.0000 0.0000 0.0001
# 2 49.8564 96.3121 55.4757 0.0000 0.0000 -0.0001
# 3 55.4757 55.4757 85.5918 0.0000 0.0000 0.0000
# 4 0.0000 0.0000 0.0000 27.8289 0.0000 0.0000
# 5 0.0000 0.0000 0.0000 0.0000 27.8289 0.0000
# 6 0.0001 -0.0001 0.0000 0.0000 0.0000 18.4807
#
#
#
# Elastic Compliance Matrix: (Units=1/GPa)
#
#
# Indices 1 2 3 4 5 6 
#
# 1 0.017496 -0.004029 -0.008728 0.000000 0.000000 0.000000
# 2 -0.004029 0.017496 -0.008728 0.000000 0.000000 0.000000
# 3 -0.008728 -0.008728 0.022998 0.000000 0.000000 0.000000
# 4 0.000000 0.000000 0.000000 0.035934 0.000000 0.000000
# 5 0.000000 0.000000 0.000000 0.000000 0.035934 0.000000
# 6 0.000000 0.000000 0.000000 0.000000 0.000000 0.054111
#
#
# Mechanical properties :
#
#
# Convention : Reuss Voigt Hill
#
# Bulk Modulus (GPa) = 66.58738 66.64796 66.61767
# Shear Modulus (GPa) = 21.55657 22.65492 22.10575
#
# Velocity S-wave (km/s) = 3.60763 3.69839 3.65329
# Velocity P-wave (km/s) = 7.58657 7.64701 7.61685
#
# Compressibility (1/GPa) = 0.01501786
#
# Stress axis : x y z
#
# Youngs Moduli (GPa) = 57.15467 57.15467 43.48211
#
# Poissons Ratio (x) = 0.23030 0.37953
# Poissons Ratio (y) = 0.23030 0.37953
# Poissons Ratio (z) = 0.49887 0.49887
#
# Static dielectric constant tensor:
#      x y z
#    x 3.072130 0.000000 0.000000 
#    y 0.000000 3.072130 0.000000 
#    z 0.000000 0.000000 3.288340 
# 
# 
# High freq. dielectric constant tensor:
#      x y z
#    x 1.633410 0.000000 0.000000 
#    y 0.000000 1.633410 0.000000 
#    z 0.000000 0.000000 1.647170 
# 
# From -- ./inp_files/4747.got.cif
#   From: 2010.03.12/outbox.cif.g09.slc.cpg/sg107_3_cif.got.tgz:4747.got - 2010.04.14 01:49:11.
