data_PCOD8307312
_publ_section_title
;
Structure prediction by ZEFSAII (Michael W. Deem and Ramdas Pophale) SiO2 
 PCOD8307312
Probable space group: P 42 M C
;
_chemical_formula_sum "Si O2"
_cell_formula_units_Z 48
_cell_length_a 9.368730
_cell_length_b 9.368730
_cell_length_c 30.777750
_cell_angle_alpha 90.000000
_cell_angle_beta 90.000000
_cell_angle_gamma 90.000000
_cell_volume 2701.458584
_symmetry_space_group_name_H-M "P 42 M C"
_symmetry_group_IT_number 105
_symmetry_cell_setting 'tetragonal'
loop_
_space_group_symop_operation_xyz
x,y,z
-y,x,1/2+z
-x,-y,z
y,-x,1/2+z
-x,y,z
x,-y,z
-y,-x,1/2+z
y,x,1/2+z
loop_
_atom_site_type_symbol
_atom_site_label
_atom_site_fract_x
_atom_site_fract_y
_atom_site_fract_z
Si Si1 0.167368 0.334964 0.614580
Si Si2 0.666643 0.834321 0.542672
Si Si3 0.166195 0.166436 0.200027
Si Si4 0.331231 0.343294 0.368128
Si Si5 0.156986 0.330923 0.945566
Si Si6 0.662693 0.669468 0.271446
O O1 0.211122 0.500000 0.619893
O O2 0.245635 0.268338 0.573599
O O3 0.216970 0.250422 0.657334
O O4 0.000000 0.317002 0.606918
O O5 0.500000 0.813033 0.552095
O O6 0.705569 0.784717 0.493629
O O7 0.708791 0.000000 0.549774
O O8 0.226019 0.253731 0.240420
O O9 0.000000 0.202045 0.193524
O O10 0.191596 0.000000 0.209086
O O11 0.500000 0.353587 0.374069
O O12 0.263015 0.500000 0.372030
O O13 0.262512 0.251213 0.407075
O O14 0.298275 0.279625 0.320393
O O15 0.149333 0.500000 0.940322
O O16 0.000000 0.264936 0.940248
O O17 0.500000 0.714130 0.259888
O O18 0.679464 0.500000 0.267440
#
# Coordination Sequence:
#
# PCOD8307312 Si02
#       6
#     8   8   8   8   8   8
#     4  10  21  36  53  73  97 126 162 203 246 293
#     4   9  18  32  50  74 103 132 163 200 242 289
#     4  10  21  36  53  72  94 124 162 201 243 292
#     4   8  14  25  42  66  96 127 157 191 234 282
#     4   8  14  25  42  67  98 128 159 196 236 279
#     4   9  18  32  50  74 102 129 159 197 241 289
#
# _framework density 17.768180000000001
#
# number of rings (size 3 to 8) (size 9 to 14) (size 15 to 20)
#    0.000    3.000    0.000    3.000    0.000    4.667 
#    0.000    3.333    0.000    1.000    0.000    0.000 
#    0.000    0.000    0.000    0.000    0.000    0.000 
#
# Total GULP energy -594998.685482 kJ/mol
# GULP energy per Si atom -12395.805948 kJ/mol
# Density = 1.772774 g / cm^3
# Si number density = 17.768180 Si / 1000 Ang^3
#
#
#
# Elastic Constant Matrix: (Units=GPa)
#
#
# Indices 1 2 3 4 5 6 
#
# 1 68.7270 38.6254 65.2056 0.0000 0.0000 0.0000
# 2 38.6254 68.7270 65.2056 0.0000 0.0000 0.0000
# 3 65.2056 65.2056 160.2098 0.0000 0.0000 0.0000
# 4 0.0000 0.0000 0.0000 4.6521 0.0000 0.0000
# 5 0.0000 0.0000 0.0000 0.0000 4.6521 0.0000
# 6 0.0000 0.0000 0.0000 0.0000 0.0000 24.9677
#
#
#
# Elastic Compliance Matrix: (Units=1/GPa)
#
#
# Indices 1 2 3 4 5 6 
#
# 1 0.025823 -0.007398 -0.007499 0.000000 0.000000 0.000000
# 2 -0.007398 0.025823 -0.007499 0.000000 0.000000 0.000000
# 3 -0.007499 -0.007499 0.012346 0.000000 0.000000 0.000000
# 4 0.000000 0.000000 0.000000 0.214955 0.000000 0.000000
# 5 0.000000 0.000000 0.000000 0.000000 0.214955 0.000000
# 6 0.000000 0.000000 0.000000 0.000000 0.000000 0.040052
#
#
# Mechanical properties :
#
#
# Convention : Reuss Voigt Hill
#
# Bulk Modulus (GPa) = 52.08380 70.63748 61.36064
# Shear Modulus (GPa) = 8.54489 15.42955 11.98722
#
# Velocity S-wave (km/s) = 2.19534 2.95003 2.60021
# Velocity P-wave (km/s) = 5.98353 7.17251 6.60483
#
# Compressibility (1/GPa) = 0.01919983
#
# Stress axis : x y z
#
# Youngs Moduli (GPa) = 38.72552 38.72552 80.99829
#
# Poissons Ratio (x) = 0.28649 0.60740
# Poissons Ratio (y) = 0.28649 0.60740
# Poissons Ratio (z) = 0.29040 0.29040
#
# Static dielectric constant tensor:
#      x y z
#    x 3.196810 0.000000 0.000000 
#    y 0.000000 3.196810 0.000000 
#    z 0.000000 0.000000 3.488560 
# 
# 
# High freq. dielectric constant tensor:
#      x y z
#    x 1.665600 0.000000 0.000000 
#    y 0.000000 1.665600 0.000000 
#    z 0.000000 0.000000 1.702540 
# 
# From -- ./inp_files/4679.got.cif
#   From: 2010.03.12/outbox.cif.g09.slc.cpg/sg105_3_cif.got.tgz:4679.got - 2010.04.14 01:45:32.
