data_PCOD8307838
_publ_section_title
;
Structure prediction by ZEFSAII (Michael W. Deem and Ramdas Pophale) SiO2 
 PCOD8307838
Probable space group: I 41 M D
;
_chemical_formula_sum "Si O2"
_cell_formula_units_Z 128
_cell_length_a 22.339303
_cell_length_b 22.339303
_cell_length_c 15.903267
_cell_angle_alpha 90.000000
_cell_angle_beta 90.000000
_cell_angle_gamma 90.000000
_cell_volume 7936.437269
_symmetry_space_group_name_H-M "I 41 M D"
_symmetry_group_IT_number 109
_symmetry_cell_setting 'tetragonal'
loop_
_space_group_symop_operation_xyz
x,y,z
-y,1/2+x,1/4+z
-x,-y,z
y,1/2-x,1/4+z
-x,y,z
x,-y,z
-y,1/2-x,1/4+z
y,1/2+x,1/4+z
1/2+x,1/2+y,1/2+z
1/2-y,x,3/4+z
1/2-x,1/2-y,1/2+z
1/2+y,-x,3/4+z
1/2-x,1/2+y,1/2+z
1/2+x,1/2-y,1/2+z
1/2-y,-x,3/4+z
1/2+y,x,3/4+z
loop_
_atom_site_type_symbol
_atom_site_label
_atom_site_fract_x
_atom_site_fract_y
_atom_site_fract_z
Si Si1 0.068033 0.256208 0.356160
Si Si2 0.335724 0.235898 0.459985
Si Si3 0.278569 0.568204 0.337750
Si Si4 0.333961 0.832312 0.115062
Si Si5 0.930290 0.857466 0.119346
Si Si6 0.849573 0.932367 0.245263
Si Si7 0.127112 0.655925 0.229291
Si Si8 0.713633 0.214293 0.288609
O O1 0.101205 0.192934 0.354982
O O2 0.066329 0.285467 0.448570
O O3 0.109953 0.296750 0.299524
O O4 0.000000 0.248977 0.320751
O O5 0.397493 0.213563 0.499838
O O6 0.334112 0.306650 0.444789
O O7 0.325675 0.202153 0.371688
O O8 0.284862 0.218202 0.525941
O O9 0.282072 0.500000 0.311948
O O10 0.213796 0.583760 0.379955
O O11 0.333564 0.583100 0.400461
O O12 0.322106 0.814824 0.211335
O O13 0.308634 0.781681 0.051197
O O14 0.403430 0.839895 0.087991
O O15 0.897207 0.893336 0.192866
O O16 0.908407 0.878785 0.025991
O O17 0.000000 0.871696 0.125555
O O18 0.873939 0.000000 0.256068
#
# Coordination Sequence:
#
# PCOD8307838 Si02
#       8
#    16  16  16  16  16  16  16  16
#     4  10  19  30  45  69  98 128 158 194 240 292
#     4  10  18  30  47  73 100 126 155 205 245 291
#     4  10  19  31  48  73 102 135 166 196 240 295
#     4  11  19  33  50  74  95 126 160 205 246 295
#     4   9  20  33  48  70 102 136 168 201 243 289
#     4  10  21  34  48  67  98 131 165 201 239 285
#     4  10  17  28  46  69 100 131 163 195 235 288
#     4  10  20  29  51  75  98 121 156 207 259 288
#
# _framework density 16.128143000000001
#
# number of rings (size 3 to 8) (size 9 to 14) (size 15 to 20)
#    0.000    2.000    3.750    1.125    0.000    2.250 
#    0.000    0.625    0.000    0.000    0.000    0.875 
#    0.000    0.000    0.000    0.000    0.000    0.000 
#
# Total GULP energy -793122.807112 kJ/mol
# GULP energy per Si atom -12392.543861 kJ/mol
# Density = 1.609144 g / cm^3
# Si number density = 16.128143 Si / 1000 Ang^3
#
#
#
# Elastic Constant Matrix: (Units=GPa)
#
#
# Indices 1 2 3 4 5 6 
#
# 1 63.3753 30.7341 33.8192 0.0000 0.0000 0.0000
# 2 30.7341 63.3753 33.8192 0.0000 0.0000 0.0000
# 3 33.8192 33.8192 71.2347 0.0000 0.0000 0.0000
# 4 0.0000 0.0000 0.0000 17.9097 0.0000 0.0000
# 5 0.0000 0.0000 0.0000 0.0000 17.9097 0.0000
# 6 0.0000 0.0000 0.0000 0.0000 0.0000 13.9324
#
#
#
# Elastic Compliance Matrix: (Units=1/GPa)
#
#
# Indices 1 2 3 4 5 6 
#
# 1 0.023383 -0.007253 -0.007658 0.000000 0.000000 0.000000
# 2 -0.007253 0.023383 -0.007658 0.000000 0.000000 0.000000
# 3 -0.007658 -0.007658 0.021309 0.000000 0.000000 0.000000
# 4 0.000000 0.000000 0.000000 0.055836 0.000000 0.000000
# 5 0.000000 0.000000 0.000000 0.000000 0.055836 0.000000
# 6 0.000000 0.000000 0.000000 0.000000 0.000000 0.071775
#
#
# Mechanical properties :
#
#
# Convention : Reuss Voigt Hill
#
# Bulk Modulus (GPa) = 43.59617 43.85893 43.72755
# Shear Modulus (GPa) = 16.43089 16.59120 16.51104
#
# Velocity S-wave (km/s) = 3.19528 3.21083 3.20307
# Velocity P-wave (km/s) = 6.37988 6.40305 6.39147
#
# Compressibility (1/GPa) = 0.02293780
#
# Stress axis : x y z
#
# Youngs Moduli (GPa) = 42.76628 42.76628 46.92809
#
# Poissons Ratio (x) = 0.31019 0.35936
# Poissons Ratio (y) = 0.31019 0.35936
# Poissons Ratio (z) = 0.32749 0.32749
#
# Static dielectric constant tensor:
#      x y z
#    x 3.002700 0.000000 0.000000 
#    y 0.000000 3.002700 0.000000 
#    z 0.000000 0.000000 2.977170 
# 
# 
# High freq. dielectric constant tensor:
#      x y z
#    x 1.603970 0.000000 0.000000 
#    y 0.000000 1.603970 0.000000 
#    z 0.000000 0.000000 1.610380 
# 
# From -- ./inp_files/3319.got.cif
#   From: 2010.03.12/outbox.cif.g09.slc.cpg/sg109_2_cif.got.tgz:3319.got - 2010.04.14 01:55:16.
