data_PCOD8307196
_publ_section_title
;
Structure prediction by ZEFSAII (Michael W. Deem and Ramdas Pophale) SiO2 
 PCOD8307196
Probable space group: P 42 M C
;
_chemical_formula_sum "Si O2"
_cell_formula_units_Z 48
_cell_length_a 9.198777
_cell_length_b 9.198777
_cell_length_c 31.233023
_cell_angle_alpha 90.000000
_cell_angle_beta 90.000000
_cell_angle_gamma 90.000000
_cell_volume 2642.860270
_symmetry_space_group_name_H-M "P 42 M C"
_symmetry_group_IT_number 105
_symmetry_cell_setting 'tetragonal'
loop_
_space_group_symop_operation_xyz
x,y,z
-y,x,1/2+z
-x,-y,z
y,-x,1/2+z
-x,y,z
x,-y,z
-y,-x,1/2+z
y,x,1/2+z
loop_
_atom_site_type_symbol
_atom_site_label
_atom_site_fract_x
_atom_site_fract_y
_atom_site_fract_z
Si Si1 0.836777 0.172787 0.338180
Si Si2 0.827591 0.163915 0.932220
Si Si3 0.172537 0.333711 0.756300
Si Si4 0.329700 0.169669 0.680779
Si Si5 0.327114 0.335908 0.596634
Si Si6 0.167161 0.671205 0.014071
O O1 0.785393 0.229252 0.385208
O O2 0.726024 0.229306 0.302072
O O3 0.000000 0.229946 0.328277
O O4 0.838971 0.000000 0.338533
O O5 0.000000 0.174682 0.932438
O O6 0.775913 0.000000 0.940880
O O7 0.765451 0.263887 0.970260
O O8 0.223665 0.500000 0.751688
O O9 0.243903 0.236477 0.720115
O O10 0.000000 0.319563 0.752466
O O11 0.500000 0.197773 0.687682
O O12 0.272261 0.247168 0.637808
O O13 0.294049 0.000000 0.677031
O O14 0.500000 0.335082 0.595445
O O15 0.266337 0.500000 0.599003
O O16 0.266397 0.258515 0.553989
O O17 0.182076 0.500000 0.010628
O O18 0.000000 0.718230 0.020855
#
# Coordination Sequence:
#
# PCOD8307196 Si02
#       6
#     8   8   8   8   8   8
#     4   8  14  26  44  65  91 124 159 194 233 278
#     4   8  14  25  42  65  92 121 153 189 230 275
#     4  10  20  32  48  73 103 131 160 198 245 294
#     4  10  20  34  53  74  95 124 164 205 244 290
#     4   9  17  30  48  68  91 121 155 191 234 285
#     4   9  16  26  43  67  90 111 143 189 232 271
#
# _framework density 18.162139
#
# number of rings (size 3 to 8) (size 9 to 14) (size 15 to 20)
#    0.000    3.000    0.000    2.500    0.000    4.667 
#    0.000    4.167    0.000    4.500    0.000    4.667 
#    0.000    0.000    0.000    0.000    0.000    0.000 
#
# Total GULP energy -594983.795026 kJ/mol
# GULP energy per Si atom -12395.495730 kJ/mol
# Density = 1.812080 g / cm^3
# Si number density = 18.162139 Si / 1000 Ang^3
#
#
#
# Elastic Constant Matrix: (Units=GPa)
#
#
# Indices 1 2 3 4 5 6 
#
# 1 60.7570 28.1624 56.2229 0.0000 0.0000 0.0000
# 2 28.1624 60.7570 56.2229 0.0000 0.0000 0.0000
# 3 56.2229 56.2229 182.7445 0.0000 0.0000 0.0000
# 4 0.0000 0.0000 0.0000 13.9806 0.0000 0.0000
# 5 0.0000 0.0000 0.0000 0.0000 13.9806 0.0000
# 6 0.0000 0.0000 0.0000 0.0000 0.0000 16.0608
#
#
#
# Elastic Compliance Matrix: (Units=1/GPa)
#
#
# Indices 1 2 3 4 5 6 
#
# 1 0.024544 -0.006136 -0.005663 0.000000 0.000000 0.000000
# 2 -0.006136 0.024544 -0.005663 0.000000 0.000000 0.000000
# 3 -0.005663 -0.005663 0.008957 0.000000 0.000000 0.000000
# 4 0.000000 0.000000 0.000000 0.071527 0.000000 0.000000
# 5 0.000000 0.000000 0.000000 0.000000 0.071527 0.000000
# 6 0.000000 0.000000 0.000000 0.000000 0.000000 0.062263
#
#
# Mechanical properties :
#
#
# Convention : Reuss Voigt Hill
#
# Bulk Modulus (GPa) = 43.25388 65.05278 54.15333
# Shear Modulus (GPa) = 16.34015 19.71444 18.02729
#
# Velocity S-wave (km/s) = 3.00272 3.29822 3.15393
# Velocity P-wave (km/s) = 5.99074 7.09929 6.56844
#
# Compressibility (1/GPa) = 0.02311931
#
# Stress axis : x y z
#
# Youngs Moduli (GPa) = 40.74329 40.74329 111.64599
#
# Poissons Ratio (x) = 0.25000 0.63229
# Poissons Ratio (y) = 0.25000 0.63229
# Poissons Ratio (z) = 0.23074 0.23074
#
# Static dielectric constant tensor:
#      x y z
#    x 3.155050 0.000000 0.000000 
#    y 0.000000 3.155050 0.000000 
#    z 0.000000 0.000000 3.866490 
# 
# 
# High freq. dielectric constant tensor:
#      x y z
#    x 1.672970 0.000000 0.000000 
#    y 0.000000 1.672970 0.000000 
#    z 0.000000 0.000000 1.725030 
# 
# From -- ./inp_files/4696.got.cif
#   From: 2010.03.12/outbox.cif.g09.slc.cpg/sg105_3_cif.got.tgz:4696.got - 2010.04.14 01:45:32.
