data_PCOD8307322
_publ_section_title
;
Structure prediction by ZEFSAII (Michael W. Deem and Ramdas Pophale) SiO2 
 PCOD8307322
Probable space group: P 42 M C
;
_chemical_formula_sum "Si O2"
_cell_formula_units_Z 34
_cell_length_a 7.764178
_cell_length_b 7.764178
_cell_length_c 27.231206
_cell_angle_alpha 90.000000
_cell_angle_beta 90.000000
_cell_angle_gamma 90.000000
_cell_volume 1641.564087
_symmetry_space_group_name_H-M "P 42 M C"
_symmetry_group_IT_number 105
_symmetry_cell_setting 'tetragonal'
loop_
_space_group_symop_operation_xyz
x,y,z
-y,x,1/2+z
-x,-y,z
y,-x,1/2+z
-x,y,z
x,-y,z
-y,-x,1/2+z
y,x,1/2+z
loop_
_atom_site_type_symbol
_atom_site_label
_atom_site_fract_x
_atom_site_fract_y
_atom_site_fract_z
Si Si1 0.500000 0.000000 0.172150
Si Si2 0.797344 0.307389 0.428309
Si Si3 0.315664 0.804666 0.530014
Si Si4 0.208962 0.000000 0.093371
Si Si5 0.295805 0.191315 0.820670
Si Si6 0.500000 0.705326 0.250331
O O1 0.319654 0.000000 0.142844
O O2 0.500000 0.178319 0.202208
O O3 0.722013 0.500000 0.432746
O O4 0.715957 0.196496 0.471648
O O5 0.753081 0.226386 0.374701
O O6 0.000000 0.309226 0.435204
O O7 0.500000 0.714131 0.541792
O O8 0.163258 0.722763 0.561976
O O9 0.326884 0.000000 0.546818
O O10 0.000000 0.000000 0.102914
O O11 0.500000 0.183347 0.825077
O O12 0.239156 0.330483 0.780628
O O13 0.226352 0.000000 0.805974
O O14 0.500000 0.500000 0.237868
#
# Coordination Sequence:
#
# PCOD8307322 Si02
#       6
#     2   8   8   4   8   4
#     4  12  28  44  68  96 112 156 224 268 308 358
#     4   9  17  30  53  85 121 161 201 234 290 365
#     4  10  21  36  55  83 118 160 200 243 302 370
#     4  10  24  46  64  82 124 160 194 268 316 353
#     4   8  16  33  56  84 121 163 198 240 298 367
#     4  10  22  42  64  88 122 156 200 266 308 353
#
# _framework density 20.711956000000001
#
# number of rings (size 3 to 8) (size 9 to 14) (size 15 to 20)
#    0.000    2.588    1.176    1.412    3.294    2.353 
#    2.118    0.000    0.000    0.000    0.000    0.000 
#    0.000    0.000    0.000    0.000    0.000    0.000 
#
# Total GULP energy -421249.675610 kJ/mol
# GULP energy per Si atom -12389.696341 kJ/mol
# Density = 2.066482 g / cm^3
# Si number density = 20.711956 Si / 1000 Ang^3
#
#
#
# Elastic Constant Matrix: (Units=GPa)
#
#
# Indices 1 2 3 4 5 6 
#
# 1 96.9591 34.2486 63.4081 0.0000 0.0000 0.0000
# 2 34.2486 96.9591 63.4081 0.0000 0.0000 0.0000
# 3 63.4081 63.4081 140.8078 0.0000 0.0000 0.0000
# 4 0.0000 0.0000 0.0000 24.6650 0.0000 0.0000
# 5 0.0000 0.0000 0.0000 0.0000 24.6650 0.0000
# 6 0.0000 0.0000 0.0000 0.0000 0.0000 9.9620
#
#
#
# Elastic Compliance Matrix: (Units=1/GPa)
#
#
# Indices 1 2 3 4 5 6 
#
# 1 0.014721 -0.001226 -0.006077 0.000000 0.000000 0.000000
# 2 -0.001226 0.014721 -0.006077 0.000000 0.000000 0.000000
# 3 -0.006077 -0.006077 0.012575 0.000000 0.000000 0.000000
# 4 0.000000 0.000000 0.000000 0.040543 0.000000 0.000000
# 5 0.000000 0.000000 0.000000 0.000000 0.040543 0.000000
# 6 0.000000 0.000000 0.000000 0.000000 0.000000 0.100381
#
#
# Mechanical properties :
#
#
# Convention : Reuss Voigt Hill
#
# Bulk Modulus (GPa) = 65.54330 72.98394 69.26362
# Shear Modulus (GPa) = 19.58252 23.43582 21.50917
#
# Velocity S-wave (km/s) = 3.07818 3.36744 3.22606
# Velocity P-wave (km/s) = 6.65939 7.10167 6.88408
#
# Compressibility (1/GPa) = 0.01525709
#
# Stress axis : x y z
#
# Youngs Moduli (GPa) = 67.93132 67.93132 79.52201
#
# Poissons Ratio (x) = 0.08325 0.48326
# Poissons Ratio (y) = 0.08325 0.48326
# Poissons Ratio (z) = 0.41283 0.41283
#
# Static dielectric constant tensor:
#      x y z
#    x 3.915240 0.000000 0.000000 
#    y 0.000000 3.915240 0.000000 
#    z 0.000000 0.000000 3.649210 
# 
# 
# High freq. dielectric constant tensor:
#      x y z
#    x 1.803860 0.000000 0.000000 
#    y 0.000000 1.803860 0.000000 
#    z 0.000000 0.000000 1.790970 
# 
# From -- ./inp_files/3501.got.cif
#   From: 2010.03.12/outbox.cif.g09.slc.cpg/sg105_2_cif.got.tgz:3501.got - 2010.04.14 01:45:32.
