data_PCOD8307489
_publ_section_title
;
Structure prediction by ZEFSAII (Michael W. Deem and Ramdas Pophale) SiO2 
 PCOD8307489
Probable space group: I 4 M M
;
_chemical_formula_sum "Si O2"
_cell_formula_units_Z 128
_cell_length_a 17.878629
_cell_length_b 17.878629
_cell_length_c 25.782545
_cell_angle_alpha 90.000000
_cell_angle_beta 90.000000
_cell_angle_gamma 90.000000
_cell_volume 8241.271263
_symmetry_space_group_name_H-M "I 4 M M"
_symmetry_group_IT_number 107
_symmetry_cell_setting 'tetragonal'
loop_
_space_group_symop_operation_xyz
x,y,z
-y,x,z
-x,-y,z
y,-x,z
-x,y,z
x,-y,z
-y,-x,z
y,x,z
1/2+x,1/2+y,1/2+z
1/2-y,1/2+x,1/2+z
1/2-x,1/2-y,1/2+z
1/2+y,1/2-x,1/2+z
1/2-x,1/2+y,1/2+z
1/2+x,1/2-y,1/2+z
1/2-y,1/2-x,1/2+z
1/2+y,1/2+x,1/2+z
loop_
_atom_site_type_symbol
_atom_site_label
_atom_site_fract_x
_atom_site_fract_y
_atom_site_fract_z
Si Si1 0.584116 0.299023 0.006430
Si Si2 0.181542 0.697406 0.312373
Si Si3 0.415748 0.914529 0.248077
Si Si4 0.915728 0.202047 0.804853
Si Si5 0.916496 0.200104 0.685492
Si Si6 0.793081 0.085895 0.388059
Si Si7 0.083613 0.415837 0.625622
Si Si8 0.717042 0.832789 0.595936
O O1 0.500000 0.303622 0.026550
O O2 0.617466 0.382535 0.008997
O O3 0.630462 0.245303 0.043309
O O4 0.589309 0.268027 0.947927
O O5 0.233740 0.766261 0.289837
O O6 0.132084 0.654419 0.269879
O O7 0.238025 0.634725 0.336300
O O8 0.126678 0.727368 0.356657
O O9 0.500000 0.885591 0.264696
O O10 0.408800 0.909873 0.186837
O O11 0.407348 0.000000 0.266980
O O12 0.880965 0.119036 0.810643
O O13 0.912709 0.229242 0.744685
O O14 0.000000 0.199974 0.826407
O O15 0.882727 0.117274 0.681825
O O16 0.872593 0.255297 0.648194
O O17 0.000000 0.194947 0.664860
O O18 0.872054 0.127947 0.378903
O O19 0.802629 0.000000 0.369548
O O20 0.093647 0.500000 0.606345
O O21 0.151887 0.371491 0.597515
O O22 0.000000 0.386885 0.609593
O O23 0.745922 0.745922 0.597032
#
# Coordination Sequence:
#
# PCOD8307489 Si02
#       8
#    16  16  16  16  16  16  16  16
#     4   9  17  28  42  60  81 107 137 165 194 228
#     4  10  18  27  41  59  79 103 130 165 209 250
#     4   9  17  28  42  60  81 106 136 168 201 238
#     4   9  17  27  39  57  81 110 141 169 198 234
#     4   9  16  24  35  54  81 112 142 167 191 224
#     4   9  18  31  45  61  80 103 133 167 202 241
#     4   9  17  28  42  60  82 110 141 168 196 234
#     4  10  18  27  41  60  82 108 136 167 203 237
#
# _framework density 15.531585
#
# number of rings (size 3 to 8) (size 9 to 14) (size 15 to 20)
#    0.000    2.750    0.000    3.375    0.000    4.000 
#    0.000    2.500    0.000    3.750    0.000    5.250 
#    0.000    0.250    0.000    2.750    0.000    0.000 
#
# Total GULP energy -792845.935117 kJ/mol
# GULP energy per Si atom -12388.217736 kJ/mol
# Density = 1.549623 g / cm^3
# Si number density = 15.531585 Si / 1000 Ang^3
#
#
#
# Elastic Constant Matrix: (Units=GPa)
#
#
# Indices 1 2 3 4 5 6 
#
# 1 92.3864 50.3118 27.7551 0.0000 0.0000 0.0003
# 2 50.3118 92.3864 27.7551 0.0000 0.0000 -0.0003
# 3 27.7551 27.7551 26.9773 0.0000 0.0000 0.0000
# 4 0.0000 0.0000 0.0000 15.8253 0.0000 0.0000
# 5 0.0000 0.0000 0.0000 0.0000 15.8253 0.0000
# 6 0.0003 -0.0003 0.0000 0.0000 0.0000 24.8141
#
#
#
# Elastic Compliance Matrix: (Units=1/GPa)
#
#
# Indices 1 2 3 4 5 6 
#
# 1 0.017726 -0.006042 -0.012021 0.000000 0.000000 0.000000
# 2 -0.006042 0.017726 -0.012021 0.000000 0.000000 0.000000
# 3 -0.012021 -0.012021 0.061803 0.000000 0.000000 0.000000
# 4 0.000000 0.000000 0.000000 0.063190 0.000000 0.000000
# 5 0.000000 0.000000 0.000000 0.000000 0.063190 0.000000
# 6 0.000000 0.000000 0.000000 0.000000 0.000000 0.040300
#
#
# Mechanical properties :
#
#
# Convention : Reuss Voigt Hill
#
# Bulk Modulus (GPa) = 26.96320 47.04380 37.00350
# Shear Modulus (GPa) = 14.86050 18.35483 16.60766
#
# Velocity S-wave (km/s) = 3.09656 3.44142 3.27354
# Velocity P-wave (km/s) = 5.49389 6.79309 6.17774
#
# Compressibility (1/GPa) = 0.03708758
#
# Stress axis : x y z
#
# Youngs Moduli (GPa) = 56.41554 56.41554 16.18047
#
# Poissons Ratio (x) = 0.34084 0.19450
# Poissons Ratio (y) = 0.34084 0.19450
# Poissons Ratio (z) = 0.67816 0.67816
#
# Static dielectric constant tensor:
#      x y z
#    x 3.137490 0.000000 0.000000 
#    y 0.000000 3.137490 0.000000 
#    z 0.000000 0.000000 2.728030 
# 
# 
# High freq. dielectric constant tensor:
#      x y z
#    x 1.593670 0.000000 0.000000 
#    y 0.000000 1.593670 0.000000 
#    z 0.000000 0.000000 1.560550 
# 
# From -- ./inp_files/5463.got.cif
#   From: 2010.03.12/outbox.cif.g09.slc.cpg/sg107_3_cif.got.tgz:5463.got - 2010.04.14 01:49:11.
