data_PCOD8307747
_publ_section_title
;
Structure prediction by ZEFSAII (Michael W. Deem and Ramdas Pophale) SiO2 
 PCOD8307747
Probable space group: I 4 C M
;
_chemical_formula_sum "Si O2"
_cell_formula_units_Z 128
_cell_length_a 16.231931
_cell_length_b 16.231931
_cell_length_c 25.460659
_cell_angle_alpha 90.000000
_cell_angle_beta 90.000000
_cell_angle_gamma 90.000000
_cell_volume 6708.261999
_symmetry_space_group_name_H-M "I 4 C M"
_symmetry_group_IT_number 108
_symmetry_cell_setting 'tetragonal'
loop_
_space_group_symop_operation_xyz
x,y,z
-y,x,z
-x,-y,z
y,-x,z
-x,y,1/2+z
x,-y,1/2+z
-y,-x,1/2+z
y,x,1/2+z
1/2+x,1/2+y,1/2+z
1/2-y,1/2+x,1/2+z
1/2-x,1/2-y,1/2+z
1/2+y,1/2-x,1/2+z
1/2-x,1/2+y,z
1/2+x,1/2-y,z
1/2-y,1/2-x,z
1/2+y,1/2+x,z
loop_
_atom_site_type_symbol
_atom_site_label
_atom_site_fract_x
_atom_site_fract_y
_atom_site_fract_z
Si Si1 0.634869 0.001930 0.540050
Si Si2 0.696962 0.939075 0.854746
Si Si3 0.170273 0.804724 0.372023
Si Si4 0.618182 0.439820 0.292862
Si Si5 0.295281 0.069668 0.442984
Si Si6 0.429661 0.795968 0.644615
Si Si7 0.000709 0.365200 0.749533
Si Si8 0.942967 0.119973 0.171043
O O1 0.574406 0.925595 0.548087
O O2 0.707411 0.983153 0.497069
O O3 0.582997 0.082997 0.522498
O O4 0.678471 0.015514 0.595390
O O5 0.617158 0.882843 0.859106
O O6 0.778210 0.888902 0.872454
O O7 0.684098 0.012728 0.894227
O O8 0.699967 0.975526 0.795259
O O9 0.228337 0.728337 0.356728
O O10 0.099491 0.809039 0.327515
O O11 0.124368 0.786443 0.428270
O O12 0.608784 0.534896 0.307798
O O13 0.638382 0.430157 0.232164
O O14 0.372589 0.127412 0.450800
O O15 0.343318 0.843318 0.645212
O O16 0.481349 0.812959 0.697353
O O17 0.409357 0.698865 0.639715
O O18 0.080156 0.419845 0.766314
O O19 0.924697 0.424697 0.736349
O O20 0.038830 0.107840 0.156022
#
# Coordination Sequence:
#
# PCOD8307747 Si02
#       8
#    16  16  16  16  16  16  16  16
#     4   9  18  35  58  81 107 142 185 230 276 331
#     4  10  20  33  49  75 108 141 172 213 271 333
#     4  10  21  32  47  76 111 140 169 217 275 320
#     4   9  18  33  53  72  97 140 184 214 244 304
#     4  10  20  34  54  77 102 140 185 223 265 319
#     4  10  20  34  56  83 108 138 182 235 283 325
#     4   9  18  31  48  75 111 145 175 216 278 345
#     4   9  20  37  55  76 107 149 188 219 262 327
#
# _framework density 19.080947999999999
#
# number of rings (size 3 to 8) (size 9 to 14) (size 15 to 20)
#    0.000    2.500    0.000    2.625    5.250    3.250 
#    0.000    2.500    0.000    3.000    0.000    1.750 
#    0.000    0.000    0.000    0.000    0.000    0.000 
#
# Total GULP energy -793264.261516 kJ/mol
# GULP energy per Si atom -12394.754086 kJ/mol
# Density = 1.903752 g / cm^3
# Si number density = 19.080948 Si / 1000 Ang^3
#
#
#
# Elastic Constant Matrix: (Units=GPa)
#
#
# Indices 1 2 3 4 5 6 
#
# 1 65.6292 13.9862 32.6622 0.0000 0.0000 0.0000
# 2 13.9862 65.6292 32.6622 0.0000 0.0000 0.0000
# 3 32.6622 32.6622 83.2002 0.0000 0.0000 0.0000
# 4 0.0000 0.0000 0.0000 24.7729 0.0000 0.0000
# 5 0.0000 0.0000 0.0000 0.0000 24.7729 0.0000
# 6 0.0000 0.0000 0.0000 0.0000 0.0000 18.9821
#
#
#
# Elastic Compliance Matrix: (Units=1/GPa)
#
#
# Indices 1 2 3 4 5 6 
#
# 1 0.018946 -0.000418 -0.007274 0.000000 0.000000 0.000000
# 2 -0.000418 0.018946 -0.007274 0.000000 0.000000 0.000000
# 3 -0.007274 -0.007274 0.017730 0.000000 0.000000 0.000000
# 4 0.000000 0.000000 0.000000 0.040367 0.000000 0.000000
# 5 0.000000 0.000000 0.000000 0.000000 0.040367 0.000000
# 6 0.000000 0.000000 0.000000 0.000000 0.000000 0.052681
#
#
# Mechanical properties :
#
#
# Convention : Reuss Voigt Hill
#
# Bulk Modulus (GPa) = 38.92257 41.45333 40.18795
# Shear Modulus (GPa) = 21.97498 22.71545 22.34522
#
# Velocity S-wave (km/s) = 3.39731 3.45407 3.42581
# Velocity P-wave (km/s) = 5.98597 6.13838 6.06265
#
# Compressibility (1/GPa) = 0.02569204
#
# Stress axis : x y z
#
# Youngs Moduli (GPa) = 52.78118 52.78118 56.40087
#
# Poissons Ratio (x) = 0.02204 0.41025
# Poissons Ratio (y) = 0.02204 0.41025
# Poissons Ratio (z) = 0.38392 0.38392
#
# Static dielectric constant tensor:
#      x y z
#    x 3.541420 0.000000 0.000000 
#    y 0.000000 3.541420 0.000000 
#    z 0.000000 0.000000 3.396900 
# 
# 
# High freq. dielectric constant tensor:
#      x y z
#    x 1.741250 0.000000 0.000000 
#    y 0.000000 1.741250 0.000000 
#    z 0.000000 0.000000 1.720670 
# 
# From -- ./inp_files/3284.got.cif
#   From: 2010.03.12/outbox.cif.g09.slc.cpg/sg108_2_cif.got.tgz:3284.got - 2010.04.14 01:53:11.
