data_PCOD8307646
_publ_section_title
;
Structure prediction by ZEFSAII (Michael W. Deem and Ramdas Pophale) SiO2 
 PCOD8307646
Probable space group: I 4 M M
;
_chemical_formula_sum "Si O2"
_cell_formula_units_Z 104
_cell_length_a 17.999717
_cell_length_b 17.999717
_cell_length_c 17.232857
_cell_angle_alpha 90.000000
_cell_angle_beta 90.000000
_cell_angle_gamma 90.000000
_cell_volume 5583.270101
_symmetry_space_group_name_H-M "I 4 M M"
_symmetry_group_IT_number 107
_symmetry_cell_setting 'tetragonal'
loop_
_space_group_symop_operation_xyz
x,y,z
-y,x,z
-x,-y,z
y,-x,z
-x,y,z
x,-y,z
-y,-x,z
y,x,z
1/2+x,1/2+y,1/2+z
1/2-y,1/2+x,1/2+z
1/2-x,1/2-y,1/2+z
1/2+y,1/2-x,1/2+z
1/2-x,1/2+y,1/2+z
1/2+x,1/2-y,1/2+z
1/2-y,1/2-x,1/2+z
1/2+y,1/2+x,1/2+z
loop_
_atom_site_type_symbol
_atom_site_label
_atom_site_fract_x
_atom_site_fract_y
_atom_site_fract_z
Si Si1 0.586541 0.210995 0.184070
Si Si2 0.355564 0.184330 0.559956
Si Si3 0.083279 0.582452 0.442366
Si Si4 0.838189 0.161812 0.783313
Si Si5 0.414420 0.585581 0.413251
Si Si6 0.700380 0.299621 0.446656
Si Si7 0.650570 0.085928 0.285459
Si Si8 0.208690 0.085251 0.190031
O O1 0.500000 0.222251 0.163750
O O2 0.636542 0.206138 0.106298
O O3 0.615607 0.280662 0.232639
O O4 0.597197 0.134657 0.231059
O O5 0.415116 0.129052 0.522265
O O6 0.319954 0.221608 0.484452
O O7 0.394655 0.245802 0.612798
O O8 0.089955 0.500000 0.407112
O O9 0.109979 0.638787 0.374762
O O10 0.000000 0.602311 0.466712
O O11 0.895950 0.104051 0.822915
O O12 0.794027 0.205974 0.852545
O O13 0.396062 0.500000 0.430903
O O14 0.362546 0.637455 0.467645
O O15 0.737017 0.098295 0.263469
O O16 0.627622 0.000000 0.272529
O O17 0.136821 0.136821 0.199319
O O18 0.181855 0.000000 0.185279
#
# Coordination Sequence:
#
# PCOD8307646 Si02
#       8
#    16  16  16   8   8   8  16  16
#     4  11  22  36  60  86 115 157 201 243 290 355
#     4  11  21  38  52  80 116 149 187 232 288 346
#     4  10  20  35  56  82 113 149 188 227 277 343
#     4  10  22  37  58  85 118 151 196 248 295 350
#     4   9  20  38  58  82 114 150 195 246 295 349
#     4  10  22  35  56  79 114 156 184 235 298 349
#     4   9  20  36  57  81 112 148 190 245 293 344
#     4  10  21  38  57  78 110 149 191 238 289 344
#
# _framework density 18.627077
#
# number of rings (size 3 to 8) (size 9 to 14) (size 15 to 20)
#    0.462    1.462    0.769    3.231    3.231    2.923 
#    1.385    0.000    0.000    0.000    0.000    0.000 
#    0.000    0.000    0.000    0.308    0.000    0.000 
#
# Total GULP energy -644504.740924 kJ/mol
# GULP energy per Si atom -12394.321941 kJ/mol
# Density = 1.858468 g / cm^3
# Si number density = 18.627077 Si / 1000 Ang^3
#
#
#
# Elastic Constant Matrix: (Units=GPa)
#
#
# Indices 1 2 3 4 5 6 
#
# 1 92.0183 53.7755 42.1089 0.0000 0.0000 -0.0001
# 2 53.7755 92.0183 42.1089 0.0000 0.0000 0.0001
# 3 42.1089 42.1089 79.8496 0.0000 0.0000 0.0000
# 4 0.0000 0.0000 0.0000 28.5769 0.0000 0.0000
# 5 0.0000 0.0000 0.0000 0.0000 28.5769 0.0000
# 6 -0.0001 0.0001 0.0000 0.0000 0.0000 25.8049
#
#
#
# Elastic Compliance Matrix: (Units=1/GPa)
#
#
# Indices 1 2 3 4 5 6 
#
# 1 0.018006 -0.008142 -0.005202 0.000000 0.000000 0.000000
# 2 -0.008142 0.018006 -0.005202 0.000000 0.000000 0.000000
# 3 -0.005202 -0.005202 0.018010 0.000000 0.000000 0.000000
# 4 0.000000 0.000000 0.000000 0.034993 0.000000 0.000000
# 5 0.000000 0.000000 0.000000 0.000000 0.034993 0.000000
# 6 0.000000 0.000000 0.000000 0.000000 0.000000 0.038752
#
#
# Mechanical properties :
#
#
# Convention : Reuss Voigt Hill
#
# Bulk Modulus (GPa) = 59.06470 59.98585 59.52528
# Shear Modulus (GPa) = 24.33135 24.98462 24.65798
#
# Velocity S-wave (km/s) = 3.61811 3.66636 3.64231
# Velocity P-wave (km/s) = 7.01656 7.08494 7.05084
#
# Compressibility (1/GPa) = 0.01693059
#
# Stress axis : x y z
#
# Youngs Moduli (GPa) = 55.53639 55.53639 55.52541
#
# Poissons Ratio (x) = 0.45220 0.28882
# Poissons Ratio (y) = 0.45220 0.28882
# Poissons Ratio (z) = 0.28888 0.28888
#
# Static dielectric constant tensor:
#      x y z
#    x 3.391140 0.000000 0.000000 
#    y 0.000000 3.391140 0.000000 
#    z 0.000000 0.000000 3.426990 
# 
# 
# High freq. dielectric constant tensor:
#      x y z
#    x 1.717850 0.000000 0.000000 
#    y 0.000000 1.717850 0.000000 
#    z 0.000000 0.000000 1.718930 
# 
# From -- ./inp_files/4199.got.cif
#   From: 2010.03.12/outbox.cif.g09.slc.cpg/sg107_3_cif.got.tgz:4199.got - 2010.04.14 01:49:11.
