data_PCOD8307533
_publ_section_title
;
Structure prediction by ZEFSAII (Michael W. Deem and Ramdas Pophale) SiO2 
 PCOD8307533
Probable space group: I 4 M M
;
_chemical_formula_sum "Si O2"
_cell_formula_units_Z 88
_cell_length_a 33.877922
_cell_length_b 33.877922
_cell_length_c 5.135174
_cell_angle_alpha 90.000000
_cell_angle_beta 90.000000
_cell_angle_gamma 90.000000
_cell_volume 5893.709033
_symmetry_space_group_name_H-M "I 4 M M"
_symmetry_group_IT_number 107
_symmetry_cell_setting 'tetragonal'
loop_
_space_group_symop_operation_xyz
x,y,z
-y,x,z
-x,-y,z
y,-x,z
-x,y,z
x,-y,z
-y,-x,z
y,x,z
1/2+x,1/2+y,1/2+z
1/2-y,1/2+x,1/2+z
1/2-x,1/2-y,1/2+z
1/2+y,1/2-x,1/2+z
1/2-x,1/2+y,1/2+z
1/2+x,1/2-y,1/2+z
1/2-y,1/2-x,1/2+z
1/2+y,1/2+x,1/2+z
loop_
_atom_site_type_symbol
_atom_site_label
_atom_site_fract_x
_atom_site_fract_y
_atom_site_fract_z
Si Si1 0.094065 0.841535 0.755650
Si Si2 0.233546 0.766455 0.867637
Si Si3 0.208928 0.671248 0.273147
Si Si4 0.248321 0.590555 0.245693
Si Si5 0.750021 0.543171 0.750511
Si Si6 0.157342 0.955817 0.261096
O O1 0.136077 0.863924 0.765454
O O2 0.103162 0.794527 0.747377
O O3 0.069336 0.857016 0.508438
O O4 0.067942 0.854005 0.002670
O O5 0.261061 0.738939 0.678473
O O6 0.246611 0.810422 0.789792
O O7 0.181240 0.687779 0.501804
O O8 0.217397 0.625366 0.299097
O O9 0.239467 0.558532 0.465492
O O10 0.234569 0.572808 0.970616
O O11 0.769605 0.500000 0.783956
O O12 0.703693 0.539039 0.784622
O O13 0.138239 0.000000 0.257898
#
# Coordination Sequence:
#
# PCOD8307533 Si02
#       6
#    16   8  16  16  16  16
#     4  10  19  29  43  65  88 104 127 168 203 246
#     4   8  16  28  40  52  70 104 142 180 212 234
#     4  10  19  31  43  58  81 112 150 183 208 241
#     4  10  19  29  45  63  83 114 140 169 219 251
#     4   9  17  30  45  63  82 104 135 171 214 265
#     4   9  17  30  45  60  82 109 129 152 199 257
#
# _framework density 14.931175
#
# number of rings (size 3 to 8) (size 9 to 14) (size 15 to 20)
#    0.000    2.545    0.000    2.727    1.273    4.364 
#    0.000    0.000    0.000    0.000    0.000    0.000 
#    0.000   25.455    0.000    0.000    0.000    0.000 
#
# Total GULP energy -545245.929254 kJ/mol
# GULP energy per Si atom -12391.952938 kJ/mol
# Density = 1.489719 g / cm^3
# Si number density = 14.931175 Si / 1000 Ang^3
#
#
#
# Elastic Constant Matrix: (Units=GPa)
#
#
# Indices 1 2 3 4 5 6 
#
# 1 52.9937 28.8027 16.9502 0.0000 0.0000 -0.0012
# 2 28.8027 52.9937 16.9502 0.0000 0.0000 0.0012
# 3 16.9502 16.9502 97.3230 0.0000 0.0000 0.0000
# 4 0.0000 0.0000 0.0000 2.3397 0.0000 0.0000
# 5 0.0000 0.0000 0.0000 0.0000 2.3397 0.0000
# 6 -0.0012 0.0012 0.0000 0.0000 0.0000 1.6663
#
#
#
# Elastic Compliance Matrix: (Units=1/GPa)
#
#
# Indices 1 2 3 4 5 6 
#
# 1 0.027257 -0.014081 -0.002295 0.000000 0.000000 0.000030
# 2 -0.014081 0.027257 -0.002295 0.000000 0.000000 -0.000030
# 3 -0.002295 -0.002295 0.011074 0.000000 0.000000 0.000000
# 4 0.000000 0.000000 0.000000 0.427407 0.000000 0.000000
# 5 0.000000 0.000000 0.000000 0.000000 0.427407 0.000000
# 6 0.000030 -0.000030 0.000000 0.000000 0.000000 0.600115
#
#
# Mechanical properties :
#
#
# Convention : Reuss Voigt Hill
#
# Bulk Modulus (GPa) = 35.40068 36.52408 35.96238
# Shear Modulus (GPa) = 3.19025 10.64296 6.91661
#
# Velocity S-wave (km/s) = 1.46331 2.67273 2.15462
# Velocity P-wave (km/s) = 5.15904 5.83433 5.50705
#
# Compressibility (1/GPa) = 0.02824804
#
# Stress axis : x y z
#
# Youngs Moduli (GPa) = 36.68760 36.68760 90.29797
#
# Poissons Ratio (x) = 0.51658 0.20722
# Poissons Ratio (y) = 0.51658 0.20722
# Poissons Ratio (z) = 0.08419 0.08419
#
# Static dielectric constant tensor:
#      x y z
#    x 2.661860 0.000000 0.000000 
#    y 0.000000 2.661860 0.000000 
#    z 0.000000 0.000000 3.120430 
# 
# 
# High freq. dielectric constant tensor:
#      x y z
#    x 1.534480 0.000000 0.000000 
#    y 0.000000 1.534480 0.000000 
#    z 0.000000 0.000000 1.597400 
# 
# From -- ./inp_files/522.got.cif
#   From: 2010.03.12/outbox.cif.g09.slc.cpg/sg107_1_cif.got.tgz:522.got - 2010.04.14 01:49:11.
