data_PCOD8307129
_publ_section_title
;
Structure prediction by ZEFSAII (Michael W. Deem and Ramdas Pophale) SiO2 
 PCOD8307129
Probable space group: P 42 M C
;
_chemical_formula_sum "Si O2"
_cell_formula_units_Z 48
_cell_length_a 23.938463
_cell_length_b 23.938463
_cell_length_c 7.650168
_cell_angle_alpha 90.000000
_cell_angle_beta 90.000000
_cell_angle_gamma 90.000000
_cell_volume 4383.928855
_symmetry_space_group_name_H-M "P 42 M C"
_symmetry_group_IT_number 105
_symmetry_cell_setting 'tetragonal'
loop_
_space_group_symop_operation_xyz
x,y,z
-y,x,1/2+z
-x,-y,z
y,-x,1/2+z
-x,y,z
x,-y,z
-y,-x,1/2+z
y,x,1/2+z
loop_
_atom_site_type_symbol
_atom_site_label
_atom_site_fract_x
_atom_site_fract_y
_atom_site_fract_z
Si Si1 0.435024 0.346805 0.594190
Si Si2 0.433579 0.937641 0.200196
Si Si3 0.062359 0.433579 0.088474
Si Si4 0.435024 0.653195 0.194480
Si Si5 0.566864 0.139868 0.894335
Si Si6 0.566062 0.264728 0.894335
O O1 0.500000 0.359446 0.626020
O O2 0.403268 0.403268 0.644335
O O3 0.423318 0.328950 0.394335
O O4 0.413844 0.296909 0.719793
O O5 0.500000 0.937033 0.194987
O O6 0.412482 0.921527 0.394335
O O7 0.412712 0.000000 0.150090
O O8 0.409692 0.892439 0.064354
O O9 0.062967 0.500000 0.093682
O O10 0.107561 0.409692 0.224316
O O11 0.000000 0.412712 0.138580
O O12 0.500000 0.640554 0.162649
O O13 0.413844 0.703091 0.068877
O O14 0.500000 0.140627 0.894335
O O15 0.591799 0.202487 0.894335
O O16 0.500000 0.259805 0.894335
#
# Coordination Sequence:
#
# PCOD8307129 Si02
#       6
#     8   8   8   8   8   8
#     4  10  19  30  43  54  64  76  90 114 148 187
#     4   8  13  20  30  45  63  82 103 121 135 152
#     4   8  13  20  30  45  63  82 103 121 135 152
#     4  10  19  30  43  54  64  76  90 114 148 187
#     4   9  15  22  33  45  62  83  99 117 137 160
#     4   9  18  29  37  51  67  78  97 117 140 177
#
# _framework density 10.949082000000001
#
# number of rings (size 3 to 8) (size 9 to 14) (size 15 to 20)
#    0.000    3.000    1.667    1.500    0.000    3.667 
#    0.000    8.333    0.000    0.000    0.000    0.000 
#    0.000    0.000    0.000    0.000    0.000    0.000 
#
# Total GULP energy -594903.774056 kJ/mol
# GULP energy per Si atom -12393.828626 kJ/mol
# Density = 1.092416 g / cm^3
# Si number density = 10.949082 Si / 1000 Ang^3
#
#
#
# Elastic Constant Matrix: (Units=GPa)
#
#
# Indices 1 2 3 4 5 6 
#
# 1 48.3516 21.6297 38.4880 0.0000 0.0000 0.0000
# 2 21.6297 48.3516 38.4880 0.0000 0.0000 0.0000
# 3 38.4880 38.4880 106.8547 0.0000 0.0000 0.0000
# 4 0.0000 0.0000 0.0000 10.0737 0.0000 0.0000
# 5 0.0000 0.0000 0.0000 0.0000 10.0737 0.0000
# 6 0.0000 0.0000 0.0000 0.0000 0.0000 0.4552
#
#
#
# Elastic Compliance Matrix: (Units=1/GPa)
#
#
# Indices 1 2 3 4 5 6 
#
# 1 0.030544 -0.006878 -0.008524 0.000000 0.000000 0.000000
# 2 -0.006878 0.030544 -0.008524 0.000000 0.000000 0.000000
# 3 -0.008524 -0.008524 0.015499 0.000000 0.000000 0.000000
# 4 0.000000 0.000000 0.000000 0.099268 0.000000 0.000000
# 5 0.000000 0.000000 0.000000 0.000000 0.099268 0.000000
# 6 0.000000 0.000000 0.000000 0.000000 0.000000 2.196715
#
#
# Mechanical properties :
#
#
# Convention : Reuss Voigt Hill
#
# Bulk Modulus (GPa) = 34.80211 44.52991 39.66601
# Shear Modulus (GPa) = 1.97686 11.11736 6.54711
#
# Velocity S-wave (km/s) = 1.34515 3.18994 2.44797
# Velocity P-wave (km/s) = 5.85380 7.37061 6.65556
#
# Compressibility (1/GPa) = 0.02873389
#
# Stress axis : x y z
#
# Youngs Moduli (GPa) = 32.73961 32.73961 64.51990
#
# Poissons Ratio (x) = 0.22520 0.54997
# Poissons Ratio (y) = 0.22520 0.54997
# Poissons Ratio (z) = 0.27908 0.27908
#
# Static dielectric constant tensor:
#      x y z
#    x 2.170870 0.000000 0.000000 
#    y 0.000000 2.170870 0.000000 
#    z 0.000000 0.000000 2.683060 
# 
# 
# High freq. dielectric constant tensor:
#      x y z
#    x 1.370420 0.000000 0.000000 
#    y 0.000000 1.370420 0.000000 
#    z 0.000000 0.000000 1.436630 
# 
# From -- ./inp_files/1117.got.cif
#   From: 2010.03.12/outbox.cif.g09.slc.cpg/sg105_1_cif.got.tgz:1117.got - 2010.04.14 01:45:32.
