data_PCOD8307560
_publ_section_title
;
Structure prediction by ZEFSAII (Michael W. Deem and Ramdas Pophale) SiO2 
 PCOD8307560
Probable space group: I 4 M M
;
_chemical_formula_sum "Si O2"
_cell_formula_units_Z 112
_cell_length_a 19.729906
_cell_length_b 19.729906
_cell_length_c 17.241853
_cell_angle_alpha 90.000000
_cell_angle_beta 90.000000
_cell_angle_gamma 90.000000
_cell_volume 6711.722165
_symmetry_space_group_name_H-M "I 4 M M"
_symmetry_group_IT_number 107
_symmetry_cell_setting 'tetragonal'
loop_
_space_group_symop_operation_xyz
x,y,z
-y,x,z
-x,-y,z
y,-x,z
-x,y,z
x,-y,z
-y,-x,z
y,x,z
1/2+x,1/2+y,1/2+z
1/2-y,1/2+x,1/2+z
1/2-x,1/2-y,1/2+z
1/2+y,1/2-x,1/2+z
1/2-x,1/2+y,1/2+z
1/2+x,1/2-y,1/2+z
1/2-y,1/2-x,1/2+z
1/2+y,1/2+x,1/2+z
loop_
_atom_site_type_symbol
_atom_site_label
_atom_site_fract_x
_atom_site_fract_y
_atom_site_fract_z
Si Si1 0.740448 0.845587 0.116640
Si Si2 0.577798 0.185405 0.482748
Si Si3 0.618952 0.271378 0.238348
Si Si4 0.780747 0.330928 0.789760
Si Si5 0.421358 0.186495 0.934069
Si Si6 0.628545 0.264695 0.073989
Si Si7 0.816339 0.074843 0.892771
O O1 0.815056 0.815056 0.095632
O O2 0.740240 0.864411 0.207669
O O3 0.686434 0.789407 0.092155
O O4 0.719426 0.911602 0.067497
O O5 0.500000 0.164778 0.473231
O O6 0.620210 0.117934 0.464923
O O7 0.600583 0.243928 0.423063
O O8 0.688512 0.311489 0.221043
O O9 0.644133 0.200813 0.276620
O O10 0.582890 0.265618 0.153769
O O11 0.571789 0.311208 0.299035
O O12 0.725775 0.274226 0.816436
O O13 0.785071 0.388769 0.854989
O O14 0.500000 0.168355 0.919288
O O15 0.416844 0.243930 0.000597
O O16 0.662272 0.337729 0.055200
O O17 0.874523 0.125477 0.921324
O O18 0.833954 0.000000 0.924140
#
# Coordination Sequence:
#
# PCOD8307560 Si02
#       7
#    16  16  16  16  16  16  16
#     4   8  15  28  49  73  90 109 148 202 250 289
#     4  10  20  33  48  64  89 131 171 199 233 284
#     4   8  14  27  47  68  89 116 154 192 229 280
#     4   9  16  29  49  71  94 119 149 197 254 296
#     4  11  21  30  44  68  97 128 161 204 248 279
#     4   8  15  28  46  68  90 116 150 191 241 286
#     4  10  19  30  48  72  95 123 155 190 239 295
#
# _framework density 16.687222999999999
#
# number of rings (size 3 to 8) (size 9 to 14) (size 15 to 20)
#    0.000    2.857    1.429    2.571    0.000    2.714 
#    0.000    0.000    0.000    0.000    0.000    2.000 
#    0.000    4.571    0.000   10.571    0.000    0.000 
#
# Total GULP energy -693761.135174 kJ/mol
# GULP energy per Si atom -12388.591700 kJ/mol
# Density = 1.664924 g / cm^3
# Si number density = 16.687223 Si / 1000 Ang^3
#
#
#
# Elastic Constant Matrix: (Units=GPa)
#
#
# Indices 1 2 3 4 5 6 
#
# 1 61.1233 43.1999 30.6399 0.0000 0.0000 0.0004
# 2 43.1999 61.1233 30.6399 0.0000 0.0000 -0.0004
# 3 30.6399 30.6399 102.2043 0.0000 0.0000 0.0000
# 4 0.0000 0.0000 0.0000 16.6513 0.0000 0.0000
# 5 0.0000 0.0000 0.0000 0.0000 16.6513 0.0000
# 6 0.0004 -0.0004 0.0000 0.0000 0.0000 15.6124
#
#
#
# Elastic Compliance Matrix: (Units=1/GPa)
#
#
# Indices 1 2 3 4 5 6 
#
# 1 0.033714 -0.022079 -0.003488 0.000000 0.000000 -0.000001
# 2 -0.022079 0.033714 -0.003488 0.000000 0.000000 0.000001
# 3 -0.003488 -0.003488 0.011876 0.000000 0.000000 0.000000
# 4 0.000000 0.000000 0.000000 0.060055 0.000000 0.000000
# 5 0.000000 0.000000 0.000000 0.000000 0.060055 0.000000
# 6 -0.000001 0.000001 0.000000 0.000000 0.000000 0.064052
#
#
# Mechanical properties :
#
#
# Convention : Reuss Voigt Hill
#
# Bulk Modulus (GPa) = 47.18573 48.15669 47.67121
# Shear Modulus (GPa) = 15.21426 17.78111 16.49768
#
# Velocity S-wave (km/s) = 3.02276 3.26782 3.14768
# Velocity P-wave (km/s) = 6.36559 6.56957 6.46839
#
# Compressibility (1/GPa) = 0.02119285
#
# Stress axis : x y z
#
# Youngs Moduli (GPa) = 29.66160 29.66160 84.20638
#
# Poissons Ratio (x) = 0.65491 0.29370
# Poissons Ratio (y) = 0.65491 0.29370
# Poissons Ratio (z) = 0.10346 0.10346
#
# Static dielectric constant tensor:
#      x y z
#    x 2.836750 0.000000 0.000000 
#    y 0.000000 2.836750 0.000000 
#    z 0.000000 0.000000 3.416300 
# 
# 
# High freq. dielectric constant tensor:
#      x y z
#    x 1.609380 0.000000 0.000000 
#    y 0.000000 1.609380 0.000000 
#    z 0.000000 0.000000 1.659540 
# 
# From -- ./inp_files/4315.got.cif
#   From: 2010.03.12/outbox.cif.g09.slc.cpg/sg107_3_cif.got.tgz:4315.got - 2010.04.14 01:49:11.
