data_PCOD8307319
_publ_section_title
;
Structure prediction by ZEFSAII (Michael W. Deem and Ramdas Pophale) SiO2 
 PCOD8307319
Probable space group: P 42 M C
;
_chemical_formula_sum "Si O2"
_cell_formula_units_Z 40
_cell_length_a 8.103510
_cell_length_b 8.103510
_cell_length_c 28.636807
_cell_angle_alpha 90.000000
_cell_angle_beta 90.000000
_cell_angle_gamma 90.000000
_cell_volume 1880.489606
_symmetry_space_group_name_H-M "P 42 M C"
_symmetry_group_IT_number 105
_symmetry_cell_setting 'tetragonal'
loop_
_space_group_symop_operation_xyz
x,y,z
-y,x,1/2+z
-x,-y,z
y,-x,1/2+z
-x,y,z
x,-y,z
-y,-x,1/2+z
y,x,1/2+z
loop_
_atom_site_type_symbol
_atom_site_label
_atom_site_fract_x
_atom_site_fract_y
_atom_site_fract_z
Si Si1 0.185414 0.188633 0.237270
Si Si2 0.000000 0.811158 0.090563
Si Si3 0.000000 0.801767 0.987149
Si Si4 0.687761 0.688829 0.831752
Si Si5 0.682924 0.310527 0.145265
Si Si6 0.809831 0.316118 0.432042
O O1 0.256602 0.197685 0.289243
O O2 0.295548 0.291099 0.200940
O O3 0.000000 0.259446 0.236424
O O4 0.188083 0.000000 0.220784
O O5 0.166742 0.775580 0.118780
O O6 0.000000 0.000000 0.078666
O O7 0.000000 0.726334 0.039596
O O8 0.832412 0.731232 0.962699
O O9 0.000000 0.000000 0.983800
O O10 0.500000 0.720062 0.816146
O O11 0.721609 0.500000 0.844278
O O12 0.731966 0.792416 0.877720
O O13 0.500000 0.240156 0.131493
O O14 0.690044 0.500000 0.131556
O O15 0.729024 0.500000 0.441394
O O16 0.000000 0.329428 0.444980
#
# Coordination Sequence:
#
# PCOD8307319 Si02
#       6
#     8   4   4   8   8   8
#     4  11  23  37  57  87 120 157 202 252 305 365
#     4  11  23  41  65  95 125 159 205 263 321 374
#     4   9  20  37  61  89 117 151 201 255 307 370
#     4  10  21  36  54  81 118 158 199 244 299 363
#     4  11  24  42  64  89 122 164 206 254 311 376
#     4   9  18  35  58  83 115 155 198 247 303 363
#
# _framework density 21.271058
#
# number of rings (size 3 to 8) (size 9 to 14) (size 15 to 20)
#    0.000    1.800    1.000    2.700    1.400    7.200 
#    0.000    4.000    0.000    2.400    0.000    0.000 
#    0.000    0.000    0.000    0.000    0.000    0.000 
#
# Total GULP energy -495859.104140 kJ/mol
# GULP energy per Si atom -12396.477603 kJ/mol
# Density = 2.122264 g / cm^3
# Si number density = 21.271058 Si / 1000 Ang^3
#
#
#
# Elastic Constant Matrix: (Units=GPa)
#
#
# Indices 1 2 3 4 5 6 
#
# 1 88.9688 28.5324 38.2573 0.0000 0.0000 0.0000
# 2 28.5324 88.9688 38.2573 0.0000 0.0000 0.0000
# 3 38.2573 38.2573 131.2475 0.0000 0.0000 0.0000
# 4 0.0000 0.0000 0.0000 5.3636 0.0000 0.0000
# 5 0.0000 0.0000 0.0000 0.0000 5.3636 0.0000
# 6 0.0000 0.0000 0.0000 0.0000 0.0000 11.6725
#
#
#
# Elastic Compliance Matrix: (Units=1/GPa)
#
#
# Indices 1 2 3 4 5 6 
#
# 1 0.013525 -0.003021 -0.003062 0.000000 0.000000 0.000000
# 2 -0.003021 0.013525 -0.003062 0.000000 0.000000 0.000000
# 3 -0.003062 -0.003062 0.009404 0.000000 0.000000 0.000000
# 4 0.000000 0.000000 0.000000 0.186444 0.000000 0.000000
# 5 0.000000 0.000000 0.000000 0.000000 0.186444 0.000000
# 6 0.000000 0.000000 0.000000 0.000000 0.000000 0.085671
#
#
# Mechanical properties :
#
#
# Convention : Reuss Voigt Hill
#
# Bulk Modulus (GPa) = 55.04984 57.69768 56.37376
# Shear Modulus (GPa) = 9.62727 18.08913 13.85820
#
# Velocity S-wave (km/s) = 2.12975 2.91934 2.55523
# Velocity P-wave (km/s) = 5.65545 6.20865 5.93849
#
# Compressibility (1/GPa) = 0.01816536
#
# Stress axis : x y z
#
# Youngs Moduli (GPa) = 73.93513 73.93513 106.33508
#
# Poissons Ratio (x) = 0.22335 0.32559
# Poissons Ratio (y) = 0.22335 0.32559
# Poissons Ratio (z) = 0.22638 0.22638
#
# Static dielectric constant tensor:
#      x y z
#    x 3.915480 0.000000 0.000000 
#    y 0.000000 3.915480 0.000000 
#    z 0.000000 0.000000 3.739030 
# 
# 
# High freq. dielectric constant tensor:
#      x y z
#    x 1.830320 0.000000 0.000000 
#    y 0.000000 1.830320 0.000000 
#    z 0.000000 0.000000 1.827310 
# 
# From -- ./inp_files/4241.got.cif
#   From: 2010.03.12/outbox.cif.g09.slc.cpg/sg105_3_cif.got.tgz:4241.got - 2010.04.14 01:45:32.
