data_PCOD8307321
_publ_section_title
;
Structure prediction by ZEFSAII (Michael W. Deem and Ramdas Pophale) SiO2 
 PCOD8307321
Probable space group: P 42 M C
;
_chemical_formula_sum "Si O2"
_cell_formula_units_Z 40
_cell_length_a 8.090106
_cell_length_b 8.090106
_cell_length_c 28.670783
_cell_angle_alpha 90.000000
_cell_angle_beta 90.000000
_cell_angle_gamma 90.000000
_cell_volume 1876.497446
_symmetry_space_group_name_H-M "P 42 M C"
_symmetry_group_IT_number 105
_symmetry_cell_setting 'tetragonal'
loop_
_space_group_symop_operation_xyz
x,y,z
-y,x,1/2+z
-x,-y,z
y,-x,1/2+z
-x,y,z
x,-y,z
-y,-x,1/2+z
y,x,1/2+z
loop_
_atom_site_type_symbol
_atom_site_label
_atom_site_fract_x
_atom_site_fract_y
_atom_site_fract_z
Si Si1 0.814828 0.811252 0.908360
Si Si2 0.319407 0.309121 0.000518
Si Si3 0.000000 0.696823 0.053763
Si Si4 0.804259 0.000000 0.659624
Si Si5 0.684047 0.809582 0.213867
Si Si6 0.310988 0.687941 0.813941
O O1 0.705905 0.709734 0.945074
O O2 0.741658 0.802337 0.856602
O O3 0.000000 0.738693 0.908552
O O4 0.813026 0.000000 0.924526
O O5 0.500000 0.230889 0.013967
O O6 0.326001 0.500000 0.013253
O O7 0.165095 0.228863 0.028776
O O8 0.000000 0.500000 0.050019
O O9 0.000000 0.755777 0.106247
O O10 0.729123 0.832085 0.683038
O O11 0.000000 0.000000 0.666697
O O12 0.500000 0.728360 0.204708
O O13 0.733045 0.793074 0.268069
O O14 0.671008 0.000000 0.200669
O O15 0.500000 0.720444 0.800981
O O16 0.278503 0.500000 0.829387
#
# Coordination Sequence:
#
# PCOD8307321 Si02
#       6
#     8   8   4   4   8   8
#     4  11  23  36  54  83 118 155 195 238 290 353
#     4  10  21  39  62  85 113 152 197 244 294 356
#     4  10  22  40  60  86 116 150 192 242 304 359
#     4  10  22  38  60  86 114 150 196 248 296 359
#     4   9  19  37  58  81 113 153 195 242 297 355
#     4  10  21  36  55  82 115 152 194 239 291 351
#
# _framework density 21.316306999999998
#
# number of rings (size 3 to 8) (size 9 to 14) (size 15 to 20)
#    0.000    2.000    1.000    1.800    1.400    7.600 
#    0.000    0.000    0.000    0.000    0.000    0.000 
#    0.000    0.000    0.000    0.000    0.000    0.000 
#
# Total GULP energy -495857.078269 kJ/mol
# GULP energy per Si atom -12396.426957 kJ/mol
# Density = 2.126779 g / cm^3
# Si number density = 21.316307 Si / 1000 Ang^3
#
#
#
# Elastic Constant Matrix: (Units=GPa)
#
#
# Indices 1 2 3 4 5 6 
#
# 1 90.2695 28.9986 42.4025 0.0000 0.0000 0.0000
# 2 28.9986 90.2695 42.4025 0.0000 0.0000 0.0000
# 3 42.4025 42.4025 136.3687 0.0000 0.0000 0.0000
# 4 0.0000 0.0000 0.0000 28.9648 0.0000 0.0000
# 5 0.0000 0.0000 0.0000 0.0000 28.9648 0.0000
# 6 0.0000 0.0000 0.0000 0.0000 0.0000 12.6778
#
#
#
# Elastic Compliance Matrix: (Units=1/GPa)
#
#
# Indices 1 2 3 4 5 6 
#
# 1 0.013543 -0.002778 -0.003347 0.000000 0.000000 0.000000
# 2 -0.002778 0.013543 -0.003347 0.000000 0.000000 0.000000
# 3 -0.003347 -0.003347 0.009415 0.000000 0.000000 0.000000
# 4 0.000000 0.000000 0.000000 0.034525 0.000000 0.000000
# 5 0.000000 0.000000 0.000000 0.000000 0.034525 0.000000
# 6 0.000000 0.000000 0.000000 0.000000 0.000000 0.078878
#
#
# Mechanical properties :
#
#
# Convention : Reuss Voigt Hill
#
# Bulk Modulus (GPa) = 56.96378 60.50164 58.73271
# Shear Modulus (GPa) = 23.89786 27.66176 25.77981
#
# Velocity S-wave (km/s) = 3.35193 3.60624 3.48141
# Velocity P-wave (km/s) = 6.46233 6.76642 6.61612
#
# Compressibility (1/GPa) = 0.01755502
#
# Stress axis : x y z
#
# Youngs Moduli (GPa) = 73.84058 73.84058 106.21863
#
# Poissons Ratio (x) = 0.20515 0.35552
# Poissons Ratio (y) = 0.20515 0.35552
# Poissons Ratio (z) = 0.24715 0.24715
#
# Static dielectric constant tensor:
#      x y z
#    x 4.022920 0.000000 0.000000 
#    y 0.000000 4.022920 0.000000 
#    z 0.000000 0.000000 3.685390 
# 
# 
# High freq. dielectric constant tensor:
#      x y z
#    x 1.831300 0.000000 0.000000 
#    y 0.000000 1.831300 0.000000 
#    z 0.000000 0.000000 1.824510 
# 
# From -- ./inp_files/4278.got.cif
#   From: 2010.03.12/outbox.cif.g09.slc.cpg/sg105_3_cif.got.tgz:4278.got - 2010.04.14 01:45:32.
