data_PCOD8307956
_publ_section_title
;
Structure prediction by ZEFSAII (Michael W. Deem and Ramdas Pophale) SiO2 
 PCOD8307956
Probable space group: I 41 M D
;
_chemical_formula_sum "Si O2"
_cell_formula_units_Z 80
_cell_length_a 18.050145
_cell_length_b 18.050145
_cell_length_c 12.196973
_cell_angle_alpha 90.000000
_cell_angle_beta 90.000000
_cell_angle_gamma 90.000000
_cell_volume 3973.868141
_symmetry_space_group_name_H-M "I 41 M D"
_symmetry_group_IT_number 109
_symmetry_cell_setting 'tetragonal'
loop_
_space_group_symop_operation_xyz
x,y,z
-y,1/2+x,1/4+z
-x,-y,z
y,1/2-x,1/4+z
-x,y,z
x,-y,z
-y,1/2-x,1/4+z
y,1/2+x,1/4+z
1/2+x,1/2+y,1/2+z
1/2-y,x,3/4+z
1/2-x,1/2-y,1/2+z
1/2+y,-x,3/4+z
1/2-x,1/2+y,1/2+z
1/2+x,1/2-y,1/2+z
1/2-y,-x,3/4+z
1/2+y,x,3/4+z
loop_
_atom_site_type_symbol
_atom_site_label
_atom_site_fract_x
_atom_site_fract_y
_atom_site_fract_z
Si Si1 0.154542 0.294598 0.315260
Si Si2 0.817467 0.170292 0.826925
Si Si3 0.690253 0.587700 0.107776
Si Si4 0.917358 0.415889 0.451004
Si Si5 0.415122 0.651757 0.925315
O O1 0.125534 0.309984 0.191824
O O2 0.242897 0.281178 0.306266
O O3 0.142732 0.367369 0.388268
O O4 0.113326 0.228061 0.373902
O O5 0.829724 0.110154 0.732048
O O6 0.886308 0.226913 0.827589
O O7 0.684641 0.500000 0.094083
O O8 0.631584 0.627974 0.029828
O O9 0.902213 0.500000 0.415453
O O10 0.910388 0.407403 0.581953
O O11 0.000000 0.390742 0.418139
O O12 0.500000 0.662281 0.962741
#
# Coordination Sequence:
#
# PCOD8307956 Si02
#       5
#    16  16  16  16  16
#     4  11  20  41  66  92 125 165 216 268 318 375
#     4  10  24  42  65  91 126 167 213 264 314 382
#     4  11  25  43  64  93 131 169 211 264 321 382
#     4  10  22  38  59  92 129 163 206 265 326 383
#     4  11  23  39  64  94 127 168 212 260 317 383
#
# _framework density 20.131519000000001
#
# number of rings (size 3 to 8) (size 9 to 14) (size 15 to 20)
#    0.000    1.400    2.000    3.600    2.800    6.800 
#    0.000    0.000    0.000    0.000    0.000    0.000 
#    0.000    0.000    0.000    0.000    0.000    0.000 
#
# Total GULP energy -496073.521035 kJ/mol
# GULP energy per Si atom -12401.838026 kJ/mol
# Density = 2.008570 g / cm^3
# Si number density = 20.131519 Si / 1000 Ang^3
#
#
#
# Elastic Constant Matrix: (Units=GPa)
#
#
# Indices 1 2 3 4 5 6 
#
# 1 101.4430 47.8186 52.6911 0.0000 0.0000 0.0000
# 2 47.8186 101.4430 52.6911 0.0000 0.0000 0.0000
# 3 52.6911 52.6911 132.7787 0.0000 0.0000 0.0000
# 4 0.0000 0.0000 0.0000 22.5071 0.0000 0.0000
# 5 0.0000 0.0000 0.0000 0.0000 22.5071 0.0000
# 6 0.0000 0.0000 0.0000 0.0000 0.0000 18.6383
#
#
#
# Elastic Compliance Matrix: (Units=1/GPa)
#
#
# Indices 1 2 3 4 5 6 
#
# 1 0.013978 -0.004670 -0.003693 0.000000 0.000000 0.000000
# 2 -0.004670 0.013978 -0.003693 0.000000 0.000000 0.000000
# 3 -0.003693 -0.003693 0.010463 0.000000 0.000000 0.000000
# 4 0.000000 0.000000 0.000000 0.044430 0.000000 0.000000
# 5 0.000000 0.000000 0.000000 0.000000 0.044430 0.000000
# 6 0.000000 0.000000 0.000000 0.000000 0.000000 0.053653
#
#
# Mechanical properties :
#
#
# Convention : Reuss Voigt Hill
#
# Bulk Modulus (GPa) = 69.91293 71.34069 70.62681
# Shear Modulus (GPa) = 23.83055 24.89475 24.36265
#
# Velocity S-wave (km/s) = 3.44429 3.52036 3.48253
# Velocity P-wave (km/s) = 7.11484 7.21374 7.16446
#
# Compressibility (1/GPa) = 0.01430351
#
# Stress axis : x y z
#
# Youngs Moduli (GPa) = 71.54214 71.54214 95.57751
#
# Poissons Ratio (x) = 0.33413 0.35301
# Poissons Ratio (y) = 0.33413 0.35301
# Poissons Ratio (z) = 0.26424 0.26424
#
# Static dielectric constant tensor:
#      x y z
#    x 3.565780 0.000000 0.000000 
#    y 0.000000 3.565780 0.000000 
#    z 0.000000 0.000000 3.891310 
# 
# 
# High freq. dielectric constant tensor:
#      x y z
#    x 1.781500 0.000000 0.000000 
#    y 0.000000 1.781500 0.000000 
#    z 0.000000 0.000000 1.798610 
# 
# From -- ./inp_files/2488.got.cif
#   From: 2010.03.12/outbox.cif.g09.slc.cpg/sg109_2_cif.got.tgz:2488.got - 2010.04.14 01:55:16.
