data_PCOD8307333
_publ_section_title
;
Structure prediction by ZEFSAII (Michael W. Deem and Ramdas Pophale) SiO2 
 PCOD8307333
Probable space group: P 42 M C
;
_chemical_formula_sum "Si O2"
_cell_formula_units_Z 40
_cell_length_a 8.987663
_cell_length_b 8.987663
_cell_length_c 25.549651
_cell_angle_alpha 90.000000
_cell_angle_beta 90.000000
_cell_angle_gamma 90.000000
_cell_volume 2063.851911
_symmetry_space_group_name_H-M "P 42 M C"
_symmetry_group_IT_number 105
_symmetry_cell_setting 'tetragonal'
loop_
_space_group_symop_operation_xyz
x,y,z
-y,x,1/2+z
-x,-y,z
y,-x,1/2+z
-x,y,z
x,-y,z
-y,-x,1/2+z
y,x,1/2+z
loop_
_atom_site_type_symbol
_atom_site_label
_atom_site_fract_x
_atom_site_fract_y
_atom_site_fract_z
Si Si1 0.671862 0.325947 0.293860
Si Si2 0.670227 0.825516 0.400930
Si Si3 0.169343 0.175710 0.698111
Si Si4 0.327818 0.673959 0.602045
Si Si5 0.671212 0.172950 0.994895
O O1 0.500000 0.289549 0.282357
O O2 0.701468 0.500000 0.298032
O O3 0.724446 0.252260 0.347847
O O4 0.768770 0.261541 0.247369
O O5 0.500000 0.780892 0.413718
O O6 0.775914 0.772798 0.447239
O O7 0.688260 0.000000 0.393198
O O8 0.238680 0.236905 0.645194
O O9 0.000000 0.232002 0.702856
O O10 0.178183 0.000000 0.696347
O O11 0.500000 0.719028 0.604487
O O12 0.304610 0.500000 0.612592
O O13 0.264467 0.720410 0.545779
O O14 0.500000 0.205937 0.980740
O O15 0.698475 0.000000 0.006184
#
# Coordination Sequence:
#
# PCOD8307333 Si02
#       5
#     8   8   8   8   8
#     4  10  21  38  61  86 111 144 188 234 279 330
#     4  10  21  37  58  84 113 147 186 228 277 331
#     4  11  24  39  56  82 116 151 186 227 278 334
#     4  10  21  38  61  86 111 144 188 234 279 330
#     4  10  21  37  58  84 113 147 186 228 277 331
#
# _framework density 19.381235
#
# number of rings (size 3 to 8) (size 9 to 14) (size 15 to 20)
#    0.000    1.800    0.000    3.600    0.000   10.400 
#    0.000    0.000    0.000    0.000    0.000    0.000 
#    0.000    0.000    0.000    0.000    0.000    0.000 
#
# Total GULP energy -496252.084648 kJ/mol
# GULP energy per Si atom -12406.302116 kJ/mol
# Density = 1.933712 g / cm^3
# Si number density = 19.381235 Si / 1000 Ang^3
#
#
#
# Elastic Constant Matrix: (Units=GPa)
#
#
# Indices 1 2 3 4 5 6 
#
# 1 60.0160 28.8234 34.2281 0.0000 0.0000 0.0000
# 2 28.8234 60.0160 34.2281 0.0000 0.0000 0.0000
# 3 34.2281 34.2281 111.2011 0.0000 0.0000 0.0000
# 4 0.0000 0.0000 0.0000 69.4245 0.0000 0.0000
# 5 0.0000 0.0000 0.0000 0.0000 69.4245 0.0000
# 6 0.0000 0.0000 0.0000 0.0000 0.0000 30.9495
#
#
#
# Elastic Compliance Matrix: (Units=1/GPa)
#
#
# Indices 1 2 3 4 5 6 
#
# 1 0.023408 -0.008651 -0.004542 0.000000 0.000000 0.000000
# 2 -0.008651 0.023408 -0.004542 0.000000 0.000000 0.000000
# 3 -0.004542 -0.004542 0.011789 0.000000 0.000000 0.000000
# 4 0.000000 0.000000 0.000000 0.014404 0.000000 0.000000
# 5 0.000000 0.000000 0.000000 0.000000 0.014404 0.000000
# 6 0.000000 0.000000 0.000000 0.000000 0.000000 0.032311
#
#
# Mechanical properties :
#
#
# Convention : Reuss Voigt Hill
#
# Bulk Modulus (GPa) = 43.22806 47.31026 45.26916
# Shear Modulus (GPa) = 30.69280 42.88991 36.79135
#
# Velocity S-wave (km/s) = 3.98381 4.70931 4.36167
# Velocity P-wave (km/s) = 6.59647 7.35075 6.98380
#
# Compressibility (1/GPa) = 0.02313312
#
# Stress axis : x y z
#
# Youngs Moduli (GPa) = 42.72129 42.72129 84.82624
#
# Poissons Ratio (x) = 0.36960 0.38528
# Poissons Ratio (y) = 0.36960 0.38528
# Poissons Ratio (z) = 0.19404 0.19404
#
# Static dielectric constant tensor:
#      x y z
#    x 3.597800 0.000000 0.000000 
#    y 0.000000 3.597800 0.000000 
#    z 0.000000 0.000000 3.711790 
# 
# 
# High freq. dielectric constant tensor:
#      x y z
#    x 1.758960 0.000000 0.000000 
#    y 0.000000 1.758960 0.000000 
#    z 0.000000 0.000000 1.768740 
# 
# From -- ./inp_files/3898.got.cif
#   From: 2010.03.12/outbox.cif.g09.slc.cpg/sg105_2_cif.got.tgz:3898.got - 2010.04.14 01:45:32.
