data_PCOD8307462
_publ_section_title
;
Structure prediction by ZEFSAII (Michael W. Deem and Ramdas Pophale) SiO2 
 PCOD8307462
Probable space group: P 42 B C
;
_chemical_formula_sum "Si O2"
_cell_formula_units_Z 40
_cell_length_a 13.602544
_cell_length_b 13.602544
_cell_length_c 8.046283
_cell_angle_alpha 90.000000
_cell_angle_beta 90.000000
_cell_angle_gamma 90.000000
_cell_volume 1488.797333
_symmetry_space_group_name_H-M "P 42 B C"
_symmetry_group_IT_number 106
_symmetry_cell_setting 'tetragonal'
loop_
_space_group_symop_operation_xyz
x,y,z
-y,x,1/2+z
-x,-y,z
y,-x,1/2+z
1/2-x,1/2+y,z
1/2+x,1/2-y,z
1/2-y,1/2-x,1/2+z
1/2+y,1/2+x,1/2+z
loop_
_atom_site_type_symbol
_atom_site_label
_atom_site_fract_x
_atom_site_fract_y
_atom_site_fract_z
Si Si1 0.495735 0.787867 0.986700
Si Si2 0.328403 0.220002 0.215724
Si Si3 0.709841 0.493603 0.945744
Si Si4 0.882384 0.671744 0.667449
Si Si5 0.919810 0.147009 0.774282
O O1 0.453333 0.848491 0.826599
O O2 0.503193 0.672703 0.925585
O O3 0.602097 0.817596 0.063641
O O4 0.419125 0.807386 0.137380
O O5 0.391950 0.251382 0.374481
O O6 0.270479 0.318845 0.173901
O O7 0.252399 0.136040 0.265386
O O8 0.647267 0.553227 0.808180
O O9 0.807528 0.551932 0.004154
O O10 0.634836 0.475389 0.099992
#
# Coordination Sequence:
#
# PCOD8307462 Si02
#       5
#     8   8   8   8   8
#     4  11  24  46  77 113 153 212 272 324 405 486
#     4  12  24  45  83 112 160 215 265 327 413 491
#     4  11  26  48  80 121 164 211 275 338 413 499
#     4  11  25  47  76 110 166 213 259 343 406 482
#     4  11  25  50  78 124 160 220 271 345 418 494
#
# _framework density 26.867324
#
# number of rings (size 3 to 8) (size 9 to 14) (size 15 to 20)
#    0.000    0.800    2.000    4.800    5.600    0.000 
#    0.000   25.000    0.000    0.000    0.000    0.000 
#    0.000    0.000    0.000    0.000    0.000    0.000 
#
# Total GULP energy -495544.517247 kJ/mol
# GULP energy per Si atom -12388.612931 kJ/mol
# Density = 2.680617 g / cm^3
# Si number density = 26.867324 Si / 1000 Ang^3
#
#
#
# Elastic Constant Matrix: (Units=GPa)
#
#
# Indices 1 2 3 4 5 6 
#
# 1 115.8547 50.2456 36.0385 0.0000 0.0000 0.0000
# 2 50.2456 115.8547 36.0385 0.0000 0.0000 0.0000
# 3 36.0385 36.0385 112.8376 0.0000 0.0000 0.0000
# 4 0.0000 0.0000 0.0000 46.4763 0.0000 0.0000
# 5 0.0000 0.0000 0.0000 0.0000 46.4763 0.0000
# 6 0.0000 0.0000 0.0000 0.0000 0.0000 28.2116
#
#
#
# Elastic Compliance Matrix: (Units=1/GPa)
#
#
# Indices 1 2 3 4 5 6 
#
# 1 0.011115 -0.004126 -0.002232 0.000000 0.000000 0.000000
# 2 -0.004126 0.011115 -0.002232 0.000000 0.000000 0.000000
# 3 -0.002232 -0.002232 0.010288 0.000000 0.000000 0.000000
# 4 0.000000 0.000000 0.000000 0.021516 0.000000 0.000000
# 5 0.000000 0.000000 0.000000 0.000000 0.021516 0.000000
# 6 0.000000 0.000000 0.000000 0.000000 0.000000 0.035446
#
#
# Mechanical properties :
#
#
# Convention : Reuss Voigt Hill
#
# Bulk Modulus (GPa) = 65.19956 65.46581 65.33269
# Shear Modulus (GPa) = 37.51155 39.04777 38.27966
#
# Velocity S-wave (km/s) = 3.74060 3.81643 3.77870
# Velocity P-wave (km/s) = 6.55561 6.62113 6.58845
#
# Compressibility (1/GPa) = 0.01533753
#
# Stress axis : x y z
#
# Youngs Moduli (GPa) = 89.96488 89.96488 97.19912
#
# Poissons Ratio (x) = 0.37123 0.21697
# Poissons Ratio (y) = 0.37123 0.21697
# Poissons Ratio (z) = 0.20082 0.20082
#
# Static dielectric constant tensor:
#      x y z
#    x 4.766040 0.000000 0.000000 
#    y 0.000000 4.766040 0.000000 
#    z 0.000000 0.000000 5.285630 
# 
# 
# High freq. dielectric constant tensor:
#      x y z
#    x 2.067200 0.000000 0.000000 
#    y 0.000000 2.067200 0.000000 
#    z 0.000000 0.000000 2.111630 
# 
# From -- ./inp_files/385.got.cif
#   From: 2010.03.12/outbox.cif.g09.slc.cpg/sg106_cif.got.tgz:385.got - 2010.04.14 01:48:02.
