data_PCOD8307185
_publ_section_title
;
Structure prediction by ZEFSAII (Michael W. Deem and Ramdas Pophale) SiO2 
 PCOD8307185
Probable space group: P 42 M C
;
_chemical_formula_sum "Si O2"
_cell_formula_units_Z 40
_cell_length_a 17.627645
_cell_length_b 17.627645
_cell_length_c 9.012900
_cell_angle_alpha 90.000000
_cell_angle_beta 90.000000
_cell_angle_gamma 90.000000
_cell_volume 2800.613281
_symmetry_space_group_name_H-M "P 42 M C"
_symmetry_group_IT_number 105
_symmetry_cell_setting 'tetragonal'
loop_
_space_group_symop_operation_xyz
x,y,z
-y,x,1/2+z
-x,-y,z
y,-x,1/2+z
-x,y,z
x,-y,z
-y,-x,1/2+z
y,x,1/2+z
loop_
_atom_site_type_symbol
_atom_site_label
_atom_site_fract_x
_atom_site_fract_y
_atom_site_fract_z
Si Si1 0.090519 0.500000 0.789031
Si Si2 0.351081 0.909731 0.789309
Si Si3 0.800515 0.910883 0.284571
Si Si4 0.500000 0.909481 0.624497
Si Si5 0.199485 0.089117 0.628956
Si Si6 0.351081 0.090269 0.124218
O O1 0.122262 0.574260 0.705672
O O2 0.000000 0.500000 0.788293
O O3 0.121395 0.500000 0.956764
O O4 0.425740 0.877738 0.707855
O O5 0.277177 0.880830 0.702048
O O6 0.353401 0.000000 0.789382
O O7 0.348894 0.878105 0.956764
O O8 0.798658 0.889597 0.456764
O O9 0.871486 0.871486 0.206764
O O10 0.722823 0.880830 0.211479
O O11 0.810596 0.000000 0.259195
O O12 0.500000 0.000000 0.625234
O O13 0.189404 0.000000 0.654332
O O14 0.353401 0.000000 0.124146
#
# Coordination Sequence:
#
# PCOD8307185 Si02
#       6
#     4   8   8   4   8   8
#     4   9  15  23  37  57  79  99 119 146 183 228
#     4   9  16  26  40  57  76  97 122 153 190 232
#     4  10  20  32  44  57  74  98 130 168 207 243
#     4   9  15  23  37  57  79  99 119 146 183 228
#     4  10  20  32  44  57  74  98 130 168 207 243
#     4   9  16  26  40  57  76  97 122 153 190 232
#
# _framework density 14.282586
#
# number of rings (size 3 to 8) (size 9 to 14) (size 15 to 20)
#    0.000    2.600    0.000    3.000    0.000   10.000 
#    0.000    2.000    0.000    0.000    0.000    0.000 
#    0.000    0.000    0.000    0.000    0.000    1.000 
#
# Total GULP energy -496007.787049 kJ/mol
# GULP energy per Si atom -12400.194676 kJ/mol
# Density = 1.425008 g / cm^3
# Si number density = 14.282586 Si / 1000 Ang^3
#
#
#
# Elastic Constant Matrix: (Units=GPa)
#
#
# Indices 1 2 3 4 5 6 
#
# 1 51.9719 32.7265 49.1550 0.0000 0.0000 0.0000
# 2 32.7265 51.9719 49.1550 0.0000 0.0000 0.0000
# 3 49.1550 49.1550 151.3238 0.0000 0.0000 0.0000
# 4 0.0000 0.0000 0.0000 24.5051 0.0000 0.0000
# 5 0.0000 0.0000 0.0000 0.0000 24.5051 0.0000
# 6 0.0000 0.0000 0.0000 0.0000 0.0000 0.7849
#
#
#
# Elastic Compliance Matrix: (Units=1/GPa)
#
#
# Indices 1 2 3 4 5 6 
#
# 1 0.035456 -0.016504 -0.006156 0.000000 0.000000 0.000000
# 2 -0.016504 0.035456 -0.006156 0.000000 0.000000 0.000000
# 3 -0.006156 -0.006156 0.010608 0.000000 0.000000 0.000000
# 4 0.000000 0.000000 0.000000 0.040808 0.000000 0.000000
# 5 0.000000 0.000000 0.000000 0.000000 0.040808 0.000000
# 6 0.000000 0.000000 0.000000 0.000000 0.000000 1.274057
#
#
# Mechanical properties :
#
#
# Convention : Reuss Voigt Hill
#
# Bulk Modulus (GPa) = 41.86347 57.48229 49.67288
# Shear Modulus (GPa) = 3.32715 18.24111 10.78413
#
# Velocity S-wave (km/s) = 1.52793 3.57761 2.75081
# Velocity P-wave (km/s) = 5.69976 7.57625 6.70398
#
# Compressibility (1/GPa) = 0.02388717
#
# Stress axis : x y z
#
# Youngs Moduli (GPa) = 28.20371 28.20371 94.26921
#
# Poissons Ratio (x) = 0.46547 0.58035
# Poissons Ratio (y) = 0.46547 0.58035
# Poissons Ratio (z) = 0.17363 0.17363
#
# Static dielectric constant tensor:
#      x y z
#    x 2.579850 0.000000 0.000000 
#    y 0.000000 2.579850 0.000000 
#    z 0.000000 0.000000 3.063170 
# 
# 
# High freq. dielectric constant tensor:
#      x y z
#    x 1.508180 0.000000 0.000000 
#    y 0.000000 1.508180 0.000000 
#    z 0.000000 0.000000 1.572020 
# 
# From -- ./inp_files/905.got.cif
#   From: 2010.03.12/outbox.cif.g09.slc.cpg/sg105_1_cif.got.tgz:905.got - 2010.04.14 01:45:32.
