data_PCOD8307953
_publ_section_title
;
Structure prediction by ZEFSAII (Michael W. Deem and Ramdas Pophale) SiO2 
 PCOD8307953
Probable space group: I 41 M D
;
_chemical_formula_sum "Si O2"
_cell_formula_units_Z 84
_cell_length_a 14.546853
_cell_length_b 14.546853
_cell_length_c 19.097436
_cell_angle_alpha 90.000000
_cell_angle_beta 90.000000
_cell_angle_gamma 90.000000
_cell_volume 4041.226235
_symmetry_space_group_name_H-M "I 41 M D"
_symmetry_group_IT_number 109
_symmetry_cell_setting 'tetragonal'
loop_
_space_group_symop_operation_xyz
x,y,z
-y,1/2+x,1/4+z
-x,-y,z
y,1/2-x,1/4+z
-x,y,z
x,-y,z
-y,1/2-x,1/4+z
y,1/2+x,1/4+z
1/2+x,1/2+y,1/2+z
1/2-y,x,3/4+z
1/2-x,1/2-y,1/2+z
1/2+y,-x,3/4+z
1/2-x,1/2+y,1/2+z
1/2+x,1/2-y,1/2+z
1/2-y,-x,3/4+z
1/2+y,x,3/4+z
loop_
_atom_site_type_symbol
_atom_site_label
_atom_site_fract_x
_atom_site_fract_y
_atom_site_fract_z
Si Si1 0.500000 0.500000 0.419920
Si Si2 0.640587 0.500000 0.300636
Si Si3 0.900652 0.848980 0.695683
Si Si4 0.787494 0.254190 0.475685
Si Si5 0.598024 0.102094 0.295080
Si Si6 0.300866 0.394876 0.585920
Si Si7 0.500000 0.360217 0.540396
O O1 0.596725 0.500000 0.377931
O O2 0.500000 0.404353 0.462943
O O3 0.602130 0.591195 0.265438
O O4 0.750332 0.500000 0.295113
O O5 0.809127 0.789030 0.690622
O O6 0.898627 0.913726 0.628416
O O7 0.000000 0.795298 0.696862
O O8 0.841189 0.187628 0.527441
O O9 0.747122 0.338078 0.522210
O O10 0.851519 0.286794 0.412439
O O11 0.500000 0.141277 0.265787
O O12 0.612182 0.000000 0.264848
O O13 0.262905 0.500000 0.583920
O O14 0.410034 0.397799 0.578313
#
# Coordination Sequence:
#
# PCOD8307953 Si02
#       7
#     4   8  16  16  16  16   8
#     4  12  28  48  72 112 152 192 238 304 364 464
#     4  12  24  40  72 106 144 187 230 288 370 450
#     4  11  21  39  64 105 142 176 219 285 365 437
#     4  12  25  45  71 100 137 186 244 302 357 437
#     4  10  21  40  68  96 139 178 219 282 359 430
#     4  12  28  48  71 102 142 195 249 305 364 433
#     4  12  28  46  70 100 148 185 242 304 368 432
#
# _framework density 20.785768999999998
#
# number of rings (size 3 to 8) (size 9 to 14) (size 15 to 20)
#    0.000    0.571    6.667    1.143    4.000    1.524 
#    0.000    0.000    0.000    3.429    0.000    0.000 
#    0.000    0.000    0.000    0.000    0.000    0.000 
#
# Total GULP energy -520321.637103 kJ/mol
# GULP energy per Si atom -12388.610407 kJ/mol
# Density = 2.073846 g / cm^3
# Si number density = 20.785769 Si / 1000 Ang^3
#
#
#
# Elastic Constant Matrix: (Units=GPa)
#
#
# Indices 1 2 3 4 5 6 
#
# 1 148.8836 45.4702 53.1893 0.0000 0.0000 0.0000
# 2 45.4702 148.8836 53.1893 0.0000 0.0000 0.0000
# 3 53.1893 53.1893 105.7372 0.0000 0.0000 0.0000
# 4 0.0000 0.0000 0.0000 38.6779 0.0000 0.0000
# 5 0.0000 0.0000 0.0000 0.0000 38.6779 0.0000
# 6 0.0000 0.0000 0.0000 0.0000 0.0000 81.3601
#
#
#
# Elastic Compliance Matrix: (Units=1/GPa)
#
#
# Indices 1 2 3 4 5 6 
#
# 1 0.008385 -0.001285 -0.003572 0.000000 0.000000 0.000000
# 2 -0.001285 0.008385 -0.003572 0.000000 0.000000 0.000000
# 3 -0.003572 -0.003572 0.013051 0.000000 0.000000 0.000000
# 4 0.000000 0.000000 0.000000 0.025855 0.000000 0.000000
# 5 0.000000 0.000000 0.000000 0.000000 0.025855 0.000000
# 6 0.000000 0.000000 0.000000 0.000000 0.000000 0.012291
#
#
# Mechanical properties :
#
#
# Convention : Reuss Voigt Hill
#
# Bulk Modulus (GPa) = 77.13342 78.57802 77.85572
# Shear Modulus (GPa) = 43.47875 48.52020 45.99947
#
# Velocity S-wave (km/s) = 4.57853 4.83670 4.70939
# Velocity P-wave (km/s) = 8.07093 8.31128 8.19199
#
# Compressibility (1/GPa) = 0.01296455
#
# Stress axis : x y z
#
# Youngs Moduli (GPa) = 119.25997 119.25997 76.62431
#
# Poissons Ratio (x) = 0.15324 0.27367
# Poissons Ratio (y) = 0.15324 0.27367
# Poissons Ratio (z) = 0.42595 0.42595
#
# Static dielectric constant tensor:
#      x y z
#    x 4.084340 0.000000 0.000000 
#    y 0.000000 4.084340 0.000000 
#    z 0.000000 0.000000 3.637620 
# 
# 
# High freq. dielectric constant tensor:
#      x y z
#    x 1.823850 0.000000 0.000000 
#    y 0.000000 1.823850 0.000000 
#    z 0.000000 0.000000 1.808610 
# 
# From -- ./inp_files/3764.got.cif
#   From: 2010.03.12/outbox.cif.g09.slc.cpg/sg109_2_cif.got.tgz:3764.got - 2010.04.14 01:55:16.
