data_PCOD8307724
_publ_section_title
;
Structure prediction by ZEFSAII (Michael W. Deem and Ramdas Pophale) SiO2 
 PCOD8307724
Probable space group: I 4 C M
;
_chemical_formula_sum "Si O2"
_cell_formula_units_Z 96
_cell_length_a 24.964354
_cell_length_b 24.964354
_cell_length_c 9.358342
_cell_angle_alpha 90.000000
_cell_angle_beta 90.000000
_cell_angle_gamma 90.000000
_cell_volume 5832.296268
_symmetry_space_group_name_H-M "I 4 C M"
_symmetry_group_IT_number 108
_symmetry_cell_setting 'tetragonal'
loop_
_space_group_symop_operation_xyz
x,y,z
-y,x,z
-x,-y,z
y,-x,z
-x,y,1/2+z
x,-y,1/2+z
-y,-x,1/2+z
y,x,1/2+z
1/2+x,1/2+y,1/2+z
1/2-y,1/2+x,1/2+z
1/2-x,1/2-y,1/2+z
1/2+y,1/2-x,1/2+z
1/2-x,1/2+y,z
1/2+x,1/2-y,z
1/2-y,1/2-x,z
1/2+y,1/2+x,z
loop_
_atom_site_type_symbol
_atom_site_label
_atom_site_fract_x
_atom_site_fract_y
_atom_site_fract_z
Si Si1 0.743471 0.549143 0.582190
Si Si2 0.255835 0.668413 0.407583
Si Si3 0.755833 0.168412 0.573171
Si Si4 0.382797 0.549263 0.080185
Si Si5 0.450856 0.743470 0.898578
Si Si6 0.450738 0.382797 0.400588
O O1 0.756566 0.608100 0.517534
O O2 0.680223 0.543443 0.590045
O O3 0.768549 0.544220 0.740384
O O4 0.768064 0.499999 0.490386
O O5 0.202753 0.702753 0.437169
O O6 0.306202 0.693800 0.490375
O O7 0.243436 0.608102 0.463227
O O8 0.271297 0.666890 0.240377
O O9 0.702751 0.202751 0.543586
O O10 0.407093 0.551411 0.240386
O O11 0.397474 0.602527 0.990387
O O12 0.407749 0.500000 0.990386
O O13 0.456558 0.680223 0.890727
#
# Coordination Sequence:
#
# PCOD8307724 Si02
#       6
#    16  16  16  16  16  16
#     4   9  18  30  44  62  84 111 140 171 207 249
#     4   9  17  29  45  66  91 117 145 177 215 258
#     4   9  17  29  45  66  91 117 145 177 215 258
#     4  10  19  30  42  56  74  98 131 168 206 244
#     4   9  18  30  44  62  84 111 140 171 207 249
#     4  10  19  30  42  56  74  98 131 168 206 244
#
# _framework density 16.460070000000002
#
# number of rings (size 3 to 8) (size 9 to 14) (size 15 to 20)
#    0.000    2.667    0.000    2.000    0.000    3.000 
#    0.000    1.667    0.000    0.000    0.000    0.000 
#    0.000    0.667    0.000    8.333    0.000    0.000 
#
# Total GULP energy -594906.727948 kJ/mol
# GULP energy per Si atom -12393.890166 kJ/mol
# Density = 1.642261 g / cm^3
# Si number density = 16.460070 Si / 1000 Ang^3
#
#
#
# Elastic Constant Matrix: (Units=GPa)
#
#
# Indices 1 2 3 4 5 6 
#
# 1 84.5099 22.4346 34.4521 0.0000 0.0000 0.0000
# 2 22.4346 84.5099 34.4521 0.0000 0.0000 0.0000
# 3 34.4521 34.4521 87.8787 0.0000 0.0000 0.0000
# 4 0.0000 0.0000 0.0000 20.4016 0.0000 0.0000
# 5 0.0000 0.0000 0.0000 0.0000 20.4016 0.0000
# 6 0.0000 0.0000 0.0000 0.0000 0.0000 18.1667
#
#
#
# Elastic Compliance Matrix: (Units=1/GPa)
#
#
# Indices 1 2 3 4 5 6 
#
# 1 0.014310 -0.001799 -0.004905 0.000000 0.000000 0.000000
# 2 -0.001799 0.014310 -0.004905 0.000000 0.000000 0.000000
# 3 -0.004905 -0.004905 0.015225 0.000000 0.000000 0.000000
# 4 0.000000 0.000000 0.000000 0.049016 0.000000 0.000000
# 5 0.000000 0.000000 0.000000 0.000000 0.049016 0.000000
# 6 0.000000 0.000000 0.000000 0.000000 0.000000 0.055046
#
#
# Mechanical properties :
#
#
# Convention : Reuss Voigt Hill
#
# Bulk Modulus (GPa) = 48.47870 48.84178 48.66024
# Shear Modulus (GPa) = 22.02486 22.83129 22.42807
#
# Velocity S-wave (km/s) = 3.66194 3.72838 3.69531
# Velocity P-wave (km/s) = 6.88448 6.94779 6.91620
#
# Compressibility (1/GPa) = 0.02062762
#
# Stress axis : x y z
#
# Youngs Moduli (GPa) = 69.88068 69.88068 65.68135
#
# Poissons Ratio (x) = 0.12574 0.32215
# Poissons Ratio (y) = 0.12574 0.32215
# Poissons Ratio (z) = 0.34275 0.34275
#
# Static dielectric constant tensor:
#      x y z
#    x 2.984820 0.000000 0.000000 
#    y 0.000000 2.984820 0.000000 
#    z 0.000000 0.000000 3.448850 
# 
# 
# High freq. dielectric constant tensor:
#      x y z
#    x 1.605780 0.000000 0.000000 
#    y 0.000000 1.605780 0.000000 
#    z 0.000000 0.000000 1.641360 
# 
# From -- ./inp_files/758.got.cif
#   From: 2010.03.12/outbox.cif.g09.slc.cpg/sg108_1_cif.got.tgz:758.got - 2010.04.14 01:53:11.
