data_PCOD8307660
_publ_section_title
;
Structure prediction by ZEFSAII (Michael W. Deem and Ramdas Pophale) SiO2 
 PCOD8307660
Probable space group: I 4 M M
;
_chemical_formula_sum "Si O2"
_cell_formula_units_Z 64
_cell_length_a 15.389348
_cell_length_b 15.389348
_cell_length_c 13.274917
_cell_angle_alpha 90.000000
_cell_angle_beta 90.000000
_cell_angle_gamma 90.000000
_cell_volume 3143.925566
_symmetry_space_group_name_H-M "I 4 M M"
_symmetry_group_IT_number 107
_symmetry_cell_setting 'tetragonal'
loop_
_space_group_symop_operation_xyz
x,y,z
-y,x,z
-x,-y,z
y,-x,z
-x,y,z
x,-y,z
-y,-x,z
y,x,z
1/2+x,1/2+y,1/2+z
1/2-y,1/2+x,1/2+z
1/2-x,1/2-y,1/2+z
1/2+y,1/2-x,1/2+z
1/2-x,1/2+y,1/2+z
1/2+x,1/2-y,1/2+z
1/2-y,1/2-x,1/2+z
1/2+y,1/2+x,1/2+z
loop_
_atom_site_type_symbol
_atom_site_label
_atom_site_fract_x
_atom_site_fract_y
_atom_site_fract_z
Si Si1 0.679973 0.902874 0.546720
Si Si2 0.764905 0.903723 0.974434
Si Si3 0.235096 0.903723 0.343936
Si Si4 0.820026 0.402874 0.271650
O O1 0.607811 0.829232 0.526429
O O2 0.756625 0.891765 0.464851
O O3 0.718559 0.890870 0.659185
O O4 0.638632 0.000000 0.535336
O O5 0.833932 0.833932 0.016315
O O6 0.756626 0.891764 0.853519
O O7 0.798664 0.000000 0.001222
O O8 0.166068 0.833933 0.302055
O O9 0.329233 0.892188 0.291941
O O10 0.201337 0.000000 0.317148
O O11 0.861366 0.500000 0.283035
#
# Coordination Sequence:
#
# PCOD8307660 Si02
#       4
#    16  16  16  16
#     4   9  18  34  57  81 102 128 167 219 276 320
#     4  10  21  35  52  77 108 142 178 212 250 304
#     4  10  21  35  52  77 108 142 178 212 250 304
#     4   9  18  34  57  81 102 128 167 219 276 320
#
# _framework density 20.356715000000001
#
# number of rings (size 3 to 8) (size 9 to 14) (size 15 to 20)
#    0.000    2.500    0.000    3.000    0.000    6.500 
#    0.000    7.500    0.000    0.000    0.000   10.500 
#    0.000    0.000    0.000    0.000    0.000    0.000 
#
# Total GULP energy -396509.292357 kJ/mol
# GULP energy per Si atom -12390.915386 kJ/mol
# Density = 2.031038 g / cm^3
# Si number density = 20.356715 Si / 1000 Ang^3
#
#
#
# Elastic Constant Matrix: (Units=GPa)
#
#
# Indices 1 2 3 4 5 6 
#
# 1 122.1941 82.7888 18.8093 0.0000 0.0000 -0.0008
# 2 82.7888 122.1941 18.8093 0.0000 0.0000 0.0008
# 3 18.8093 18.8093 72.6912 0.0000 0.0000 0.0000
# 4 0.0000 0.0000 0.0000 14.7109 0.0000 0.0000
# 5 0.0000 0.0000 0.0000 0.0000 14.7109 0.0000
# 6 -0.0008 0.0008 0.0000 0.0000 0.0000 16.2029
#
#
#
# Elastic Compliance Matrix: (Units=1/GPa)
#
#
# Indices 1 2 3 4 5 6 
#
# 1 0.015249 -0.010128 -0.001325 0.000000 0.000000 0.000001
# 2 -0.010128 0.015249 -0.001325 0.000000 0.000000 -0.000001
# 3 -0.001325 -0.001325 0.014443 0.000000 0.000000 0.000000
# 4 0.000000 0.000000 0.000000 0.067977 0.000000 0.000000
# 5 0.000000 0.000000 0.000000 0.000000 0.067977 0.000000
# 6 0.000001 -0.000001 0.000000 0.000000 0.000000 0.061717
#
#
# Mechanical properties :
#
#
# Convention : Reuss Voigt Hill
#
# Bulk Modulus (GPa) = 51.58643 61.98826 56.78735
# Shear Modulus (GPa) = 18.20624 22.23640 20.22132
#
# Velocity S-wave (km/s) = 2.99383 3.30864 3.15516
# Velocity P-wave (km/s) = 6.11121 6.71664 6.42107
#
# Compressibility (1/GPa) = 0.01938494
#
# Stress axis : x y z
#
# Youngs Moduli (GPa) = 65.57605 65.57605 69.23934
#
# Poissons Ratio (x) = 0.66414 0.09176
# Poissons Ratio (y) = 0.66414 0.09176
# Poissons Ratio (z) = 0.08691 0.08691
#
# Static dielectric constant tensor:
#      x y z
#    x 3.473260 0.000000 0.000000 
#    y 0.000000 3.473260 0.000000 
#    z 0.000000 0.000000 3.882910 
# 
# 
# High freq. dielectric constant tensor:
#      x y z
#    x 1.770920 0.000000 0.000000 
#    y 0.000000 1.770920 0.000000 
#    z 0.000000 0.000000 1.801190 
# 
# From -- ./inp_files/2943.got.cif
#   From: 2010.03.12/outbox.cif.g09.slc.cpg/sg107_2_cif.got.tgz:2943.got - 2010.04.14 01:49:11.
