data_PCOD8307072
_publ_section_title
;
Structure prediction by ZEFSAII (Michael W. Deem and Ramdas Pophale) SiO2 
 PCOD8307072
Probable space group: P 4 N C 
;
_chemical_formula_sum "Si O2"
_cell_formula_units_Z 64
_cell_length_a 11.676474
_cell_length_b 11.676474
_cell_length_c 24.369124
_cell_angle_alpha 90.000000
_cell_angle_beta 90.000000
_cell_angle_gamma 90.000000
_cell_volume 3322.487465
_symmetry_space_group_name_H-M "P 4 N C "
_symmetry_group_IT_number 104
_symmetry_cell_setting 'tetragonal'
loop_
_space_group_symop_operation_xyz
x,y,z
-y,x,z
-x,-y,z
y,-x,z
1/2-x,1/2+y,1/2+z
1/2+x,1/2-y,1/2+z
1/2-y,1/2-x,1/2+z
1/2+y,1/2+x,1/2+z
loop_
_atom_site_type_symbol
_atom_site_label
_atom_site_fract_x
_atom_site_fract_y
_atom_site_fract_z
Si Si1 0.797512 0.601219 0.113000
Si Si2 0.049390 0.821628 0.440524
Si Si3 0.558104 0.194062 0.330664
Si Si4 0.008384 0.367084 0.034432
Si Si5 0.876965 0.260679 0.555627
Si Si6 0.072751 0.174902 0.720442
Si Si7 0.816349 0.045028 0.945900
Si Si8 0.534367 0.883438 0.864214
O O1 0.924143 0.638210 0.092983
O O2 0.713596 0.668510 0.073227
O O3 0.777838 0.467135 0.104111
O O4 0.769956 0.619750 0.177179
O O5 0.054392 0.783622 0.502949
O O6 0.082949 0.716480 0.401664
O O7 0.921005 0.860775 0.427389
O O8 0.592155 0.274242 0.280510
O O9 0.564102 0.271436 0.384678
O O10 0.428553 0.138632 0.324755
O O11 0.647830 0.084949 0.332521
O O12 0.000000 0.500000 0.014783
O O13 0.882012 0.315967 0.043902
O O14 0.069514 0.287866 0.988454
O O15 0.939112 0.147098 0.712298
O O16 0.863074 0.916730 0.955295
O O17 0.500000 0.000000 0.899607
#
# Coordination Sequence:
#
# PCOD8307072 Si02
#       8
#     8   8   8   8   8   8   8   8
#     4  11  22  38  59  83 118 154 189 246 293 345
#     4  11  22  34  58  88 121 158 194 235 290 356
#     4   9  21  38  58  86 116 155 193 240 294 346
#     4  10  24  37  55  85 116 157 195 227 288 359
#     4  11  21  37  56  85 118 154 190 238 294 348
#     4  11  22  38  61  88 117 149 195 245 298 350
#     4  11  22  36  58  85 118 154 194 242 289 346
#     4   8  22  40  55  84 116 155 195 236 285 343
#
# _framework density 19.262677
#
# number of rings (size 3 to 8) (size 9 to 14) (size 15 to 20)
#    0.750    0.875    2.500    2.250    5.250    4.250 
#    6.750    0.000    0.000    0.000    0.000    0.000 
#    0.000    2.250    0.000    0.000    0.000    0.000 
#
# Total GULP energy -792910.845101 kJ/mol
# GULP energy per Si atom -12389.231955 kJ/mol
# Density = 1.921883 g / cm^3
# Si number density = 19.262677 Si / 1000 Ang^3
#
#
#
# Elastic Constant Matrix: (Units=GPa)
#
#
# Indices 1 2 3 4 5 6 
#
# 1 71.9007 14.1147 34.4195 0.0000 0.0000 0.0000
# 2 14.1147 71.9007 34.4195 0.0000 0.0000 0.0000
# 3 34.4195 34.4195 107.8091 0.0000 0.0000 0.0000
# 4 0.0000 0.0000 0.0000 27.6297 0.0000 0.0000
# 5 0.0000 0.0000 0.0000 0.0000 27.6297 0.0000
# 6 0.0000 0.0000 0.0000 0.0000 0.0000 17.6965
#
#
#
# Elastic Compliance Matrix: (Units=1/GPa)
#
#
# Indices 1 2 3 4 5 6 
#
# 1 0.016461 -0.000845 -0.004986 0.000000 0.000000 0.000000
# 2 -0.000845 0.016461 -0.004986 0.000000 0.000000 0.000000
# 3 -0.004986 -0.004986 0.012459 0.000000 0.000000 0.000000
# 4 0.000000 0.000000 0.000000 0.036193 0.000000 0.000000
# 5 0.000000 0.000000 0.000000 0.000000 0.036193 0.000000
# 6 0.000000 0.000000 0.000000 0.000000 0.000000 0.056508
#
#
# Mechanical properties :
#
#
# Convention : Reuss Voigt Hill
#
# Bulk Modulus (GPa) = 42.10797 46.39087 44.24942
# Shear Modulus (GPa) = 24.53119 25.83497 25.18308
#
# Velocity S-wave (km/s) = 3.57250 3.66620 3.61965
# Velocity P-wave (km/s) = 6.23894 6.48513 6.36323
#
# Compressibility (1/GPa) = 0.02374847
#
# Stress axis : x y z
#
# Youngs Moduli (GPa) = 60.75137 60.75137 80.26290
#
# Poissons Ratio (x) = 0.05132 0.40015
# Poissons Ratio (y) = 0.05132 0.40015
# Poissons Ratio (z) = 0.30288 0.30288
#
# Static dielectric constant tensor:
#      x y z
#    x 3.624800 0.000000 0.000000 
#    y 0.000000 3.624800 0.000000 
#    z 0.000000 0.000000 3.182020 
# 
# 
# High freq. dielectric constant tensor:
#      x y z
#    x 1.749940 0.000000 0.000000 
#    y 0.000000 1.749940 0.000000 
#    z 0.000000 0.000000 1.720270 
# 
# From -- ./inp_files/1833.got.cif
#   From: 2010.03.12/outbox.cif.g09.slc.cpg/sg104_cif.got.tgz:1833.got - 2010.04.14 01:44:05.
