data_PCOD8307537
_publ_section_title
;
Structure prediction by ZEFSAII (Michael W. Deem and Ramdas Pophale) SiO2 
 PCOD8307537
Probable space group: I 4 M M
;
_chemical_formula_sum "Si O2"
_cell_formula_units_Z 112
_cell_length_a 14.196481
_cell_length_b 14.196481
_cell_length_c 35.035165
_cell_angle_alpha 90.000000
_cell_angle_beta 90.000000
_cell_angle_gamma 90.000000
_cell_volume 7060.989704
_symmetry_space_group_name_H-M "I 4 M M"
_symmetry_group_IT_number 107
_symmetry_cell_setting 'tetragonal'
loop_
_space_group_symop_operation_xyz
x,y,z
-y,x,z
-x,-y,z
y,-x,z
-x,y,z
x,-y,z
-y,-x,z
y,x,z
1/2+x,1/2+y,1/2+z
1/2-y,1/2+x,1/2+z
1/2-x,1/2-y,1/2+z
1/2+y,1/2-x,1/2+z
1/2-x,1/2+y,1/2+z
1/2+x,1/2-y,1/2+z
1/2-y,1/2-x,1/2+z
1/2+y,1/2+x,1/2+z
loop_
_atom_site_type_symbol
_atom_site_label
_atom_site_fract_x
_atom_site_fract_y
_atom_site_fract_z
Si Si1 0.264706 0.888828 0.284340
Si Si2 0.893085 0.742013 0.645936
Si Si3 0.262985 0.109566 0.009874
Si Si4 0.237015 0.390434 0.058806
Si Si5 0.742013 0.893085 0.922744
Si Si6 0.392399 0.109102 0.213606
Si Si7 0.892399 0.390898 0.855074
O O1 0.165764 0.834237 0.284340
O O2 0.324904 0.857852 0.247627
O O3 0.324904 0.857851 0.321053
O O4 0.243209 0.000000 0.284340
O O5 0.834143 0.834143 0.655400
O O6 0.877362 0.706649 0.602790
O O7 0.862217 0.659558 0.674526
O O8 0.000000 0.772214 0.652719
O O9 0.166083 0.166083 0.018556
O O10 0.348987 0.151013 0.034340
O O11 0.246656 0.000000 0.020238
O O12 0.293351 0.122638 0.965890
O O13 0.253344 0.500000 0.048442
O O14 0.333917 0.333917 0.050124
O O15 0.834142 0.834142 0.913280
O O16 0.659558 0.862217 0.894154
O O17 0.772214 0.000000 0.915961
O O18 0.500000 0.132229 0.225292
O O19 0.379212 0.000000 0.205277
O O20 0.879212 0.500000 0.863402
O O21 0.000000 0.367771 0.843388
#
# Coordination Sequence:
#
# PCOD8307537 Si02
#       7
#    16  16  16  16  16  16  16
#     4  10  19  30  45  63  84 112 143 175 212 251
#     4   9  17  29  45  65  89 115 142 173 210 254
#     4   9  18  31  46  66  91 118 149 184 221 262
#     4   9  18  31  46  66  91 118 149 184 221 262
#     4   9  17  29  45  65  89 115 142 173 210 254
#     4   9  17  29  45  65  87 110 139 175 213 252
#     4   9  17  29  45  65  87 110 139 175 213 252
#
# _framework density 15.861799
#
# number of rings (size 3 to 8) (size 9 to 14) (size 15 to 20)
#    0.000    2.857    0.000    1.286    0.000    3.857 
#    0.000    5.714    0.000    0.000    0.000    0.000 
#    0.000   17.143    0.000    0.000    0.000    0.000 
#
# Total GULP energy -694343.558761 kJ/mol
# GULP energy per Si atom -12398.992121 kJ/mol
# Density = 1.582570 g / cm^3
# Si number density = 15.861799 Si / 1000 Ang^3
#
#
#
# Elastic Constant Matrix: (Units=GPa)
#
#
# Indices 1 2 3 4 5 6 
#
# 1 87.4782 54.4493 60.6437 0.0000 0.0000 0.0002
# 2 54.4493 87.4782 60.6437 0.0000 0.0000 -0.0002
# 3 60.6437 60.6437 100.0971 0.0000 0.0000 0.0000
# 4 0.0000 0.0000 0.0000 26.6488 0.0000 0.0000
# 5 0.0000 0.0000 0.0000 0.0000 26.6488 0.0000
# 6 0.0002 -0.0002 0.0000 0.0000 0.0000 26.0505
#
#
#
# Elastic Compliance Matrix: (Units=1/GPa)
#
#
# Indices 1 2 3 4 5 6 
#
# 1 0.022443 -0.007833 -0.008852 0.000000 0.000000 0.000000
# 2 -0.007833 0.022443 -0.008852 0.000000 0.000000 0.000000
# 3 -0.008852 -0.008852 0.020716 0.000000 0.000000 0.000000
# 4 0.000000 0.000000 0.000000 0.037525 0.000000 0.000000
# 5 0.000000 0.000000 0.000000 0.000000 0.037525 0.000000
# 6 0.000000 0.000000 0.000000 0.000000 0.000000 0.038387
#
#
# Mechanical properties :
#
#
# Convention : Reuss Voigt Hill
#
# Bulk Modulus (GPa) = 68.82400 69.61412 69.21906
# Shear Modulus (GPa) = 21.28063 22.49073 21.88568
#
# Velocity S-wave (km/s) = 3.66680 3.76961 3.71856
# Velocity P-wave (km/s) = 7.83653 7.93283 7.88483
#
# Compressibility (1/GPa) = 0.01452982
#
# Stress axis : x y z
#
# Youngs Moduli (GPa) = 44.55667 44.55667 48.27262
#
# Poissons Ratio (x) = 0.34902 0.42729
# Poissons Ratio (y) = 0.34902 0.42729
# Poissons Ratio (z) = 0.39439 0.39439
#
# Static dielectric constant tensor:
#      x y z
#    x 2.963670 0.000000 0.000000 
#    y 0.000000 2.963670 0.000000 
#    z 0.000000 0.000000 3.168070 
# 
# 
# High freq. dielectric constant tensor:
#      x y z
#    x 1.603180 0.000000 0.000000 
#    y 0.000000 1.603180 0.000000 
#    z 0.000000 0.000000 1.616310 
# 
# From -- ./inp_files/5787.got.cif
#   From: 2010.03.12/outbox.cif.g09.slc.cpg/sg107_3_cif.got.tgz:5787.got - 2010.04.14 01:49:11.
