data_PCOD8307289
_publ_section_title
;
Structure prediction by ZEFSAII (Michael W. Deem and Ramdas Pophale) SiO2 
 PCOD8307289
Probable space group: P 42 M C
;
_chemical_formula_sum "Si O2"
_cell_formula_units_Z 48
_cell_length_a 8.126081
_cell_length_b 8.126081
_cell_length_c 34.219601
_cell_angle_alpha 90.000000
_cell_angle_beta 90.000000
_cell_angle_gamma 90.000000
_cell_volume 2259.629497
_symmetry_space_group_name_H-M "P 42 M C"
_symmetry_group_IT_number 105
_symmetry_cell_setting 'tetragonal'
loop_
_space_group_symop_operation_xyz
x,y,z
-y,x,1/2+z
-x,-y,z
y,-x,1/2+z
-x,y,z
x,-y,z
-y,-x,1/2+z
y,x,1/2+z
loop_
_atom_site_type_symbol
_atom_site_label
_atom_site_fract_x
_atom_site_fract_y
_atom_site_fract_z
Si Si1 0.187894 0.000000 0.040241
Si Si2 0.000000 0.310124 0.625300
Si Si3 0.694692 0.817811 0.912273
Si Si4 0.306484 0.818951 0.750930
Si Si5 0.684918 0.694391 0.493026
Si Si6 0.695955 0.314589 0.831513
Si Si7 0.684003 0.310918 0.668945
O O1 0.221181 0.831153 0.017020
O O2 0.297645 0.000000 0.078867
O O3 0.000000 0.000000 0.053351
O O4 0.830434 0.229544 0.642748
O O5 0.000000 0.500000 0.638070
O O6 0.500000 0.810040 0.908106
O O7 0.771647 0.769357 0.870378
O O8 0.755184 0.000000 0.923292
O O9 0.750107 0.699041 0.947648
O O10 0.500000 0.819205 0.757393
O O11 0.226489 0.760480 0.791823
O O12 0.261821 0.703632 0.714306
O O13 0.239398 0.000000 0.741086
O O14 0.500000 0.744775 0.507506
O O15 0.710278 0.500000 0.497108
O O16 0.500000 0.297307 0.831243
O O17 0.754230 0.500000 0.833084
O O18 0.500000 0.229463 0.662081
O O19 0.667679 0.500000 0.657529
#
# Coordination Sequence:
#
# PCOD8307289 Si02
#       7
#     4   4   8   8   8   8   8
#     4  12  26  42  60  86 120 154 192 240 298 362
#     4  10  22  40  62  86 112 144 188 240 292 350
#     4   9  15  25  45  75 111 145 185 240 296 348
#     4   9  16  26  42  68 105 146 185 225 276 337
#     4  10  20  37  62  88 115 151 195 243 297 358
#     4   9  15  22  36  66 107 146 186 235 288 339
#     4   9  18  34  56  81 108 141 180 225 283 347
#
# _framework density 21.242418000000001
#
# number of rings (size 3 to 8) (size 9 to 14) (size 15 to 20)
#    0.000    2.500    0.833    2.250    0.000    7.667 
#    0.000    1.667    0.000    0.000    2.167    0.000 
#    0.000    0.000    0.000    0.000    0.000    0.000 
#
# Total GULP energy -594710.108205 kJ/mol
# GULP energy per Si atom -12389.793921 kJ/mol
# Density = 2.119407 g / cm^3
# Si number density = 21.242418 Si / 1000 Ang^3
#
#
#
# Elastic Constant Matrix: (Units=GPa)
#
#
# Indices 1 2 3 4 5 6 
#
# 1 77.0075 19.1663 35.3107 0.0000 0.0000 0.0000
# 2 19.1663 77.0075 35.3107 0.0000 0.0000 0.0000
# 3 35.3107 35.3107 132.2858 0.0000 0.0000 0.0000
# 4 0.0000 0.0000 0.0000 9.7456 0.0000 0.0000
# 5 0.0000 0.0000 0.0000 0.0000 9.7456 0.0000
# 6 0.0000 0.0000 0.0000 0.0000 0.0000 7.6868
#
#
#
# Elastic Compliance Matrix: (Units=1/GPa)
#
#
# Indices 1 2 3 4 5 6 
#
# 1 0.015111 -0.002178 -0.003452 0.000000 0.000000 0.000000
# 2 -0.002178 0.015111 -0.003452 0.000000 0.000000 0.000000
# 3 -0.003452 -0.003452 0.009402 0.000000 0.000000 0.000000
# 4 0.000000 0.000000 0.000000 0.102611 0.000000 0.000000
# 5 0.000000 0.000000 0.000000 0.000000 0.102611 0.000000
# 6 0.000000 0.000000 0.000000 0.000000 0.000000 0.130093
#
#
# Mechanical properties :
#
#
# Convention : Reuss Voigt Hill
#
# Bulk Modulus (GPa) = 46.59962 51.76402 49.18182
# Shear Modulus (GPa) = 12.49201 18.53647 15.51424
#
# Velocity S-wave (km/s) = 2.42764 2.95721 2.70542
# Velocity P-wave (km/s) = 5.46284 6.00677 5.74125
#
# Compressibility (1/GPa) = 0.02145940
#
# Stress axis : x y z
#
# Youngs Moduli (GPa) = 66.17816 66.17816 106.35682
#
# Poissons Ratio (x) = 0.14413 0.36715
# Poissons Ratio (y) = 0.14413 0.36715
# Poissons Ratio (z) = 0.22845 0.22845
#
# Static dielectric constant tensor:
#      x y z
#    x 3.664060 0.000000 0.000000 
#    y 0.000000 3.664060 0.000000 
#    z 0.000000 0.000000 3.897980 
# 
# 
# High freq. dielectric constant tensor:
#      x y z
#    x 1.804650 0.000000 0.000000 
#    y 0.000000 1.804650 0.000000 
#    z 0.000000 0.000000 1.836710 
# 
# From -- ./inp_files/4850.got.cif
#   From: 2010.03.12/outbox.cif.g09.slc.cpg/sg105_3_cif.got.tgz:4850.got - 2010.04.14 01:45:32.
