data_PCOD8307055
_publ_section_title
;
Structure prediction by ZEFSAII (Michael W. Deem and Ramdas Pophale) SiO2 
 PCOD8307055
Probable space group: P 4 N C 
;
_chemical_formula_sum "Si O2"
_cell_formula_units_Z 48
_cell_length_a 10.515943
_cell_length_b 10.515943
_cell_length_c 23.435669
_cell_angle_alpha 90.000000
_cell_angle_beta 90.000000
_cell_angle_gamma 90.000000
_cell_volume 2591.634796
_symmetry_space_group_name_H-M "P 4 N C "
_symmetry_group_IT_number 104
_symmetry_cell_setting 'tetragonal'
loop_
_space_group_symop_operation_xyz
x,y,z
-y,x,z
-x,-y,z
y,-x,z
1/2-x,1/2+y,1/2+z
1/2+x,1/2-y,1/2+z
1/2-y,1/2-x,1/2+z
1/2+y,1/2+x,1/2+z
loop_
_atom_site_type_symbol
_atom_site_label
_atom_site_fract_x
_atom_site_fract_y
_atom_site_fract_z
Si Si1 0.689990 0.583380 0.394070
Si Si2 0.392601 0.903132 0.986043
Si Si3 0.525233 0.292260 0.585564
Si Si4 0.416620 0.689990 0.262672
Si Si5 0.974767 0.792260 0.571177
Si Si6 0.107399 0.403132 0.170699
O O1 0.564332 0.664298 0.408162
O O2 0.804848 0.634673 0.432533
O O3 0.728461 0.600697 0.328371
O O4 0.500000 0.000000 0.964641
O O5 0.309748 0.969007 0.035280
O O6 0.460491 0.776586 0.010106
O O7 0.640606 0.390386 0.580033
O O8 0.539509 0.223414 0.646636
O O9 0.335702 0.564332 0.248580
O O10 0.365327 0.804848 0.224209
O O11 0.969007 0.690252 0.621462
O O12 0.109613 0.859394 0.576709
O O13 0.000000 0.500000 0.192100
#
# Coordination Sequence:
#
# PCOD8307055 Si02
#       6
#     8   8   8   8   8   8
#     4   9  19  37  60  83 108 142 182 226 275 322
#     4  11  23  32  57  83 111 140 181 226 276 319
#     4  10  22  37  54  76 110 149 182 219 271 327
#     4   9  19  37  60  83 108 142 182 226 275 322
#     4  10  22  37  54  76 110 149 182 219 271 327
#     4  11  23  32  57  83 111 140 181 226 276 319
#
# _framework density 18.521128999999998
#
# number of rings (size 3 to 8) (size 9 to 14) (size 15 to 20)
#    0.000    2.000    0.000    5.000   14.000    3.333 
#    0.000    0.000    0.000    0.000    0.000    2.333 
#    0.000    0.000    0.000    0.000    0.000    0.000 
#
# Total GULP energy -595342.407081 kJ/mol
# GULP energy per Si atom -12402.966814 kJ/mol
# Density = 1.847897 g / cm^3
# Si number density = 18.521129 Si / 1000 Ang^3
#
#
#
# Elastic Constant Matrix: (Units=GPa)
#
#
# Indices 1 2 3 4 5 6 
#
# 1 54.3341 3.4021 14.6611 0.0000 0.0000 0.0000
# 2 3.4021 54.3341 14.6611 0.0000 0.0000 0.0000
# 3 14.6611 14.6611 80.4488 0.0000 0.0000 0.0000
# 4 0.0000 0.0000 0.0000 33.7409 0.0000 0.0000
# 5 0.0000 0.0000 0.0000 0.0000 33.7409 0.0000
# 6 0.0000 0.0000 0.0000 0.0000 0.0000 18.1694
#
#
#
# Elastic Compliance Matrix: (Units=1/GPa)
#
#
# Indices 1 2 3 4 5 6 
#
# 1 0.019360 -0.000274 -0.003478 0.000000 0.000000 0.000000
# 2 -0.000274 0.019360 -0.003478 0.000000 0.000000 0.000000
# 3 -0.003478 -0.003478 0.013698 0.000000 0.000000 0.000000
# 4 0.000000 0.000000 0.000000 0.029638 0.000000 0.000000
# 5 0.000000 0.000000 0.000000 0.000000 0.029638 0.000000
# 6 0.000000 0.000000 0.000000 0.000000 0.000000 0.055038
#
#
# Mechanical properties :
#
#
# Convention : Reuss Voigt Hill
#
# Bulk Modulus (GPa) = 26.34495 28.28507 27.31501
# Shear Modulus (GPa) = 25.79380 27.55644 26.67512
#
# Velocity S-wave (km/s) = 3.73590 3.86143 3.79918
# Velocity P-wave (km/s) = 5.73275 5.93177 5.83310
#
# Compressibility (1/GPa) = 0.03795794
#
# Stress axis : x y z
#
# Youngs Moduli (GPa) = 51.65197 51.65197 73.00296
#
# Poissons Ratio (x) = 0.01413 0.25393
# Poissons Ratio (y) = 0.01413 0.25393
# Poissons Ratio (z) = 0.17967 0.17967
#
# Static dielectric constant tensor:
#      x y z
#    x 3.403040 0.000000 0.000000 
#    y 0.000000 3.403040 0.000000 
#    z 0.000000 0.000000 3.362450 
# 
# 
# High freq. dielectric constant tensor:
#      x y z
#    x 1.716360 0.000000 0.000000 
#    y 0.000000 1.716360 0.000000 
#    z 0.000000 0.000000 1.707860 
# 
# From -- ./inp_files/1600.got.cif
#   From: 2010.03.12/outbox.cif.g09.slc.cpg/sg104_cif.got.tgz:1600.got - 2010.04.14 01:44:05.
