data_PCOD8307311
_publ_section_title
;
Structure prediction by ZEFSAII (Michael W. Deem and Ramdas Pophale) SiO2 
 PCOD8307311
Probable space group: P 42 M C
;
_chemical_formula_sum "Si O2"
_cell_formula_units_Z 48
_cell_length_a 9.222916
_cell_length_b 9.222916
_cell_length_c 30.339492
_cell_angle_alpha 90.000000
_cell_angle_beta 90.000000
_cell_angle_gamma 90.000000
_cell_volume 2580.743316
_symmetry_space_group_name_H-M "P 42 M C"
_symmetry_group_IT_number 105
_symmetry_cell_setting 'tetragonal'
loop_
_space_group_symop_operation_xyz
x,y,z
-y,x,1/2+z
-x,-y,z
y,-x,1/2+z
-x,y,z
x,-y,z
-y,-x,1/2+z
y,x,1/2+z
loop_
_atom_site_type_symbol
_atom_site_label
_atom_site_fract_x
_atom_site_fract_y
_atom_site_fract_z
Si Si1 0.331700 0.336369 0.332590
Si Si2 0.668902 0.166750 0.673207
Si Si3 0.833093 0.169399 0.759396
Si Si4 0.170903 0.832079 0.507925
Si Si5 0.332677 0.332952 0.434205
Si Si6 0.331118 0.330437 0.585589
O O1 0.500000 0.320185 0.321606
O O2 0.279926 0.500000 0.322539
O O3 0.244277 0.225111 0.303083
O O4 0.301617 0.298169 0.383328
O O5 0.500000 0.185216 0.682903
O O6 0.751836 0.227013 0.715933
O O7 0.718534 0.262137 0.631827
O O8 0.709890 0.000000 0.663285
O O9 0.000000 0.209104 0.753859
O O10 0.805648 0.000000 0.765035
O O11 0.231367 0.772804 0.461923
O O12 0.239653 0.742728 0.547477
O O13 0.000000 0.809120 0.508676
O O14 0.213493 0.000000 0.512819
O O15 0.500000 0.302556 0.445969
O O16 0.295421 0.500000 0.445058
O O17 0.500000 0.299414 0.576707
O O18 0.296932 0.500000 0.586626
#
# Coordination Sequence:
#
# PCOD8307311 Si02
#       6
#     8   8   8   8   8   8
#     4   9  19  36  57  80 106 138 178 223 267 312
#     4   9  18  34  55  77 104 141 182 219 258 310
#     4  10  21  35  52  78 112 146 178 216 263 314
#     4  11  24  38  53  78 111 144 177 215 261 314
#     4   9  19  37  59  81 105 136 177 223 268 314
#     4  10  21  37  58  83 108 136 174 220 267 315
#
# _framework density 18.599291000000001
#
# number of rings (size 3 to 8) (size 9 to 14) (size 15 to 20)
#    0.000    2.333    0.000    3.000    0.000    8.667 
#    0.000    8.333    0.000    0.000    0.000    0.000 
#    0.000    0.000    0.000    0.000    0.000    0.000 
#
# Total GULP energy -595370.427165 kJ/mol
# GULP energy per Si atom -12403.550566 kJ/mol
# Density = 1.855696 g / cm^3
# Si number density = 18.599291 Si / 1000 Ang^3
#
#
#
# Elastic Constant Matrix: (Units=GPa)
#
#
# Indices 1 2 3 4 5 6 
#
# 1 81.8358 56.1470 66.1873 0.0000 0.0000 0.0000
# 2 56.1470 81.8358 66.1873 0.0000 0.0000 0.0000
# 3 66.1873 66.1873 129.3708 0.0000 0.0000 0.0000
# 4 0.0000 0.0000 0.0000 -24.8112 0.0000 0.0000
# 5 0.0000 0.0000 0.0000 0.0000 -24.8112 0.0000
# 6 0.0000 0.0000 0.0000 0.0000 0.0000 30.9058
#
#
#
# Elastic Compliance Matrix: (Units=1/GPa)
#
#
# Indices 1 2 3 4 5 6 
#
# 1 0.026580 -0.012347 -0.007282 0.000000 0.000000 0.000000
# 2 -0.012347 0.026580 -0.007282 0.000000 0.000000 0.000000
# 3 -0.007282 -0.007282 0.015181 0.000000 0.000000 0.000000
# 4 0.000000 0.000000 0.000000 -0.040304 0.000000 0.000000
# 5 0.000000 0.000000 0.000000 0.000000 -0.040304 0.000000
# 6 0.000000 0.000000 0.000000 0.000000 0.000000 0.032356
#
#
# Mechanical properties :
#
#
# Convention : Reuss Voigt Hill
#
# Bulk Modulus (GPa) = 68.87222 74.45395 71.66309
# Shear Modulus (GPa) = 63.49180 3.22471 33.35826
#
# Velocity S-wave (km/s) = 5.84900 1.31816 4.23959
# Velocity P-wave (km/s) = 9.09529 6.51415 7.91070
#
# Compressibility (1/GPa) = 0.01451964
#
# Stress axis : x y z
#
# Youngs Moduli (GPa) = 37.62188 37.62188 65.87362
#
# Poissons Ratio (x) = 0.46452 0.47968
# Poissons Ratio (y) = 0.46452 0.47968
# Poissons Ratio (z) = 0.27395 0.27395
#
# Static dielectric constant tensor:
#      x y z
#    x 3.625230 0.000000 0.000000 
#    y 0.000000 3.625230 0.000000 
#    z 0.000000 0.000000 3.494620 
# 
# 
# High freq. dielectric constant tensor:
#      x y z
#    x 1.719480 0.000000 0.000000 
#    y 0.000000 1.719480 0.000000 
#    z 0.000000 0.000000 1.734510 
# 
# From -- ./inp_files/4656.got.cif
#   From: 2010.03.12/outbox.cif.g09.slc.cpg/sg105_3_cif.got.tgz:4656.got - 2010.04.14 01:45:32.
