data_PCOD8307298
_publ_section_title
;
Structure prediction by ZEFSAII (Michael W. Deem and Ramdas Pophale) SiO2 
 PCOD8307298
Probable space group: P 42 M C
;
_chemical_formula_sum "Si O2"
_cell_formula_units_Z 48
_cell_length_a 8.180411
_cell_length_b 8.180411
_cell_length_c 34.186669
_cell_angle_alpha 90.000000
_cell_angle_beta 90.000000
_cell_angle_gamma 90.000000
_cell_volume 2287.741946
_symmetry_space_group_name_H-M "P 42 M C"
_symmetry_group_IT_number 105
_symmetry_cell_setting 'tetragonal'
loop_
_space_group_symop_operation_xyz
x,y,z
-y,x,1/2+z
-x,-y,z
y,-x,1/2+z
-x,y,z
x,-y,z
-y,-x,1/2+z
y,x,1/2+z
loop_
_atom_site_type_symbol
_atom_site_label
_atom_site_fract_x
_atom_site_fract_y
_atom_site_fract_z
Si Si1 0.815709 0.184377 0.380200
Si Si2 0.194591 0.181618 0.617791
Si Si3 0.681388 0.687079 0.957199
Si Si4 0.195295 0.500000 0.664587
Si Si5 0.500000 0.189687 0.251729
Si Si6 0.814529 0.687189 0.297696
Si Si7 0.190584 0.317373 0.537532
O O1 0.705306 0.214523 0.417914
O O2 0.768169 0.297004 0.343466
O O3 0.000000 0.219166 0.393657
O O4 0.790153 0.000000 0.365612
O O5 0.261216 0.332543 0.644189
O O6 0.259963 0.209951 0.573398
O O7 0.000000 0.181815 0.619399
O O8 0.257359 0.000000 0.631500
O O9 0.500000 0.760561 0.949675
O O10 0.671573 0.500000 0.968204
O O11 0.763785 0.772932 0.995108
O O12 0.268360 0.500000 0.708505
O O13 0.000000 0.500000 0.663051
O O14 0.330810 0.232038 0.273297
O O15 0.500000 0.000000 0.245801
O O16 0.817599 0.500000 0.285767
O O17 0.000000 0.761223 0.290251
O O18 0.268549 0.500000 0.538577
O O19 0.000000 0.331736 0.543971
#
# Coordination Sequence:
#
# PCOD8307298 Si02
#       7
#     8   8   8   4   4   8   8
#     4  10  21  37  57  81 110 144 187 239 291 342
#     4   9  16  28  50  78 108 145 187 231 283 344
#     4  10  21  34  50  76 111 151 191 230 278 340
#     4   9  18  33  51  81 119 147 181 231 291 355
#     4  11  23  37  61  93 125 157 191 243 309 371
#     4  10  22  41  64  87 115 155 202 248 294 358
#     4   9  16  29  50  73 103 143 188 235 278 327
#
# _framework density 20.981385
#
# number of rings (size 3 to 8) (size 9 to 14) (size 15 to 20)
#    0.000    2.333    0.833    1.750    1.167    4.333 
#    0.000    3.333    0.000    2.000    0.000    0.000 
#    0.000    0.000    0.000    0.000    0.000    0.000 
#
# Total GULP energy -594773.361980 kJ/mol
# GULP energy per Si atom -12391.111708 kJ/mol
# Density = 2.093363 g / cm^3
# Si number density = 20.981385 Si / 1000 Ang^3
#
#
#
# Elastic Constant Matrix: (Units=GPa)
#
#
# Indices 1 2 3 4 5 6 
#
# 1 77.8466 21.8816 43.5106 0.0000 0.0000 0.0000
# 2 21.8816 77.8466 43.5106 0.0000 0.0000 0.0000
# 3 43.5106 43.5106 148.9247 0.0000 0.0000 0.0000
# 4 0.0000 0.0000 0.0000 -1.5612 0.0000 0.0000
# 5 0.0000 0.0000 0.0000 0.0000 -1.5612 0.0000
# 6 0.0000 0.0000 0.0000 0.0000 0.0000 17.8309
#
#
#
# Elastic Compliance Matrix: (Units=1/GPa)
#
#
# Indices 1 2 3 4 5 6 
#
# 1 0.015663 -0.002205 -0.003932 0.000000 0.000000 0.000000
# 2 -0.002205 0.015663 -0.003932 0.000000 0.000000 0.000000
# 3 -0.003932 -0.003932 0.009012 0.000000 0.000000 0.000000
# 4 0.000000 0.000000 0.000000 -0.640536 0.000000 0.000000
# 5 0.000000 0.000000 0.000000 0.000000 -0.640536 0.000000
# 6 0.000000 0.000000 0.000000 0.000000 0.000000 0.056082
#
#
# Mechanical properties :
#
#
# Convention : Reuss Voigt Hill
#
# Bulk Modulus (GPa) = 49.50293 58.04706 53.77499
# Shear Modulus (GPa) = -4.31861 15.98937 5.83538
#
# Velocity S-wave (km/s) = -1.43624 2.76356 1.66951
# Velocity P-wave (km/s) = 4.57106 6.15704 5.42235
#
# Compressibility (1/GPa) = 0.02020083
#
# Stress axis : x y z
#
# Youngs Moduli (GPa) = 63.84345 63.84345 110.95807
#
# Poissons Ratio (x) = 0.14078 0.43629
# Poissons Ratio (y) = 0.14078 0.43629
# Poissons Ratio (z) = 0.25104 0.25104
#
# Static dielectric constant tensor:
#      x y z
#    x 3.749130 0.000000 0.000000 
#    y 0.000000 3.749130 0.000000 
#    z 0.000000 0.000000 3.837770 
# 
# 
# High freq. dielectric constant tensor:
#      x y z
#    x 1.803670 0.000000 0.000000 
#    y 0.000000 1.803670 0.000000 
#    z 0.000000 0.000000 1.821980 
# 
# From -- ./inp_files/4836.got.cif
#   From: 2010.03.12/outbox.cif.g09.slc.cpg/sg105_3_cif.got.tgz:4836.got - 2010.04.14 01:45:32.
