data_PCOD8307207
_publ_section_title
;
Structure prediction by ZEFSAII (Michael W. Deem and Ramdas Pophale) SiO2 
 PCOD8307207
Probable space group: P 42 M C
;
_chemical_formula_sum "Si O2"
_cell_formula_units_Z 40
_cell_length_a 9.032913
_cell_length_b 9.032913
_cell_length_c 25.974110
_cell_angle_alpha 90.000000
_cell_angle_beta 90.000000
_cell_angle_gamma 90.000000
_cell_volume 2119.318993
_symmetry_space_group_name_H-M "P 42 M C"
_symmetry_group_IT_number 105
_symmetry_cell_setting 'tetragonal'
loop_
_space_group_symop_operation_xyz
x,y,z
-y,x,1/2+z
-x,-y,z
y,-x,1/2+z
-x,y,z
x,-y,z
-y,-x,1/2+z
y,x,1/2+z
loop_
_atom_site_type_symbol
_atom_site_label
_atom_site_fract_x
_atom_site_fract_y
_atom_site_fract_z
Si Si1 0.829427 0.326067 0.788120
Si Si2 0.332801 0.823252 0.491668
Si Si3 0.833282 0.176062 0.592227
Si Si4 0.833282 0.823938 0.391109
Si Si5 0.673933 0.829427 0.695216
O O1 0.810122 0.500000 0.794774
O O2 0.769382 0.250217 0.840047
O O3 0.729944 0.270056 0.741668
O O4 0.000000 0.282831 0.777548
O O5 0.500000 0.763054 0.491668
O O6 0.250232 0.760730 0.542130
O O7 0.250232 0.760730 0.441206
O O8 0.331392 0.000000 0.491668
O O9 0.749783 0.230618 0.643289
O O10 0.000000 0.238595 0.592852
O O11 0.833400 0.000000 0.590072
O O12 0.000000 0.761404 0.390484
O O13 0.833400 0.000000 0.393264
O O14 0.500000 0.810121 0.688562
O O15 0.717169 0.000000 0.705788
#
# Coordination Sequence:
#
# PCOD8307207 Si02
#       5
#     8   8   8   8   8
#     4  10  20  33  49  70  96 127 164 206 253 304
#     4   9  15  23  37  61  96 133 166 203 248 297
#     4   9  16  26  42  65  94 128 165 205 250 299
#     4   9  16  26  42  65  94 128 165 205 250 299
#     4  10  20  33  49  70  96 127 164 206 253 304
#
# _framework density 18.873989000000002
#
# number of rings (size 3 to 8) (size 9 to 14) (size 15 to 20)
#    0.000    2.600    0.000    3.000    0.000    9.600 
#    0.000    0.000    0.000    0.000    0.000    1.400 
#    0.000   11.200    0.000    0.000    0.000    0.000 
#
# Total GULP energy -496037.914372 kJ/mol
# GULP energy per Si atom -12400.947859 kJ/mol
# Density = 1.883103 g / cm^3
# Si number density = 18.873989 Si / 1000 Ang^3
#
#
#
# Elastic Constant Matrix: (Units=GPa)
#
#
# Indices 1 2 3 4 5 6 
#
# 1 83.5935 28.5850 59.3516 0.0000 0.0000 0.0000
# 2 28.5850 83.5935 59.3516 0.0000 0.0000 0.0000
# 3 59.3516 59.3516 191.1374 0.0000 0.0000 0.0000
# 4 0.0000 0.0000 0.0000 4.6858 0.0000 0.0000
# 5 0.0000 0.0000 0.0000 0.0000 4.6858 0.0000
# 6 0.0000 0.0000 0.0000 0.0000 0.0000 13.8091
#
#
#
# Elastic Compliance Matrix: (Units=1/GPa)
#
#
# Indices 1 2 3 4 5 6 
#
# 1 0.015728 -0.002451 -0.004123 0.000000 0.000000 0.000000
# 2 -0.002451 0.015728 -0.004123 0.000000 0.000000 0.000000
# 3 -0.004123 -0.004123 0.007792 0.000000 0.000000 0.000000
# 4 0.000000 0.000000 0.000000 0.213409 0.000000 0.000000
# 5 0.000000 0.000000 0.000000 0.000000 0.213409 0.000000
# 6 0.000000 0.000000 0.000000 0.000000 0.000000 0.072416
#
#
# Mechanical properties :
#
#
# Convention : Reuss Voigt Hill
#
# Bulk Modulus (GPa) = 56.00642 72.54453 64.27547
# Shear Modulus (GPa) = 8.83661 18.70523 13.77092
#
# Velocity S-wave (km/s) = 2.16612 3.15152 2.70409
# Velocity P-wave (km/s) = 5.99953 7.19462 6.62408
#
# Compressibility (1/GPa) = 0.01785510
#
# Stress axis : x y z
#
# Youngs Moduli (GPa) = 63.58115 63.58115 128.33367
#
# Poissons Ratio (x) = 0.15584 0.52908
# Poissons Ratio (y) = 0.15584 0.52908
# Poissons Ratio (z) = 0.26213 0.26213
#
# Static dielectric constant tensor:
#      x y z
#    x 3.193910 0.000000 0.000000 
#    y 0.000000 3.193910 0.000000 
#    z 0.000000 0.000000 3.679910 
# 
# 
# High freq. dielectric constant tensor:
#      x y z
#    x 1.701970 0.000000 0.000000 
#    y 0.000000 1.701970 0.000000 
#    z 0.000000 0.000000 1.753530 
# 
# From -- ./inp_files/3906.got.cif
#   From: 2010.03.12/outbox.cif.g09.slc.cpg/sg105_2_cif.got.tgz:3906.got - 2010.04.14 01:45:32.
