data_PCOD8307007
_publ_section_title
;
Structure prediction by ZEFSAII (Michael W. Deem and Ramdas Pophale) SiO2 
 PCOD8307007
Probable space group: P 4 C C
;
_chemical_formula_sum "Si O2"
_cell_formula_units_Z 52
_cell_length_a 17.451715
_cell_length_b 17.451715
_cell_length_c 9.908604
_cell_angle_alpha 90.000000
_cell_angle_beta 90.000000
_cell_angle_gamma 90.000000
_cell_volume 3017.787783
_symmetry_space_group_name_H-M "P 4 C C"
_symmetry_group_IT_number 103
_symmetry_cell_setting 'tetragonal'
loop_
_space_group_symop_operation_xyz
x,y,z
-y,x,z
-x,-y,z
y,-x,z
-x,y,1/2+z
x,-y,1/2+z
-y,-x,1/2+z
y,x,1/2+z
loop_
_atom_site_type_symbol
_atom_site_label
_atom_site_fract_x
_atom_site_fract_y
_atom_site_fract_z
Si Si1 0.714516 0.498361 0.419780
Si Si2 0.060646 0.350197 0.504021
Si Si3 0.378740 0.474026 0.170237
Si Si4 0.936915 0.351587 0.305060
Si Si5 0.236402 0.658903 0.306456
Si Si6 0.659827 0.232697 0.492345
Si Si7 0.000000 0.500000 0.904735
O O1 0.648076 0.533739 0.324501
O O2 0.685603 0.459574 0.558214
O O3 0.755226 0.431428 0.336073
O O4 0.767497 0.569862 0.456434
O O5 0.040457 0.325941 0.655450
O O6 0.144401 0.317579 0.466315
O O7 0.997391 0.311028 0.406385
O O8 0.054523 0.443531 0.493066
O O9 0.441204 0.409702 0.144544
O O10 0.851803 0.322150 0.339646
O O11 0.944425 0.444731 0.316020
O O12 0.290614 0.712183 0.396992
O O13 0.256207 0.672763 0.148827
#
# Coordination Sequence:
#
# PCOD8307007 Si02
#       7
#     8   8   8   8   8   8   4
#     4  12  23  37  51  68  99 136 174 229 278 327
#     4   9  19  34  54  78 106 133 171 216 266 327
#     4  11  22  36  52  64  85 124 180 232 285 326
#     4   9  19  34  54  78 106 133 171 216 266 327
#     4  11  24  39  55  80 108 142 185 227 275 328
#     4  11  24  39  55  80 108 142 185 227 275 328
#     4   8  16  32  54  76 108 138 176 214 278 320
#
# _framework density 17.231166000000002
#
# number of rings (size 3 to 8) (size 9 to 14) (size 15 to 20)
#    0.923    0.769    1.538    4.154    2.154    2.462 
#    0.000    0.000    0.000    0.000    0.000    0.000 
#    0.000    0.615    0.000    6.769    0.000    4.923 
#
# Total GULP energy -644372.049462 kJ/mol
# GULP energy per Si atom -12391.770182 kJ/mol
# Density = 1.719195 g / cm^3
# Si number density = 17.231166 Si / 1000 Ang^3
#
#
#
# Elastic Constant Matrix: (Units=GPa)
#
#
# Indices 1 2 3 4 5 6 
#
# 1 75.6238 20.4013 45.6662 0.0000 0.0000 0.0000
# 2 20.4013 75.6238 45.6662 0.0000 0.0000 0.0000
# 3 45.6662 45.6662 110.4466 0.0000 0.0000 0.0000
# 4 0.0000 0.0000 0.0000 24.0164 0.0000 0.0000
# 5 0.0000 0.0000 0.0000 0.0000 24.0164 0.0000
# 6 0.0000 0.0000 0.0000 0.0000 0.0000 11.0297
#
#
#
# Elastic Compliance Matrix: (Units=1/GPa)
#
#
# Indices 1 2 3 4 5 6 
#
# 1 0.017636 -0.000472 -0.007097 0.000000 0.000000 0.000000
# 2 -0.000472 0.017636 -0.007097 0.000000 0.000000 0.000000
# 3 -0.007097 -0.007097 0.014923 0.000000 0.000000 0.000000
# 4 0.000000 0.000000 0.000000 0.041638 0.000000 0.000000
# 5 0.000000 0.000000 0.000000 0.000000 0.041638 0.000000
# 6 0.000000 0.000000 0.000000 0.000000 0.000000 0.090664
#
#
# Mechanical properties :
#
#
# Convention : Reuss Voigt Hill
#
# Bulk Modulus (GPa) = 47.93051 53.90685 50.91868
# Shear Modulus (GPa) = 19.19959 21.80984 20.50472
#
# Velocity S-wave (km/s) = 3.34164 3.56156 3.45335
# Velocity P-wave (km/s) = 6.53952 6.94733 6.74650
#
# Compressibility (1/GPa) = 0.02086354
#
# Stress axis : x y z
#
# Youngs Moduli (GPa) = 56.70150 56.70150 67.01201
#
# Poissons Ratio (x) = 0.02678 0.47557
# Poissons Ratio (y) = 0.02678 0.47557
# Poissons Ratio (z) = 0.40240 0.40240
#
# Static dielectric constant tensor:
#      x y z
#    x 2.952440 0.000000 0.000000 
#    y 0.000000 2.952440 0.000000 
#    z 0.000000 0.000000 3.288640 
# 
# 
# High freq. dielectric constant tensor:
#      x y z
#    x 1.634360 0.000000 0.000000 
#    y 0.000000 1.634360 0.000000 
#    z 0.000000 0.000000 1.681970 
# 
# From -- ./inp_files/303.got.cif
#   From: 2010.03.12/outbox.cif.g09.slc.cpg/sg103_cif.got.tgz:303.got - 2010.04.14 01:42:52.
