data_PCOD8307079
_publ_section_title
;
Structure prediction by ZEFSAII (Michael W. Deem and Ramdas Pophale) SiO2 
 PCOD8307079
Probable space group: P 4 N C 
;
_chemical_formula_sum "Si O2"
_cell_formula_units_Z 56
_cell_length_a 13.946097
_cell_length_b 13.946097
_cell_length_c 13.368706
_cell_angle_alpha 90.000000
_cell_angle_beta 90.000000
_cell_angle_gamma 90.000000
_cell_volume 2600.128045
_symmetry_space_group_name_H-M "P 4 N C "
_symmetry_group_IT_number 104
_symmetry_cell_setting 'tetragonal'
loop_
_space_group_symop_operation_xyz
x,y,z
-y,x,z
-x,-y,z
y,-x,z
1/2-x,1/2+y,1/2+z
1/2+x,1/2-y,1/2+z
1/2-y,1/2-x,1/2+z
1/2+y,1/2+x,1/2+z
loop_
_atom_site_type_symbol
_atom_site_label
_atom_site_fract_x
_atom_site_fract_y
_atom_site_fract_z
Si Si1 0.641482 0.934554 0.422330
Si Si2 0.650878 0.460303 0.593548
Si Si3 0.289435 0.851087 0.422330
Si Si4 0.039697 0.849122 0.751112
Si Si5 0.787879 0.502886 0.422330
Si Si6 0.766834 0.842384 0.257918
Si Si7 0.266834 0.657616 0.086742
O O1 0.529690 0.900612 0.422330
O O2 0.684666 0.886908 0.324125
O O3 0.684666 0.886908 0.520535
O O4 0.660544 0.046240 0.422330
O O5 0.615198 0.567168 0.572823
O O6 0.739172 0.450823 0.517753
O O7 0.681567 0.434663 0.707104
O O8 0.381212 0.778973 0.422330
O O9 0.223260 0.838283 0.324368
O O10 0.223260 0.838283 0.520292
O O11 0.065337 0.818433 0.637556
O O12 0.932832 0.884802 0.771837
O O13 0.049177 0.760828 0.826907
O O14 0.726057 0.773943 0.172330
#
# Coordination Sequence:
#
# PCOD8307079 Si02
#       7
#     8   8   8   8   8   8   8
#     4  11  24  42  63  96 131 176 223 275 333 410
#     4  11  23  39  66  99 130 171 227 284 337 394
#     4  11  26  42  69  98 139 182 223 272 349 409
#     4  11  23  39  66  99 130 171 227 284 337 394
#     4  12  23  41  66  96 138 174 226 278 340 408
#     4  11  22  43  66  93 131 178 221 279 337 400
#     4  11  22  43  66  93 131 178 221 279 337 400
#
# _framework density 21.537403000000001
#
# number of rings (size 3 to 8) (size 9 to 14) (size 15 to 20)
#    0.000    0.857    2.857    4.714    4.000    1.143 
#    0.000    0.000    0.000    6.857    0.000    0.000 
#    0.000    0.000    0.000    0.000    0.000    0.000 
#
# Total GULP energy -693935.611909 kJ/mol
# GULP energy per Si atom -12391.707356 kJ/mol
# Density = 2.148838 g / cm^3
# Si number density = 21.537403 Si / 1000 Ang^3
#
#
#
# Elastic Constant Matrix: (Units=GPa)
#
#
# Indices 1 2 3 4 5 6 
#
# 1 87.6403 28.0794 41.3804 0.0000 0.0000 0.0000
# 2 28.0794 87.6403 41.3804 0.0000 0.0000 0.0000
# 3 41.3804 41.3804 136.4889 0.0000 0.0000 0.0000
# 4 0.0000 0.0000 0.0000 15.2886 0.0000 0.0000
# 5 0.0000 0.0000 0.0000 0.0000 15.2886 0.0000
# 6 0.0000 0.0000 0.0000 0.0000 0.0000 27.5803
#
#
#
# Elastic Compliance Matrix: (Units=1/GPa)
#
#
# Indices 1 2 3 4 5 6 
#
# 1 0.013912 -0.002878 -0.003345 0.000000 0.000000 0.000000
# 2 -0.002878 0.013912 -0.003345 0.000000 0.000000 0.000000
# 3 -0.003345 -0.003345 0.009355 0.000000 0.000000 0.000000
# 4 0.000000 0.000000 0.000000 0.065408 0.000000 0.000000
# 5 0.000000 0.000000 0.000000 0.000000 0.065408 0.000000
# 6 0.000000 0.000000 0.000000 0.000000 0.000000 0.036258
#
#
# Mechanical properties :
#
#
# Convention : Reuss Voigt Hill
#
# Bulk Modulus (GPa) = 55.42616 59.27222 57.34919
# Shear Modulus (GPa) = 21.79568 25.02679 23.41124
#
# Velocity S-wave (km/s) = 3.18463 3.41253 3.30055
# Velocity P-wave (km/s) = 6.27003 6.56563 6.41953
#
# Compressibility (1/GPa) = 0.01804202
#
# Stress axis : x y z
#
# Youngs Moduli (GPa) = 71.88141 71.88141 106.89434
#
# Poissons Ratio (x) = 0.20686 0.35759
# Poissons Ratio (y) = 0.20686 0.35759
# Poissons Ratio (z) = 0.24046 0.24046
#
# Static dielectric constant tensor:
#      x y z
#    x 3.899320 0.000000 0.000000 
#    y 0.000000 3.899320 0.000000 
#    z 0.000000 0.000000 4.130210 
# 
# 
# High freq. dielectric constant tensor:
#      x y z
#    x 1.850950 0.000000 0.000000 
#    y 0.000000 1.850950 0.000000 
#    z 0.000000 0.000000 1.849560 
# 
# From -- ./inp_files/1029.got.cif
#   From: 2010.03.12/outbox.cif.g09.slc.cpg/sg104_cif.got.tgz:1029.got - 2010.04.14 01:44:05.
