data_PCOD8307982
_publ_section_title
;
Structure prediction by ZEFSAII (Michael W. Deem and Ramdas Pophale) SiO2 
 PCOD8307982
Probable space group: I 41 M D
;
_chemical_formula_sum "Si O2"
_cell_formula_units_Z 64
_cell_length_a 15.007785
_cell_length_b 15.007785
_cell_length_c 12.349091
_cell_angle_alpha 90.000000
_cell_angle_beta 90.000000
_cell_angle_gamma 90.000000
_cell_volume 2781.430354
_symmetry_space_group_name_H-M "I 41 M D"
_symmetry_group_IT_number 109
_symmetry_cell_setting 'tetragonal'
loop_
_space_group_symop_operation_xyz
x,y,z
-y,1/2+x,1/4+z
-x,-y,z
y,1/2-x,1/4+z
-x,y,z
x,-y,z
-y,1/2-x,1/4+z
y,1/2+x,1/4+z
1/2+x,1/2+y,1/2+z
1/2-y,x,3/4+z
1/2-x,1/2-y,1/2+z
1/2+y,-x,3/4+z
1/2-x,1/2+y,1/2+z
1/2+x,1/2-y,1/2+z
1/2-y,-x,3/4+z
1/2+y,x,3/4+z
loop_
_atom_site_type_symbol
_atom_site_label
_atom_site_fract_x
_atom_site_fract_y
_atom_site_fract_z
Si Si1 0.597604 0.759334 0.532320
Si Si2 0.141754 0.902148 0.361862
Si Si3 0.347593 0.899503 0.350509
Si Si4 0.783845 0.094484 0.022285
O O1 0.500000 0.723700 0.495680
O O2 0.632614 0.829066 0.444797
O O3 0.664776 0.679965 0.565271
O O4 0.590665 0.808979 0.645881
O O5 0.243774 0.898121 0.327178
O O6 0.131394 0.895226 0.491233
O O7 0.095099 0.822164 0.297562
O O8 0.103153 0.000000 0.328735
O O9 0.378955 0.000000 0.382960
O O10 0.818259 0.000000 0.072864
#
# Coordination Sequence:
#
# PCOD8307982 Si02
#       4
#    16  16  16  16
#     4  11  24  41  62  89 124 167 215 267 326 396
#     4  11  23  40  66  98 133 174 220 275 340 410
#     4  11  23  40  66  98 133 174 220 275 340 410
#     4  11  24  41  62  89 124 167 215 267 326 396
#
# _framework density 23.009744999999999
#
# number of rings (size 3 to 8) (size 9 to 14) (size 15 to 20)
#    0.000    1.000    0.000    7.500    0.000   10.000 
#    0.000    5.000    0.000    0.000    0.000    0.000 
#    0.000    0.000    0.000    0.000    0.000    0.000 
#
# Total GULP energy -396496.991714 kJ/mol
# GULP energy per Si atom -12390.530991 kJ/mol
# Density = 2.295737 g / cm^3
# Si number density = 23.009745 Si / 1000 Ang^3
#
#
#
# Elastic Constant Matrix: (Units=GPa)
#
#
# Indices 1 2 3 4 5 6 
#
# 1 107.1839 26.4354 -3.4269 0.0000 0.0000 0.0000
# 2 26.4354 107.1839 -3.4269 0.0000 0.0000 0.0000
# 3 -3.4269 -3.4269 68.6108 0.0000 0.0000 0.0000
# 4 0.0000 0.0000 0.0000 14.1762 0.0000 0.0000
# 5 0.0000 0.0000 0.0000 0.0000 14.1762 0.0000
# 6 0.0000 0.0000 0.0000 0.0000 0.0000 -23.8898
#
#
#
# Elastic Compliance Matrix: (Units=1/GPa)
#
#
# Indices 1 2 3 4 5 6 
#
# 1 0.009944 -0.002440 0.000375 0.000000 0.000000 0.000000
# 2 -0.002440 0.009944 0.000375 0.000000 0.000000 0.000000
# 3 0.000375 0.000375 0.014612 0.000000 0.000000 0.000000
# 4 0.000000 0.000000 0.000000 0.070541 0.000000 0.000000
# 5 0.000000 0.000000 0.000000 0.000000 0.070541 0.000000
# 6 0.000000 0.000000 0.000000 0.000000 0.000000 -0.041859
#
#
# Mechanical properties :
#
#
# Convention : Reuss Voigt Hill
#
# Bulk Modulus (GPa) = 32.13595 35.79352 33.96474
# Shear Modulus (GPa) = 33.90360 18.45232 26.17796
#
# Velocity S-wave (km/s) = 3.84271 2.83492 3.37663
# Velocity P-wave (km/s) = 5.80389 5.12887 5.47679
#
# Compressibility (1/GPa) = 0.03111779
#
# Stress axis : x y z
#
# Youngs Moduli (GPa) = 100.56671 100.56671 68.43504
#
# Poissons Ratio (x) = 0.24543 -0.02565
# Poissons Ratio (y) = 0.24543 -0.02565
# Poissons Ratio (z) = -0.03769 -0.03769
#
# Static dielectric constant tensor:
#      x y z
#    x 4.453820 0.000000 0.000000 
#    y 0.000000 4.453820 0.000000 
#    z 0.000000 0.000000 4.021260 
# 
# 
# High freq. dielectric constant tensor:
#      x y z
#    x 1.913420 0.000000 0.000000 
#    y 0.000000 1.913420 0.000000 
#    z 0.000000 0.000000 1.912270 
# 
# From -- ./inp_files/2405.got.cif
#   From: 2010.03.12/outbox.cif.g09.slc.cpg/sg109_2_cif.got.tgz:2405.got - 2010.04.14 01:55:16.
