data_PCOD8307592
_publ_section_title
;
Structure prediction by ZEFSAII (Michael W. Deem and Ramdas Pophale) SiO2 
 PCOD8307592
Probable space group: I 4 M M
;
_chemical_formula_sum "Si O2"
_cell_formula_units_Z 64
_cell_length_a 19.879938
_cell_length_b 19.879938
_cell_length_c 9.162093
_cell_angle_alpha 90.000000
_cell_angle_beta 90.000000
_cell_angle_gamma 90.000000
_cell_volume 3620.968502
_symmetry_space_group_name_H-M "I 4 M M"
_symmetry_group_IT_number 107
_symmetry_cell_setting 'tetragonal'
loop_
_space_group_symop_operation_xyz
x,y,z
-y,x,z
-x,-y,z
y,-x,z
-x,y,z
x,-y,z
-y,-x,z
y,x,z
1/2+x,1/2+y,1/2+z
1/2-y,1/2+x,1/2+z
1/2-x,1/2-y,1/2+z
1/2+y,1/2-x,1/2+z
1/2-x,1/2+y,1/2+z
1/2+x,1/2-y,1/2+z
1/2-y,1/2-x,1/2+z
1/2+y,1/2+x,1/2+z
loop_
_atom_site_type_symbol
_atom_site_label
_atom_site_fract_x
_atom_site_fract_y
_atom_site_fract_z
Si Si1 0.811217 0.078113 0.662820
Si Si2 0.260633 0.632966 0.864572
Si Si3 0.162456 0.573993 0.659195
Si Si4 0.622312 0.812070 0.348359
O O1 0.879864 0.120137 0.676927
O O2 0.776357 0.089338 0.507036
O O3 0.760458 0.102095 0.788527
O O4 0.828998 0.000000 0.682746
O O5 0.326262 0.673739 0.813474
O O6 0.236425 0.584686 0.733152
O O7 0.200509 0.686401 0.900302
O O8 0.135436 0.500000 0.700596
O O9 0.169630 0.576589 0.485745
O O10 0.111152 0.630170 0.723605
#
# Coordination Sequence:
#
# PCOD8307592 Si02
#       4
#    16  16  16  16
#     4  11  22  37  59  85 116 152 188 233 282 334
#     4   9  18  33  54  83 111 142 184 232 279 327
#     4  10  20  34  55  82 112 144 181 232 283 333
#     4  10  19  35  56  81 112 145 187 231 285 326
#
# _framework density 17.674828999999999
#
# number of rings (size 3 to 8) (size 9 to 14) (size 15 to 20)
#    1.500    0.500    2.500    2.250    0.000    2.250 
#    0.000    0.000    0.000    6.000    0.000    0.000 
#    0.000    6.000    0.000    0.000    0.000    0.000 
#
# Total GULP energy -396523.330664 kJ/mol
# GULP energy per Si atom -12391.354083 kJ/mol
# Density = 1.763460 g / cm^3
# Si number density = 17.674829 Si / 1000 Ang^3
#
#
#
# Elastic Constant Matrix: (Units=GPa)
#
#
# Indices 1 2 3 4 5 6 
#
# 1 101.2425 47.3079 39.0372 0.0000 0.0000 0.0014
# 2 47.3079 101.2425 39.0372 0.0000 0.0000 -0.0014
# 3 39.0372 39.0372 94.8513 0.0000 0.0000 0.0000
# 4 0.0000 0.0000 0.0000 17.3694 0.0000 0.0000
# 5 0.0000 0.0000 0.0000 0.0000 17.3694 0.0000
# 6 0.0014 -0.0014 0.0000 0.0000 0.0000 9.8866
#
#
#
# Elastic Compliance Matrix: (Units=1/GPa)
#
#
# Indices 1 2 3 4 5 6 
#
# 1 0.013565 -0.004976 -0.003535 0.000000 0.000000 -0.000003
# 2 -0.004976 0.013565 -0.003535 0.000000 0.000000 0.000003
# 3 -0.003535 -0.003535 0.013453 0.000000 0.000000 0.000000
# 4 0.000000 0.000000 0.000000 0.057573 0.000000 0.000000
# 5 0.000000 0.000000 0.000000 0.000000 0.057573 0.000000
# 6 -0.000003 0.000003 0.000000 0.000000 0.000000 0.101147
#
#
# Mechanical properties :
#
#
# Convention : Reuss Voigt Hill
#
# Bulk Modulus (GPa) = 60.63777 60.90010 60.76894
# Shear Modulus (GPa) = 17.45415 20.38868 18.92142
#
# Velocity S-wave (km/s) = 3.14588 3.40007 3.27544
# Velocity P-wave (km/s) = 6.89763 7.06715 6.98291
#
# Compressibility (1/GPa) = 0.01649137
#
# Stress axis : x y z
#
# Youngs Moduli (GPa) = 73.71719 73.71719 74.33438
#
# Poissons Ratio (x) = 0.36679 0.26279
# Poissons Ratio (y) = 0.36679 0.26279
# Poissons Ratio (z) = 0.26061 0.26061
#
# Static dielectric constant tensor:
#      x y z
#    x 3.052650 0.000000 0.000000 
#    y 0.000000 3.052650 0.000000 
#    z 0.000000 0.000000 3.169620 
# 
# 
# High freq. dielectric constant tensor:
#      x y z
#    x 1.664130 0.000000 0.000000 
#    y 0.000000 1.664130 0.000000 
#    z 0.000000 0.000000 1.685690 
# 
# From -- ./inp_files/1186.got.cif
#   From: 2010.03.12/outbox.cif.g09.slc.cpg/sg107_1_cif.got.tgz:1186.got - 2010.04.14 01:49:11.
