data_PCOD8307067
_publ_section_title
;
Structure prediction by ZEFSAII (Michael W. Deem and Ramdas Pophale) SiO2 
 PCOD8307067
Probable space group: P 4 N C 
;
_chemical_formula_sum "Si O2"
_cell_formula_units_Z 56
_cell_length_a 15.226879
_cell_length_b 15.226879
_cell_length_c 9.946944
_cell_angle_alpha 90.000000
_cell_angle_beta 90.000000
_cell_angle_gamma 90.000000
_cell_volume 2306.276991
_symmetry_space_group_name_H-M "P 4 N C "
_symmetry_group_IT_number 104
_symmetry_cell_setting 'tetragonal'
loop_
_space_group_symop_operation_xyz
x,y,z
-y,x,z
-x,-y,z
y,-x,z
1/2-x,1/2+y,1/2+z
1/2+x,1/2-y,1/2+z
1/2-y,1/2-x,1/2+z
1/2+y,1/2+x,1/2+z
loop_
_atom_site_type_symbol
_atom_site_label
_atom_site_fract_x
_atom_site_fract_y
_atom_site_fract_z
Si Si1 0.387415 0.140786 0.403450
Si Si2 0.679560 0.159076 0.720469
Si Si3 0.007910 0.856196 0.547467
Si Si4 0.864755 0.972990 0.104622
Si Si5 0.337905 0.232250 0.657833
Si Si6 0.015076 0.216568 0.832734
Si Si7 0.542264 0.173876 0.953057
O O1 0.326522 0.190958 0.510822
O O2 0.345133 0.158657 0.260963
O O3 0.481594 0.187141 0.383544
O O4 0.396091 0.038289 0.444480
O O5 0.701126 0.257611 0.675999
O O6 0.595917 0.162467 0.816442
O O7 0.658931 0.099945 0.587914
O O8 0.763269 0.118084 0.801638
O O9 0.026024 0.823649 0.698623
O O10 0.917666 0.908724 0.518367
O O11 0.002523 0.771029 0.451970
O O12 0.776365 0.935161 0.168410
O O13 0.933553 0.898430 0.153749
O O14 0.855037 0.990697 0.944584
#
# Coordination Sequence:
#
# PCOD8307067 Si02
#       7
#     8   8   8   8   8   8   8
#     4  11  26  47  71 110 146 193 249 316 367 447
#     4  11  26  45  74 107 145 200 251 305 372 466
#     4  10  22  42  71 110 151 193 248 314 375 444
#     4  10  23  41  66 105 147 188 243 304 374 446
#     4  11  25  43  76 104 148 194 245 307 379 445
#     4  10  23  40  72 105 144 197 252 305 375 433
#     4  11  27  45  74 107 148 197 248 308 378 445
#
# _framework density 24.281556999999999
#
# number of rings (size 3 to 8) (size 9 to 14) (size 15 to 20)
#    0.000    1.429    0.000    3.429   18.000    2.857 
#    0.000    2.857    0.000    0.000    0.000    0.000 
#    0.000    0.000    0.000    0.000    0.000    0.000 
#
# Total GULP energy -693884.937165 kJ/mol
# GULP energy per Si atom -12390.802449 kJ/mol
# Density = 2.422629 g / cm^3
# Si number density = 24.281557 Si / 1000 Ang^3
#
#
#
# Elastic Constant Matrix: (Units=GPa)
#
#
# Indices 1 2 3 4 5 6 
#
# 1 78.7573 5.9076 25.2296 0.0000 0.0000 0.0000
# 2 5.9076 78.7573 25.2296 0.0000 0.0000 0.0000
# 3 25.2296 25.2296 68.9580 0.0000 0.0000 0.0000
# 4 0.0000 0.0000 0.0000 29.4018 0.0000 0.0000
# 5 0.0000 0.0000 0.0000 0.0000 29.4018 0.0000
# 6 0.0000 0.0000 0.0000 0.0000 0.0000 11.1750
#
#
#
# Elastic Compliance Matrix: (Units=1/GPa)
#
#
# Indices 1 2 3 4 5 6 
#
# 1 0.014416 0.000689 -0.005526 0.000000 0.000000 0.000000
# 2 0.000689 0.014416 -0.005526 0.000000 0.000000 0.000000
# 3 -0.005526 -0.005526 0.018545 0.000000 0.000000 0.000000
# 4 0.000000 0.000000 0.000000 0.034012 0.000000 0.000000
# 5 0.000000 0.000000 0.000000 0.000000 0.034012 0.000000
# 6 0.000000 0.000000 0.000000 0.000000 0.000000 0.089485
#
#
# Mechanical properties :
#
#
# Convention : Reuss Voigt Hill
#
# Bulk Modulus (GPa) = 37.52396 37.68960 37.60678
# Shear Modulus (GPa) = 21.32229 25.33610 23.32919
#
# Velocity S-wave (km/s) = 2.96654 3.23372 3.10301
# Velocity P-wave (km/s) = 5.21738 5.43122 5.32537
#
# Compressibility (1/GPa) = 0.02664964
#
# Stress axis : x y z
#
# Youngs Moduli (GPa) = 69.36771 69.36771 53.92146
#
# Poissons Ratio (x) = -0.04780 0.29799
# Poissons Ratio (y) = -0.04780 0.29799
# Poissons Ratio (z) = 0.38336 0.38336
#
# Static dielectric constant tensor:
#      x y z
#    x 4.490890 0.000000 0.000000 
#    y 0.000000 4.490890 0.000000 
#    z 0.000000 0.000000 4.340040 
# 
# 
# High freq. dielectric constant tensor:
#      x y z
#    x 1.964020 0.000000 0.000000 
#    y 0.000000 1.964020 0.000000 
#    z 0.000000 0.000000 1.968330 
# 
# From -- ./inp_files/1050.got.cif
#   From: 2010.03.12/outbox.cif.g09.slc.cpg/sg104_cif.got.tgz:1050.got - 2010.04.14 01:44:05.
