data_PCOD8307801
_publ_section_title
;
Structure prediction by ZEFSAII (Michael W. Deem and Ramdas Pophale) SiO2 
 PCOD8307801
Probable space group: I 4 C M
;
_chemical_formula_sum "Si O2"
_cell_formula_units_Z 112
_cell_length_a 14.942822
_cell_length_b 14.942822
_cell_length_c 25.912483
_cell_angle_alpha 90.000000
_cell_angle_beta 90.000000
_cell_angle_gamma 90.000000
_cell_volume 5785.944673
_symmetry_space_group_name_H-M "I 4 C M"
_symmetry_group_IT_number 108
_symmetry_cell_setting 'tetragonal'
loop_
_space_group_symop_operation_xyz
x,y,z
-y,x,z
-x,-y,z
y,-x,z
-x,y,1/2+z
x,-y,1/2+z
-y,-x,1/2+z
y,x,1/2+z
1/2+x,1/2+y,1/2+z
1/2-y,1/2+x,1/2+z
1/2-x,1/2-y,1/2+z
1/2+y,1/2-x,1/2+z
1/2-x,1/2+y,z
1/2+x,1/2-y,z
1/2-y,1/2-x,z
1/2+y,1/2+x,z
loop_
_atom_site_type_symbol
_atom_site_label
_atom_site_fract_x
_atom_site_fract_y
_atom_site_fract_z
Si Si1 0.504739 0.857088 0.116030
Si Si2 0.882994 0.088933 0.983139
Si Si3 0.604327 0.604327 0.175245
Si Si4 0.872558 0.223943 0.270490
Si Si5 0.357088 0.004739 0.734460
Si Si6 0.723943 0.372559 0.580000
Si Si7 0.882994 0.088933 0.867351
O O1 0.438602 0.938602 0.106291
O O2 0.499999 0.826093 0.175245
O O3 0.471129 0.771349 0.083401
O O4 0.605361 0.894640 0.101950
O O5 0.851092 0.113153 0.925245
O O6 0.983179 0.122504 0.992185
O O7 0.819141 0.137832 0.023725
O O8 0.500000 0.624914 0.175245
O O9 0.644058 0.648827 0.226892
O O10 0.648827 0.644058 0.123598
O O11 0.796843 0.296843 0.262012
O O12 0.971129 0.271349 0.267089
O O13 0.862168 0.180858 0.326765
O O14 0.438602 0.938602 0.744199
O O15 0.394640 0.105361 0.748541
O O16 0.796844 0.296844 0.588478
O O17 0.983179 0.122504 0.858306
#
# Coordination Sequence:
#
# PCOD8307801 Si02
#       7
#    16  16  16  16  16  16  16
#     4   8  15  29  48  71 103 142 176 204 248 320
#     4   9  19  38  60  76  96 135 183 222 261 316
#     4  11  23  38  54  74 107 149 188 222 262 315
#     4  11  21  33  54  83 112 138 171 222 277 326
#     4   8  15  29  48  71 103 142 176 204 248 320
#     4  11  21  33  54  83 112 138 171 222 277 326
#     4   9  19  38  60  76  96 135 183 222 261 316
#
# _framework density 19.357254000000001
#
# number of rings (size 3 to 8) (size 9 to 14) (size 15 to 20)
#    0.000    2.429    0.000    4.714    0.000    2.857 
#    0.000    8.571    0.000    2.571    0.000    4.000 
#    0.000    0.000    0.000    0.000    0.000    0.000 
#
# Total GULP energy -694044.198498 kJ/mol
# GULP energy per Si atom -12393.646402 kJ/mol
# Density = 1.931320 g / cm^3
# Si number density = 19.357254 Si / 1000 Ang^3
#
#
#
# Elastic Constant Matrix: (Units=GPa)
#
#
# Indices 1 2 3 4 5 6 
#
# 1 76.6210 29.5590 47.5706 0.0000 0.0000 0.0000
# 2 29.5590 76.6210 47.5706 0.0000 0.0000 0.0000
# 3 47.5706 47.5706 130.5528 0.0000 0.0000 0.0000
# 4 0.0000 0.0000 0.0000 10.8935 0.0000 0.0000
# 5 0.0000 0.0000 0.0000 0.0000 10.8935 0.0000
# 6 0.0000 0.0000 0.0000 0.0000 0.0000 15.8053
#
#
#
# Elastic Compliance Matrix: (Units=1/GPa)
#
#
# Indices 1 2 3 4 5 6 
#
# 1 0.017616 -0.003633 -0.005095 0.000000 0.000000 0.000000
# 2 -0.003633 0.017616 -0.005095 0.000000 0.000000 0.000000
# 3 -0.005095 -0.005095 0.011373 0.000000 0.000000 0.000000
# 4 0.000000 0.000000 0.000000 0.091798 0.000000 0.000000
# 5 0.000000 0.000000 0.000000 0.000000 0.091798 0.000000
# 6 0.000000 0.000000 0.000000 0.000000 0.000000 0.063270
#
#
# Mechanical properties :
#
#
# Convention : Reuss Voigt Hill
#
# Bulk Modulus (GPa) = 52.74578 59.24392 55.99485
# Shear Modulus (GPa) = 15.27013 18.12475 16.69744
#
# Velocity S-wave (km/s) = 2.81171 3.06327 2.94018
# Velocity P-wave (km/s) = 6.15213 6.57141 6.36522
#
# Compressibility (1/GPa) = 0.01895886
#
# Stress axis : x y z
#
# Youngs Moduli (GPa) = 56.76634 56.76634 87.92774
#
# Poissons Ratio (x) = 0.20620 0.44802
# Poissons Ratio (y) = 0.20620 0.44802
# Poissons Ratio (z) = 0.28924 0.28924
#
# Static dielectric constant tensor:
#      x y z
#    x 3.739630 0.000000 0.000000 
#    y 0.000000 3.739630 0.000000 
#    z 0.000000 0.000000 3.374410 
# 
# 
# High freq. dielectric constant tensor:
#      x y z
#    x 1.750510 0.000000 0.000000 
#    y 0.000000 1.750510 0.000000 
#    z 0.000000 0.000000 1.730460 
# 
# From -- ./inp_files/3202.got.cif
#   From: 2010.03.12/outbox.cif.g09.slc.cpg/sg108_2_cif.got.tgz:3202.got - 2010.04.14 01:53:11.
