data_PCOD8307610
_publ_section_title
;
Structure prediction by ZEFSAII (Michael W. Deem and Ramdas Pophale) SiO2 
 PCOD8307610
Probable space group: I 4 M M
;
_chemical_formula_sum "Si O2"
_cell_formula_units_Z 112
_cell_length_a 18.262921
_cell_length_b 18.262921
_cell_length_c 21.691839
_cell_angle_alpha 90.000000
_cell_angle_beta 90.000000
_cell_angle_gamma 90.000000
_cell_volume 7234.971978
_symmetry_space_group_name_H-M "I 4 M M"
_symmetry_group_IT_number 107
_symmetry_cell_setting 'tetragonal'
loop_
_space_group_symop_operation_xyz
x,y,z
-y,x,z
-x,-y,z
y,-x,z
-x,y,z
x,-y,z
-y,-x,z
y,x,z
1/2+x,1/2+y,1/2+z
1/2-y,1/2+x,1/2+z
1/2-x,1/2-y,1/2+z
1/2+y,1/2-x,1/2+z
1/2-x,1/2+y,1/2+z
1/2+x,1/2-y,1/2+z
1/2-y,1/2-x,1/2+z
1/2+y,1/2+x,1/2+z
loop_
_atom_site_type_symbol
_atom_site_label
_atom_site_fract_x
_atom_site_fract_y
_atom_site_fract_z
Si Si1 0.850588 0.416846 0.436950
Si Si2 0.916819 0.798598 0.382296
Si Si3 0.416846 0.149411 0.816992
Si Si4 0.414682 0.787705 0.250676
Si Si5 0.414682 0.212296 0.003263
Si Si6 0.416819 0.701402 0.371644
Si Si7 0.585849 0.294596 0.126970
O O1 0.866531 0.500000 0.457329
O O2 0.899248 0.399250 0.376971
O O3 0.870793 0.363369 0.493353
O O4 0.765319 0.405897 0.421424
O O5 0.865749 0.865749 0.363279
O O6 0.905897 0.734680 0.332518
O O7 0.894527 0.769632 0.449788
O O8 0.000000 0.827114 0.382639
O O9 0.500000 0.133467 0.796614
O O10 0.363370 0.129206 0.760588
O O11 0.500000 0.807247 0.253048
O O12 0.394527 0.730369 0.304152
O O13 0.391542 0.753152 0.185929
O O14 0.500000 0.192753 0.000890
O O15 0.391543 0.246848 0.068011
O O16 0.500000 0.672886 0.371300
O O17 0.365750 0.634251 0.390660
O O18 0.500000 0.314424 0.126971
O O19 0.629070 0.370931 0.126970
#
# Coordination Sequence:
#
# PCOD8307610 Si02
#       7
#    16  16  16  16  16  16  16
#     4   9  17  28  44  66  88 111 140 172 208 252
#     4   9  17  28  42  62  86 111 141 175 210 250
#     4   9  17  28  44  66  88 111 140 172 208 252
#     4   9  18  30  43  62  86 111 141 174 208 248
#     4   9  18  30  43  62  86 111 141 174 208 248
#     4   9  17  28  42  62  86 111 141 175 210 250
#     4  10  20  33  47  63  85 113 146 180 210 244
#
# _framework density 15.480364
#
# number of rings (size 3 to 8) (size 9 to 14) (size 15 to 20)
#    0.000    2.857    0.000    3.429    0.000    8.714 
#    0.000    0.714    0.000    7.714    0.000    0.000 
#    0.000    0.000    0.000    0.000    0.000   22.857 
#
# Total GULP energy -694425.685152 kJ/mol
# GULP energy per Si atom -12400.458663 kJ/mol
# Density = 1.544513 g / cm^3
# Si number density = 15.480364 Si / 1000 Ang^3
#
#
#
# Elastic Constant Matrix: (Units=GPa)
#
#
# Indices 1 2 3 4 5 6 
#
# 1 95.6622 70.8902 33.0227 0.0000 0.0000 0.0001
# 2 70.8902 95.6622 33.0227 0.0000 0.0000 -0.0002
# 3 33.0227 33.0227 62.1932 0.0000 0.0000 0.0000
# 4 0.0000 0.0000 0.0000 16.8537 0.0000 0.0000
# 5 0.0000 0.0000 0.0000 0.0000 16.8537 0.0000
# 6 0.0001 -0.0002 0.0000 0.0000 0.0000 29.3869
#
#
#
# Elastic Compliance Matrix: (Units=1/GPa)
#
#
# Indices 1 2 3 4 5 6 
#
# 1 0.023987 -0.016381 -0.004038 0.000000 0.000000 0.000000
# 2 -0.016381 0.023987 -0.004038 0.000000 0.000000 0.000000
# 3 -0.004038 -0.004038 0.020367 0.000000 0.000000 0.000000
# 4 0.000000 0.000000 0.000000 0.059334 0.000000 0.000000
# 5 0.000000 0.000000 0.000000 0.000000 0.059334 0.000000
# 6 0.000000 0.000000 0.000000 0.000000 0.000000 0.034029
#
#
# Mechanical properties :
#
#
# Convention : Reuss Voigt Hill
#
# Bulk Modulus (GPa) = 51.47959 58.59875 55.03917
# Shear Modulus (GPa) = 18.08785 20.39100 19.23942
#
# Velocity S-wave (km/s) = 3.42195 3.63329 3.52920
# Velocity P-wave (km/s) = 6.99571 7.45230 7.22761
#
# Compressibility (1/GPa) = 0.01942518
#
# Stress axis : x y z
#
# Youngs Moduli (GPa) = 41.68958 41.68958 49.09822
#
# Poissons Ratio (x) = 0.68293 0.19827
# Poissons Ratio (y) = 0.68293 0.19827
# Poissons Ratio (z) = 0.16835 0.16835
#
# Static dielectric constant tensor:
#      x y z
#    x 2.915500 0.000000 0.000000 
#    y 0.000000 2.915500 0.000000 
#    z 0.000000 0.000000 2.821510 
# 
# 
# High freq. dielectric constant tensor:
#      x y z
#    x 1.592670 0.000000 0.000000 
#    y 0.000000 1.592670 0.000000 
#    z 0.000000 0.000000 1.563590 
# 
# From -- ./inp_files/4921.got.cif
#   From: 2010.03.12/outbox.cif.g09.slc.cpg/sg107_3_cif.got.tgz:4921.got - 2010.04.14 01:49:11.
