data_PCOD8307014
_publ_section_title
;
Structure prediction by ZEFSAII (Michael W. Deem and Ramdas Pophale) SiO2 
 PCOD8307014
Probable space group: P 4 C C
;
_chemical_formula_sum "Si O2"
_cell_formula_units_Z 58
_cell_length_a 17.017680
_cell_length_b 17.017680
_cell_length_c 9.353160
_cell_angle_alpha 90.000000
_cell_angle_beta 90.000000
_cell_angle_gamma 90.000000
_cell_volume 2708.688535
_symmetry_space_group_name_H-M "P 4 C C"
_symmetry_group_IT_number 103
_symmetry_cell_setting 'tetragonal'
loop_
_space_group_symop_operation_xyz
x,y,z
-y,x,z
-x,-y,z
y,-x,z
-x,y,1/2+z
x,-y,1/2+z
-y,-x,1/2+z
y,x,1/2+z
loop_
_atom_site_type_symbol
_atom_site_label
_atom_site_fract_x
_atom_site_fract_y
_atom_site_fract_z
Si Si1 0.734986 0.170709 0.362330
Si Si2 0.406890 0.722002 0.309760
Si Si3 0.500000 0.500000 0.962267
Si Si4 0.604681 0.637242 0.527958
Si Si5 0.951790 0.573336 0.986579
Si Si6 0.570231 0.211248 0.852971
Si Si7 0.844447 0.279277 0.193514
Si Si8 0.323599 0.016527 0.746051
O O1 0.657024 0.209892 0.295967
O O2 0.811085 0.212514 0.297576
O O3 0.738344 0.180675 0.532284
O O4 0.734963 0.079327 0.318172
O O5 0.405292 0.682814 0.467207
O O6 0.389284 0.649629 0.199285
O O7 0.491815 0.758375 0.274041
O O8 0.476306 0.590680 0.994288
O O9 0.604347 0.723141 0.457448
O O10 0.000000 0.500000 0.050793
O O11 0.947297 0.643290 0.100091
O O12 0.863905 0.547162 0.948117
O O13 0.998860 0.603078 0.848462
O O14 0.634918 0.188905 0.734699
O O15 0.937954 0.274983 0.212457
#
# Coordination Sequence:
#
# PCOD8307014 Si02
#       8
#     8   8   2   8   8   8   8   8
#     4  12  25  46  73 103 141 189 231 284 354 424
#     4  12  27  44  67  95 130 187 233 311 353 430
#     4  12  28  46  64  86 124 194 248 314 356 414
#     4  12  27  43  63  92 127 176 249 300 364 403
#     4  11  23  43  68 103 138 184 228 293 364 430
#     4  11  26  43  69  96 138 182 245 298 357 425
#     4  11  27  44  74 106 142 185 236 289 351 424
#     4  11  24  44  68 106 146 180 234 285 352 432
#
# _framework density 21.412576999999999
#
# number of rings (size 3 to 8) (size 9 to 14) (size 15 to 20)
#    0.000    0.552    4.138    2.897    7.724    2.759 
#    0.000    0.000    0.000    0.414    0.000    1.931 
#    0.000    0.000    0.000    0.000    0.000    0.000 
#
# Total GULP energy -718802.203403 kJ/mol
# GULP energy per Si atom -12393.141438 kJ/mol
# Density = 2.136384 g / cm^3
# Si number density = 21.412577 Si / 1000 Ang^3
#
#
#
# Elastic Constant Matrix: (Units=GPa)
#
#
# Indices 1 2 3 4 5 6 
#
# 1 124.7961 38.1754 44.2993 0.0000 0.0000 0.0000
# 2 38.1754 124.7961 44.2993 0.0000 0.0000 0.0000
# 3 44.2993 44.2993 111.1875 0.0000 0.0000 0.0000
# 4 0.0000 0.0000 0.0000 26.9771 0.0000 0.0000
# 5 0.0000 0.0000 0.0000 0.0000 26.9771 0.0000
# 6 0.0000 0.0000 0.0000 0.0000 0.0000 27.9257
#
#
#
# Elastic Compliance Matrix: (Units=1/GPa)
#
#
# Indices 1 2 3 4 5 6 
#
# 1 0.009689 -0.001856 -0.003121 0.000000 0.000000 0.000000
# 2 -0.001856 0.009689 -0.003121 0.000000 0.000000 0.000000
# 3 -0.003121 -0.003121 0.011480 0.000000 0.000000 0.000000
# 4 0.000000 0.000000 0.000000 0.037068 0.000000 0.000000
# 5 0.000000 0.000000 0.000000 0.000000 0.037068 0.000000
# 6 0.000000 0.000000 0.000000 0.000000 0.000000 0.035809
#
#
# Mechanical properties :
#
#
# Convention : Reuss Voigt Hill
#
# Bulk Modulus (GPa) = 68.19884 68.25865 68.22875
# Shear Modulus (GPa) = 30.88591 31.97637 31.43114
#
# Velocity S-wave (km/s) = 3.80204 3.86857 3.83545
# Velocity P-wave (km/s) = 7.15493 7.20427 7.17964
#
# Compressibility (1/GPa) = 0.01466301
#
# Stress axis : x y z
#
# Youngs Moduli (GPa) = 103.21434 103.21434 87.10437
#
# Poissons Ratio (x) = 0.19157 0.27182
# Poissons Ratio (y) = 0.19157 0.27182
# Poissons Ratio (z) = 0.32210 0.32210
#
# Static dielectric constant tensor:
#      x y z
#    x 3.951540 0.000000 0.000000 
#    y 0.000000 3.951540 0.000000 
#    z 0.000000 0.000000 3.838280 
# 
# 
# High freq. dielectric constant tensor:
#      x y z
#    x 1.839200 0.000000 0.000000 
#    y 0.000000 1.839200 0.000000 
#    z 0.000000 0.000000 1.839880 
# 
# From -- ./inp_files/325.got.cif
#   From: 2010.03.12/outbox.cif.g09.slc.cpg/sg103_cif.got.tgz:325.got - 2010.04.14 01:42:52.
