data_PCOD8307577
_publ_section_title
;
Structure prediction by ZEFSAII (Michael W. Deem and Ramdas Pophale) SiO2 
 PCOD8307577
Probable space group: I 4 M M
;
_chemical_formula_sum "Si O2"
_cell_formula_units_Z 112
_cell_length_a 21.972251
_cell_length_b 21.972251
_cell_length_c 12.639555
_cell_angle_alpha 90.000000
_cell_angle_beta 90.000000
_cell_angle_gamma 90.000000
_cell_volume 6102.122012
_symmetry_space_group_name_H-M "I 4 M M"
_symmetry_group_IT_number 107
_symmetry_cell_setting 'tetragonal'
loop_
_space_group_symop_operation_xyz
x,y,z
-y,x,z
-x,-y,z
y,-x,z
-x,y,z
x,-y,z
-y,-x,z
y,x,z
1/2+x,1/2+y,1/2+z
1/2-y,1/2+x,1/2+z
1/2-x,1/2-y,1/2+z
1/2+y,1/2-x,1/2+z
1/2-x,1/2+y,1/2+z
1/2+x,1/2-y,1/2+z
1/2-y,1/2-x,1/2+z
1/2+y,1/2+x,1/2+z
loop_
_atom_site_type_symbol
_atom_site_label
_atom_site_fract_x
_atom_site_fract_y
_atom_site_fract_z
Si Si1 0.792393 0.567778 0.123210
Si Si2 0.433070 0.660071 0.354496
Si Si3 0.255730 0.154761 0.944180
Si Si4 0.839101 0.933123 0.606583
Si Si5 0.359459 0.137005 0.299998
Si Si6 0.431300 0.095647 0.987209
Si Si7 0.184260 0.431626 0.612282
O O1 0.779151 0.500000 0.167547
O O2 0.727760 0.596048 0.088034
O O3 0.823602 0.604100 0.216096
O O4 0.833563 0.565856 0.019070
O O5 0.500000 0.665243 0.406684
O O6 0.397419 0.602582 0.406076
O O7 0.394456 0.720822 0.373217
O O8 0.438549 0.649297 0.230731
O O9 0.213554 0.213554 0.971604
O O10 0.276497 0.118750 0.049360
O O11 0.315668 0.175803 0.878023
O O12 0.888493 0.888493 0.553448
O O13 0.845480 0.000000 0.553854
O O14 0.406404 0.095575 0.368240
O O15 0.315501 0.091832 0.234089
O O16 0.500000 0.067136 0.991734
O O17 0.384955 0.062021 0.066987
O O18 0.212690 0.500000 0.608131
#
# Coordination Sequence:
#
# PCOD8307577 Si02
#       7
#    16  16  16  16  16  16  16
#     4   9  17  30  47  66  90 124 162 197 240 294
#     4   9  16  26  42  64  91 123 158 196 241 297
#     4  10  20  33  50  72  98 133 172 211 256 309
#     4   9  16  26  43  65  91 123 155 193 240 293
#     4  10  19  32  51  72  94 126 166 209 253 295
#     4   9  19  34  50  70  97 128 167 212 253 300
#     4  10  21  35  53  76 103 135 169 212 265 316
#
# _framework density 18.35427
#
# number of rings (size 3 to 8) (size 9 to 14) (size 15 to 20)
#    0.000    2.571    1.429    0.857    0.000    3.429 
#    0.000    7.143    0.000    6.000    0.000    0.000 
#    0.000    0.000    0.000    0.000    0.000   19.429 
#
# Total GULP energy -693784.857348 kJ/mol
# GULP energy per Si atom -12389.015310 kJ/mol
# Density = 1.831250 g / cm^3
# Si number density = 18.354270 Si / 1000 Ang^3
#
#
#
# Elastic Constant Matrix: (Units=GPa)
#
#
# Indices 1 2 3 4 5 6 
#
# 1 89.7402 31.3802 15.6622 0.0000 0.0000 0.0002
# 2 31.3802 89.7402 15.6622 0.0000 0.0000 -0.0002
# 3 15.6622 15.6622 48.6245 0.0000 0.0000 0.0000
# 4 0.0000 0.0000 0.0000 12.4462 0.0000 0.0000
# 5 0.0000 0.0000 0.0000 0.0000 12.4462 0.0000
# 6 0.0002 -0.0002 0.0000 0.0000 0.0000 20.4713
#
#
#
# Elastic Compliance Matrix: (Units=1/GPa)
#
#
# Indices 1 2 3 4 5 6 
#
# 1 0.013071 -0.004064 -0.002901 0.000000 0.000000 0.000000
# 2 -0.004064 0.013071 -0.002901 0.000000 0.000000 0.000000
# 3 -0.002901 -0.002901 0.022435 0.000000 0.000000 0.000000
# 4 0.000000 0.000000 0.000000 0.080346 0.000000 0.000000
# 5 0.000000 0.000000 0.000000 0.000000 0.080346 0.000000
# 6 0.000000 0.000000 0.000000 0.000000 0.000000 0.048849
#
#
# Mechanical properties :
#
#
# Convention : Reuss Voigt Hill
#
# Bulk Modulus (GPa) = 34.66985 39.27934 36.97460
# Shear Modulus (GPa) = 17.39350 20.09943 18.74646
#
# Velocity S-wave (km/s) = 3.08174 3.31279 3.19935
# Velocity P-wave (km/s) = 5.62077 6.00665 5.81691
#
# Compressibility (1/GPa) = 0.02884350
#
# Stress axis : x y z
#
# Youngs Moduli (GPa) = 76.50655 76.50655 44.57394
#
# Poissons Ratio (x) = 0.31094 0.12931
# Poissons Ratio (y) = 0.31094 0.12931
# Poissons Ratio (z) = 0.22195 0.22195
#
# Static dielectric constant tensor:
#      x y z
#    x 3.574200 0.000000 0.000000 
#    y 0.000000 3.574200 0.000000 
#    z 0.000000 0.000000 3.138160 
# 
# 
# High freq. dielectric constant tensor:
#      x y z
#    x 1.706910 0.000000 0.000000 
#    y 0.000000 1.706910 0.000000 
#    z 0.000000 0.000000 1.674200 
# 
# From -- ./inp_files/2598.got.cif
#   From: 2010.03.12/outbox.cif.g09.slc.cpg/sg107_2_cif.got.tgz:2598.got - 2010.04.14 01:49:11.
