data_PCOD8307403
_publ_section_title
;
Structure prediction by ZEFSAII (Michael W. Deem and Ramdas Pophale) SiO2 
 PCOD8307403
Probable space group: P 42 B C
;
_chemical_formula_sum "Si O2"
_cell_formula_units_Z 48
_cell_length_a 16.574399
_cell_length_b 16.574399
_cell_length_c 8.526844
_cell_angle_alpha 90.000000
_cell_angle_beta 90.000000
_cell_angle_gamma 90.000000
_cell_volume 2342.415303
_symmetry_space_group_name_H-M "P 42 B C"
_symmetry_group_IT_number 106
_symmetry_cell_setting 'tetragonal'
loop_
_space_group_symop_operation_xyz
x,y,z
-y,x,1/2+z
-x,-y,z
y,-x,1/2+z
1/2-x,1/2+y,z
1/2+x,1/2-y,z
1/2-y,1/2-x,1/2+z
1/2+y,1/2+x,1/2+z
loop_
_atom_site_type_symbol
_atom_site_label
_atom_site_fract_x
_atom_site_fract_y
_atom_site_fract_z
Si Si1 0.149559 0.584407 0.416110
Si Si2 0.085631 0.107079 0.077512
Si Si3 0.269972 0.075218 0.104986
Si Si4 0.000000 0.500000 0.908432
Si Si5 0.562911 0.205697 0.118893
Si Si6 0.425890 0.841861 0.480872
Si Si7 0.500000 0.500000 0.827947
O O1 0.123748 0.669251 0.491477
O O2 0.218195 0.599601 0.287029
O O3 0.176875 0.523410 0.552529
O O4 0.075158 0.541792 0.316928
O O5 0.180811 0.099107 0.058723
O O6 0.064451 0.200149 0.088447
O O7 0.045933 0.067623 0.925967
O O8 0.050492 0.064233 0.229906
O O9 0.278567 0.977654 0.083993
O O10 0.929121 0.534529 0.017972
O O11 0.568959 0.183879 0.301064
O O12 0.643140 0.166184 0.036966
#
# Coordination Sequence:
#
# PCOD8307403 Si02
#       7
#     8   8   8   4   8   8   4
#     4  10  20  35  57  90 124 159 196 243 295 359
#     4  11  24  44  66  88 114 157 206 254 298 355
#     4  11  22  37  60  89 124 160 201 245 300 355
#     4   8  16  30  52  78 116 158 184 210 280 362
#     4  11  22  37  60  89 124 160 201 245 300 355
#     4  10  20  35  57  90 124 159 196 243 295 359
#     4  10  24  46  68  82 112 162 208 242 296 366
#
# _framework density 20.491669000000002
#
# number of rings (size 3 to 8) (size 9 to 14) (size 15 to 20)
#    0.000    1.667    0.000    6.000    0.000    6.667 
#    0.000    3.333    0.000    0.000    0.000    0.000 
#    0.000    0.000    0.000    0.000    0.000    0.000 
#
# Total GULP energy -594772.810300 kJ/mol
# GULP energy per Si atom -12391.100215 kJ/mol
# Density = 2.044503 g / cm^3
# Si number density = 20.491669 Si / 1000 Ang^3
#
#
#
# Elastic Constant Matrix: (Units=GPa)
#
#
# Indices 1 2 3 4 5 6 
#
# 1 140.7469 59.7002 48.1193 0.0000 0.0000 0.0000
# 2 59.7002 140.7469 48.1193 0.0000 0.0000 0.0000
# 3 48.1193 48.1193 119.0717 0.0000 0.0000 0.0000
# 4 0.0000 0.0000 0.0000 23.0200 0.0000 0.0000
# 5 0.0000 0.0000 0.0000 0.0000 23.0200 0.0000
# 6 0.0000 0.0000 0.0000 0.0000 0.0000 24.1981
#
#
#
# Elastic Compliance Matrix: (Units=1/GPa)
#
#
# Indices 1 2 3 4 5 6 
#
# 1 0.009264 -0.003074 -0.002501 0.000000 0.000000 0.000000
# 2 -0.003074 0.009264 -0.002501 0.000000 0.000000 0.000000
# 3 -0.002501 -0.002501 0.010420 0.000000 0.000000 0.000000
# 4 0.000000 0.000000 0.000000 0.043441 0.000000 0.000000
# 5 0.000000 0.000000 0.000000 0.000000 0.043441 0.000000
# 6 0.000000 0.000000 0.000000 0.000000 0.000000 0.041326
#
#
# Mechanical properties :
#
#
# Convention : Reuss Voigt Hill
#
# Bulk Modulus (GPa) = 78.16173 79.16034 78.66104
# Shear Modulus (GPa) = 28.15724 30.35606 29.25665
#
# Velocity S-wave (km/s) = 3.71088 3.85305 3.78264
# Velocity P-wave (km/s) = 7.52242 7.64912 7.58604
#
# Compressibility (1/GPa) = 0.01279398
#
# Stress axis : x y z
#
# Youngs Moduli (GPa) = 107.94238 107.94238 95.96873
#
# Poissons Ratio (x) = 0.33185 0.24006
# Poissons Ratio (y) = 0.33185 0.24006
# Poissons Ratio (z) = 0.27001 0.27001
#
# Static dielectric constant tensor:
#      x y z
#    x 3.782520 0.000000 0.000000 
#    y 0.000000 3.782520 0.000000 
#    z 0.000000 0.000000 3.593450 
# 
# 
# High freq. dielectric constant tensor:
#      x y z
#    x 1.798190 0.000000 0.000000 
#    y 0.000000 1.798190 0.000000 
#    z 0.000000 0.000000 1.801130 
# 
# From -- ./inp_files/489.got.cif
#   From: 2010.03.12/outbox.cif.g09.slc.cpg/sg106_cif.got.tgz:489.got - 2010.04.14 01:48:02.
