data_PCOD8307909
_publ_section_title
;
Structure prediction by ZEFSAII (Michael W. Deem and Ramdas Pophale) SiO2 
 PCOD8307909
Probable space group: I 41 M D
;
_chemical_formula_sum "Si O2"
_cell_formula_units_Z 72
_cell_length_a 11.587411
_cell_length_b 11.587411
_cell_length_c 29.877532
_cell_angle_alpha 90.000000
_cell_angle_beta 90.000000
_cell_angle_gamma 90.000000
_cell_volume 4011.599266
_symmetry_space_group_name_H-M "I 41 M D"
_symmetry_group_IT_number 109
_symmetry_cell_setting 'tetragonal'
loop_
_space_group_symop_operation_xyz
x,y,z
-y,1/2+x,1/4+z
-x,-y,z
y,1/2-x,1/4+z
-x,y,z
x,-y,z
-y,1/2-x,1/4+z
y,1/2+x,1/4+z
1/2+x,1/2+y,1/2+z
1/2-y,x,3/4+z
1/2-x,1/2-y,1/2+z
1/2+y,-x,3/4+z
1/2-x,1/2+y,1/2+z
1/2+x,1/2-y,1/2+z
1/2-y,-x,3/4+z
1/2+y,x,3/4+z
loop_
_atom_site_type_symbol
_atom_site_label
_atom_site_fract_x
_atom_site_fract_y
_atom_site_fract_z
Si Si1 0.000000 0.634592 0.048690
Si Si2 0.784333 0.231217 0.844264
Si Si3 0.364850 0.500000 0.120195
Si Si4 0.756854 0.867463 0.937346
Si Si5 0.363557 0.631421 0.775740
Si Si6 0.776189 0.500000 0.208342
O O1 0.110835 0.664326 0.077883
O O2 0.000000 0.500000 0.035884
O O3 0.000000 0.711862 0.005042
O O4 0.887414 0.322671 0.844063
O O5 0.732268 0.211309 0.893894
O O6 0.685570 0.282601 0.813012
O O7 0.500000 0.500000 0.120819
O O8 0.321157 0.500000 0.170738
O O9 0.888823 0.857391 0.953674
O O10 0.730011 0.000000 0.925776
O O11 0.672797 0.822219 0.976675
O O12 0.500000 0.641440 0.779329
O O13 0.321711 0.500000 0.783328
#
# Coordination Sequence:
#
# PCOD8307909 Si02
#       6
#     8  16   8  16  16   8
#     4  12  21  35  55  88 121 151 188 239 298 338
#     4  11  21  36  59  86 114 149 191 237 285 347
#     4  10  21  36  56  82 112 156 192 234 281 339
#     4  10  20  34  57  85 114 146 186 236 295 341
#     4  10  22  40  59  81 113 152 190 234 283 341
#     4  10  20  34  56  81 116 150 192 236 284 346
#
# _framework density 17.947955
#
# number of rings (size 3 to 8) (size 9 to 14) (size 15 to 20)
#    0.000    1.556    4.444    1.333    0.000    0.889 
#    0.000    0.556    2.444    0.000    0.000    0.000 
#    0.000    0.000    0.000    0.000    0.000    0.000 
#
# Total GULP energy -446489.034840 kJ/mol
# GULP energy per Si atom -12402.473190 kJ/mol
# Density = 1.790710 g / cm^3
# Si number density = 17.947955 Si / 1000 Ang^3
#
#
#
# Elastic Constant Matrix: (Units=GPa)
#
#
# Indices 1 2 3 4 5 6 
#
# 1 73.7208 26.7298 30.4954 0.0000 0.0000 0.0000
# 2 26.7298 73.7208 30.4954 0.0000 0.0000 0.0000
# 3 30.4954 30.4954 98.6642 0.0000 0.0000 0.0000
# 4 0.0000 0.0000 0.0000 23.1367 0.0000 0.0000
# 5 0.0000 0.0000 0.0000 0.0000 23.1367 0.0000
# 6 0.0000 0.0000 0.0000 0.0000 0.0000 -11.3306
#
#
#
# Elastic Compliance Matrix: (Units=1/GPa)
#
#
# Indices 1 2 3 4 5 6 
#
# 1 0.016768 -0.004513 -0.003788 0.000000 0.000000 0.000000
# 2 -0.004513 0.016768 -0.003788 0.000000 0.000000 0.000000
# 3 -0.003788 -0.003788 0.012477 0.000000 0.000000 0.000000
# 4 0.000000 0.000000 0.000000 0.043221 0.000000 0.000000
# 5 0.000000 0.000000 0.000000 0.000000 0.043221 0.000000
# 6 0.000000 0.000000 0.000000 0.000000 0.000000 -0.088257
#
#
# Mechanical properties :
#
#
# Convention : Reuss Voigt Hill
#
# Bulk Modulus (GPa) = 45.79670 46.83857 46.31764
# Shear Modulus (GPa) = 66.09049 17.54759 41.81904
#
# Velocity S-wave (km/s) = 6.07481 3.13020 4.83226
# Velocity P-wave (km/s) = 8.64733 6.26241 7.54964
#
# Compressibility (1/GPa) = 0.02183564
#
# Stress axis : x y z
#
# Youngs Moduli (GPa) = 59.63800 59.63800 80.14821
#
# Poissons Ratio (x) = 0.26914 0.30359
# Poissons Ratio (y) = 0.26914 0.30359
# Poissons Ratio (z) = 0.22590 0.22590
#
# Static dielectric constant tensor:
#      x y z
#    x 3.286420 0.000000 0.000000 
#    y 0.000000 3.286420 0.000000 
#    z 0.000000 0.000000 3.442890 
# 
# 
# High freq. dielectric constant tensor:
#      x y z
#    x 1.692950 0.000000 0.000000 
#    y 0.000000 1.692950 0.000000 
#    z 0.000000 0.000000 1.704990 
# 
# From -- ./inp_files/4893.got.cif
#   From: 2010.03.12/outbox.cif.g09.slc.cpg/sg109_3_cif.got.tgz:4893.got - 2010.04.14 01:55:16.
