data_PCOD8307381
_publ_section_title
;
Structure prediction by ZEFSAII (Michael W. Deem and Ramdas Pophale) SiO2 
 PCOD8307381
Probable space group: P 42 M C
;
_chemical_formula_sum "Si O2"
_cell_formula_units_Z 48
_cell_length_a 9.595831
_cell_length_b 9.595831
_cell_length_c 31.196550
_cell_angle_alpha 90.000000
_cell_angle_beta 90.000000
_cell_angle_gamma 90.000000
_cell_volume 2872.577469
_symmetry_space_group_name_H-M "P 42 M C"
_symmetry_group_IT_number 105
_symmetry_cell_setting 'tetragonal'
loop_
_space_group_symop_operation_xyz
x,y,z
-y,x,1/2+z
-x,-y,z
y,-x,1/2+z
-x,y,z
x,-y,z
-y,-x,1/2+z
y,x,1/2+z
loop_
_atom_site_type_symbol
_atom_site_label
_atom_site_fract_x
_atom_site_fract_y
_atom_site_fract_z
Si Si1 0.154859 0.165996 0.503840
Si Si2 0.838437 0.662914 0.676623
Si Si3 0.333735 0.155934 0.334197
Si Si4 0.654590 0.834295 0.428630
Si Si5 0.334116 0.342178 0.257011
Si Si6 0.165759 0.845129 0.597659
O O1 0.249583 0.230032 0.466058
O O2 0.217117 0.207051 0.550682
O O3 0.000000 0.227938 0.497817
O O4 0.149389 0.000000 0.500796
O O5 0.818104 0.500000 0.668619
O O6 0.744695 0.717148 0.715865
O O7 0.782304 0.740270 0.634264
O O8 0.000000 0.698207 0.686522
O O9 0.500000 0.151786 0.333298
O O10 0.284841 0.205280 0.381591
O O11 0.274930 0.264697 0.299272
O O12 0.277455 0.000000 0.323826
O O13 0.500000 0.771611 0.434599
O O14 0.648237 0.000000 0.432166
O O15 0.500000 0.343719 0.258369
O O16 0.275452 0.500000 0.255221
O O17 0.000000 0.850167 0.596073
O O18 0.224118 0.000000 0.607672
#
# Coordination Sequence:
#
# PCOD8307381 Si02
#       6
#     8   8   8   8   8   8
#     4   8  13  22  37  56  77 101 128 157 189 226
#     4   9  16  26  42  62  80  99 128 166 201 231
#     4   8  13  22  37  56  76  98 127 163 198 230
#     4   8  13  21  35  56  78  97 121 157 195 225
#     4   9  16  25  38  57  80 105 132 162 197 236
#     4   8  14  25  41  60  81 105 132 161 194 232
#
# _framework density 16.709733
#
# number of rings (size 3 to 8) (size 9 to 14) (size 15 to 20)
#    0.000    3.667    0.000    2.500    0.000    2.000 
#    0.000    0.833    0.000    3.500    0.000    4.667 
#    0.000    0.000    0.000    0.000    0.000    0.000 
#
# Total GULP energy -594776.509363 kJ/mol
# GULP energy per Si atom -12391.177278 kJ/mol
# Density = 1.667170 g / cm^3
# Si number density = 16.709733 Si / 1000 Ang^3
#
#
#
# Elastic Constant Matrix: (Units=GPa)
#
#
# Indices 1 2 3 4 5 6 
#
# 1 49.8577 19.5468 56.3536 0.0000 0.0000 0.0000
# 2 19.5468 49.8577 56.3536 0.0000 0.0000 0.0000
# 3 56.3536 56.3536 187.3285 0.0000 0.0000 0.0000
# 4 0.0000 0.0000 0.0000 18.4045 0.0000 0.0000
# 5 0.0000 0.0000 0.0000 0.0000 18.4045 0.0000
# 6 0.0000 0.0000 0.0000 0.0000 0.0000 6.8184
#
#
#
# Elastic Compliance Matrix: (Units=1/GPa)
#
#
# Indices 1 2 3 4 5 6 
#
# 1 0.030581 -0.002411 -0.008474 0.000000 0.000000 0.000000
# 2 -0.002411 0.030581 -0.008474 0.000000 0.000000 0.000000
# 3 -0.008474 -0.008474 0.010437 0.000000 0.000000 0.000000
# 4 0.000000 0.000000 0.000000 0.054335 0.000000 0.000000
# 5 0.000000 0.000000 0.000000 0.000000 0.054335 0.000000
# 6 0.000000 0.000000 0.000000 0.000000 0.000000 0.146663
#
#
# Mechanical properties :
#
#
# Convention : Reuss Voigt Hill
#
# Bulk Modulus (GPa) = 30.41422 61.28356 45.84889
# Shear Modulus (GPa) = 13.27641 19.04481 16.16061
#
# Velocity S-wave (km/s) = 2.82180 3.37967 3.11326
# Velocity P-wave (km/s) = 5.37194 7.21003 6.35776
#
# Compressibility (1/GPa) = 0.03287936
#
# Stress axis : x y z
#
# Youngs Moduli (GPa) = 32.70049 32.70049 95.81477
#
# Poissons Ratio (x) = 0.07883 0.81196
# Poissons Ratio (y) = 0.07883 0.81196
# Poissons Ratio (z) = 0.27711 0.27711
#
# Static dielectric constant tensor:
#      x y z
#    x 2.885320 0.000000 0.000000 
#    y 0.000000 2.885320 0.000000 
#    z 0.000000 0.000000 3.588380 
# 
# 
# High freq. dielectric constant tensor:
#      x y z
#    x 1.595190 0.000000 0.000000 
#    y 0.000000 1.595190 0.000000 
#    z 0.000000 0.000000 1.663570 
# 
# From -- ./inp_files/4014.got.cif
#   From: 2010.03.12/outbox.cif.g09.slc.cpg/sg105_3_cif.got.tgz:4014.got - 2010.04.14 01:45:32.
