data_PCOD8307255
_publ_section_title
;
Structure prediction by ZEFSAII (Michael W. Deem and Ramdas Pophale) SiO2 
 PCOD8307255
Probable space group: P 42 M C
;
_chemical_formula_sum "Si O2"
_cell_formula_units_Z 48
_cell_length_a 8.153375
_cell_length_b 8.153375
_cell_length_c 34.166262
_cell_angle_alpha 90.000000
_cell_angle_beta 90.000000
_cell_angle_gamma 90.000000
_cell_volume 2271.288498
_symmetry_space_group_name_H-M "P 42 M C"
_symmetry_group_IT_number 105
_symmetry_cell_setting 'tetragonal'
loop_
_space_group_symop_operation_xyz
x,y,z
-y,x,1/2+z
-x,-y,z
y,-x,1/2+z
-x,y,z
x,-y,z
-y,-x,1/2+z
y,x,1/2+z
loop_
_atom_site_type_symbol
_atom_site_label
_atom_site_fract_x
_atom_site_fract_y
_atom_site_fract_z
Si Si1 0.500000 0.804281 0.520041
Si Si2 0.811089 0.316251 0.722487
Si Si3 0.804817 0.500000 0.930664
Si Si4 0.813938 0.191756 0.383522
Si Si5 0.809418 0.820111 0.063639
Si Si6 0.686449 0.308462 0.641386
Si Si7 0.810155 0.678930 0.300993
O O1 0.500000 0.746321 0.475368
O O2 0.334161 0.730134 0.540163
O O3 0.500000 0.000000 0.524187
O O4 0.746958 0.500000 0.730023
O O5 0.717714 0.238297 0.685119
O O6 0.782465 0.217091 0.761973
O O7 0.000000 0.312808 0.711504
O O8 0.735199 0.669788 0.911461
O O9 0.000000 0.500000 0.926637
O O10 0.749115 0.226013 0.339522
O O11 0.000000 0.264922 0.391589
O O12 0.826209 0.000000 0.390243
O O13 0.782505 0.799214 0.109988
O O14 0.000000 0.822513 0.054198
O O15 0.736347 0.000000 0.051225
O O16 0.500000 0.273987 0.629571
O O17 0.730994 0.500000 0.640972
O O18 0.723973 0.500000 0.298010
O O19 0.000000 0.652647 0.306201
#
# Coordination Sequence:
#
# PCOD8307255 Si02
#       7
#     4   8   4   8   8   8   8
#     4   9  18  34  53  81 115 139 177 237 283 335
#     4  10  21  35  52  76 105 138 179 227 272 320
#     4   9  18  32  55  83 109 141 181 225 283 341
#     4   9  18  33  53  78 107 139 179 226 275 333
#     4  10  20  34  55  81 109 146 186 226 281 340
#     4  10  20  35  55  78 107 144 186 230 278 333
#     4  10  21  36  53  75 105 141 179 220 270 324
#
# _framework density 21.133375999999998
#
# number of rings (size 3 to 8) (size 9 to 14) (size 15 to 20)
#    0.000    2.333    0.833    1.500    1.167    4.333 
#    0.000    3.333    0.000    2.000    0.000    2.333 
#    0.000    0.000    0.000    0.000    0.000    0.000 
#
# Total GULP energy -594838.975646 kJ/mol
# GULP energy per Si atom -12392.478659 kJ/mol
# Density = 2.108528 g / cm^3
# Si number density = 21.133376 Si / 1000 Ang^3
#
#
#
# Elastic Constant Matrix: (Units=GPa)
#
#
# Indices 1 2 3 4 5 6 
#
# 1 75.8804 24.6864 40.6597 0.0000 0.0000 0.0000
# 2 24.6864 75.8804 40.6597 0.0000 0.0000 0.0000
# 3 40.6597 40.6597 154.1082 0.0000 0.0000 0.0000
# 4 0.0000 0.0000 0.0000 25.4031 0.0000 0.0000
# 5 0.0000 0.0000 0.0000 0.0000 25.4031 0.0000
# 6 0.0000 0.0000 0.0000 0.0000 0.0000 14.2225
#
#
#
# Elastic Compliance Matrix: (Units=1/GPa)
#
#
# Indices 1 2 3 4 5 6 
#
# 1 0.016087 -0.003447 -0.003335 0.000000 0.000000 0.000000
# 2 -0.003447 0.016087 -0.003335 0.000000 0.000000 0.000000
# 3 -0.003335 -0.003335 0.008249 0.000000 0.000000 0.000000
# 4 0.000000 0.000000 0.000000 0.039365 0.000000 0.000000
# 5 0.000000 0.000000 0.000000 0.000000 0.039365 0.000000
# 6 0.000000 0.000000 0.000000 0.000000 0.000000 0.070311
#
#
# Mechanical properties :
#
#
# Convention : Reuss Voigt Hill
#
# Bulk Modulus (GPa) = 49.53086 57.54229 53.53657
# Shear Modulus (GPa) = 23.10243 26.32996 24.71620
#
# Velocity S-wave (km/s) = 3.30990 3.53355 3.42355
# Velocity P-wave (km/s) = 6.17215 6.62837 6.40432
#
# Compressibility (1/GPa) = 0.02018943
#
# Stress axis : x y z
#
# Youngs Moduli (GPa) = 62.16220 62.16220 121.23029
#
# Poissons Ratio (x) = 0.21425 0.40431
# Poissons Ratio (y) = 0.21425 0.40431
# Poissons Ratio (z) = 0.20731 0.20731
#
# Static dielectric constant tensor:
#      x y z
#    x 3.878290 0.000000 0.000000 
#    y 0.000000 3.878290 0.000000 
#    z 0.000000 0.000000 3.784880 
# 
# 
# High freq. dielectric constant tensor:
#      x y z
#    x 1.813350 0.000000 0.000000 
#    y 0.000000 1.813350 0.000000 
#    z 0.000000 0.000000 1.825950 
# 
# From -- ./inp_files/4731.got.cif
#   From: 2010.03.12/outbox.cif.g09.slc.cpg/sg105_3_cif.got.tgz:4731.got - 2010.04.14 01:45:32.
