data_PCOD8307284
_publ_section_title
;
Structure prediction by ZEFSAII (Michael W. Deem and Ramdas Pophale) SiO2 
 PCOD8307284
Probable space group: P 42 M C
;
_chemical_formula_sum "Si O2"
_cell_formula_units_Z 48
_cell_length_a 14.530781
_cell_length_b 14.530781
_cell_length_c 11.866628
_cell_angle_alpha 90.000000
_cell_angle_beta 90.000000
_cell_angle_gamma 90.000000
_cell_volume 2505.562514
_symmetry_space_group_name_H-M "P 42 M C"
_symmetry_group_IT_number 105
_symmetry_cell_setting 'tetragonal'
loop_
_space_group_symop_operation_xyz
x,y,z
-y,x,1/2+z
-x,-y,z
y,-x,1/2+z
-x,y,z
x,-y,z
-y,-x,1/2+z
y,x,1/2+z
loop_
_atom_site_type_symbol
_atom_site_label
_atom_site_fract_x
_atom_site_fract_y
_atom_site_fract_z
Si Si1 0.099361 0.219489 0.486860
Si Si2 0.896232 0.335705 0.281547
Si Si3 0.280511 0.599361 0.393833
Si Si4 0.164295 0.396232 0.599146
Si Si5 0.606758 0.777574 0.352596
Si Si6 0.722426 0.893242 0.528097
O O1 0.113048 0.241157 0.353831
O O2 0.096976 0.316938 0.554078
O O3 0.176276 0.149581 0.527360
O O4 0.000000 0.172631 0.507180
O O5 0.816938 0.403024 0.326615
O O6 0.877186 0.316943 0.151574
O O7 0.000000 0.376828 0.297198
O O8 0.327369 0.500000 0.373513
O O9 0.258843 0.613048 0.526862
O O10 0.350419 0.676276 0.353333
O O11 0.123172 0.500000 0.583495
O O12 0.183057 0.377186 0.729119
O O13 0.500000 0.770874 0.384651
O O14 0.655350 0.844650 0.440347
O O15 0.729126 0.000000 0.496042
#
# Coordination Sequence:
#
# PCOD8307284 Si02
#       6
#     8   8   8   8   8   8
#     4  10  20  36  61  86 113 149 188 233 286 335
#     4   9  19  37  59  85 115 144 183 235 281 330
#     4  10  20  36  61  86 113 149 188 233 286 335
#     4   9  19  37  59  85 115 144 183 235 281 330
#     4  11  23  39  58  82 118 153 189 234 282 337
#     4  11  23  39  58  82 118 153 189 234 282 337
#
# _framework density 19.157374000000001
#
# number of rings (size 3 to 8) (size 9 to 14) (size 15 to 20)
#    0.000    2.000    3.333    1.000    0.000    3.000 
#    0.000    6.667    0.000    6.000    0.000    0.000 
#    0.000    0.000    0.000    0.000    0.000    0.000 
#
# Total GULP energy -594904.048899 kJ/mol
# GULP energy per Si atom -12393.834352 kJ/mol
# Density = 1.911377 g / cm^3
# Si number density = 19.157374 Si / 1000 Ang^3
#
#
#
# Elastic Constant Matrix: (Units=GPa)
#
#
# Indices 1 2 3 4 5 6 
#
# 1 101.7356 59.7401 45.9760 0.0000 0.0000 0.0000
# 2 59.7401 101.7356 45.9760 0.0000 0.0000 0.0000
# 3 45.9760 45.9760 126.4817 0.0000 0.0000 0.0000
# 4 0.0000 0.0000 0.0000 14.0061 0.0000 0.0000
# 5 0.0000 0.0000 0.0000 0.0000 14.0061 0.0000
# 6 0.0000 0.0000 0.0000 0.0000 0.0000 10.5109
#
#
#
# Elastic Compliance Matrix: (Units=1/GPa)
#
#
# Indices 1 2 3 4 5 6 
#
# 1 0.015811 -0.008001 -0.002839 0.000000 0.000000 0.000000
# 2 -0.008001 0.015811 -0.002839 0.000000 0.000000 0.000000
# 3 -0.002839 -0.002839 0.009970 0.000000 0.000000 0.000000
# 4 0.000000 0.000000 0.000000 0.071398 0.000000 0.000000
# 5 0.000000 0.000000 0.000000 0.000000 0.071398 0.000000
# 6 0.000000 0.000000 0.000000 0.000000 0.000000 0.095139
#
#
# Mechanical properties :
#
#
# Convention : Reuss Voigt Hill
#
# Bulk Modulus (GPa) = 70.25451 70.37076 70.31264
# Shear Modulus (GPa) = 16.04479 19.58868 17.81673
#
# Velocity S-wave (km/s) = 2.89714 3.20115 3.05293
# Velocity P-wave (km/s) = 6.92410 7.10464 7.01495
#
# Compressibility (1/GPa) = 0.01423396
#
# Stress axis : x y z
#
# Youngs Moduli (GPa) = 63.24825 63.24825 100.30076
#
# Poissons Ratio (x) = 0.50607 0.28472
# Poissons Ratio (y) = 0.50607 0.28472
# Poissons Ratio (z) = 0.17954 0.17954
#
# Static dielectric constant tensor:
#      x y z
#    x 3.462760 0.000000 0.000000 
#    y 0.000000 3.462760 0.000000 
#    z 0.000000 0.000000 3.638450 
# 
# 
# High freq. dielectric constant tensor:
#      x y z
#    x 1.735990 0.000000 0.000000 
#    y 0.000000 1.735990 0.000000 
#    z 0.000000 0.000000 1.756020 
# 
# From -- ./inp_files/1864.got.cif
#   From: 2010.03.12/outbox.cif.g09.slc.cpg/sg105_1_cif.got.tgz:1864.got - 2010.04.14 01:45:32.
