data_PCOD8307911
_publ_section_title
;
Structure prediction by ZEFSAII (Michael W. Deem and Ramdas Pophale) SiO2 
 PCOD8307911
Probable space group: I 41 M D
;
_chemical_formula_sum "Si O2"
_cell_formula_units_Z 72
_cell_length_a 15.702851
_cell_length_b 15.702851
_cell_length_c 16.603134
_cell_angle_alpha 90.000000
_cell_angle_beta 90.000000
_cell_angle_gamma 90.000000
_cell_volume 4093.992970
_symmetry_space_group_name_H-M "I 41 M D"
_symmetry_group_IT_number 109
_symmetry_cell_setting 'tetragonal'
loop_
_space_group_symop_operation_xyz
x,y,z
-y,1/2+x,1/4+z
-x,-y,z
y,1/2-x,1/4+z
-x,y,z
x,-y,z
-y,1/2-x,1/4+z
y,1/2+x,1/4+z
1/2+x,1/2+y,1/2+z
1/2-y,x,3/4+z
1/2-x,1/2-y,1/2+z
1/2+y,-x,3/4+z
1/2-x,1/2+y,1/2+z
1/2+x,1/2-y,1/2+z
1/2-y,-x,3/4+z
1/2+y,x,3/4+z
loop_
_atom_site_type_symbol
_atom_site_label
_atom_site_fract_x
_atom_site_fract_y
_atom_site_fract_z
Si Si1 0.242074 0.000000 0.693820
Si Si2 0.097553 0.824941 0.461085
Si Si3 0.658091 0.170699 0.513598
Si Si4 0.402265 0.000000 0.590191
Si Si5 0.752827 0.188710 0.352772
Si Si6 0.000000 0.400968 0.802464
O O1 0.236936 0.917426 0.749557
O O2 0.338310 0.000000 0.664176
O O3 0.167509 0.000000 0.625127
O O4 0.148009 0.806229 0.377946
O O5 0.124392 0.755738 0.528237
O O6 0.000000 0.812947 0.438573
O O7 0.117157 0.918284 0.497092
O O8 0.616127 0.082450 0.537625
O O9 0.706317 0.151245 0.430763
O O10 0.719907 0.211583 0.580636
O O11 0.500000 0.000000 0.620166
O O12 0.000000 0.500000 0.833838
#
# Coordination Sequence:
#
# PCOD8307911 Si02
#       6
#     8  16  16   8  16   8
#     4  12  20  36  54  84 120 140 178 232 271 342
#     4  10  21  35  57  83 111 143 182 224 274 330
#     4  11  21  35  55  81 116 143 180 226 276 331
#     4  12  24  34  56  86 114 153 184 222 288 344
#     4  10  21  35  55  81 112 147 180 223 280 326
#     4  10  20  34  56  90 120 139 168 228 293 340
#
# _framework density 17.586743999999999
#
# number of rings (size 3 to 8) (size 9 to 14) (size 15 to 20)
#    0.000    1.333    5.556    1.333    4.667    0.000 
#    0.000    1.111    9.778    0.000    0.000    0.000 
#    0.000    0.000    0.000    0.000    0.000    0.000 
#
# Total GULP energy -446324.494150 kJ/mol
# GULP energy per Si atom -12397.902615 kJ/mol
# Density = 1.754672 g / cm^3
# Si number density = 17.586744 Si / 1000 Ang^3
#
#
#
# Elastic Constant Matrix: (Units=GPa)
#
#
# Indices 1 2 3 4 5 6 
#
# 1 129.8070 46.6820 45.5087 0.0000 0.0000 0.0000
# 2 46.6820 129.8071 45.5087 0.0000 0.0000 0.0000
# 3 45.5087 45.5087 67.0659 0.0000 0.0000 0.0000
# 4 0.0000 0.0000 0.0000 22.6723 0.0000 0.0000
# 5 0.0000 0.0000 0.0000 0.0000 22.6723 0.0000
# 6 0.0000 0.0000 0.0000 0.0000 0.0000 24.4575
#
#
#
# Elastic Compliance Matrix: (Units=1/GPa)
#
#
# Indices 1 2 3 4 5 6 
#
# 1 0.010373 -0.001657 -0.005915 0.000000 0.000000 0.000000
# 2 -0.001657 0.010373 -0.005915 0.000000 0.000000 0.000000
# 3 -0.005915 -0.005915 0.022938 0.000000 0.000000 0.000000
# 4 0.000000 0.000000 0.000000 0.044107 0.000000 0.000000
# 5 0.000000 0.000000 0.000000 0.000000 0.044107 0.000000
# 6 0.000000 0.000000 0.000000 0.000000 0.000000 0.040887
#
#
# Mechanical properties :
#
#
# Convention : Reuss Voigt Hill
#
# Bulk Modulus (GPa) = 59.83784 66.89764 63.36774
# Shear Modulus (GPa) = 24.35134 26.55911 25.45522
#
# Velocity S-wave (km/s) = 3.72511 3.89032 3.80861
# Velocity P-wave (km/s) = 7.25260 7.63549 7.44651
#
# Compressibility (1/GPa) = 0.01671183
#
# Stress axis : x y z
#
# Youngs Moduli (GPa) = 96.40243 96.40243 43.59652
#
# Poissons Ratio (x) = 0.15973 0.25786
# Poissons Ratio (y) = 0.15973 0.25786
# Poissons Ratio (z) = 0.57018 0.57018
#
# Static dielectric constant tensor:
#      x y z
#    x 3.469960 0.000000 0.000000 
#    y 0.000000 3.469960 0.000000 
#    z 0.000000 0.000000 3.156590 
# 
# 
# High freq. dielectric constant tensor:
#      x y z
#    x 1.682650 0.000000 0.000000 
#    y 0.000000 1.682650 0.000000 
#    z 0.000000 0.000000 1.656610 
# 
# From -- ./inp_files/3071.got.cif
#   From: 2010.03.12/outbox.cif.g09.slc.cpg/sg109_2_cif.got.tgz:3071.got - 2010.04.14 01:55:16.
