data_PCOD8307103
_publ_section_title
;
Structure prediction by ZEFSAII (Michael W. Deem and Ramdas Pophale) SiO2 
 PCOD8307103
Probable space group: P 42 M C
;
_chemical_formula_sum "Si O2"
_cell_formula_units_Z 48
_cell_length_a 14.557550
_cell_length_b 14.557550
_cell_length_c 14.716959
_cell_angle_alpha 90.000000
_cell_angle_beta 90.000000
_cell_angle_gamma 90.000000
_cell_volume 3118.851241
_symmetry_space_group_name_H-M "P 42 M C"
_symmetry_group_IT_number 105
_symmetry_cell_setting 'tetragonal'
loop_
_space_group_symop_operation_xyz
x,y,z
-y,x,1/2+z
-x,-y,z
y,-x,1/2+z
-x,y,z
x,-y,z
-y,-x,1/2+z
y,x,1/2+z
loop_
_atom_site_type_symbol
_atom_site_label
_atom_site_fract_x
_atom_site_fract_y
_atom_site_fract_z
Si Si1 0.602098 0.891210 0.144720
Si Si2 0.105246 0.759608 0.519053
Si Si3 0.602098 0.891210 0.495241
Si Si4 0.895246 0.703464 0.819980
Si Si5 0.105246 0.240392 0.120907
Si Si6 0.103538 0.182218 0.319980
O O1 0.500000 0.847631 0.139490
O O2 0.659241 0.863948 0.054696
O O3 0.657925 0.849286 0.230796
O O4 0.593911 0.000000 0.153446
O O5 0.161660 0.838340 0.569980
O O6 0.117130 0.756714 0.410226
O O7 0.000000 0.779389 0.546464
O O8 0.500000 0.847631 0.500471
O O9 0.657925 0.849286 0.409164
O O10 0.659241 0.863948 0.585265
O O11 0.593911 0.000000 0.486515
O O12 0.891720 0.814609 0.819980
O O13 0.000000 0.674437 0.819980
O O14 0.117130 0.243286 0.229734
O O15 0.000000 0.220611 0.093497
O O16 0.000000 0.137641 0.319980
#
# Coordination Sequence:
#
# PCOD8307103 Si02
#       6
#     8   8   8   8   8   8
#     4   9  17  29  45  64  86 115 154 197 236 270
#     4  10  19  31  45  63  90 124 157 188 224 269
#     4   9  17  29  45  64  86 115 154 197 236 270
#     4  10  17  27  44  66  90 119 156 195 230 260
#     4  10  19  31  45  63  90 124 157 188 224 269
#     4  10  20  30  42  64  94 125 153 182 221 272
#
# _framework density 15.390281999999999
#
# number of rings (size 3 to 8) (size 9 to 14) (size 15 to 20)
#    0.000    2.333    3.333    0.500    0.000    2.667 
#    0.000    4.167    0.000    5.000    0.000    0.000 
#    0.000    0.667    0.000    3.000    0.000    0.333 
#
# Total GULP energy -594710.000241 kJ/mol
# GULP energy per Si atom -12389.791672 kJ/mol
# Density = 1.535525 g / cm^3
# Si number density = 15.390282 Si / 1000 Ang^3
#
#
#
# Elastic Constant Matrix: (Units=GPa)
#
#
# Indices 1 2 3 4 5 6 
#
# 1 80.7471 24.8569 41.2455 0.0000 0.0000 0.0000
# 2 24.8569 80.7471 41.2455 0.0000 0.0000 0.0000
# 3 41.2455 41.2455 130.2037 0.0000 0.0000 0.0000
# 4 0.0000 0.0000 0.0000 16.5544 0.0000 0.0000
# 5 0.0000 0.0000 0.0000 0.0000 16.5544 0.0000
# 6 0.0000 0.0000 0.0000 0.0000 0.0000 2.4683
#
#
#
# Elastic Compliance Matrix: (Units=1/GPa)
#
#
# Indices 1 2 3 4 5 6 
#
# 1 0.015238 -0.002655 -0.003986 0.000000 0.000000 0.000000
# 2 -0.002655 0.015238 -0.003986 0.000000 0.000000 0.000000
# 3 -0.003986 -0.003986 0.010206 0.000000 0.000000 0.000000
# 4 0.000000 0.000000 0.000000 0.060407 0.000000 0.000000
# 5 0.000000 0.000000 0.000000 0.000000 0.060407 0.000000
# 6 0.000000 0.000000 0.000000 0.000000 0.000000 0.405138
#
#
# Mechanical properties :
#
#
# Convention : Reuss Voigt Hill
#
# Bulk Modulus (GPa) = 51.47327 56.26594 53.86961
# Shear Modulus (GPa) = 8.41238 19.40542 13.90890
#
# Velocity S-wave (km/s) = 2.34049 3.55475 3.00950
# Velocity P-wave (km/s) = 6.38919 7.31349 6.86691
#
# Compressibility (1/GPa) = 0.01942756
#
# Stress axis : x y z
#
# Youngs Moduli (GPa) = 65.62721 65.62721 97.98539
#
# Poissons Ratio (x) = 0.17422 0.39057
# Poissons Ratio (y) = 0.17422 0.39057
# Poissons Ratio (z) = 0.26159 0.26159
#
# Static dielectric constant tensor:
#      x y z
#    x 2.824820 0.000000 0.000000 
#    y 0.000000 2.824820 0.000000 
#    z 0.000000 0.000000 3.268450 
# 
# 
# High freq. dielectric constant tensor:
#      x y z
#    x 1.553750 0.000000 0.000000 
#    y 0.000000 1.553750 0.000000 
#    z 0.000000 0.000000 1.610020 
# 
# From -- ./inp_files/2540.got.cif
#   From: 2010.03.12/outbox.cif.g09.slc.cpg/sg105_2_cif.got.tgz:2540.got - 2010.04.14 01:45:32.
