data_PCOD8307834
_publ_section_title
;
Structure prediction by ZEFSAII (Michael W. Deem and Ramdas Pophale) SiO2 
 PCOD8307834
Probable space group: I 41 M D
;
_chemical_formula_sum "Si O2"
_cell_formula_units_Z 96
_cell_length_a 27.006278
_cell_length_b 27.006278
_cell_length_c 7.551669
_cell_angle_alpha 90.000000
_cell_angle_beta 90.000000
_cell_angle_gamma 90.000000
_cell_volume 5507.727105
_symmetry_space_group_name_H-M "I 41 M D"
_symmetry_group_IT_number 109
_symmetry_cell_setting 'tetragonal'
loop_
_space_group_symop_operation_xyz
x,y,z
-y,1/2+x,1/4+z
-x,-y,z
y,1/2-x,1/4+z
-x,y,z
x,-y,z
-y,1/2-x,1/4+z
y,1/2+x,1/4+z
1/2+x,1/2+y,1/2+z
1/2-y,x,3/4+z
1/2-x,1/2-y,1/2+z
1/2+y,-x,3/4+z
1/2-x,1/2+y,1/2+z
1/2+x,1/2-y,1/2+z
1/2-y,-x,3/4+z
1/2+y,x,3/4+z
loop_
_atom_site_type_symbol
_atom_site_label
_atom_site_fract_x
_atom_site_fract_y
_atom_site_fract_z
Si Si1 0.756890 0.891126 0.242810
Si Si2 0.441713 0.287345 0.338132
Si Si3 0.327040 0.816703 0.223888
Si Si4 0.557852 0.790156 0.644874
Si Si5 0.638279 0.862749 0.570845
Si Si6 0.777967 0.701951 0.202468
O O1 0.734304 0.922817 0.403188
O O2 0.721106 0.847950 0.168643
O O3 0.807064 0.863376 0.307733
O O4 0.768086 0.929098 0.085760
O O5 0.500000 0.294016 0.338439
O O6 0.424716 0.249299 0.494088
O O7 0.419073 0.343485 0.360126
O O8 0.356032 0.850071 0.365340
O O9 0.314492 0.762628 0.305772
O O10 0.500000 0.799984 0.630653
O O11 0.583235 0.844708 0.623158
O O12 0.675016 0.832388 0.697189
O O13 0.757097 0.703590 0.399722
#
# Coordination Sequence:
#
# PCOD8307834 Si02
#       6
#    16  16  16  16  16  16
#     4  11  21  34  50  78 111 148 179 217 253 323
#     4  10  20  38  56  76 108 140 175 227 270 319
#     4  10  18  31  47  75 109 142 173 205 255 311
#     4  11  24  36  54  78 106 146 187 222 271 320
#     4  10  19  34  51  72 104 136 179 215 269 316
#     4  10  17  25  40  68 101 132 166 191 242 305
#
# _framework density 17.430057999999999
#
# number of rings (size 3 to 8) (size 9 to 14) (size 15 to 20)
#    0.000    1.667    6.667    1.500    4.667    0.000 
#    0.000    0.000    0.000    0.500    0.000    0.000 
#    0.000    0.000    0.000    0.000    0.000    0.000 
#
# Total GULP energy -594745.960862 kJ/mol
# GULP energy per Si atom -12390.540851 kJ/mol
# Density = 1.739039 g / cm^3
# Si number density = 17.430058 Si / 1000 Ang^3
#
#
#
# Elastic Constant Matrix: (Units=GPa)
#
#
# Indices 1 2 3 4 5 6 
#
# 1 86.1526 40.1880 30.6609 0.0000 0.0000 0.0000
# 2 40.1880 86.1526 30.6609 0.0000 0.0000 0.0000
# 3 30.6609 30.6609 81.9761 0.0000 0.0000 0.0000
# 4 0.0000 0.0000 0.0000 19.6516 0.0000 0.0000
# 5 0.0000 0.0000 0.0000 0.0000 19.6516 0.0000
# 6 0.0000 0.0000 0.0000 0.0000 0.0000 21.2220
#
#
#
# Elastic Compliance Matrix: (Units=1/GPa)
#
#
# Indices 1 2 3 4 5 6 
#
# 1 0.015713 -0.006043 -0.003617 0.000000 0.000000 0.000000
# 2 -0.006043 0.015713 -0.003617 0.000000 0.000000 0.000000
# 3 -0.003617 -0.003617 0.014904 0.000000 0.000000 0.000000
# 4 0.000000 0.000000 0.000000 0.050886 0.000000 0.000000
# 5 0.000000 0.000000 0.000000 0.000000 0.050886 0.000000
# 6 0.000000 0.000000 0.000000 0.000000 0.000000 0.047121
#
#
# Mechanical properties :
#
#
# Convention : Reuss Voigt Hill
#
# Bulk Modulus (GPa) = 50.56231 50.81123 50.68677
# Shear Modulus (GPa) = 21.89420 22.28979 22.09200
#
# Velocity S-wave (km/s) = 3.54802 3.57993 3.56401
# Velocity P-wave (km/s) = 6.77172 6.80460 6.78818
#
# Compressibility (1/GPa) = 0.01977758
#
# Stress axis : x y z
#
# Youngs Moduli (GPa) = 63.64031 63.64031 67.09417
#
# Poissons Ratio (x) = 0.38455 0.24268
# Poissons Ratio (y) = 0.38455 0.24268
# Poissons Ratio (z) = 0.23019 0.23019
#
# Static dielectric constant tensor:
#      x y z
#    x 3.200580 0.000000 0.000000 
#    y 0.000000 3.200580 0.000000 
#    z 0.000000 0.000000 3.369490 
# 
# 
# High freq. dielectric constant tensor:
#      x y z
#    x 1.645290 0.000000 0.000000 
#    y 0.000000 1.645290 0.000000 
#    z 0.000000 0.000000 1.690630 
# 
# From -- ./inp_files/1506.got.cif
#   From: 2010.03.12/outbox.cif.g09.slc.cpg/sg109_1_cif.got.tgz:1506.got - 2010.04.14 01:55:16.
