data_PCOD8307994
_publ_section_title
;
Structure prediction by ZEFSAII (Michael W. Deem and Ramdas Pophale) SiO2 
 PCOD8307994
Probable space group: I 41 M D
;
_chemical_formula_sum "Si O2"
_cell_formula_units_Z 64
_cell_length_a 9.668258
_cell_length_b 9.668258
_cell_length_c 41.230125
_cell_angle_alpha 90.000000
_cell_angle_beta 90.000000
_cell_angle_gamma 90.000000
_cell_volume 3853.994706
_symmetry_space_group_name_H-M "I 41 M D"
_symmetry_group_IT_number 109
_symmetry_cell_setting 'tetragonal'
loop_
_space_group_symop_operation_xyz
x,y,z
-y,1/2+x,1/4+z
-x,-y,z
y,1/2-x,1/4+z
-x,y,z
x,-y,z
-y,1/2-x,1/4+z
y,1/2+x,1/4+z
1/2+x,1/2+y,1/2+z
1/2-y,x,3/4+z
1/2-x,1/2-y,1/2+z
1/2+y,-x,3/4+z
1/2-x,1/2+y,1/2+z
1/2+x,1/2-y,1/2+z
1/2-y,-x,3/4+z
1/2+y,x,3/4+z
loop_
_atom_site_type_symbol
_atom_site_label
_atom_site_fract_x
_atom_site_fract_y
_atom_site_fract_z
Si Si1 0.846088 0.835554 0.668260
Si Si2 0.160514 0.660553 0.227093
Si Si3 0.839486 0.839447 0.288422
Si Si4 0.653912 0.835554 0.347255
O O1 0.743690 0.781734 0.696107
O O2 0.789329 0.789329 0.632757
O O3 0.000000 0.775415 0.674770
O O4 0.852415 0.000000 0.668341
O O5 0.193491 0.500000 0.234176
O O6 0.208839 0.750000 0.257757
O O7 0.000000 0.683651 0.219524
O O8 0.756310 0.781734 0.319408
O O9 0.000000 0.816349 0.295991
O O10 0.806509 0.000000 0.281339
O O11 0.500000 0.775415 0.340745
O O12 0.647585 0.000000 0.347174
#
# Coordination Sequence:
#
# PCOD8307994 Si02
#       4
#    16  16  16  16
#     4   8  14  26  44  63  82 106 136 169 205 243
#     4   9  17  29  44  61  83 111 139 166 200 243
#     4   9  17  29  44  61  83 111 139 166 200 243
#     4   8  14  26  44  63  82 106 136 169 205 243
#
# _framework density 16.606145999999999
#
# number of rings (size 3 to 8) (size 9 to 14) (size 15 to 20)
#    0.000    3.500    0.000    1.500    0.000    1.000 
#    0.000    2.500    0.000    3.000    0.000    0.000 
#    0.000    0.000    0.000    0.000    0.000    0.000 
#
# Total GULP energy -396627.745512 kJ/mol
# GULP energy per Si atom -12394.617047 kJ/mol
# Density = 1.656835 g / cm^3
# Si number density = 16.606146 Si / 1000 Ang^3
#
#
#
# Elastic Constant Matrix: (Units=GPa)
#
#
# Indices 1 2 3 4 5 6 
#
# 1 49.5994 27.0587 66.2030 0.0000 0.0000 0.0000
# 2 27.0587 49.5994 66.2031 0.0000 0.0000 0.0000
# 3 66.2030 66.2031 193.0130 0.0000 0.0000 0.0000
# 4 0.0000 0.0000 0.0000 30.5363 0.0000 0.0000
# 5 0.0000 0.0000 0.0000 0.0000 30.5363 0.0000
# 6 0.0000 0.0000 0.0000 0.0000 0.0000 13.0498
#
#
#
# Elastic Compliance Matrix: (Units=1/GPa)
#
#
# Indices 1 2 3 4 5 6 
#
# 1 0.038186 -0.006179 -0.010978 0.000000 0.000000 0.000000
# 2 -0.006179 0.038186 -0.010978 0.000000 0.000000 0.000000
# 3 -0.010978 -0.010978 0.012712 0.000000 0.000000 0.000000
# 4 0.000000 0.000000 0.000000 0.032748 0.000000 0.000000
# 5 0.000000 0.000000 0.000000 0.000000 0.032748 0.000000
# 6 0.000000 0.000000 0.000000 0.000000 0.000000 0.076629
#
#
# Mechanical properties :
#
#
# Convention : Reuss Voigt Hill
#
# Bulk Modulus (GPa) = 30.47589 67.90460 49.19024
# Shear Modulus (GPa) = 16.75510 23.67429 20.21470
#
# Velocity S-wave (km/s) = 3.17987 3.77985 3.49277
# Velocity P-wave (km/s) = 5.64572 7.74789 6.77879
#
# Compressibility (1/GPa) = 0.03281283
#
# Stress axis : x y z
#
# Youngs Moduli (GPa) = 26.18788 26.18786 78.66518
#
# Poissons Ratio (x) = 0.16180 0.86361
# Poissons Ratio (y) = 0.16180 0.86362
# Poissons Ratio (z) = 0.28750 0.28750
#
# Static dielectric constant tensor:
#      x y z
#    x 2.976540 0.000000 0.000000 
#    y 0.000000 2.976540 0.000000 
#    z 0.000000 0.000000 3.521580 
# 
# 
# High freq. dielectric constant tensor:
#      x y z
#    x 1.611510 0.000000 0.000000 
#    y 0.000000 1.611510 0.000000 
#    z 0.000000 0.000000 1.651980 
# 
# From -- ./inp_files/4259.got.cif
#   From: 2010.03.12/outbox.cif.g09.slc.cpg/sg109_3_cif.got.tgz:4259.got - 2010.04.14 01:55:16.
