data_PCOD8307556
_publ_section_title
;
Structure prediction by ZEFSAII (Michael W. Deem and Ramdas Pophale) SiO2 
 PCOD8307556
Probable space group: I 4 M M
;
_chemical_formula_sum "Si O2"
_cell_formula_units_Z 88
_cell_length_a 12.325768
_cell_length_b 12.325768
_cell_length_c 32.810047
_cell_angle_alpha 90.000000
_cell_angle_beta 90.000000
_cell_angle_gamma 90.000000
_cell_volume 4984.651849
_symmetry_space_group_name_H-M "I 4 M M"
_symmetry_group_IT_number 107
_symmetry_cell_setting 'tetragonal'
loop_
_space_group_symop_operation_xyz
x,y,z
-y,x,z
-x,-y,z
y,-x,z
-x,y,z
x,-y,z
-y,-x,z
y,x,z
1/2+x,1/2+y,1/2+z
1/2-y,1/2+x,1/2+z
1/2-x,1/2-y,1/2+z
1/2+y,1/2-x,1/2+z
1/2-x,1/2+y,1/2+z
1/2+x,1/2-y,1/2+z
1/2-y,1/2-x,1/2+z
1/2+y,1/2+x,1/2+z
loop_
_atom_site_type_symbol
_atom_site_label
_atom_site_fract_x
_atom_site_fract_y
_atom_site_fract_z
Si Si1 0.000000 0.376434 0.121300
Si Si2 0.794001 0.373765 0.347251
Si Si3 0.701899 0.119870 0.428914
Si Si4 0.000000 0.626634 0.986426
Si Si5 0.628538 0.881151 0.261636
Si Si6 0.877617 0.290603 0.676446
Si Si7 0.813487 0.000000 0.054760
O O1 0.896952 0.365545 0.149856
O O2 0.000000 0.500000 0.101065
O O3 0.000000 0.270922 0.092415
O O4 0.776045 0.500000 0.345461
O O5 0.678066 0.321935 0.357992
O O6 0.877821 0.341072 0.382506
O O7 0.832984 0.326756 0.303871
O O8 0.798120 0.201881 0.438031
O O9 0.604812 0.146828 0.459216
O O10 0.747528 0.000000 0.437131
O O11 0.000000 0.500000 0.003540
O O12 0.000000 0.725806 0.018354
O O13 0.500000 0.890470 0.264060
O O14 0.661967 0.810438 0.222734
O O15 0.679967 0.000000 0.256166
O O16 0.802753 0.197248 0.657248
O O17 0.000000 0.247219 0.675933
O O18 0.892106 0.107895 0.054558
#
# Coordination Sequence:
#
# PCOD8307556 Si02
#       7
#     8  16  16   8  16  16   8
#     4  10  20  37  58  79 107 141 185 222 263 319
#     4  10  19  30  46  70 101 138 181 224 267 317
#     4  10  20  34  53  77 105 139 178 222 268 315
#     4  10  20  37  60  81 109 141 179 220 267 327
#     4   9  16  28  46  68  95 132 180 223 260 308
#     4  10  19  32  51  76 105 138 176 221 269 317
#     4  11  23  38  58  86 115 141 174 222 280 337
#
# _framework density 17.654192999999999
#
# number of rings (size 3 to 8) (size 9 to 14) (size 15 to 20)
#    0.000    2.091    1.818    2.455    0.000    1.273 
#    0.000    0.000    0.000    3.273    0.000    0.000 
#    0.000   13.091    0.000    0.000    0.000    0.000 
#
# Total GULP energy -545132.039581 kJ/mol
# GULP energy per Si atom -12389.364536 kJ/mol
# Density = 1.761401 g / cm^3
# Si number density = 17.654193 Si / 1000 Ang^3
#
#
#
# Elastic Constant Matrix: (Units=GPa)
#
#
# Indices 1 2 3 4 5 6 
#
# 1 141.0377 42.1790 47.0673 0.0000 0.0000 0.0001
# 2 42.1790 141.0378 47.0673 0.0000 0.0000 -0.0001
# 3 47.0673 47.0673 94.9054 0.0000 0.0000 0.0000
# 4 0.0000 0.0000 0.0000 18.9474 0.0000 0.0000
# 5 0.0000 0.0000 0.0000 0.0000 18.9474 0.0000
# 6 0.0001 -0.0001 0.0000 0.0000 0.0000 27.7709
#
#
#
# Elastic Compliance Matrix: (Units=1/GPa)
#
#
# Indices 1 2 3 4 5 6 
#
# 1 0.008720 -0.001396 -0.003632 0.000000 0.000000 0.000000
# 2 -0.001396 0.008720 -0.003632 0.000000 0.000000 0.000000
# 3 -0.003632 -0.003632 0.014140 0.000000 0.000000 0.000000
# 4 0.000000 0.000000 0.000000 0.052778 0.000000 0.000000
# 5 0.000000 0.000000 0.000000 0.000000 0.052778 0.000000
# 6 0.000000 0.000000 0.000000 0.000000 0.000000 0.036009
#
#
# Mechanical properties :
#
#
# Convention : Reuss Voigt Hill
#
# Bulk Modulus (GPa) = 70.13266 72.17867 71.15567
# Shear Modulus (GPa) = 25.61245 29.17761 27.39503
#
# Velocity S-wave (km/s) = 3.81305 4.06979 3.94351
# Velocity P-wave (km/s) = 7.69401 7.94089 7.81842
#
# Compressibility (1/GPa) = 0.01425869
#
# Stress axis : x y z
#
# Youngs Moduli (GPa) = 114.68055 114.68055 70.72276
#
# Poissons Ratio (x) = 0.16004 0.25689
# Poissons Ratio (y) = 0.16004 0.25689
# Poissons Ratio (z) = 0.41657 0.41657
#
# Static dielectric constant tensor:
#      x y z
#    x 3.262740 0.000000 0.000000 
#    y 0.000000 3.262740 0.000000 
#    z 0.000000 0.000000 3.367230 
# 
# 
# High freq. dielectric constant tensor:
#      x y z
#    x 1.680490 0.000000 0.000000 
#    y 0.000000 1.680490 0.000000 
#    z 0.000000 0.000000 1.681540 
# 
# From -- ./inp_files/6048.got.cif
#   From: 2010.03.12/outbox.cif.g09.slc.cpg/sg107_4_cif.got.tgz:6048.got - 2010.04.14 01:49:11.
