data_PCOD8307115
_publ_section_title
;
Structure prediction by ZEFSAII (Michael W. Deem and Ramdas Pophale) SiO2 
 PCOD8307115
Probable space group: P 42 M C
;
_chemical_formula_sum "Si O2"
_cell_formula_units_Z 48
_cell_length_a 16.439896
_cell_length_b 16.439896
_cell_length_c 10.069299
_cell_angle_alpha 90.000000
_cell_angle_beta 90.000000
_cell_angle_gamma 90.000000
_cell_volume 2721.431258
_symmetry_space_group_name_H-M "P 42 M C"
_symmetry_group_IT_number 105
_symmetry_cell_setting 'tetragonal'
loop_
_space_group_symop_operation_xyz
x,y,z
-y,x,1/2+z
-x,-y,z
y,-x,1/2+z
-x,y,z
x,-y,z
-y,-x,1/2+z
y,x,1/2+z
loop_
_atom_site_type_symbol
_atom_site_label
_atom_site_fract_x
_atom_site_fract_y
_atom_site_fract_z
Si Si1 0.297644 0.595384 0.889460
Si Si2 0.702740 0.838055 0.778497
Si Si3 0.838056 0.297260 0.806668
Si Si4 0.906394 0.246240 0.542582
Si Si5 0.208339 0.090753 0.542582
Si Si6 0.702356 0.404616 0.195703
O O1 0.308420 0.500000 0.872743
O O2 0.204577 0.618164 0.848981
O O3 0.362412 0.637588 0.792582
O O4 0.313305 0.622564 0.042582
O O5 0.764987 0.764986 0.792583
O O6 0.733778 0.901752 0.669949
O O7 0.618164 0.795423 0.736183
O O8 0.696966 0.884666 0.917736
O O9 0.884666 0.303034 0.667428
O O10 0.901752 0.266223 0.915216
O O11 0.861364 0.159061 0.542582
O O12 0.000000 0.222957 0.542581
O O13 0.169282 0.000000 0.542582
O O14 0.691580 0.500000 0.212421
#
# Coordination Sequence:
#
# PCOD8307115 Si02
#       6
#     8   8   8   8   8   8
#     4  10  21  37  58  84 112 141 175 217 263 314
#     4   9  18  33  52  75 102 142 183 216 255 315
#     4   9  18  33  52  75 102 142 183 216 255 315
#     4  10  20  33  51  77 108 140 178 226 274 320
#     4  10  18  31  53  77 104 138 180 222 270 322
#     4  10  21  37  58  84 112 141 175 217 263 314
#
# _framework density 17.637777
#
# number of rings (size 3 to 8) (size 9 to 14) (size 15 to 20)
#    0.000    2.333    1.667    1.000    7.000    1.333 
#    0.000    1.667    0.000   12.000    0.000    0.000 
#    0.000    0.000    0.000    0.000    0.000    0.000 
#
# Total GULP energy -595000.061522 kJ/mol
# GULP energy per Si atom -12395.834615 kJ/mol
# Density = 1.759763 g / cm^3
# Si number density = 17.637777 Si / 1000 Ang^3
#
#
#
# Elastic Constant Matrix: (Units=GPa)
#
#
# Indices 1 2 3 4 5 6 
#
# 1 69.1533 53.8886 54.6236 0.0000 0.0000 0.0000
# 2 53.8886 69.1533 54.6236 0.0000 0.0000 0.0000
# 3 54.6236 54.6236 173.0722 0.0000 0.0000 0.0000
# 4 0.0000 0.0000 0.0000 22.5542 0.0000 0.0000
# 5 0.0000 0.0000 0.0000 0.0000 22.5542 0.0000
# 6 0.0000 0.0000 0.0000 0.0000 0.0000 18.3773
#
#
#
# Elastic Compliance Matrix: (Units=1/GPa)
#
#
# Indices 1 2 3 4 5 6 
#
# 1 0.038401 -0.027110 -0.003564 0.000000 0.000000 0.000000
# 2 -0.027110 0.038401 -0.003564 0.000000 0.000000 0.000000
# 3 -0.003564 -0.003564 0.008027 0.000000 0.000000 0.000000
# 4 0.000000 0.000000 0.000000 0.044338 0.000000 0.000000
# 5 0.000000 0.000000 0.000000 0.000000 0.044338 0.000000
# 6 0.000000 0.000000 0.000000 0.000000 0.000000 0.054415
#
#
# Mechanical properties :
#
#
# Convention : Reuss Voigt Hill
#
# Bulk Modulus (GPa) = 61.14143 70.85005 65.99574
# Shear Modulus (GPa) = 16.56475 22.57999 19.57237
#
# Velocity S-wave (km/s) = 3.06790 3.58188 3.33481
# Velocity P-wave (km/s) = 6.87675 7.57385 7.23370
#
# Compressibility (1/GPa) = 0.01635552
#
# Stress axis : x y z
#
# Youngs Moduli (GPa) = 26.04096 26.04096 124.57271
#
# Poissons Ratio (x) = 0.70596 0.44394
# Poissons Ratio (y) = 0.70596 0.44394
# Poissons Ratio (z) = 0.09280 0.09280
#
# Static dielectric constant tensor:
#      x y z
#    x 3.144570 0.000000 0.000000 
#    y 0.000000 3.144570 0.000000 
#    z 0.000000 0.000000 4.152330 
# 
# 
# High freq. dielectric constant tensor:
#      x y z
#    x 1.661010 0.000000 0.000000 
#    y 0.000000 1.661010 0.000000 
#    z 0.000000 0.000000 1.707490 
# 
# From -- ./inp_files/994.got.cif
#   From: 2010.03.12/outbox.cif.g09.slc.cpg/sg105_1_cif.got.tgz:994.got - 2010.04.14 01:45:32.
