data_PCOD8307039
_publ_section_title
;
Structure prediction by ZEFSAII (Michael W. Deem and Ramdas Pophale) SiO2 
 PCOD8307039
Probable space group: P 4 N C 
;
_chemical_formula_sum "Si O2"
_cell_formula_units_Z 36
_cell_length_a 14.572670
_cell_length_b 14.572670
_cell_length_c 9.445832
_cell_angle_alpha 90.000000
_cell_angle_beta 90.000000
_cell_angle_gamma 90.000000
_cell_volume 2005.942490
_symmetry_space_group_name_H-M "P 4 N C "
_symmetry_group_IT_number 104
_symmetry_cell_setting 'tetragonal'
loop_
_space_group_symop_operation_xyz
x,y,z
-y,x,z
-x,-y,z
y,-x,z
1/2-x,1/2+y,1/2+z
1/2+x,1/2-y,1/2+z
1/2-y,1/2-x,1/2+z
1/2+y,1/2+x,1/2+z
loop_
_atom_site_type_symbol
_atom_site_label
_atom_site_fract_x
_atom_site_fract_y
_atom_site_fract_z
Si Si1 0.490261 0.649728 0.402030
Si Si2 0.009739 0.149728 0.225369
Si Si3 0.317282 0.933756 0.722927
Si Si4 0.500000 0.000000 0.813700
Si Si5 0.933756 0.682718 0.404472
O O1 0.404067 0.584090 0.372363
O O2 0.487618 0.685088 0.563700
O O3 0.488038 0.734834 0.296241
O O4 0.011962 0.234834 0.331159
O O5 0.915910 0.095933 0.255037
O O6 0.289351 0.906241 0.563700
O O7 0.341773 0.841773 0.813700
O O8 0.407352 0.999645 0.718533
O O9 0.500355 0.092648 0.908867
#
# Coordination Sequence:
#
# PCOD8307039 Si02
#       5
#     8   8   8   4   8
#     4   9  19  37  59  82 112 148 183 227 282 333
#     4   9  19  37  59  82 112 148 183 227 282 333
#     4  10  20  35  56  80 109 146 187 229 276 327
#     4   8  22  36  54  76 110 148 176 226 278 320
#     4  10  20  35  56  80 109 146 187 229 276 327
#
# _framework density 17.946677000000001
#
# number of rings (size 3 to 8) (size 9 to 14) (size 15 to 20)
#    1.333    1.333    0.000    3.333    0.000    1.778 
#    4.000    2.222    0.000    0.000    0.000    0.000 
#    0.000    0.000    0.000    0.000    0.000    0.000 
#
# Total GULP energy -446103.864669 kJ/mol
# GULP energy per Si atom -12391.774019 kJ/mol
# Density = 1.790583 g / cm^3
# Si number density = 17.946677 Si / 1000 Ang^3
#
#
#
# Elastic Constant Matrix: (Units=GPa)
#
#
# Indices 1 2 3 4 5 6 
#
# 1 99.1642 25.3269 52.5956 0.0000 0.0000 0.0000
# 2 25.3269 99.1642 52.5956 0.0000 0.0000 0.0000
# 3 52.5956 52.5956 138.7209 0.0000 0.0000 0.0000
# 4 0.0000 0.0000 0.0000 21.3235 0.0000 0.0000
# 5 0.0000 0.0000 0.0000 0.0000 21.3235 0.0000
# 6 0.0000 0.0000 0.0000 0.0000 0.0000 18.4694
#
#
#
# Elastic Compliance Matrix: (Units=1/GPa)
#
#
# Indices 1 2 3 4 5 6 
#
# 1 0.012681 -0.000862 -0.004481 0.000000 0.000000 0.000000
# 2 -0.000862 0.012681 -0.004481 0.000000 0.000000 0.000000
# 3 -0.004481 -0.004481 0.010607 0.000000 0.000000 0.000000
# 4 0.000000 0.000000 0.000000 0.046897 0.000000 0.000000
# 5 0.000000 0.000000 0.000000 0.000000 0.046897 0.000000
# 6 0.000000 0.000000 0.000000 0.000000 0.000000 0.054144
#
#
# Mechanical properties :
#
#
# Convention : Reuss Voigt Hill
#
# Bulk Modulus (GPa) = 61.27324 66.45395 63.86360
# Shear Modulus (GPa) = 23.92397 25.99200 24.95798
#
# Velocity S-wave (km/s) = 3.65507 3.80977 3.73322
# Velocity P-wave (km/s) = 7.21309 7.51408 7.36512
#
# Compressibility (1/GPa) = 0.01632034
#
# Stress axis : x y z
#
# Youngs Moduli (GPa) = 78.85659 78.85659 94.27921
#
# Poissons Ratio (x) = 0.06798 0.42249
# Poissons Ratio (y) = 0.06798 0.42249
# Poissons Ratio (z) = 0.35337 0.35337
#
# Static dielectric constant tensor:
#      x y z
#    x 3.077620 0.000000 0.000000 
#    y 0.000000 3.077620 0.000000 
#    z 0.000000 0.000000 3.165280 
# 
# 
# High freq. dielectric constant tensor:
#      x y z
#    x 1.679410 0.000000 0.000000 
#    y 0.000000 1.679410 0.000000 
#    z 0.000000 0.000000 1.695260 
# 
# From -- ./inp_files/406.got.cif
#   From: 2010.03.12/outbox.cif.g09.slc.cpg/sg104_cif.got.tgz:406.got - 2010.04.14 01:44:05.
