data_PCOD8307005
_publ_section_title
;
Structure prediction by ZEFSAII (Michael W. Deem and Ramdas Pophale) SiO2 
 PCOD8307005
Probable space group: P 4 C C
;
_chemical_formula_sum "Si O2"
_cell_formula_units_Z 60
_cell_length_a 11.271087
_cell_length_b 11.271087
_cell_length_c 21.844473
_cell_angle_alpha 90.000000
_cell_angle_beta 90.000000
_cell_angle_gamma 90.000000
_cell_volume 2775.065102
_symmetry_space_group_name_H-M "P 4 C C"
_symmetry_group_IT_number 103
_symmetry_cell_setting 'tetragonal'
loop_
_space_group_symop_operation_xyz
x,y,z
-y,x,z
-x,-y,z
y,-x,z
-x,y,1/2+z
x,-y,1/2+z
-y,-x,1/2+z
y,x,1/2+z
loop_
_atom_site_type_symbol
_atom_site_label
_atom_site_fract_x
_atom_site_fract_y
_atom_site_fract_z
Si Si1 0.433684 0.780067 0.798460
Si Si2 0.681271 0.202392 0.355723
Si Si3 0.717769 0.927461 0.663201
Si Si4 0.035312 0.817433 0.786213
Si Si5 0.721460 0.839678 0.096732
Si Si6 0.444526 0.317995 0.163481
Si Si7 0.500000 0.000000 0.233367
Si Si8 0.889405 0.831374 0.468737
O O1 0.541872 0.765513 0.847727
O O2 0.317090 0.753614 0.836051
O O3 0.440785 0.701782 0.737013
O O4 0.418707 0.914906 0.774810
O O5 0.693829 0.087400 0.311147
O O6 0.736698 0.159320 0.419569
O O7 0.811752 0.973202 0.713405
O O8 0.759251 0.800702 0.641144
O O9 0.585038 0.917733 0.691136
O O10 0.724954 0.020629 0.608668
O O11 0.910212 0.863571 0.811026
O O12 0.591442 0.790936 0.117338
O O13 0.767629 0.832591 0.027935
O O14 0.577072 0.353728 0.146342
O O15 0.033782 0.837633 0.465021
#
# Coordination Sequence:
#
# PCOD8307005 Si02
#       8
#     8   8   8   8   8   8   4   8
#     4  12  24  42  69 100 143 176 231 286 361 419
#     4  12  26  44  66  99 135 189 236 287 343 420
#     4  12  22  37  62  98 138 170 221 284 359 421
#     4  11  21  35  59  94 133 168 216 286 358 425
#     4  12  24  42  68 100 135 182 231 283 347 426
#     4  11  23  44  72 103 140 182 225 280 354 431
#     4  12  24  36  62 110 142 174 210 300 372 422
#     4  11  26  50  73  95 139 198 243 289 347 419
#
# _framework density 21.621113000000001
#
# number of rings (size 3 to 8) (size 9 to 14) (size 15 to 20)
#    0.000    0.400    6.667    3.200    1.867    1.600 
#    2.400    0.000    0.000    0.000    0.000    0.000 
#    0.000    0.000    0.000    0.000    0.000    0.000 
#
# Total GULP energy -743301.813017 kJ/mol
# GULP energy per Si atom -12388.363550 kJ/mol
# Density = 2.157190 g / cm^3
# Si number density = 21.621113 Si / 1000 Ang^3
#
#
#
# Elastic Constant Matrix: (Units=GPa)
#
#
# Indices 1 2 3 4 5 6 
#
# 1 67.5867 14.8281 23.2086 0.0000 0.0000 0.0000
# 2 14.8281 67.5867 23.2086 0.0000 0.0000 0.0000
# 3 23.2086 23.2086 101.0638 0.0000 0.0000 0.0000
# 4 0.0000 0.0000 0.0000 31.6521 0.0000 0.0000
# 5 0.0000 0.0000 0.0000 0.0000 31.6521 0.0000
# 6 0.0000 0.0000 0.0000 0.0000 0.0000 32.6378
#
#
#
# Elastic Compliance Matrix: (Units=1/GPa)
#
#
# Indices 1 2 3 4 5 6 
#
# 1 0.016445 -0.002509 -0.003200 0.000000 0.000000 0.000000
# 2 -0.002509 0.016445 -0.003200 0.000000 0.000000 0.000000
# 3 -0.003200 -0.003200 0.011365 0.000000 0.000000 0.000000
# 4 0.000000 0.000000 0.000000 0.031593 0.000000 0.000000
# 5 0.000000 0.000000 0.000000 0.000000 0.031593 0.000000
# 6 0.000000 0.000000 0.000000 0.000000 0.000000 0.030639
#
#
# Mechanical properties :
#
#
# Convention : Reuss Voigt Hill
#
# Bulk Modulus (GPa) = 37.82769 39.85861 38.84315
# Shear Modulus (GPa) = 30.35592 30.85456 30.60524
#
# Velocity S-wave (km/s) = 3.75106 3.78174 3.76643
# Velocity P-wave (km/s) = 6.02447 6.12730 6.07610
#
# Compressibility (1/GPa) = 0.02643566
#
# Stress axis : x y z
#
# Youngs Moduli (GPa) = 60.80791 60.80791 87.99238
#
# Poissons Ratio (x) = 0.15257 0.28161
# Poissons Ratio (y) = 0.15257 0.28161
# Poissons Ratio (z) = 0.19461 0.19461
#
# Static dielectric constant tensor:
#      x y z
#    x 4.016730 0.000000 0.000000 
#    y 0.000000 4.016730 0.000000 
#    z 0.000000 0.000000 3.669150 
# 
# 
# High freq. dielectric constant tensor:
#      x y z
#    x 1.864710 0.000000 0.000000 
#    y 0.000000 1.864710 0.000000 
#    z 0.000000 0.000000 1.815180 
# 
# From -- ./inp_files/1319.got.cif
#   From: 2010.03.12/outbox.cif.g09.slc.cpg/sg103_cif.got.tgz:1319.got - 2010.04.14 01:42:52.
