data_PCOD8307473
_publ_section_title
;
Structure prediction by ZEFSAII (Michael W. Deem and Ramdas Pophale) SiO2 
 PCOD8307473
Probable space group: P 42 B C
;
_chemical_formula_sum "Si O2"
_cell_formula_units_Z 16
_cell_length_a 8.477054
_cell_length_b 8.477054
_cell_length_c 8.100591
_cell_angle_alpha 90.000000
_cell_angle_beta 90.000000
_cell_angle_gamma 90.000000
_cell_volume 582.112070
_symmetry_space_group_name_H-M "P 42 B C"
_symmetry_group_IT_number 106
_symmetry_cell_setting 'tetragonal'
loop_
_space_group_symop_operation_xyz
x,y,z
-y,x,1/2+z
-x,-y,z
y,-x,1/2+z
1/2-x,1/2+y,z
1/2+x,1/2-y,z
1/2-y,1/2-x,1/2+z
1/2+y,1/2+x,1/2+z
loop_
_atom_site_type_symbol
_atom_site_label
_atom_site_fract_x
_atom_site_fract_y
_atom_site_fract_z
Si Si1 0.634465 0.379322 0.934710
Si Si2 0.592279 0.147472 0.225542
O O1 0.500000 0.500000 0.977351
O O2 0.785143 0.479899 0.872609
O O3 0.577872 0.254516 0.798006
O O4 0.657698 0.281111 0.102616
O O5 0.500000 0.000000 0.140952
#
# Coordination Sequence:
#
# PCOD8307473 Si02
#       2
#     8   8
#     4  12  30  55  86 128 178 235 297 368 446 532
#     4  12  30  53  90 130 179 235 301 367 450 530
#
# _framework density 27.48612
#
# number of rings (size 3 to 8) (size 9 to 14) (size 15 to 20)
#    0.000    0.000    0.000    6.000   28.000    0.000 
#    0.000    0.000    0.000    0.000    0.000    0.000 
#    0.000    0.000    0.000    0.000    0.000    0.000 
#
# Total GULP energy -198319.938156 kJ/mol
# GULP energy per Si atom -12394.996135 kJ/mol
# Density = 2.742356 g / cm^3
# Si number density = 27.486120 Si / 1000 Ang^3
#
#
#
# Elastic Constant Matrix: (Units=GPa)
#
#
# Indices 1 2 3 4 5 6 
#
# 1 110.7916 9.3452 29.3864 0.0000 0.0000 0.0000
# 2 9.3452 110.7916 29.3864 0.0000 0.0000 0.0000
# 3 29.3864 29.3864 113.8417 0.0000 0.0000 0.0000
# 4 0.0000 0.0000 0.0000 44.6613 0.0000 0.0000
# 5 0.0000 0.0000 0.0000 0.0000 44.6613 0.0000
# 6 0.0000 0.0000 0.0000 0.0000 0.0000 36.5908
#
#
#
# Elastic Compliance Matrix: (Units=1/GPa)
#
#
# Indices 1 2 3 4 5 6 
#
# 1 0.009692 -0.000165 -0.002459 0.000000 0.000000 0.000000
# 2 -0.000165 0.009692 -0.002459 0.000000 0.000000 0.000000
# 3 -0.002459 -0.002459 0.010054 0.000000 0.000000 0.000000
# 4 0.000000 0.000000 0.000000 0.022391 0.000000 0.000000
# 5 0.000000 0.000000 0.000000 0.000000 0.022391 0.000000
# 6 0.000000 0.000000 0.000000 0.000000 0.000000 0.027329
#
#
# Mechanical properties :
#
#
# Convention : Reuss Voigt Hill
#
# Bulk Modulus (GPa) = 51.89222 52.40678 52.14950
# Shear Modulus (GPa) = 42.32273 43.00314 42.66293
#
# Velocity S-wave (km/s) = 3.92827 3.95972 3.94402
# Velocity P-wave (km/s) = 6.28454 6.32565 6.30513
#
# Compressibility (1/GPa) = 0.01927071
#
# Stress axis : x y z
#
# Youngs Moduli (GPa) = 103.17597 103.17597 99.46544
#
# Poissons Ratio (x) = 0.01705 0.24461
# Poissons Ratio (y) = 0.01705 0.24461
# Poissons Ratio (z) = 0.25373 0.25373
#
# Static dielectric constant tensor:
#      x y z
#    x 5.338900 0.000000 0.000000 
#    y 0.000000 5.338900 0.000000 
#    z 0.000000 0.000000 4.988120 
# 
# 
# High freq. dielectric constant tensor:
#      x y z
#    x 2.121240 0.000000 0.000000 
#    y 0.000000 2.121240 0.000000 
#    z 0.000000 0.000000 2.110550 
# 
# From -- ./inp_files/179.got.cif
#   From: 2010.03.12/outbox.cif.g09.slc.cpg/sg106_cif.got.tgz:179.got - 2010.04.14 01:48:02.
