data_PCOD8307327
_publ_section_title
;
Structure prediction by ZEFSAII (Michael W. Deem and Ramdas Pophale) SiO2 
 PCOD8307327
Probable space group: P 42 M C
;
_chemical_formula_sum "Si O2"
_cell_formula_units_Z 48
_cell_length_a 8.242096
_cell_length_b 8.242096
_cell_length_c 33.726048
_cell_angle_alpha 90.000000
_cell_angle_beta 90.000000
_cell_angle_gamma 90.000000
_cell_volume 2291.082833
_symmetry_space_group_name_H-M "P 42 M C"
_symmetry_group_IT_number 105
_symmetry_cell_setting 'tetragonal'
loop_
_space_group_symop_operation_xyz
x,y,z
-y,x,1/2+z
-x,-y,z
y,-x,1/2+z
-x,y,z
x,-y,z
-y,-x,1/2+z
y,x,1/2+z
loop_
_atom_site_type_symbol
_atom_site_label
_atom_site_fract_x
_atom_site_fract_y
_atom_site_fract_z
Si Si1 0.681188 0.681188 0.032030
Si Si2 0.182997 0.817979 0.108595
Si Si3 0.500000 0.693028 0.736613
Si Si4 0.182021 0.817003 0.955465
Si Si5 0.500000 0.693028 0.827447
Si Si6 0.182984 0.687045 0.691876
Si Si7 0.687045 0.817016 0.372184
O O1 0.500000 0.710951 0.047395
O O2 0.710951 0.500000 0.016665
O O3 0.794120 0.709061 0.069901
O O4 0.709061 0.794120 0.994159
O O5 0.294724 0.768707 0.145691
O O6 0.000000 0.799360 0.123790
O O7 0.223375 0.000000 0.094913
O O8 0.500000 0.500000 0.731417
O O9 0.500000 0.747959 0.782030
O O10 0.332505 0.764251 0.717189
O O11 0.231293 0.705276 0.918369
O O12 0.000000 0.776624 0.969147
O O13 0.200640 0.000000 0.940270
O O14 0.500000 0.500000 0.832643
O O15 0.332505 0.764251 0.846871
O O16 0.171275 0.500000 0.703023
O O17 0.000000 0.763664 0.699827
O O18 0.500000 0.828725 0.361037
O O19 0.763664 0.000000 0.364233
#
# Coordination Sequence:
#
# PCOD8307327 Si02
#       7
#     8   8   4   8   4   8   8
#     4  11  24  37  52  78 110 143 180 225 272 322
#     4  10  21  37  56  78 106 141 182 227 275 328
#     4   9  18  32  53  83 113 141 181 233 283 339
#     4  10  21  37  56  78 106 141 182 227 275 328
#     4   9  18  32  53  83 113 141 181 233 283 339
#     4   9  18  33  54  79 109 145 182 227 281 336
#     4   9  18  33  54  79 109 145 182 227 281 336
#
# _framework density 20.950790999999999
#
# number of rings (size 3 to 8) (size 9 to 14) (size 15 to 20)
#    0.000    2.333    0.000    2.000    2.333    6.000 
#    0.000    3.333    0.000    2.000    0.000    4.667 
#    0.000    0.000    0.000    0.000    0.000    0.000 
#
# Total GULP energy -594832.448463 kJ/mol
# GULP energy per Si atom -12392.342676 kJ/mol
# Density = 2.090311 g / cm^3
# Si number density = 20.950791 Si / 1000 Ang^3
#
#
#
# Elastic Constant Matrix: (Units=GPa)
#
#
# Indices 1 2 3 4 5 6 
#
# 1 73.7978 29.1030 43.5469 0.0000 0.0000 0.0000
# 2 29.1030 73.7978 43.5469 0.0000 0.0000 0.0000
# 3 43.5469 43.5469 129.5000 0.0000 0.0000 0.0000
# 4 0.0000 0.0000 0.0000 12.3384 0.0000 0.0000
# 5 0.0000 0.0000 0.0000 0.0000 12.3384 0.0000
# 6 0.0000 0.0000 0.0000 0.0000 0.0000 15.8796
#
#
#
# Elastic Compliance Matrix: (Units=1/GPa)
#
#
# Indices 1 2 3 4 5 6 
#
# 1 0.017979 -0.004395 -0.004568 0.000000 0.000000 0.000000
# 2 -0.004395 0.017979 -0.004568 0.000000 0.000000 0.000000
# 3 -0.004568 -0.004568 0.010794 0.000000 0.000000 0.000000
# 4 0.000000 0.000000 0.000000 0.081048 0.000000 0.000000
# 5 0.000000 0.000000 0.000000 0.000000 0.081048 0.000000
# 6 0.000000 0.000000 0.000000 0.000000 0.000000 0.062974
#
#
# Mechanical properties :
#
#
# Convention : Reuss Voigt Hill
#
# Bulk Modulus (GPa) = 50.78487 56.60990 53.69739
# Shear Modulus (GPa) = 16.36945 18.83788 17.60367
#
# Velocity S-wave (km/s) = 2.79826 3.00183 2.90183
# Velocity P-wave (km/s) = 5.89347 6.25250 6.07564
#
# Compressibility (1/GPa) = 0.01969090
#
# Stress axis : x y z
#
# Youngs Moduli (GPa) = 55.61987 55.61987 92.64255
#
# Poissons Ratio (x) = 0.24444 0.42319
# Poissons Ratio (y) = 0.24444 0.42319
# Poissons Ratio (z) = 0.25407 0.25407
#
# Static dielectric constant tensor:
#      x y z
#    x 3.816700 0.000000 0.000000 
#    y 0.000000 3.816700 0.000000 
#    z 0.000000 0.000000 3.547010 
# 
# 
# High freq. dielectric constant tensor:
#      x y z
#    x 1.809000 0.000000 0.000000 
#    y 0.000000 1.809000 0.000000 
#    z 0.000000 0.000000 1.809780 
# 
# From -- ./inp_files/4759.got.cif
#   From: 2010.03.12/outbox.cif.g09.slc.cpg/sg105_3_cif.got.tgz:4759.got - 2010.04.14 01:45:32.
