data_PCOD8307559
_publ_section_title
;
Structure prediction by ZEFSAII (Michael W. Deem and Ramdas Pophale) SiO2 
 PCOD8307559
Probable space group: I 4 M M
;
_chemical_formula_sum "Si O2"
_cell_formula_units_Z 128
_cell_length_a 17.871215
_cell_length_b 17.871215
_cell_length_c 23.050617
_cell_angle_alpha 90.000000
_cell_angle_beta 90.000000
_cell_angle_gamma 90.000000
_cell_volume 7361.913562
_symmetry_space_group_name_H-M "I 4 M M"
_symmetry_group_IT_number 107
_symmetry_cell_setting 'tetragonal'
loop_
_space_group_symop_operation_xyz
x,y,z
-y,x,z
-x,-y,z
y,-x,z
-x,y,z
x,-y,z
-y,-x,z
y,x,z
1/2+x,1/2+y,1/2+z
1/2-y,1/2+x,1/2+z
1/2-x,1/2-y,1/2+z
1/2+y,1/2-x,1/2+z
1/2-x,1/2+y,1/2+z
1/2+x,1/2-y,1/2+z
1/2-y,1/2-x,1/2+z
1/2+y,1/2+x,1/2+z
loop_
_atom_site_type_symbol
_atom_site_label
_atom_site_fract_x
_atom_site_fract_y
_atom_site_fract_z
Si Si1 0.712126 0.410636 0.579740
Si Si2 0.582912 0.167445 0.907581
Si Si3 0.084797 0.280260 0.960403
Si Si4 0.697594 0.819702 0.299701
Si Si5 0.289487 0.587975 0.124579
Si Si6 0.414379 0.703053 0.341172
Si Si7 0.676681 0.800721 0.668993
Si Si8 0.802955 0.080225 0.493158
O O1 0.695213 0.500000 0.579939
O O2 0.634350 0.365651 0.591541
O O3 0.745737 0.379820 0.518713
O O4 0.775586 0.392200 0.628040
O O5 0.500000 0.130806 0.900999
O O6 0.639009 0.113910 0.941401
O O7 0.611892 0.189919 0.843910
O O8 0.576686 0.239578 0.946207
O O9 0.096379 0.221034 0.909003
O O10 0.000000 0.294862 0.975425
O O11 0.771365 0.771365 0.315301
O O12 0.624972 0.766504 0.302824
O O13 0.701249 0.852988 0.235012
O O14 0.301168 0.500000 0.140404
O O15 0.364402 0.635599 0.142468
O O16 0.213655 0.618325 0.155332
O O17 0.272530 0.600931 0.056665
O O18 0.500000 0.699204 0.321946
O O19 0.377345 0.622656 0.328957
O O20 0.742537 0.742537 0.658493
O O21 0.861113 0.138888 0.468759
O O22 0.843585 0.000000 0.497586
#
# Coordination Sequence:
#
# PCOD8307559 Si02
#       8
#    16  16  16  16  16  16  16  16
#     4  10  20  34  54  78 102 129 160 196 240 291
#     4  10  19  30  48  72  93 118 156 201 241 275
#     4   9  18  32  48  68  96 127 155 186 232 290
#     4   9  18  32  48  66  92 127 163 199 241 288
#     4   9  17  29  47  71  99 131 166 206 250 296
#     4   9  17  29  46  69  96 126 160 198 242 292
#     4   9  18  32  49  69  94 128 168 204 242 292
#     4   9  17  28  43  66  93 119 148 182 224 274
#
# _framework density 17.386783000000001
#
# number of rings (size 3 to 8) (size 9 to 14) (size 15 to 20)
#    0.000    2.750    0.000    1.500    0.000    4.250 
#    0.000    1.250    0.000    3.375    0.000    5.250 
#    0.000    3.000    0.000    0.000    0.000    0.000 
#
# Total GULP energy -793163.739772 kJ/mol
# GULP energy per Si atom -12393.183434 kJ/mol
# Density = 1.734721 g / cm^3
# Si number density = 17.386783 Si / 1000 Ang^3
#
#
#
# Elastic Constant Matrix: (Units=GPa)
#
#
# Indices 1 2 3 4 5 6 
#
# 1 69.0909 21.8416 18.2786 0.0000 0.0000 0.0001
# 2 21.8416 69.0909 18.2786 0.0000 0.0000 -0.0001
# 3 18.2786 18.2786 75.5564 0.0000 0.0000 0.0000
# 4 0.0000 0.0000 0.0000 17.4295 0.0000 0.0000
# 5 0.0000 0.0000 0.0000 0.0000 17.4295 0.0000
# 6 0.0001 -0.0001 0.0000 0.0000 0.0000 21.6243
#
#
#
# Elastic Compliance Matrix: (Units=1/GPa)
#
#
# Indices 1 2 3 4 5 6 
#
# 1 0.016673 -0.004491 -0.002947 0.000000 0.000000 0.000000
# 2 -0.004491 0.016673 -0.002947 0.000000 0.000000 0.000000
# 3 -0.002947 -0.002947 0.014661 0.000000 0.000000 0.000000
# 4 0.000000 0.000000 0.000000 0.057374 0.000000 0.000000
# 5 0.000000 0.000000 0.000000 0.000000 0.057374 0.000000
# 6 0.000000 0.000000 0.000000 0.000000 0.000000 0.046244
#
#
# Mechanical properties :
#
#
# Convention : Reuss Voigt Hill
#
# Bulk Modulus (GPa) = 36.71513 36.72621 36.72067
# Shear Modulus (GPa) = 20.93371 21.65261 21.29316
#
# Velocity S-wave (km/s) = 3.47364 3.53278 3.50333
# Velocity P-wave (km/s) = 6.10334 6.14895 6.12619
#
# Compressibility (1/GPa) = 0.02723673
#
# Stress axis : x y z
#
# Youngs Moduli (GPa) = 59.97667 59.97667 68.20790
#
# Poissons Ratio (x) = 0.26937 0.20101
# Poissons Ratio (y) = 0.26937 0.20101
# Poissons Ratio (z) = 0.17675 0.17675
#
# Static dielectric constant tensor:
#      x y z
#    x 4.065620 0.000000 0.000000 
#    y 0.000000 4.065620 0.000000 
#    z 0.000000 0.000000 3.296040 
# 
# 
# High freq. dielectric constant tensor:
#      x y z
#    x 1.659730 0.000000 0.000000 
#    y 0.000000 1.659730 0.000000 
#    z 0.000000 0.000000 1.675830 
# 
# From -- ./inp_files/5475.got.cif
#   From: 2010.03.12/outbox.cif.g09.slc.cpg/sg107_3_cif.got.tgz:5475.got - 2010.04.14 01:49:11.
