data_PCOD8307612
_publ_section_title
;
Structure prediction by ZEFSAII (Michael W. Deem and Ramdas Pophale) SiO2 
 PCOD8307612
Probable space group: I 4 M M
;
_chemical_formula_sum "Si O2"
_cell_formula_units_Z 112
_cell_length_a 18.156831
_cell_length_b 18.156831
_cell_length_c 21.774736
_cell_angle_alpha 90.000000
_cell_angle_beta 90.000000
_cell_angle_gamma 90.000000
_cell_volume 7178.488365
_symmetry_space_group_name_H-M "I 4 M M"
_symmetry_group_IT_number 107
_symmetry_cell_setting 'tetragonal'
loop_
_space_group_symop_operation_xyz
x,y,z
-y,x,z
-x,-y,z
y,-x,z
-x,y,z
x,-y,z
-y,-x,z
y,x,z
1/2+x,1/2+y,1/2+z
1/2-y,1/2+x,1/2+z
1/2-x,1/2-y,1/2+z
1/2+y,1/2-x,1/2+z
1/2-x,1/2+y,1/2+z
1/2+x,1/2-y,1/2+z
1/2-y,1/2-x,1/2+z
1/2+y,1/2+x,1/2+z
loop_
_atom_site_type_symbol
_atom_site_label
_atom_site_fract_x
_atom_site_fract_y
_atom_site_fract_z
Si Si1 0.842188 0.417534 0.436950
Si Si2 0.916399 0.798368 0.380143
Si Si3 0.415923 0.146227 0.819133
Si Si4 0.413472 0.789480 0.246281
Si Si5 0.351001 0.232454 0.001061
Si Si6 0.418125 0.698629 0.362054
Si Si7 0.586342 0.292652 0.123380
O O1 0.861294 0.500000 0.462160
O O2 0.894434 0.401505 0.378869
O O3 0.849477 0.355614 0.489769
O O4 0.758194 0.415307 0.415639
O O5 0.865560 0.865560 0.358726
O O6 0.903672 0.732213 0.332719
O O7 0.897435 0.772011 0.448343
O O8 0.000000 0.826302 0.379412
O O9 0.500000 0.128725 0.802659
O O10 0.367300 0.126104 0.759610
O O11 0.500000 0.803570 0.250811
O O12 0.388015 0.732181 0.298442
O O13 0.389673 0.757744 0.180740
O O14 0.269006 0.269006 0.003673
O O15 0.394484 0.244916 0.063901
O O16 0.500000 0.667893 0.352295
O O17 0.368379 0.631622 0.383457
O O18 0.500000 0.312241 0.125748
O O19 0.630526 0.369475 0.124036
#
# Coordination Sequence:
#
# PCOD8307612 Si02
#       7
#    16  16  16  16  16  16  16
#     4   9  17  28  44  65  86 111 142 174 210 253
#     4   9  17  28  43  64  87 111 139 172 211 253
#     4   9  17  29  45  65  87 110 140 176 211 250
#     4   9  18  30  43  61  85 113 144 175 208 247
#     4   9  17  30  46  62  84 113 143 176 212 249
#     4   9  16  26  41  62  87 113 142 175 210 250
#     4  10  20  33  48  65  86 113 144 176 208 244
#
# _framework density 15.602169999999999
#
# number of rings (size 3 to 8) (size 9 to 14) (size 15 to 20)
#    0.000    2.857    0.000    2.571    0.000    6.143 
#    0.000    0.714    0.000    6.000    0.000    0.000 
#    0.000    0.000    0.000    0.000    0.000   36.286 
#
# Total GULP energy -694284.638413 kJ/mol
# GULP energy per Si atom -12397.939972 kJ/mol
# Density = 1.556666 g / cm^3
# Si number density = 15.602170 Si / 1000 Ang^3
#
#
#
# Elastic Constant Matrix: (Units=GPa)
#
#
# Indices 1 2 3 4 5 6 
#
# 1 104.0720 58.3171 31.7145 0.0000 0.0000 0.0002
# 2 58.3171 104.0720 31.7145 0.0000 0.0000 -0.0002
# 3 31.7145 31.7145 65.3007 0.0000 0.0000 0.0000
# 4 0.0000 0.0000 0.0000 19.2956 0.0000 0.0000
# 5 0.0000 0.0000 0.0000 0.0000 19.2956 0.0000
# 6 0.0002 -0.0002 0.0000 0.0000 0.0000 22.7956
#
#
#
# Elastic Compliance Matrix: (Units=1/GPa)
#
#
# Indices 1 2 3 4 5 6 
#
# 1 0.014728 -0.007128 -0.003691 0.000000 0.000000 0.000000
# 2 -0.007128 0.014728 -0.003691 0.000000 0.000000 0.000000
# 3 -0.003691 -0.003691 0.018899 0.000000 0.000000 0.000000
# 4 0.000000 0.000000 0.000000 0.051825 0.000000 0.000000
# 5 0.000000 0.000000 0.000000 0.000000 0.051825 0.000000
# 6 0.000000 0.000000 0.000000 0.000000 0.000000 0.043868
#
#
# Mechanical properties :
#
#
# Convention : Reuss Voigt Hill
#
# Bulk Modulus (GPa) = 51.72080 57.43746 54.57913
# Shear Modulus (GPa) = 21.61344 22.39060 22.00202
#
# Velocity S-wave (km/s) = 3.72598 3.79237 3.75932
# Velocity P-wave (km/s) = 7.19251 7.48798 7.34173
#
# Compressibility (1/GPa) = 0.01933458
#
# Stress axis : x y z
#
# Youngs Moduli (GPa) = 67.89951 67.89951 52.91301
#
# Poissons Ratio (x) = 0.48398 0.19530
# Poissons Ratio (y) = 0.48398 0.19530
# Poissons Ratio (z) = 0.25061 0.25061
#
# Static dielectric constant tensor:
#      x y z
#    x 3.015240 0.000000 0.000000 
#    y 0.000000 3.015240 0.000000 
#    z 0.000000 0.000000 2.796720 
# 
# 
# High freq. dielectric constant tensor:
#      x y z
#    x 1.599350 0.000000 0.000000 
#    y 0.000000 1.599350 0.000000 
#    z 0.000000 0.000000 1.569070 
# 
# From -- ./inp_files/4911.got.cif
#   From: 2010.03.12/outbox.cif.g09.slc.cpg/sg107_3_cif.got.tgz:4911.got - 2010.04.14 01:49:11.
