data_PCOD8307550
_publ_section_title
;
Structure prediction by ZEFSAII (Michael W. Deem and Ramdas Pophale) SiO2 
 PCOD8307550
Probable space group: I 4 M M
;
_chemical_formula_sum "Si O2"
_cell_formula_units_Z 96
_cell_length_a 13.694528
_cell_length_b 13.694528
_cell_length_c 30.738635
_cell_angle_alpha 90.000000
_cell_angle_beta 90.000000
_cell_angle_gamma 90.000000
_cell_volume 5764.726594
_symmetry_space_group_name_H-M "I 4 M M"
_symmetry_group_IT_number 107
_symmetry_cell_setting 'tetragonal'
loop_
_space_group_symop_operation_xyz
x,y,z
-y,x,z
-x,-y,z
y,-x,z
-x,y,z
x,-y,z
-y,-x,z
y,x,z
1/2+x,1/2+y,1/2+z
1/2-y,1/2+x,1/2+z
1/2-x,1/2-y,1/2+z
1/2+y,1/2-x,1/2+z
1/2-x,1/2+y,1/2+z
1/2+x,1/2-y,1/2+z
1/2-y,1/2-x,1/2+z
1/2+y,1/2+x,1/2+z
loop_
_atom_site_type_symbol
_atom_site_label
_atom_site_fract_x
_atom_site_fract_y
_atom_site_fract_z
Si Si1 0.885014 0.273701 0.753300
Si Si2 0.115300 0.728133 0.921869
Si Si3 0.107820 0.384249 0.505152
Si Si4 0.609071 0.884464 0.837758
Si Si5 0.227768 0.612974 0.683824
Si Si6 0.111476 0.268204 0.085132
O O1 0.829494 0.170507 0.749473
O O2 0.848589 0.327904 0.796809
O O3 0.859096 0.343872 0.712982
O O4 0.000000 0.251978 0.753440
O O5 0.167224 0.832777 0.918496
O O6 0.149672 0.660713 0.881948
O O7 0.000000 0.747783 0.921151
O O8 0.151458 0.675143 0.965643
O O9 0.099925 0.500000 0.503619
O O10 0.151177 0.348980 0.551351
O O11 0.000000 0.338097 0.500294
O O12 0.500000 0.838956 0.835673
O O13 0.600929 0.000000 0.836693
O O14 0.246954 0.500000 0.695443
O O15 0.328509 0.671492 0.692239
O O16 0.191908 0.624937 0.634053
O O17 0.167841 0.167841 0.078043
O O18 0.000000 0.242490 0.074808
#
# Coordination Sequence:
#
# PCOD8307550 Si02
#       6
#    16  16  16  16  16  16
#     4  10  20  33  49  70  96 125 158 196 237 283
#     4  10  19  30  45  66  93 123 154 188 227 276
#     4   9  17  29  44  62  86 117 152 190 230 268
#     4   9  17  30  48  68  90 118 151 186 225 269
#     4   9  18  31  47  69  96 126 160 196 235 280
#     4   9  17  29  45  67  95 123 151 184 223 273
#
# _framework density 16.653001
#
# number of rings (size 3 to 8) (size 9 to 14) (size 15 to 20)
#    0.000    2.667    0.000    2.000    0.000    4.333 
#    0.000    3.333    0.000    6.000    0.000    0.000 
#    0.000   26.333    0.000    0.000    0.000    0.000 
#
# Total GULP energy -595143.485342 kJ/mol
# GULP energy per Si atom -12398.822611 kJ/mol
# Density = 1.661510 g / cm^3
# Si number density = 16.653001 Si / 1000 Ang^3
#
#
#
# Elastic Constant Matrix: (Units=GPa)
#
#
# Indices 1 2 3 4 5 6 
#
# 1 83.9283 41.9852 47.6609 0.0000 0.0000 0.0005
# 2 41.9852 83.9283 47.6609 0.0000 0.0000 -0.0005
# 3 47.6609 47.6609 121.3098 0.0000 0.0000 0.0000
# 4 0.0000 0.0000 0.0000 24.3285 0.0000 0.0000
# 5 0.0000 0.0000 0.0000 0.0000 24.3285 0.0000
# 6 0.0005 -0.0005 0.0000 0.0000 0.0000 13.5773
#
#
#
# Elastic Compliance Matrix: (Units=1/GPa)
#
#
# Indices 1 2 3 4 5 6 
#
# 1 0.017573 -0.006269 -0.004441 0.000000 0.000000 -0.000001
# 2 -0.006269 0.017573 -0.004441 0.000000 0.000000 0.000001
# 3 -0.004441 -0.004441 0.011733 0.000000 0.000000 0.000000
# 4 0.000000 0.000000 0.000000 0.041104 0.000000 0.000000
# 5 0.000000 0.000000 0.000000 0.000000 0.041104 0.000000
# 6 -0.000001 0.000001 0.000000 0.000000 0.000000 0.073652
#
#
# Mechanical properties :
#
#
# Convention : Reuss Voigt Hill
#
# Bulk Modulus (GPa) = 60.32636 62.64231 61.48433
# Shear Modulus (GPa) = 20.95840 22.57081 21.76461
#
# Velocity S-wave (km/s) = 3.55143 3.68552 3.61910
# Velocity P-wave (km/s) = 7.28842 7.47051 7.38003
#
# Compressibility (1/GPa) = 0.01657650
#
# Stress axis : x y z
#
# Youngs Moduli (GPa) = 56.90551 56.90551 85.22845
#
# Poissons Ratio (x) = 0.35673 0.37852
# Poissons Ratio (y) = 0.35673 0.37852
# Poissons Ratio (z) = 0.25273 0.25273
#
# Static dielectric constant tensor:
#      x y z
#    x 2.989620 0.000000 0.000000 
#    y 0.000000 2.989620 0.000000 
#    z 0.000000 0.000000 3.415170 
# 
# 
# High freq. dielectric constant tensor:
#      x y z
#    x 1.621060 0.000000 0.000000 
#    y 0.000000 1.621060 0.000000 
#    z 0.000000 0.000000 1.661190 
# 
# From -- ./inp_files/6087.got.cif
#   From: 2010.03.12/outbox.cif.g09.slc.cpg/sg107_4_cif.got.tgz:6087.got - 2010.04.14 01:49:11.
