data_PCOD8307692
_publ_section_title
;
Structure prediction by ZEFSAII (Michael W. Deem and Ramdas Pophale) SiO2 
 PCOD8307692
Probable space group: I 4 M M
;
_chemical_formula_sum "Si O2"
_cell_formula_units_Z 96
_cell_length_a 17.699808
_cell_length_b 17.699808
_cell_length_c 23.553086
_cell_angle_alpha 90.000000
_cell_angle_beta 90.000000
_cell_angle_gamma 90.000000
_cell_volume 7378.786228
_symmetry_space_group_name_H-M "I 4 M M"
_symmetry_group_IT_number 107
_symmetry_cell_setting 'tetragonal'
loop_
_space_group_symop_operation_xyz
x,y,z
-y,x,z
-x,-y,z
y,-x,z
-x,y,z
x,-y,z
-y,-x,z
y,x,z
1/2+x,1/2+y,1/2+z
1/2-y,1/2+x,1/2+z
1/2-x,1/2-y,1/2+z
1/2+y,1/2-x,1/2+z
1/2-x,1/2+y,1/2+z
1/2+x,1/2-y,1/2+z
1/2-y,1/2-x,1/2+z
1/2+y,1/2+x,1/2+z
loop_
_atom_site_type_symbol
_atom_site_label
_atom_site_fract_x
_atom_site_fract_y
_atom_site_fract_z
Si Si1 0.413279 0.290989 0.544790
Si Si2 0.709011 0.413279 0.675909
Si Si3 0.144398 0.410453 0.480092
Si Si4 0.587609 0.912391 0.360350
Si Si5 0.589547 0.855602 0.740607
Si Si6 0.090254 0.500000 0.174483
Si Si7 0.090254 0.500000 0.046216
O O1 0.500000 0.309653 0.529781
O O2 0.365671 0.365671 0.530989
O O3 0.405340 0.266566 0.610349
O O4 0.380794 0.222778 0.506424
O O5 0.690347 0.500000 0.690918
O O6 0.634330 0.365671 0.689710
O O7 0.777223 0.380794 0.714275
O O8 0.141353 0.500000 0.485671
O O9 0.137662 0.386524 0.414128
O O10 0.074152 0.376577 0.515280
O O11 0.500000 0.899261 0.344945
O O12 0.637662 0.886523 0.306571
O O13 0.600739 0.000000 0.375755
O O14 0.500000 0.858647 0.735028
O O15 0.623423 0.925849 0.705419
O O16 0.120130 0.500000 0.110349
O O17 0.000000 0.500000 0.176757
O O18 0.000000 0.500000 0.043942
#
# Coordination Sequence:
#
# PCOD8307692 Si02
#       7
#    16  16  16  16  16   8   8
#     4   9  17  28  40  53  70  93 123 158 192 219
#     4   9  17  28  40  53  70  93 123 158 192 219
#     4   9  15  23  35  53  73  97 120 148 178 215
#     4   9  14  22  35  52  76 100 125 142 167 206
#     4   9  15  23  35  53  73  97 120 148 178 215
#     4   9  14  20  32  52  74  94 118 149 179 214
#     4   9  14  20  32  52  74  94 118 149 179 214
#
# _framework density 13.01027
#
# number of rings (size 3 to 8) (size 9 to 14) (size 15 to 20)
#    0.000    3.000    1.667    1.000    0.000    4.333 
#    0.000    2.500    0.000    0.000    0.000    0.000 
#    0.000    0.000    0.000    0.000    0.000    0.833 
#
# Total GULP energy -595016.965848 kJ/mol
# GULP energy per Si atom -12396.186788 kJ/mol
# Density = 1.298066 g / cm^3
# Si number density = 13.010270 Si / 1000 Ang^3
#
#
#
# Elastic Constant Matrix: (Units=GPa)
#
#
# Indices 1 2 3 4 5 6 
#
# 1 58.6093 34.3315 40.1887 0.0000 0.0000 0.0003
# 2 34.3315 58.6093 40.1887 0.0000 0.0000 -0.0003
# 3 40.1887 40.1887 90.2016 0.0000 0.0000 0.0000
# 4 0.0000 0.0000 0.0000 13.8979 0.0000 0.0000
# 5 0.0000 0.0000 0.0000 0.0000 13.8979 0.0000
# 6 0.0003 -0.0003 0.0000 0.0000 0.0000 7.1443
#
#
#
# Elastic Compliance Matrix: (Units=1/GPa)
#
#
# Indices 1 2 3 4 5 6 
#
# 1 0.029347 -0.011843 -0.007799 0.000000 0.000000 -0.000002
# 2 -0.011843 0.029347 -0.007799 0.000000 0.000000 0.000002
# 3 -0.007799 -0.007799 0.018036 0.000000 0.000000 0.000000
# 4 0.000000 0.000000 0.000000 0.071953 0.000000 0.000000
# 5 0.000000 0.000000 0.000000 0.000000 0.071953 0.000000
# 6 -0.000002 0.000002 0.000000 0.000000 0.000000 0.139972
#
#
# Mechanical properties :
#
#
# Convention : Reuss Voigt Hill
#
# Bulk Modulus (GPa) = 45.76945 48.53756 47.15350
# Shear Modulus (GPa) = 11.82668 13.16876 12.49772
#
# Velocity S-wave (km/s) = 3.01828 3.18493 3.10272
# Velocity P-wave (km/s) = 6.88495 7.13535 7.01127
#
# Compressibility (1/GPa) = 0.02184864
#
# Stress axis : x y z
#
# Youngs Moduli (GPa) = 34.07494 34.07494 55.44537
#
# Poissons Ratio (x) = 0.40355 0.43241
# Poissons Ratio (y) = 0.40355 0.43241
# Poissons Ratio (z) = 0.26575 0.26575
#
# Static dielectric constant tensor:
#      x y z
#    x 2.417740 0.000000 0.000000 
#    y 0.000000 2.417740 0.000000 
#    z 0.000000 0.000000 2.748740 
# 
# 
# High freq. dielectric constant tensor:
#      x y z
#    x 1.459860 0.000000 0.000000 
#    y 0.000000 1.459860 0.000000 
#    z 0.000000 0.000000 1.503760 
# 
# From -- ./inp_files/5388.got.cif
#   From: 2010.03.12/outbox.cif.g09.slc.cpg/sg107_3_cif.got.tgz:5388.got - 2010.04.14 01:49:11.
