data_PCOD8307951
_publ_section_title
;
Structure prediction by ZEFSAII (Michael W. Deem and Ramdas Pophale) SiO2 
 PCOD8307951
Probable space group: I 41 M D
;
_chemical_formula_sum "Si O2"
_cell_formula_units_Z 64
_cell_length_a 22.735910
_cell_length_b 22.735910
_cell_length_c 5.754434
_cell_angle_alpha 90.000000
_cell_angle_beta 90.000000
_cell_angle_gamma 90.000000
_cell_volume 2974.591251
_symmetry_space_group_name_H-M "I 41 M D"
_symmetry_group_IT_number 109
_symmetry_cell_setting 'tetragonal'
loop_
_space_group_symop_operation_xyz
x,y,z
-y,1/2+x,1/4+z
-x,-y,z
y,1/2-x,1/4+z
-x,y,z
x,-y,z
-y,1/2-x,1/4+z
y,1/2+x,1/4+z
1/2+x,1/2+y,1/2+z
1/2-y,x,3/4+z
1/2-x,1/2-y,1/2+z
1/2+y,-x,3/4+z
1/2-x,1/2+y,1/2+z
1/2+x,1/2-y,1/2+z
1/2-y,-x,3/4+z
1/2+y,x,3/4+z
loop_
_atom_site_type_symbol
_atom_site_label
_atom_site_fract_x
_atom_site_fract_y
_atom_site_fract_z
Si Si1 0.335578 0.835578 0.857570
Si Si2 0.647440 0.932228 0.226000
Si Si3 0.750000 0.124299 0.482570
Si Si4 0.432228 0.147440 0.489140
O O1 0.277906 0.834630 0.688212
O O2 0.396532 0.836172 0.718928
O O3 0.336172 0.896531 0.996212
O O4 0.334630 0.777906 0.026928
O O5 0.699410 0.919581 0.404780
O O6 0.587865 0.912135 0.357570
O O7 0.642122 0.000000 0.157894
O O8 0.800590 0.080419 0.560360
O O9 0.500000 0.142122 0.557245
#
# Coordination Sequence:
#
# PCOD8307951 Si02
#       4
#    16  16  16  16
#     4  10  22  38  64  91 128 158 216 258 318 377
#     4  10  22  40  64  90 123 163 210 260 313 375
#     4  10  21  40  66  88 120 166 213 256 310 378
#     4  10  22  40  64  90 123 163 210 260 313 375
#
# _framework density 21.515563
#
# number of rings (size 3 to 8) (size 9 to 14) (size 15 to 20)
#    0.000    2.000    0.000    2.250    0.000   12.500 
#    0.000    0.000  198.000    0.000    0.000    0.000 
#    0.000    0.000    0.000    0.000    0.000    0.000 
#
# Total GULP energy -396642.633737 kJ/mol
# GULP energy per Si atom -12395.082304 kJ/mol
# Density = 2.146659 g / cm^3
# Si number density = 21.515563 Si / 1000 Ang^3
#
#
#
# Elastic Constant Matrix: (Units=GPa)
#
#
# Indices 1 2 3 4 5 6 
#
# 1 108.9215 58.1195 40.2171 0.0000 0.0000 0.0000
# 2 58.1195 108.9215 40.2171 0.0000 0.0000 0.0000
# 3 40.2171 40.2171 116.6772 0.0000 0.0000 0.0000
# 4 0.0000 0.0000 0.0000 21.4808 0.0000 0.0000
# 5 0.0000 0.0000 0.0000 0.0000 21.4808 0.0000
# 6 0.0000 0.0000 0.0000 0.0000 0.0000 17.5071
#
#
#
# Elastic Compliance Matrix: (Units=1/GPa)
#
#
# Indices 1 2 3 4 5 6 
#
# 1 0.013431 -0.006253 -0.002474 0.000000 0.000000 0.000000
# 2 -0.006253 0.013431 -0.002474 0.000000 0.000000 0.000000
# 3 -0.002474 -0.002474 0.010276 0.000000 0.000000 0.000000
# 4 0.000000 0.000000 0.000000 0.046553 0.000000 0.000000
# 5 0.000000 0.000000 0.000000 0.000000 0.046553 0.000000
# 6 0.000000 0.000000 0.000000 0.000000 0.000000 0.057120
#
#
# Mechanical properties :
#
#
# Convention : Reuss Voigt Hill
#
# Bulk Modulus (GPa) = 67.86311 67.95862 67.91087
# Shear Modulus (GPa) = 23.29060 25.15821 24.22440
#
# Velocity S-wave (km/s) = 3.29371 3.42322 3.35909
# Velocity P-wave (km/s) = 6.78782 6.87597 6.83204
#
# Compressibility (1/GPa) = 0.01473555
#
# Stress axis : x y z
#
# Youngs Moduli (GPa) = 74.45422 74.45422 97.31174
#
# Poissons Ratio (x) = 0.46557 0.24076
# Poissons Ratio (y) = 0.46557 0.24076
# Poissons Ratio (z) = 0.18421 0.18421
#
# Static dielectric constant tensor:
#      x y z
#    x 3.820450 0.000000 0.000000 
#    y 0.000000 3.820450 0.000000 
#    z 0.000000 0.000000 4.285230 
# 
# 
# High freq. dielectric constant tensor:
#      x y z
#    x 1.834810 0.000000 0.000000 
#    y 0.000000 1.834810 0.000000 
#    z 0.000000 0.000000 1.862020 
# 
# From -- ./inp_files/451.got.cif
#   From: 2010.03.12/outbox.cif.g09.slc.cpg/sg109_1_cif.got.tgz:451.got - 2010.04.14 01:55:16.
