data_PCOD8307427
_publ_section_title
;
Structure prediction by ZEFSAII (Michael W. Deem and Ramdas Pophale) SiO2 
 PCOD8307427
Probable space group: P 42 B C
;
_chemical_formula_sum "Si O2"
_cell_formula_units_Z 40
_cell_length_a 13.585118
_cell_length_b 13.585118
_cell_length_c 8.358435
_cell_angle_alpha 90.000000
_cell_angle_beta 90.000000
_cell_angle_gamma 90.000000
_cell_volume 1542.594575
_symmetry_space_group_name_H-M "P 42 B C"
_symmetry_group_IT_number 106
_symmetry_cell_setting 'tetragonal'
loop_
_space_group_symop_operation_xyz
x,y,z
-y,x,1/2+z
-x,-y,z
y,-x,1/2+z
1/2-x,1/2+y,z
1/2+x,1/2-y,z
1/2-y,1/2-x,1/2+z
1/2+y,1/2+x,1/2+z
loop_
_atom_site_type_symbol
_atom_site_label
_atom_site_fract_x
_atom_site_fract_y
_atom_site_fract_z
Si Si1 0.999063 0.307842 0.430140
Si Si2 0.660503 0.932627 0.283499
Si Si3 0.688197 0.258548 0.248283
Si Si4 0.351474 0.618718 0.760566
Si Si5 0.026801 0.201909 0.996877
O O1 0.990332 0.338728 0.615388
O O2 0.949597 0.390789 0.313553
O O3 0.931223 0.213649 0.398283
O O4 0.111400 0.283557 0.381224
O O5 0.748974 0.853216 0.301710
O O6 0.687682 0.000920 0.435623
O O7 0.770099 0.176864 0.211047
O O8 0.629505 0.284965 0.088149
O O9 0.458714 0.630394 0.842337
O O10 0.352585 0.555157 0.601043
#
# Coordination Sequence:
#
# PCOD8307427 Si02
#       5
#     8   8   8   8   8
#     4  10  21  41  68 103 143 194 248 308 377 448
#     4  11  22  41  68 102 149 191 251 317 373 461
#     4  10  22  42  70 103 144 199 248 303 382 453
#     4  10  23  44  70 106 149 196 249 304 379 453
#     4  11  24  42  72 110 146 199 249 317 382 460
#
# _framework density 25.930340999999999
#
# number of rings (size 3 to 8) (size 9 to 14) (size 15 to 20)
#    0.000    1.600    2.000    3.600    5.600    0.000 
#    0.000    9.000    0.000   12.000    0.000    0.000 
#    0.000    0.000    0.000    0.000    0.000    0.000 
#
# Total GULP energy -495594.613241 kJ/mol
# GULP energy per Si atom -12389.865331 kJ/mol
# Density = 2.587132 g / cm^3
# Si number density = 25.930341 Si / 1000 Ang^3
#
#
#
# Elastic Constant Matrix: (Units=GPa)
#
#
# Indices 1 2 3 4 5 6 
#
# 1 115.6782 27.6371 44.1998 0.0000 0.0000 0.0000
# 2 27.6371 115.6782 44.1998 0.0000 0.0000 0.0000
# 3 44.1998 44.1998 148.2948 0.0000 0.0000 0.0000
# 4 0.0000 0.0000 0.0000 35.3040 0.0000 0.0000
# 5 0.0000 0.0000 0.0000 0.0000 35.3040 0.0000
# 6 0.0000 0.0000 0.0000 0.0000 0.0000 -1.6878
#
#
#
# Elastic Compliance Matrix: (Units=1/GPa)
#
#
# Indices 1 2 3 4 5 6 
#
# 1 0.009954 -0.001404 -0.002548 0.000000 0.000000 0.000000
# 2 -0.001404 0.009954 -0.002548 0.000000 0.000000 0.000000
# 3 -0.002548 -0.002548 0.008262 0.000000 0.000000 0.000000
# 4 0.000000 0.000000 0.000000 0.028325 0.000000 0.000000
# 5 0.000000 0.000000 0.000000 0.000000 0.028325 0.000000
# 6 0.000000 0.000000 0.000000 0.000000 0.000000 -0.592493
#
#
# Mechanical properties :
#
#
# Convention : Reuss Voigt Hill
#
# Bulk Modulus (GPa) = 65.92663 67.96940 66.94802
# Shear Modulus (GPa) = -10.21213 31.35836 10.57312
#
# Velocity S-wave (km/s) = -1.98667 3.48132 2.02147
# Velocity P-wave (km/s) = 4.49636 6.51373 5.59669
#
# Compressibility (1/GPa) = 0.01516838
#
# Stress axis : x y z
#
# Youngs Moduli (GPa) = 100.46361 100.46361 121.03159
#
# Poissons Ratio (x) = 0.14110 0.30841
# Poissons Ratio (y) = 0.14110 0.30841
# Poissons Ratio (z) = 0.25600 0.25600
#
# Static dielectric constant tensor:
#      x y z
#    x 4.725010 0.000000 0.000000 
#    y 0.000000 4.725010 0.000000 
#    z 0.000000 0.000000 4.624000 
# 
# 
# High freq. dielectric constant tensor:
#      x y z
#    x 2.033400 0.000000 0.000000 
#    y 0.000000 2.033400 0.000000 
#    z 0.000000 0.000000 2.047380 
# 
# From -- ./inp_files/396.got.cif
#   From: 2010.03.12/outbox.cif.g09.slc.cpg/sg106_cif.got.tgz:396.got - 2010.04.14 01:48:02.
