data_PCOD8307839
_publ_section_title
;
Structure prediction by ZEFSAII (Michael W. Deem and Ramdas Pophale) SiO2 
 PCOD8307839
Probable space group: I 41 M D
;
_chemical_formula_sum "Si O2"
_cell_formula_units_Z 96
_cell_length_a 18.062314
_cell_length_b 18.062314
_cell_length_c 18.071074
_cell_angle_alpha 90.000000
_cell_angle_beta 90.000000
_cell_angle_gamma 90.000000
_cell_volume 5895.637059
_symmetry_space_group_name_H-M "I 41 M D"
_symmetry_group_IT_number 109
_symmetry_cell_setting 'tetragonal'
loop_
_space_group_symop_operation_xyz
x,y,z
-y,1/2+x,1/4+z
-x,-y,z
y,1/2-x,1/4+z
-x,y,z
x,-y,z
-y,1/2-x,1/4+z
y,1/2+x,1/4+z
1/2+x,1/2+y,1/2+z
1/2-y,x,3/4+z
1/2-x,1/2-y,1/2+z
1/2+y,-x,3/4+z
1/2-x,1/2+y,1/2+z
1/2+x,1/2-y,1/2+z
1/2-y,-x,3/4+z
1/2+y,x,3/4+z
loop_
_atom_site_type_symbol
_atom_site_label
_atom_site_fract_x
_atom_site_fract_y
_atom_site_fract_z
Si Si1 0.783309 0.752033 0.543500
Si Si2 0.871372 0.801026 0.409086
Si Si3 0.000000 0.918201 0.212483
Si Si4 0.181243 0.705907 0.158207
Si Si5 0.085543 0.416949 0.217109
Si Si6 0.363520 0.366506 0.625241
Si Si7 0.000000 0.085436 0.386482
O O1 0.839998 0.796898 0.492661
O O2 0.821153 0.689846 0.596549
O O3 0.723373 0.710909 0.490534
O O4 0.745954 0.811948 0.598875
O O5 0.902447 0.717559 0.392584
O O6 0.929620 0.867200 0.412685
O O7 0.923881 0.879743 0.188791
O O8 0.000000 0.918563 0.299551
O O9 0.000000 0.000000 0.178195
O O10 0.127182 0.636352 0.160002
O O11 0.142362 0.777934 0.122689
O O12 0.115367 0.500000 0.205649
O O13 0.098236 0.393491 0.300884
O O14 0.000000 0.411481 0.197583
O O15 0.000000 0.000000 0.417984
#
# Coordination Sequence:
#
# PCOD8307839 Si02
#       7
#    16  16   8  16  16  16   8
#     4   8  17  33  55  76 100 129 180 223 251 316
#     4  10  19  35  53  79 105 141 174 220 269 319
#     4  11  22  32  44  78 118 143 175 210 245 324
#     4  10  17  34  51  75 100 136 181 218 256 312
#     4  11  22  32  45  76 114 143 173 213 259 317
#     4  10  20  30  53  74 103 151 175 205 252 326
#     4  11  24  36  50  75 113 142 178 220 265 322
#
# _framework density 16.283227
#
# number of rings (size 3 to 8) (size 9 to 14) (size 15 to 20)
#    0.000    2.333    4.167    2.500    3.500    0.000 
#    1.500    0.833    0.000    0.000    0.000    0.000 
#    0.000    0.000    0.000    0.000    0.000    0.000 
#
# Total GULP energy -594700.750259 kJ/mol
# GULP energy per Si atom -12389.598964 kJ/mol
# Density = 1.624617 g / cm^3
# Si number density = 16.283227 Si / 1000 Ang^3
#
#
#
# Elastic Constant Matrix: (Units=GPa)
#
#
# Indices 1 2 3 4 5 6 
#
# 1 99.8764 59.1013 37.0546 0.0000 0.0000 0.0000
# 2 59.1013 99.8764 37.0546 0.0000 0.0000 0.0000
# 3 37.0546 37.0546 79.4407 0.0000 0.0000 0.0000
# 4 0.0000 0.0000 0.0000 22.4680 0.0000 0.0000
# 5 0.0000 0.0000 0.0000 0.0000 22.4680 0.0000
# 6 0.0000 0.0000 0.0000 0.0000 0.0000 30.2496
#
#
#
# Elastic Compliance Matrix: (Units=1/GPa)
#
#
# Indices 1 2 3 4 5 6 
#
# 1 0.016281 -0.008243 -0.003749 0.000000 0.000000 0.000000
# 2 -0.008243 0.016281 -0.003749 0.000000 0.000000 0.000000
# 3 -0.003749 -0.003749 0.016086 0.000000 0.000000 0.000000
# 4 0.000000 0.000000 0.000000 0.044508 0.000000 0.000000
# 5 0.000000 0.000000 0.000000 0.000000 0.044508 0.000000
# 6 0.000000 0.000000 0.000000 0.000000 0.000000 0.033058
#
#
# Mechanical properties :
#
#
# Convention : Reuss Voigt Hill
#
# Bulk Modulus (GPa) = 58.25970 60.62385 59.44178
# Shear Modulus (GPa) = 24.04686 24.76932 24.40809
#
# Velocity S-wave (km/s) = 3.84707 3.90443 3.87586
# Velocity P-wave (km/s) = 7.45586 7.59196 7.52422
#
# Compressibility (1/GPa) = 0.01716452
#
# Stress axis : x y z
#
# Youngs Moduli (GPa) = 61.41998 61.41998 62.16731
#
# Poissons Ratio (x) = 0.50631 0.23308
# Poissons Ratio (y) = 0.50631 0.23308
# Poissons Ratio (z) = 0.23028 0.23028
#
# Static dielectric constant tensor:
#      x y z
#    x 3.165150 0.000000 0.000000 
#    y 0.000000 3.165150 0.000000 
#    z 0.000000 0.000000 3.060330 
# 
# 
# High freq. dielectric constant tensor:
#      x y z
#    x 1.613670 0.000000 0.000000 
#    y 0.000000 1.613670 0.000000 
#    z 0.000000 0.000000 1.621730 
# 
# From -- ./inp_files/3167.got.cif
#   From: 2010.03.12/outbox.cif.g09.slc.cpg/sg109_2_cif.got.tgz:3167.got - 2010.04.14 01:55:16.
