data_PCOD8307405
_publ_section_title
;
Structure prediction by ZEFSAII (Michael W. Deem and Ramdas Pophale) SiO2 
 PCOD8307405
Probable space group: P 42 B C
;
_chemical_formula_sum "Si O2"
_cell_formula_units_Z 52
_cell_length_a 18.000911
_cell_length_b 18.000911
_cell_length_c 9.052947
_cell_angle_alpha 90.000000
_cell_angle_beta 90.000000
_cell_angle_gamma 90.000000
_cell_volume 2933.451736
_symmetry_space_group_name_H-M "P 42 B C"
_symmetry_group_IT_number 106
_symmetry_cell_setting 'tetragonal'
loop_
_space_group_symop_operation_xyz
x,y,z
-y,x,1/2+z
-x,-y,z
y,-x,1/2+z
1/2-x,1/2+y,z
1/2+x,1/2-y,z
1/2-y,1/2-x,1/2+z
1/2+y,1/2+x,1/2+z
loop_
_atom_site_type_symbol
_atom_site_label
_atom_site_fract_x
_atom_site_fract_y
_atom_site_fract_z
Si Si1 0.504241 0.719866 0.814420
Si Si2 0.500000 0.500000 0.890760
Si Si3 0.608859 0.000154 0.317076
Si Si4 0.999846 0.608859 0.464443
Si Si5 0.719866 0.495759 0.967100
Si Si6 0.883338 0.891352 0.478605
Si Si7 0.891352 0.116662 0.302914
O O1 0.499986 0.805171 0.860475
O O2 0.509296 0.708361 0.640760
O O3 0.580540 0.684988 0.878802
O O4 0.428268 0.679468 0.871511
O O5 0.542194 0.557525 0.996394
O O6 0.442475 0.542194 0.785126
O O7 0.573064 0.073064 0.390760
O O8 0.572372 0.927628 0.390760
O O9 0.595946 0.000179 0.140760
O O10 0.999986 0.694829 0.421045
O O11 0.679468 0.571732 0.910009
O O12 0.684988 0.419460 0.902718
O O13 0.851718 0.871670 0.640760
#
# Coordination Sequence:
#
# PCOD8307405 Si02
#       7
#     8   4   8   8   8   8   8
#     4   9  19  33  48  72 104 131 159 199 242 284
#     4   8  14  24  40  66  98 128 164 202 234 268
#     4  10  20  36  56  75  95 122 161 206 247 288
#     4  10  20  36  56  75  95 122 161 206 247 288
#     4   9  19  33  48  72 104 131 159 199 242 284
#     4   9  16  27  46  70  98 132 164 193 232 284
#     4   9  16  27  46  70  98 132 164 193 232 284
#
# _framework density 17.726555999999999
#
# number of rings (size 3 to 8) (size 9 to 14) (size 15 to 20)
#    0.000    2.769    0.000    2.308    0.000    9.846 
#    0.000    1.538    0.000    7.385    0.000    0.000 
#    0.000    0.000    0.000    0.000    0.000    0.000 
#
# Total GULP energy -644336.173158 kJ/mol
# GULP energy per Si atom -12391.080253 kJ/mol
# Density = 1.768621 g / cm^3
# Si number density = 17.726556 Si / 1000 Ang^3
#
#
#
# Elastic Constant Matrix: (Units=GPa)
#
#
# Indices 1 2 3 4 5 6 
#
# 1 142.2083 66.6785 44.1335 0.0000 0.0000 0.0000
# 2 66.6785 142.2083 44.1335 0.0000 0.0000 0.0000
# 3 44.1335 44.1335 66.8219 0.0000 0.0000 0.0000
# 4 0.0000 0.0000 0.0000 21.7714 0.0000 0.0000
# 5 0.0000 0.0000 0.0000 0.0000 21.7714 0.0000
# 6 0.0000 0.0000 0.0000 0.0000 0.0000 13.4705
#
#
#
# Elastic Compliance Matrix: (Units=1/GPa)
#
#
# Indices 1 2 3 4 5 6 
#
# 1 0.009940 -0.003300 -0.004386 0.000000 0.000000 0.000000
# 2 -0.003300 0.009940 -0.004386 0.000000 0.000000 0.000000
# 3 -0.004386 -0.004386 0.020759 0.000000 0.000000 0.000000
# 4 0.000000 0.000000 0.000000 0.045932 0.000000 0.000000
# 5 0.000000 0.000000 0.000000 0.000000 0.045932 0.000000
# 6 0.000000 0.000000 0.000000 0.000000 0.000000 0.074236
#
#
# Mechanical properties :
#
#
# Convention : Reuss Voigt Hill
#
# Bulk Modulus (GPa) = 60.61981 73.45883 67.03932
# Shear Modulus (GPa) = 21.15234 24.48885 22.82059
#
# Velocity S-wave (km/s) = 3.45810 3.72086 3.59188
# Velocity P-wave (km/s) = 7.08633 7.74530 7.42313
#
# Compressibility (1/GPa) = 0.01649626
#
# Stress axis : x y z
#
# Youngs Moduli (GPa) = 100.60173 100.60173 48.17294
#
# Poissons Ratio (x) = 0.33195 0.21128
# Poissons Ratio (y) = 0.33195 0.21128
# Poissons Ratio (z) = 0.44122 0.44122
#
# Static dielectric constant tensor:
#      x y z
#    x 3.281220 0.000000 0.000000 
#    y 0.000000 3.281220 0.000000 
#    z 0.000000 0.000000 3.186340 
# 
# 
# High freq. dielectric constant tensor:
#      x y z
#    x 1.672730 0.000000 0.000000 
#    y 0.000000 1.672730 0.000000 
#    z 0.000000 0.000000 1.683870 
# 
# From -- ./inp_files/498.got.cif
#   From: 2010.03.12/outbox.cif.g09.slc.cpg/sg106_cif.got.tgz:498.got - 2010.04.14 01:48:02.
