data_PCOD8307896
_publ_section_title
;
Structure prediction by ZEFSAII (Michael W. Deem and Ramdas Pophale) SiO2 
 PCOD8307896
Probable space group: I 41 M D
;
_chemical_formula_sum "Si O2"
_cell_formula_units_Z 112
_cell_length_a 14.006361
_cell_length_b 14.006361
_cell_length_c 29.820036
_cell_angle_alpha 90.000000
_cell_angle_beta 90.000000
_cell_angle_gamma 90.000000
_cell_volume 5850.039450
_symmetry_space_group_name_H-M "I 41 M D"
_symmetry_group_IT_number 109
_symmetry_cell_setting 'tetragonal'
loop_
_space_group_symop_operation_xyz
x,y,z
-y,1/2+x,1/4+z
-x,-y,z
y,1/2-x,1/4+z
-x,y,z
x,-y,z
-y,1/2-x,1/4+z
y,1/2+x,1/4+z
1/2+x,1/2+y,1/2+z
1/2-y,x,3/4+z
1/2-x,1/2-y,1/2+z
1/2+y,-x,3/4+z
1/2-x,1/2+y,1/2+z
1/2+x,1/2-y,1/2+z
1/2-y,-x,3/4+z
1/2+y,x,3/4+z
loop_
_atom_site_type_symbol
_atom_site_label
_atom_site_fract_x
_atom_site_fract_y
_atom_site_fract_z
Si Si1 0.111081 0.389139 0.811160
Si Si2 0.212725 0.771857 0.636879
Si Si3 0.285704 0.779803 0.232936
Si Si4 0.327710 0.608564 0.604613
Si Si5 0.896749 0.743902 0.039793
Si Si6 0.112305 0.108666 0.872008
Si Si7 0.391702 0.895064 0.954301
O O1 0.132355 0.500000 0.803670
O O2 0.164018 0.356267 0.856597
O O3 0.143525 0.334385 0.766342
O O4 0.000000 0.368358 0.818527
O O5 0.165929 0.736801 0.683882
O O6 0.233713 0.675618 0.608352
O O7 0.311454 0.828989 0.650032
O O8 0.259686 0.676014 0.249786
O O9 0.186246 0.835211 0.230123
O O10 0.299181 0.500000 0.592225
O O11 0.392554 0.655290 0.566170
O O12 0.384978 0.613641 0.650840
O O13 0.879701 0.652274 0.071702
O O14 0.000000 0.737086 0.017148
O O15 0.000000 0.131620 0.872318
O O16 0.131771 0.000000 0.889690
O O17 0.500000 0.885960 0.970619
O O18 0.351120 0.000000 0.966899
#
# Coordination Sequence:
#
# PCOD8307896 Si02
#       7
#    16  16  16  16  16  16  16
#     4  11  24  44  67  89 117 156 201 251 309 366
#     4  10  21  37  61  89 117 154 200 252 295 356
#     4  11  22  37  59  88 119 158 197 247 297 365
#     4   9  17  33  56  80 111 153 193 235 285 341
#     4  10  20  32  49  81 116 152 193 237 287 350
#     4   9  17  33  58  84 114 155 199 239 289 351
#     4   9  18  33  55  82 113 152 200 246 287 341
#
# _framework density 19.145168999999999
#
# number of rings (size 3 to 8) (size 9 to 14) (size 15 to 20)
#    0.000    2.143    2.857    1.286    0.000    7.143 
#    0.000    0.000    0.000    2.143    0.000    0.000 
#    0.000    0.000    0.000    0.000    0.000    0.000 
#
# Total GULP energy -694041.927338 kJ/mol
# GULP energy per Si atom -12393.605845 kJ/mol
# Density = 1.910159 g / cm^3
# Si number density = 19.145169 Si / 1000 Ang^3
#
#
#
# Elastic Constant Matrix: (Units=GPa)
#
#
# Indices 1 2 3 4 5 6 
#
# 1 105.6454 40.8889 36.5103 0.0000 0.0000 0.0000
# 2 40.8889 105.6454 36.5103 0.0000 0.0000 0.0000
# 3 36.5103 36.5103 76.1402 0.0000 0.0000 0.0000
# 4 0.0000 0.0000 0.0000 20.6036 0.0000 0.0000
# 5 0.0000 0.0000 0.0000 0.0000 20.6036 0.0000
# 6 0.0000 0.0000 0.0000 0.0000 0.0000 27.8307
#
#
#
# Elastic Compliance Matrix: (Units=1/GPa)
#
#
# Indices 1 2 3 4 5 6 
#
# 1 0.012205 -0.003238 -0.004300 0.000000 0.000000 0.000000
# 2 -0.003238 0.012205 -0.004300 0.000000 0.000000 0.000000
# 3 -0.004300 -0.004300 0.017257 0.000000 0.000000 0.000000
# 4 0.000000 0.000000 0.000000 0.048535 0.000000 0.000000
# 5 0.000000 0.000000 0.000000 0.000000 0.048535 0.000000
# 6 0.000000 0.000000 0.000000 0.000000 0.000000 0.035932
#
#
# Mechanical properties :
#
#
# Convention : Reuss Voigt Hill
#
# Bulk Modulus (GPa) = 55.57998 57.25000 56.41499
# Shear Modulus (GPa) = 24.46891 25.37567 24.92229
#
# Velocity S-wave (km/s) = 3.57889 3.64460 3.61190
# Velocity P-wave (km/s) = 6.79498 6.90499 6.85021
#
# Compressibility (1/GPa) = 0.01799209
#
# Stress axis : x y z
#
# Youngs Moduli (GPa) = 81.93544 81.93544 57.94653
#
# Poissons Ratio (x) = 0.26528 0.24916
# Poissons Ratio (y) = 0.26528 0.24916
# Poissons Ratio (z) = 0.35231 0.35231
#
# Static dielectric constant tensor:
#      x y z
#    x 3.666130 0.000000 0.000000 
#    y 0.000000 3.666130 0.000000 
#    z 0.000000 0.000000 3.263770 
# 
# 
# High freq. dielectric constant tensor:
#      x y z
#    x 1.745030 0.000000 0.000000 
#    y 0.000000 1.745030 0.000000 
#    z 0.000000 0.000000 1.722950 
# 
# From -- ./inp_files/5743.got.cif
#   From: 2010.03.12/outbox.cif.g09.slc.cpg/sg109_3_cif.got.tgz:5743.got - 2010.04.14 01:55:16.
