data_PCOD8307825
_publ_section_title
;
Structure prediction by ZEFSAII (Michael W. Deem and Ramdas Pophale) SiO2 
 PCOD8307825
Probable space group: I 41 M D
;
_chemical_formula_sum "Si O2"
_cell_formula_units_Z 80
_cell_length_a 18.448216
_cell_length_b 18.448216
_cell_length_c 20.758402
_cell_angle_alpha 90.000000
_cell_angle_beta 90.000000
_cell_angle_gamma 90.000000
_cell_volume 7064.845486
_symmetry_space_group_name_H-M "I 41 M D"
_symmetry_group_IT_number 109
_symmetry_cell_setting 'tetragonal'
loop_
_space_group_symop_operation_xyz
x,y,z
-y,1/2+x,1/4+z
-x,-y,z
y,1/2-x,1/4+z
-x,y,z
x,-y,z
-y,1/2-x,1/4+z
y,1/2+x,1/4+z
1/2+x,1/2+y,1/2+z
1/2-y,x,3/4+z
1/2-x,1/2-y,1/2+z
1/2+y,-x,3/4+z
1/2-x,1/2+y,1/2+z
1/2+x,1/2-y,1/2+z
1/2-y,-x,3/4+z
1/2+y,x,3/4+z
loop_
_atom_site_type_symbol
_atom_site_label
_atom_site_fract_x
_atom_site_fract_y
_atom_site_fract_z
Si Si1 0.580213 0.282768 0.616180
Si Si2 0.581712 0.084917 0.795477
Si Si3 0.282768 0.580213 0.224801
Si Si4 0.918288 0.084917 0.795504
Si Si5 0.849649 0.349649 0.170490
O O1 0.500000 0.279521 0.648291
O O2 0.606231 0.366237 0.606096
O O3 0.575422 0.250000 0.545490
O O4 0.636763 0.236223 0.658652
O O5 0.500000 0.104569 0.815677
O O6 0.602499 0.127753 0.731325
O O7 0.591078 0.000000 0.779892
O O8 0.279521 0.500000 0.192690
O O9 0.366236 0.606232 0.234885
O O10 0.236223 0.636763 0.182329
O O11 0.897501 0.127753 0.859656
O O12 0.000000 0.104569 0.775304
O O13 0.908922 0.000000 0.811088
#
# Coordination Sequence:
#
# PCOD8307825 Si02
#       5
#    16  16  16  16  16
#     4   8  14  21  27  39  58  76  97 124 143 158
#     4   9  15  21  29  41  58  80 102 120 138 163
#     4   8  14  21  27  39  58  76  97 124 143 158
#     4   9  15  21  29  41  58  80 102 120 138 163
#     4  10  14  19  30  42  58  80 102 119 138 162
#
# _framework density 11.323672999999999
#
# number of rings (size 3 to 8) (size 9 to 14) (size 15 to 20)
#    0.000    3.200    0.000    6.000    0.000    1.600 
#    0.000    0.000    0.000    0.000    0.000    0.000 
#    0.000   14.400    0.000    0.800    0.000    0.000 
#
# Total GULP energy -495536.244581 kJ/mol
# GULP energy per Si atom -12388.406115 kJ/mol
# Density = 1.129790 g / cm^3
# Si number density = 11.323673 Si / 1000 Ang^3
#
#
#
# Elastic Constant Matrix: (Units=GPa)
#
#
# Indices 1 2 3 4 5 6 
#
# 1 85.8680 37.0437 31.1227 0.0000 0.0000 0.0000
# 2 37.0437 85.8680 31.1227 0.0000 0.0000 0.0000
# 3 31.1227 31.1227 30.0246 0.0000 0.0000 0.0000
# 4 0.0000 0.0000 0.0000 17.5594 0.0000 0.0000
# 5 0.0000 0.0000 0.0000 0.0000 17.5594 0.0000
# 6 0.0000 0.0000 0.0000 0.0000 0.0000 14.1993
#
#
#
# Elastic Compliance Matrix: (Units=1/GPa)
#
#
# Indices 1 2 3 4 5 6 
#
# 1 0.018804 -0.001678 -0.017753 0.000000 0.000000 0.000000
# 2 -0.001678 0.018804 -0.017753 0.000000 0.000000 0.000000
# 3 -0.017753 -0.017753 0.070110 0.000000 0.000000 0.000000
# 4 0.000000 0.000000 0.000000 0.056950 0.000000 0.000000
# 5 0.000000 0.000000 0.000000 0.000000 0.056950 0.000000
# 6 0.000000 0.000000 0.000000 0.000000 0.000000 0.070426
#
#
# Mechanical properties :
#
#
# Convention : Reuss Voigt Hill
#
# Bulk Modulus (GPa) = 29.98340 44.48208 37.23274
# Shear Modulus (GPa) = 13.24413 16.69504 14.96958
#
# Velocity S-wave (km/s) = 3.42365 3.84389 3.63984
# Velocity P-wave (km/s) = 6.49342 7.68559 7.11452
#
# Compressibility (1/GPa) = 0.03335179
#
# Stress axis : x y z
#
# Youngs Moduli (GPa) = 53.18037 53.18037 14.26338
#
# Poissons Ratio (x) = 0.08922 0.25321
# Poissons Ratio (y) = 0.08922 0.25321
# Poissons Ratio (z) = 0.94409 0.94409
#
# Static dielectric constant tensor:
#      x y z
#    x 2.695420 0.000000 0.000000 
#    y 0.000000 2.695420 0.000000 
#    z 0.000000 0.000000 2.141180 
# 
# 
# High freq. dielectric constant tensor:
#      x y z
#    x 1.418380 0.000000 0.000000 
#    y 0.000000 1.418380 0.000000 
#    z 0.000000 0.000000 1.382740 
# 
# From -- ./inp_files/2579.got.cif
#   From: 2010.03.12/outbox.cif.g09.slc.cpg/sg109_2_cif.got.tgz:2579.got - 2010.04.14 01:55:16.
