data_PCOD8307572
_publ_section_title
;
Structure prediction by ZEFSAII (Michael W. Deem and Ramdas Pophale) SiO2 
 PCOD8307572
Probable space group: I 4 M M
;
_chemical_formula_sum "Si O2"
_cell_formula_units_Z 128
_cell_length_a 19.293899
_cell_length_b 19.293899
_cell_length_c 20.206418
_cell_angle_alpha 90.000000
_cell_angle_beta 90.000000
_cell_angle_gamma 90.000000
_cell_volume 7521.930810
_symmetry_space_group_name_H-M "I 4 M M"
_symmetry_group_IT_number 107
_symmetry_cell_setting 'tetragonal'
loop_
_space_group_symop_operation_xyz
x,y,z
-y,x,z
-x,-y,z
y,-x,z
-x,y,z
x,-y,z
-y,-x,z
y,x,z
1/2+x,1/2+y,1/2+z
1/2-y,1/2+x,1/2+z
1/2-x,1/2-y,1/2+z
1/2+y,1/2-x,1/2+z
1/2-x,1/2+y,1/2+z
1/2+x,1/2-y,1/2+z
1/2-y,1/2-x,1/2+z
1/2+y,1/2+x,1/2+z
loop_
_atom_site_type_symbol
_atom_site_label
_atom_site_fract_x
_atom_site_fract_y
_atom_site_fract_z
Si Si1 0.420862 0.691471 0.389620
Si Si2 0.922059 0.312795 0.293123
Si Si3 0.314399 0.575752 0.538123
Si Si4 0.575987 0.197002 0.645817
Si Si5 0.843174 0.728861 0.649598
Si Si6 0.081482 0.301740 0.779288
Si Si7 0.078628 0.187932 0.540258
Si Si8 0.920458 0.807300 0.389172
O O1 0.500000 0.667509 0.379472
O O2 0.373408 0.626593 0.369441
O O3 0.405549 0.715156 0.465247
O O4 0.403965 0.756950 0.344311
O O5 0.920751 0.275389 0.221297
O O6 0.875431 0.381699 0.291409
O O7 0.893415 0.257251 0.345766
O O8 0.000000 0.335922 0.312390
O O9 0.348242 0.500000 0.534834
O O10 0.373200 0.626801 0.561889
O O11 0.256824 0.579071 0.593054
O O12 0.500000 0.157943 0.636955
O O13 0.646387 0.154463 0.634294
O O14 0.767185 0.767185 0.655019
O O15 0.885041 0.740074 0.717711
O O16 0.883779 0.758895 0.587885
O O17 0.000000 0.314390 0.766654
O O18 0.111962 0.111962 0.546495
O O19 0.086299 0.215663 0.465491
O O20 0.000000 0.180358 0.562745
O O21 0.874407 0.874407 0.372937
O O22 0.000000 0.825951 0.371497
#
# Coordination Sequence:
#
# PCOD8307572 Si02
#       8
#    16  16  16  16  16  16  16  16
#     4   9  18  31  46  67  94 123 156 191 228 271
#     4   9  19  34  50  69  93 123 158 195 237 285
#     4   9  17  29  45  65  91 122 154 190 229 271
#     4   9  18  32  48  67  93 124 158 196 238 283
#     4  10  19  31  50  74  98 127 161 198 241 287
#     4  10  20  33  50  71  94 122 156 197 241 282
#     4   9  18  32  50  73 100 129 160 196 240 290
#     4   9  18  32  50  73 100 129 161 197 239 289
#
# _framework density 17.016908000000001
#
# number of rings (size 3 to 8) (size 9 to 14) (size 15 to 20)
#    0.000    2.750    0.000    1.125    0.000    4.750 
#    0.000    5.000    0.000    1.125    0.000    7.000 
#    0.000    5.000    0.000    0.000    0.000    0.000 
#
# Total GULP energy -793037.379641 kJ/mol
# GULP energy per Si atom -12391.209057 kJ/mol
# Density = 1.697818 g / cm^3
# Si number density = 17.016908 Si / 1000 Ang^3
#
#
#
# Elastic Constant Matrix: (Units=GPa)
#
#
# Indices 1 2 3 4 5 6 
#
# 1 93.9997 58.0471 49.8611 0.0000 0.0000 0.0000
# 2 58.0471 93.9997 49.8611 0.0000 0.0000 0.0000
# 3 49.8611 49.8611 81.0588 0.0000 0.0000 0.0000
# 4 0.0000 0.0000 0.0000 24.7662 0.0000 0.0000
# 5 0.0000 0.0000 0.0000 0.0000 24.7662 0.0000
# 6 0.0000 0.0000 0.0000 0.0000 0.0000 21.1437
#
#
#
# Elastic Compliance Matrix: (Units=1/GPa)
#
#
# Indices 1 2 3 4 5 6 
#
# 1 0.019420 -0.008395 -0.006782 0.000000 0.000000 0.000000
# 2 -0.008395 0.019420 -0.006782 0.000000 0.000000 0.000000
# 3 -0.006782 -0.006782 0.020680 0.000000 0.000000 0.000000
# 4 0.000000 0.000000 0.000000 0.040378 0.000000 0.000000
# 5 0.000000 0.000000 0.000000 0.000000 0.040378 0.000000
# 6 0.000000 0.000000 0.000000 0.000000 0.000000 0.047295
#
#
# Mechanical properties :
#
#
# Convention : Reuss Voigt Hill
#
# Bulk Modulus (GPa) = 64.09058 64.95519 64.52289
# Shear Modulus (GPa) = 21.12500 21.55447 21.33974
#
# Velocity S-wave (km/s) = 3.52719 3.56286 3.54507
# Velocity P-wave (km/s) = 7.37108 7.42827 7.39973
#
# Compressibility (1/GPa) = 0.01560292
#
# Stress axis : x y z
#
# Youngs Moduli (GPa) = 51.49446 51.49446 48.35655
#
# Poissons Ratio (x) = 0.43229 0.32793
# Poissons Ratio (y) = 0.43229 0.32793
# Poissons Ratio (z) = 0.34921 0.34921
#
# Static dielectric constant tensor:
#      x y z
#    x 3.265530 0.000000 0.000000 
#    y 0.000000 3.265530 0.000000 
#    z 0.000000 0.000000 3.401190 
# 
# 
# High freq. dielectric constant tensor:
#      x y z
#    x 1.648200 0.000000 0.000000 
#    y 0.000000 1.648200 0.000000 
#    z 0.000000 0.000000 1.670980 
# 
# From -- ./inp_files/4389.got.cif
#   From: 2010.03.12/outbox.cif.g09.slc.cpg/sg107_3_cif.got.tgz:4389.got - 2010.04.14 01:49:11.
