data_PCOD8307942
_publ_section_title
;
Structure prediction by ZEFSAII (Michael W. Deem and Ramdas Pophale) SiO2 
 PCOD8307942
Probable space group: I 41 M D
;
_chemical_formula_sum "Si O2"
_cell_formula_units_Z 68
_cell_length_a 22.635955
_cell_length_b 22.635955
_cell_length_c 6.695688
_cell_angle_alpha 90.000000
_cell_angle_beta 90.000000
_cell_angle_gamma 90.000000
_cell_volume 3430.779863
_symmetry_space_group_name_H-M "I 41 M D"
_symmetry_group_IT_number 109
_symmetry_cell_setting 'tetragonal'
loop_
_space_group_symop_operation_xyz
x,y,z
-y,1/2+x,1/4+z
-x,-y,z
y,1/2-x,1/4+z
-x,y,z
x,-y,z
-y,1/2-x,1/4+z
y,1/2+x,1/4+z
1/2+x,1/2+y,1/2+z
1/2-y,x,3/4+z
1/2-x,1/2-y,1/2+z
1/2+y,-x,3/4+z
1/2-x,1/2+y,1/2+z
1/2+x,1/2-y,1/2+z
1/2-y,-x,3/4+z
1/2+y,x,3/4+z
loop_
_atom_site_type_symbol
_atom_site_label
_atom_site_fract_x
_atom_site_fract_y
_atom_site_fract_z
Si Si1 0.500000 0.205715 0.813680
Si Si2 0.665507 0.000000 0.940109
Si Si3 0.870575 0.000000 0.460274
Si Si4 0.184572 0.593861 0.109753
Si Si5 0.906217 0.316602 0.990948
Si Si6 0.000000 0.000000 0.537397
Si Si7 0.627367 0.000000 0.351378
O O1 0.500000 0.276283 0.830114
O O2 0.557885 0.188120 0.693751
O O3 0.500000 0.172950 0.023502
O O4 0.660726 0.941252 0.804564
O O5 0.615683 0.000000 0.110392
O O6 0.858948 0.059134 0.588599
O O7 0.939951 0.000000 0.402885
O O8 0.155874 0.657661 0.069662
O O9 0.254495 0.602905 0.128126
O O10 0.165657 0.556301 0.917390
O O11 0.000000 0.941008 0.680597
#
# Coordination Sequence:
#
# PCOD8307942 Si02
#       7
#     8   8   8  16  16   4   8
#     4   9  20  37  60  84 110 155 198 239 298 364
#     4   9  20  37  60  84 112 161 196 241 298 360
#     4  11  21  40  57  88 121 156 197 249 302 364
#     4  10  21  38  62  85 117 156 201 243 296 363
#     4  10  21  38  62  84 116 159 197 246 299 356
#     4  12  24  32  58  96 120 150 200 248 310 364
#     4  11  21  40  57  88 121 154 195 247 308 358
#
# _framework density 19.820564999999998
#
# number of rings (size 3 to 8) (size 9 to 14) (size 15 to 20)
#    0.000    1.882    2.353    3.529    3.294    0.000 
#    0.000    4.706   15.529    0.000    0.000    0.000 
#    0.000    0.000    0.000    0.000    0.000    0.000 
#
# Total GULP energy -421305.904055 kJ/mol
# GULP energy per Si atom -12391.350119 kJ/mol
# Density = 1.977545 g / cm^3
# Si number density = 19.820565 Si / 1000 Ang^3
#
#
#
# Elastic Constant Matrix: (Units=GPa)
#
#
# Indices 1 2 3 4 5 6 
#
# 1 116.4060 66.0580 33.1314 0.0000 0.0000 0.0000
# 2 66.0580 116.4060 33.1314 0.0000 0.0000 0.0000
# 3 33.1314 33.1314 98.2508 0.0000 0.0000 0.0000
# 4 0.0000 0.0000 0.0000 26.0304 0.0000 0.0000
# 5 0.0000 0.0000 0.0000 0.0000 26.0304 0.0000
# 6 0.0000 0.0000 0.0000 0.0000 0.0000 44.2766
#
#
#
# Elastic Compliance Matrix: (Units=1/GPa)
#
#
# Indices 1 2 3 4 5 6 
#
# 1 0.013054 -0.006808 -0.002106 0.000000 0.000000 0.000000
# 2 -0.006808 0.013054 -0.002106 0.000000 0.000000 0.000000
# 3 -0.002106 -0.002106 0.011598 0.000000 0.000000 0.000000
# 4 0.000000 0.000000 0.000000 0.038417 0.000000 0.000000
# 5 0.000000 0.000000 0.000000 0.000000 0.038417 0.000000
# 6 0.000000 0.000000 0.000000 0.000000 0.000000 0.022585
#
#
# Mechanical properties :
#
#
# Convention : Reuss Voigt Hill
#
# Bulk Modulus (GPa) = 63.83645 66.18938 65.01292
# Shear Modulus (GPa) = 30.41618 32.51694 31.46656
#
# Velocity S-wave (km/s) = 3.92162 4.05478 3.98876
# Velocity P-wave (km/s) = 7.26516 7.44234 7.35429
#
# Compressibility (1/GPa) = 0.01566503
#
# Stress axis : x y z
#
# Youngs Moduli (GPa) = 76.60750 76.60750 86.21893
#
# Poissons Ratio (x) = 0.52156 0.18158
# Poissons Ratio (y) = 0.52156 0.18158
# Poissons Ratio (z) = 0.16134 0.16134
#
# Static dielectric constant tensor:
#      x y z
#    x 2.820770 0.000000 0.000000 
#    y 0.000000 2.820770 0.000000 
#    z 0.000000 0.000000 3.418160 
# 
# 
# High freq. dielectric constant tensor:
#      x y z
#    x 1.771290 0.000000 0.000000 
#    y 0.000000 1.771290 0.000000 
#    z 0.000000 0.000000 1.762370 
# 
# From -- ./inp_files/577.got.cif
#   From: 2010.03.12/outbox.cif.g09.slc.cpg/sg109_1_cif.got.tgz:577.got - 2010.04.14 01:55:16.
