data_PCOD8307806
_publ_section_title
;
Structure prediction by ZEFSAII (Michael W. Deem and Ramdas Pophale) SiO2 
 PCOD8307806
Probable space group: I 4 C M
;
_chemical_formula_sum "Si O2"
_cell_formula_units_Z 96
_cell_length_a 14.312016
_cell_length_b 14.312016
_cell_length_c 25.358985
_cell_angle_alpha 90.000000
_cell_angle_beta 90.000000
_cell_angle_gamma 90.000000
_cell_volume 5194.377312
_symmetry_space_group_name_H-M "I 4 C M"
_symmetry_group_IT_number 108
_symmetry_cell_setting 'tetragonal'
loop_
_space_group_symop_operation_xyz
x,y,z
-y,x,z
-x,-y,z
y,-x,z
-x,y,1/2+z
x,-y,1/2+z
-y,-x,1/2+z
y,x,1/2+z
1/2+x,1/2+y,1/2+z
1/2-y,1/2+x,1/2+z
1/2-x,1/2-y,1/2+z
1/2+y,1/2-x,1/2+z
1/2-x,1/2+y,z
1/2+x,1/2-y,z
1/2-y,1/2-x,z
1/2+y,1/2+x,z
loop_
_atom_site_type_symbol
_atom_site_label
_atom_site_fract_x
_atom_site_fract_y
_atom_site_fract_z
Si Si1 0.485435 0.651218 0.496720
Si Si2 0.922346 0.422346 0.364007
Si Si3 0.848782 0.014566 0.116710
Si Si4 0.922347 0.577654 0.749423
Si Si5 0.561353 0.781337 0.904348
Si Si6 0.438646 0.781337 0.209081
Si Si7 0.946448 0.853890 0.306715
O O1 0.400469 0.581671 0.483869
O O2 0.500000 0.684789 0.556715
O O3 0.460678 0.739329 0.461304
O O4 0.888075 0.388075 0.306715
O O5 0.834940 0.465022 0.394006
O O6 0.000000 0.500000 0.356497
O O7 0.760671 0.039323 0.152126
O O8 0.918329 0.099531 0.129561
O O9 0.834943 0.534976 0.719423
O O10 0.000000 0.500000 0.756936
O O11 0.651083 0.848918 0.906746
O O12 0.578522 0.704849 0.858967
O O13 0.348915 0.848915 0.206684
O O14 0.421480 0.704848 0.254462
O O15 0.055018 0.881540 0.306715
#
# Coordination Sequence:
#
# PCOD8307806 Si02
#       7
#    16   8  16   8  16  16  16
#     4   9  19  40  63  81 111 153 190 229 285 339
#     4   9  18  36  58  75 112 160 182 216 285 349
#     4   9  19  40  63  81 111 153 190 229 285 339
#     4   9  18  36  58  75 112 160 182 216 285 349
#     4  11  21  38  58  86 118 146 189 236 284 338
#     4  11  21  38  58  86 118 146 189 236 284 338
#     4  11  23  39  58  83 118 155 190 227 279 342
#
# _framework density 18.481521000000001
#
# number of rings (size 3 to 8) (size 9 to 14) (size 15 to 20)
#    0.000    2.000    1.667    3.500    0.000    2.667 
#   18.000    1.667    0.000    0.000    0.000    0.000 
#    0.000    0.000    0.000    0.000    0.000    0.000 
#
# Total GULP energy -594868.836505 kJ/mol
# GULP energy per Si atom -12393.100761 kJ/mol
# Density = 1.843946 g / cm^3
# Si number density = 18.481521 Si / 1000 Ang^3
#
#
#
# Elastic Constant Matrix: (Units=GPa)
#
#
# Indices 1 2 3 4 5 6 
#
# 1 99.8781 67.8709 74.0210 0.0000 0.0000 0.0004
# 2 67.8709 99.8781 74.0210 0.0000 0.0000 -0.0004
# 3 74.0210 74.0210 135.3720 0.0000 0.0000 0.0000
# 4 0.0000 0.0000 0.0000 31.0815 0.0000 0.0000
# 5 0.0000 0.0000 0.0000 0.0000 31.0815 0.0000
# 6 0.0004 -0.0004 0.0000 0.0000 0.0000 27.8293
#
#
#
# Elastic Compliance Matrix: (Units=1/GPa)
#
#
# Indices 1 2 3 4 5 6 
#
# 1 0.021382 -0.009861 -0.006299 0.000000 0.000000 0.000000
# 2 -0.009861 0.021382 -0.006299 0.000000 0.000000 0.000000
# 3 -0.006299 -0.006299 0.014276 0.000000 0.000000 0.000000
# 4 0.000000 0.000000 0.000000 0.032173 0.000000 0.000000
# 5 0.000000 0.000000 0.000000 0.000000 0.032173 0.000000
# 6 0.000000 0.000000 0.000000 0.000000 0.000000 0.035933
#
#
# Mechanical properties :
#
#
# Convention : Reuss Voigt Hill
#
# Bulk Modulus (GPa) = 82.51097 85.21713 83.86405
# Shear Modulus (GPa) = 24.23886 25.94614 25.09250
#
# Velocity S-wave (km/s) = 3.62542 3.75093 3.68871
# Velocity P-wave (km/s) = 7.89094 8.06032 7.97608
#
# Compressibility (1/GPa) = 0.01211960
#
# Stress axis : x y z
#
# Youngs Moduli (GPa) = 46.76862 46.76862 70.04698
#
# Poissons Ratio (x) = 0.46119 0.44126
# Poissons Ratio (y) = 0.46119 0.44126
# Poissons Ratio (z) = 0.29462 0.29462
#
# Static dielectric constant tensor:
#      x y z
#    x 3.455970 0.000000 0.000000 
#    y 0.000000 3.455970 0.000000 
#    z 0.000000 0.000000 3.386800 
# 
# 
# High freq. dielectric constant tensor:
#      x y z
#    x 1.715790 0.000000 0.000000 
#    y 0.000000 1.715790 0.000000 
#    z 0.000000 0.000000 1.722610 
# 
# From -- ./inp_files/3168.got.cif
#   From: 2010.03.12/outbox.cif.g09.slc.cpg/sg108_2_cif.got.tgz:3168.got - 2010.04.14 01:53:11.
