data_PCOD8307701
_publ_section_title
;
Structure prediction by ZEFSAII (Michael W. Deem and Ramdas Pophale) SiO2 
 PCOD8307701
Probable space group: I 4 M M
;
_chemical_formula_sum "Si O2"
_cell_formula_units_Z 96
_cell_length_a 18.377299
_cell_length_b 18.377299
_cell_length_c 18.377287
_cell_angle_alpha 90.000000
_cell_angle_beta 90.000000
_cell_angle_gamma 90.000000
_cell_volume 6206.471430
_symmetry_space_group_name_H-M "I 4 M M"
_symmetry_group_IT_number 107
_symmetry_cell_setting 'tetragonal'
loop_
_space_group_symop_operation_xyz
x,y,z
-y,x,z
-x,-y,z
y,-x,z
-x,y,z
x,-y,z
-y,-x,z
y,x,z
1/2+x,1/2+y,1/2+z
1/2-y,1/2+x,1/2+z
1/2-x,1/2-y,1/2+z
1/2+y,1/2-x,1/2+z
1/2-x,1/2+y,1/2+z
1/2+x,1/2-y,1/2+z
1/2-y,1/2-x,1/2+z
1/2+y,1/2+x,1/2+z
loop_
_atom_site_type_symbol
_atom_site_label
_atom_site_fract_x
_atom_site_fract_y
_atom_site_fract_z
Si Si1 0.679876 0.916654 0.383450
Si Si2 0.583346 0.298526 0.405047
Si Si3 0.820121 0.416654 0.286399
Si Si4 0.416654 0.701476 0.764803
Si Si5 0.320122 0.201475 0.501579
Si Si6 0.701475 0.820123 0.168270
O O1 0.614130 0.885868 0.334924
O O2 0.755341 0.907792 0.340267
O O3 0.687081 0.874157 0.459082
O O4 0.662425 0.000000 0.401557
O O5 0.500000 0.316633 0.422498
O O6 0.625841 0.374160 0.397842
O O7 0.592209 0.255343 0.329583
O O8 0.614132 0.250002 0.470794
O O9 0.837571 0.500000 0.268291
O O10 0.812917 0.374157 0.210767
O O11 0.500000 0.683366 0.747354
O O12 0.374155 0.625846 0.772007
O O13 0.385871 0.750002 0.699056
O O14 0.244657 0.244657 0.492716
O O15 0.337573 0.183368 0.584924
O O16 0.744660 0.744660 0.177134
#
# Coordination Sequence:
#
# PCOD8307701 Si02
#       6
#    16  16  16  16  16  16
#     4   9  17  29  45  64  86 112 141 173 209 249
#     4   9  17  29  45  64  86 112 141 173 209 249
#     4   9  17  29  45  64  86 112 141 173 209 249
#     4   9  17  29  45  64  86 112 141 173 209 249
#     4   9  17  29  45  64  86 112 141 173 209 249
#     4   9  17  29  45  64  86 112 141 173 209 249
#
# _framework density 15.467726000000001
#
# number of rings (size 3 to 8) (size 9 to 14) (size 15 to 20)
#    0.000    3.000    0.000    1.000    0.000    6.000 
#    0.000    0.000    0.000    0.000    0.000   14.000 
#    0.000    0.000    0.000   31.000    0.000    0.000 
#
# Total GULP energy -595239.963453 kJ/mol
# GULP energy per Si atom -12400.832572 kJ/mol
# Density = 1.543252 g / cm^3
# Si number density = 15.467726 Si / 1000 Ang^3
#
#
#
# Elastic Constant Matrix: (Units=GPa)
#
#
# Indices 1 2 3 4 5 6 
#
# 1 117.8556 61.9771 61.9764 0.0000 0.0000 0.0000
# 2 61.9771 117.8556 61.9764 0.0000 0.0000 0.0000
# 3 61.9764 61.9764 117.8531 0.0000 0.0000 0.0000
# 4 0.0000 0.0000 0.0000 17.4103 0.0000 0.0000
# 5 0.0000 0.0000 0.0000 0.0000 17.4103 0.0000
# 6 0.0000 0.0000 0.0000 0.0000 0.0000 17.4102
#
#
#
# Elastic Compliance Matrix: (Units=1/GPa)
#
#
# Indices 1 2 3 4 5 6 
#
# 1 0.013309 -0.004587 -0.004587 0.000000 0.000000 0.000000
# 2 -0.004587 0.013309 -0.004587 0.000000 0.000000 0.000000
# 3 -0.004587 -0.004587 0.013309 0.000000 0.000000 0.000000
# 4 0.000000 0.000000 0.000000 0.057437 0.000000 0.000000
# 5 0.000000 0.000000 0.000000 0.000000 0.057437 0.000000
# 6 0.000000 0.000000 0.000000 0.000000 0.000000 0.057438
#
#
# Mechanical properties :
#
#
# Convention : Reuss Voigt Hill
#
# Bulk Modulus (GPa) = 80.60267 80.60267 80.60267
# Shear Modulus (GPa) = 20.50049 21.62178 21.06113
#
# Velocity S-wave (km/s) = 3.64452 3.74286 3.69401
# Velocity P-wave (km/s) = 8.36262 8.42033 8.39152
#
# Compressibility (1/GPa) = 0.01240654
#
# Stress axis : x y z
#
# Youngs Moduli (GPa) = 75.13636 75.13636 75.13476
#
# Poissons Ratio (x) = 0.34464 0.34463
# Poissons Ratio (y) = 0.34464 0.34463
# Poissons Ratio (z) = 0.34464 0.34464
#
# Static dielectric constant tensor:
#      x y z
#    x 2.933790 0.000000 0.000000 
#    y 0.000000 2.933790 0.000000 
#    z 0.000000 0.000000 2.933790 
# 
# 
# High freq. dielectric constant tensor:
#      x y z
#    x 1.588900 0.000000 0.000000 
#    y 0.000000 1.588900 0.000000 
#    z 0.000000 0.000000 1.588900 
# 
# From -- ./inp_files/4028.got.cif
#   From: 2010.03.12/outbox.cif.g09.slc.cpg/sg107_3_cif.got.tgz:4028.got - 2010.04.14 01:49:11.
