data_PCOD8307571
_publ_section_title
;
Structure prediction by ZEFSAII (Michael W. Deem and Ramdas Pophale) SiO2 
 PCOD8307571
Probable space group: I 4 M M
;
_chemical_formula_sum "Si O2"
_cell_formula_units_Z 96
_cell_length_a 17.602505
_cell_length_b 17.602505
_cell_length_c 18.584790
_cell_angle_alpha 90.000000
_cell_angle_beta 90.000000
_cell_angle_gamma 90.000000
_cell_volume 5758.463399
_symmetry_space_group_name_H-M "I 4 M M"
_symmetry_group_IT_number 107
_symmetry_cell_setting 'tetragonal'
loop_
_space_group_symop_operation_xyz
x,y,z
-y,x,z
-x,-y,z
y,-x,z
-x,y,z
x,-y,z
-y,-x,z
y,x,z
1/2+x,1/2+y,1/2+z
1/2-y,1/2+x,1/2+z
1/2-x,1/2-y,1/2+z
1/2+y,1/2-x,1/2+z
1/2-x,1/2+y,1/2+z
1/2+x,1/2-y,1/2+z
1/2-y,1/2-x,1/2+z
1/2+y,1/2+x,1/2+z
loop_
_atom_site_type_symbol
_atom_site_label
_atom_site_fract_x
_atom_site_fract_y
_atom_site_fract_z
Si Si1 0.335992 0.912080 0.677520
Si Si2 0.653423 0.223583 0.319976
Si Si3 0.087229 0.341623 0.412020
Si Si4 0.324042 0.201199 0.038218
Si Si5 0.089848 0.789141 0.963827
Si Si6 0.911729 0.500000 0.478092
Si Si7 0.500000 0.911437 0.638605
O O1 0.290805 0.898955 0.750984
O O2 0.301733 0.856758 0.617872
O O3 0.425239 0.889453 0.684360
O O4 0.326754 0.000000 0.654804
O O5 0.725915 0.274086 0.298312
O O6 0.684739 0.141805 0.347373
O O7 0.604342 0.264724 0.381384
O O8 0.104556 0.293160 0.483623
O O9 0.111849 0.428065 0.430783
O O10 0.000000 0.332869 0.388752
O O11 0.278220 0.278220 0.029011
O O12 0.270822 0.129114 0.018258
O O13 0.127851 0.872150 0.976258
O O14 0.000000 0.792598 0.979686
O O15 0.873519 0.500000 0.558102
O O16 0.000000 0.500000 0.491476
O O17 0.500000 0.000000 0.624997
#
# Coordination Sequence:
#
# PCOD8307571 Si02
#       7
#    16  16  16  16  16   8   8
#     4  11  21  32  50  71  98 131 163 198 235 286
#     4  10  22  35  47  68 103 133 161 201 245 293
#     4  10  19  31  50  72  97 129 163 195 235 288
#     4  10  20  32  49  71 100 132 162 198 244 296
#     4   9  19  34  52  72  94 129 169 207 250 289
#     4   9  16  28  46  72  98 123 153 193 236 282
#     4   9  18  30  44  74 100 121 157 195 234 280
#
# _framework density 16.671113999999999
#
# number of rings (size 3 to 8) (size 9 to 14) (size 15 to 20)
#    0.000    2.167    1.667    3.000    8.167    0.167 
#    0.000    0.000    0.000    0.000    0.000    0.000 
#    0.000   26.333    0.000    0.000    0.000    0.000 
#
# Total GULP energy -594867.947808 kJ/mol
# GULP energy per Si atom -12393.082246 kJ/mol
# Density = 1.663317 g / cm^3
# Si number density = 16.671114 Si / 1000 Ang^3
#
#
#
# Elastic Constant Matrix: (Units=GPa)
#
#
# Indices 1 2 3 4 5 6 
#
# 1 75.3295 32.2321 15.0938 0.0000 0.0000 0.0001
# 2 32.2321 75.3296 15.0939 0.0000 0.0000 -0.0001
# 3 15.0938 15.0939 61.4272 0.0000 0.0000 0.0000
# 4 0.0000 0.0000 0.0000 25.2742 0.0000 0.0000
# 5 0.0000 0.0000 0.0000 0.0000 25.2742 0.0000
# 6 0.0001 -0.0001 0.0000 0.0000 0.0000 22.2207
#
#
#
# Elastic Compliance Matrix: (Units=1/GPa)
#
#
# Indices 1 2 3 4 5 6 
#
# 1 0.016594 -0.006609 -0.002454 0.000000 0.000000 0.000000
# 2 -0.006609 0.016594 -0.002454 0.000000 0.000000 0.000000
# 3 -0.002454 -0.002454 0.017485 0.000000 0.000000 0.000000
# 4 0.000000 0.000000 0.000000 0.039566 0.000000 0.000000
# 5 0.000000 0.000000 0.000000 0.000000 0.039566 0.000000
# 6 0.000000 0.000000 0.000000 0.000000 0.000000 0.045003
#
#
# Mechanical properties :
#
#
# Convention : Reuss Voigt Hill
#
# Bulk Modulus (GPa) = 36.17701 37.43621 36.80661
# Shear Modulus (GPa) = 24.14813 24.53160 24.33986
#
# Velocity S-wave (km/s) = 3.81005 3.84018 3.82514
# Velocity P-wave (km/s) = 6.41115 6.49362 6.45252
#
# Compressibility (1/GPa) = 0.02764186
#
# Stress axis : x y z
#
# Youngs Moduli (GPa) = 60.26120 60.26121 57.19108
#
# Poissons Ratio (x) = 0.39825 0.14033
# Poissons Ratio (y) = 0.39825 0.14033
# Poissons Ratio (z) = 0.14786 0.14786
#
# Static dielectric constant tensor:
#      x y z
#    x 3.044390 0.000000 0.000000 
#    y 0.000000 3.044390 0.000000 
#    z 0.000000 0.000000 3.015010 
# 
# 
# High freq. dielectric constant tensor:
#      x y z
#    x 1.629560 0.000000 0.000000 
#    y 0.000000 1.629560 0.000000 
#    z 0.000000 0.000000 1.637040 
# 
# From -- ./inp_files/4067.got.cif
#   From: 2010.03.12/outbox.cif.g09.slc.cpg/sg107_3_cif.got.tgz:4067.got - 2010.04.14 01:49:11.
