data_PCOD8307762
_publ_section_title
;
Structure prediction by ZEFSAII (Michael W. Deem and Ramdas Pophale) SiO2 
 PCOD8307762
Probable space group: I 4 C M
;
_chemical_formula_sum "Si O2"
_cell_formula_units_Z 96
_cell_length_a 14.841148
_cell_length_b 14.841148
_cell_length_c 23.259871
_cell_angle_alpha 90.000000
_cell_angle_beta 90.000000
_cell_angle_gamma 90.000000
_cell_volume 5123.211603
_symmetry_space_group_name_H-M "I 4 C M"
_symmetry_group_IT_number 108
_symmetry_cell_setting 'tetragonal'
loop_
_space_group_symop_operation_xyz
x,y,z
-y,x,z
-x,-y,z
y,-x,z
-x,y,1/2+z
x,-y,1/2+z
-y,-x,1/2+z
y,x,1/2+z
1/2+x,1/2+y,1/2+z
1/2-y,1/2+x,1/2+z
1/2-x,1/2-y,1/2+z
1/2+y,1/2-x,1/2+z
1/2-x,1/2+y,z
1/2+x,1/2-y,z
1/2-y,1/2-x,z
1/2+y,1/2+x,z
loop_
_atom_site_type_symbol
_atom_site_label
_atom_site_fract_x
_atom_site_fract_y
_atom_site_fract_z
Si Si1 0.079697 0.124570 0.077470
Si Si2 0.562161 0.787409 0.363971
Si Si3 0.074904 0.425097 0.364737
Si Si4 0.255704 0.506431 0.235929
Si Si5 0.074349 0.574349 0.736485
Si Si6 0.067742 0.868799 0.447689
Si Si7 0.316183 0.666574 0.687136
O O1 0.130764 0.190850 0.121378
O O2 0.973433 0.121773 0.088247
O O3 0.092592 0.160263 0.012492
O O4 0.641668 0.858333 0.353900
O O5 0.473240 0.836882 0.393138
O O6 0.536031 0.747914 0.302103
O O7 0.600253 0.709163 0.404751
O O8 0.103469 0.396532 0.300744
O O9 0.000000 0.500000 0.359866
O O10 0.163003 0.467853 0.207694
O O11 0.322490 0.420978 0.229050
O O12 0.280455 0.591396 0.196979
O O13 0.000000 0.500000 0.736351
O O14 0.961690 0.880945 0.435789
O O15 0.230471 0.730471 0.700393
#
# Coordination Sequence:
#
# PCOD8307762 Si02
#       7
#    16  16   8  16   8  16  16
#     4   9  18  38  62  79 107 151 196 240 299 350
#     4  10  20  37  58  84 118 155 191 231 289 351
#     4   7  14  30  54  76 101 148 189 217 265 342
#     4  11  23  36  55  89 124 156 196 241 293 354
#     4   9  16  36  56  74 115 163 193 225 289 353
#     4   9  20  38  59  83 113 151 192 243 296 346
#     4  12  23  37  60  90 119 155 203 249 291 353
#
# _framework density 18.738244999999999
#
# number of rings (size 3 to 8) (size 9 to 14) (size 15 to 20)
#    0.000    2.167    2.500    3.500    2.333    1.000 
#    1.500    0.000    1.833    0.000    0.000    0.000 
#    0.000    0.000    0.000    0.000    0.000    0.000 
#
# Total GULP energy -594682.317880 kJ/mol
# GULP energy per Si atom -12389.214956 kJ/mol
# Density = 1.869560 g / cm^3
# Si number density = 18.738245 Si / 1000 Ang^3
#
#
#
# Elastic Constant Matrix: (Units=GPa)
#
#
# Indices 1 2 3 4 5 6 
#
# 1 80.6658 26.3313 43.8666 0.0000 0.0000 0.0002
# 2 26.3313 80.6658 43.8666 0.0000 0.0000 -0.0003
# 3 43.8666 43.8666 95.2731 0.0000 0.0000 0.0000
# 4 0.0000 0.0000 0.0000 30.1090 0.0000 0.0000
# 5 0.0000 0.0000 0.0000 0.0000 30.1090 0.0000
# 6 0.0002 -0.0003 0.0000 0.0000 0.0000 22.3435
#
#
#
# Elastic Compliance Matrix: (Units=1/GPa)
#
#
# Indices 1 2 3 4 5 6 
#
# 1 0.016710 -0.001695 -0.006913 0.000000 0.000000 0.000000
# 2 -0.001695 0.016710 -0.006913 0.000000 0.000000 0.000000
# 3 -0.006913 -0.006913 0.016862 0.000000 0.000000 0.000000
# 4 0.000000 0.000000 0.000000 0.033213 0.000000 0.000000
# 5 0.000000 0.000000 0.000000 0.000000 0.033213 0.000000
# 6 0.000000 0.000000 0.000000 0.000000 0.000000 0.044756
#
#
# Mechanical properties :
#
#
# Convention : Reuss Voigt Hill
#
# Bulk Modulus (GPa) = 51.97861 53.85929 52.91895
# Shear Modulus (GPa) = 25.13603 26.01499 25.57551
#
# Velocity S-wave (km/s) = 3.66653 3.73008 3.69844
# Velocity P-wave (km/s) = 6.76196 6.88162 6.82205
#
# Compressibility (1/GPa) = 0.01923868
#
# Stress axis : x y z
#
# Youngs Moduli (GPa) = 59.84607 59.84607 59.30431
#
# Poissons Ratio (x) = 0.10144 0.40998
# Poissons Ratio (y) = 0.10144 0.40998
# Poissons Ratio (z) = 0.41372 0.41372
#
# Static dielectric constant tensor:
#      x y z
#    x 3.507600 0.000000 0.000000 
#    y 0.000000 3.507600 0.000000 
#    z 0.000000 0.000000 3.224820 
# 
# 
# High freq. dielectric constant tensor:
#      x y z
#    x 1.727500 0.000000 0.000000 
#    y 0.000000 1.727500 0.000000 
#    z 0.000000 0.000000 1.700110 
# 
# From -- ./inp_files/3170.got.cif
#   From: 2010.03.12/outbox.cif.g09.slc.cpg/sg108_2_cif.got.tgz:3170.got - 2010.04.14 01:53:11.
