data_PCOD8307766
_publ_section_title
;
Structure prediction by ZEFSAII (Michael W. Deem and Ramdas Pophale) SiO2 
 PCOD8307766
Probable space group: I 4 C M
;
_chemical_formula_sum "Si O2"
_cell_formula_units_Z 128
_cell_length_a 25.020567
_cell_length_b 25.020567
_cell_length_c 12.263013
_cell_angle_alpha 90.000000
_cell_angle_beta 90.000000
_cell_angle_gamma 90.000000
_cell_volume 7676.998982
_symmetry_space_group_name_H-M "I 4 C M"
_symmetry_group_IT_number 108
_symmetry_cell_setting 'tetragonal'
loop_
_space_group_symop_operation_xyz
x,y,z
-y,x,z
-x,-y,z
y,-x,z
-x,y,1/2+z
x,-y,1/2+z
-y,-x,1/2+z
y,x,1/2+z
1/2+x,1/2+y,1/2+z
1/2-y,1/2+x,1/2+z
1/2-x,1/2-y,1/2+z
1/2+y,1/2-x,1/2+z
1/2-x,1/2+y,z
1/2+x,1/2-y,z
1/2-y,1/2-x,z
1/2+y,1/2+x,z
loop_
_atom_site_type_symbol
_atom_site_label
_atom_site_fract_x
_atom_site_fract_y
_atom_site_fract_z
Si Si1 0.444783 0.746686 0.364400
Si Si2 0.200128 0.611285 0.678751
Si Si3 0.949743 0.248008 0.501003
Si Si4 0.798547 0.786211 0.206043
Si Si5 0.541624 0.341941 0.180543
Si Si6 0.627089 0.299073 0.542606
Si Si7 0.427510 0.631133 0.700893
Si Si8 0.126494 0.178517 0.885739
O O1 0.424995 0.795617 0.287952
O O2 0.499132 0.763167 0.426963
O O3 0.451767 0.692628 0.292175
O O4 0.398164 0.740830 0.454809
O O5 0.145439 0.645439 0.678447
O O6 0.202152 0.570672 0.575271
O O7 0.252938 0.648752 0.671506
O O8 0.962803 0.197124 0.577238
O O9 0.900478 0.234214 0.420972
O O10 0.753220 0.746781 0.247871
O O11 0.775894 0.820118 0.103213
O O12 0.812569 0.823405 0.306777
O O13 0.489797 0.380703 0.185632
O O14 0.587406 0.385225 0.161798
O O15 0.583586 0.314017 0.634043
O O16 0.644916 0.354524 0.488468
O O17 0.418681 0.642768 0.828220
#
# Coordination Sequence:
#
# PCOD8307766 Si02
#       8
#    16  16  16  16  16  16  16  16
#     4  11  20  33  54  73  94 135 177 206 252 303
#     4  10  21  35  50  79 111 131 163 208 253 306
#     4  11  20  33  54  73  94 135 177 206 252 303
#     4  10  21  31  46  75 103 130 166 204 255 321
#     4  11  21  31  47  70  92 126 176 228 261 304
#     4  11  18  32  50  67  94 131 173 212 254 301
#     4  11  21  31  45  66  93 122 175 233 269 301
#     4  11  18  32  50  67  94 131 173 212 254 301
#
# _framework density 16.673183000000002
#
# number of rings (size 3 to 8) (size 9 to 14) (size 15 to 20)
#    0.000    1.250    7.500    1.500    0.000    1.750 
#    0.000    0.000    0.000    0.000    0.000    0.000 
#    0.000    1.500    0.000    0.000    0.000    0.000 
#
# Total GULP energy -793098.659058 kJ/mol
# GULP energy per Si atom -12392.166548 kJ/mol
# Density = 1.663523 g / cm^3
# Si number density = 16.673183 Si / 1000 Ang^3
#
#
#
# Elastic Constant Matrix: (Units=GPa)
#
#
# Indices 1 2 3 4 5 6 
#
# 1 64.9252 30.8521 27.7874 0.0000 0.0000 -0.0001
# 2 30.8521 64.9252 27.7874 0.0000 0.0000 0.0001
# 3 27.7874 27.7874 58.2117 0.0000 0.0000 0.0000
# 4 0.0000 0.0000 0.0000 19.8622 0.0000 0.0000
# 5 0.0000 0.0000 0.0000 0.0000 19.8622 0.0000
# 6 -0.0001 0.0001 0.0000 0.0000 0.0000 22.2686
#
#
#
# Elastic Compliance Matrix: (Units=1/GPa)
#
#
# Indices 1 2 3 4 5 6 
#
# 1 0.021895 -0.007454 -0.006893 0.000000 0.000000 0.000000
# 2 -0.007454 0.021895 -0.006893 0.000000 0.000000 0.000000
# 3 -0.006893 -0.006893 0.023760 0.000000 0.000000 0.000000
# 4 0.000000 0.000000 0.000000 0.050347 0.000000 0.000000
# 5 0.000000 0.000000 0.000000 0.000000 0.050347 0.000000
# 6 0.000000 0.000000 0.000000 0.000000 0.000000 0.044906
#
#
# Mechanical properties :
#
#
# Convention : Reuss Voigt Hill
#
# Bulk Modulus (GPa) = 39.89154 40.10180 39.99667
# Shear Modulus (GPa) = 18.94035 19.17425 19.05730
#
# Velocity S-wave (km/s) = 3.37408 3.39485 3.38448
# Velocity P-wave (km/s) = 6.25754 6.28256 6.27006
#
# Compressibility (1/GPa) = 0.02506797
#
# Stress axis : x y z
#
# Youngs Moduli (GPa) = 45.67314 45.67314 42.08803
#
# Poissons Ratio (x) = 0.34045 0.29013
# Poissons Ratio (y) = 0.34045 0.29013
# Poissons Ratio (z) = 0.31484 0.31484
#
# Static dielectric constant tensor:
#      x y z
#    x 2.939420 0.000000 0.000000 
#    y 0.000000 2.939420 0.000000 
#    z 0.000000 0.000000 3.396130 
# 
# 
# High freq. dielectric constant tensor:
#      x y z
#    x 1.609240 0.000000 0.000000 
#    y 0.000000 1.609240 0.000000 
#    z 0.000000 0.000000 1.664260 
# 
# From -- ./inp_files/1632.got.cif
#   From: 2010.03.12/outbox.cif.g09.slc.cpg/sg108_1_cif.got.tgz:1632.got - 2010.04.14 01:53:11.
