data_PCOD8307730
_publ_section_title
;
Structure prediction by ZEFSAII (Michael W. Deem and Ramdas Pophale) SiO2 
 PCOD8307730
Probable space group: I 4 C M
;
_chemical_formula_sum "Si O2"
_cell_formula_units_Z 96
_cell_length_a 15.446937
_cell_length_b 15.446937
_cell_length_c 20.221192
_cell_angle_alpha 90.000000
_cell_angle_beta 90.000000
_cell_angle_gamma 90.000000
_cell_volume 4824.935404
_symmetry_space_group_name_H-M "I 4 C M"
_symmetry_group_IT_number 108
_symmetry_cell_setting 'tetragonal'
loop_
_space_group_symop_operation_xyz
x,y,z
-y,x,z
-x,-y,z
y,-x,z
-x,y,1/2+z
x,-y,1/2+z
-y,-x,1/2+z
y,x,1/2+z
1/2+x,1/2+y,1/2+z
1/2-y,1/2+x,1/2+z
1/2-x,1/2-y,1/2+z
1/2+y,1/2-x,1/2+z
1/2-x,1/2+y,z
1/2+x,1/2-y,z
1/2-y,1/2-x,z
1/2+y,1/2+x,z
loop_
_atom_site_type_symbol
_atom_site_label
_atom_site_fract_x
_atom_site_fract_y
_atom_site_fract_z
Si Si1 0.688136 0.665783 0.407490
Si Si2 0.760901 0.486869 0.430996
Si Si3 0.861484 0.502652 0.561547
Si Si4 0.035950 0.680052 0.285211
Si Si5 0.315090 0.329328 0.758845
Si Si6 0.281818 0.917372 0.175063
O O1 0.760802 0.739199 0.420536
O O2 0.709324 0.576133 0.444295
O O3 0.596277 0.698818 0.435005
O O4 0.680974 0.640875 0.330490
O O5 0.831605 0.480298 0.488111
O O6 0.811506 0.490155 0.361626
O O7 0.938458 0.438458 0.581330
O O8 0.782945 0.487433 0.614866
O O9 0.898908 0.601093 0.566249
O O10 0.100089 0.600089 0.278131
O O11 0.077755 0.769104 0.256146
O O12 0.953603 0.665597 0.238908
O O13 0.243469 0.256532 0.750941
O O14 0.387314 0.314205 0.700891
O O15 0.332308 0.832308 0.150092
#
# Coordination Sequence:
#
# PCOD8307730 Si02
#       6
#    16  16  16  16  16  16
#     4  10  20  36  59  86 113 148 197 247 295 352
#     4  11  21  37  58  81 116 153 195 247 294 346
#     4  10  21  36  53  80 118 153 188 240 307 371
#     4  10  19  32  55  83 108 143 191 240 294 357
#     4   8  16  32  51  75 107 139 180 231 282 341
#     4  10  19  34  54  78 112 147 184 239 301 355
#
# _framework density 19.896639
#
# number of rings (size 3 to 8) (size 9 to 14) (size 15 to 20)
#    0.000    2.167    1.667    3.500    0.000    2.000 
#    3.000    0.000    0.000    0.500    0.000    0.000 
#    0.000    0.000    0.000    0.000    0.000    0.000 
#
# Total GULP energy -594762.054120 kJ/mol
# GULP energy per Si atom -12390.876127 kJ/mol
# Density = 1.985135 g / cm^3
# Si number density = 19.896639 Si / 1000 Ang^3
#
#
#
# Elastic Constant Matrix: (Units=GPa)
#
#
# Indices 1 2 3 4 5 6 
#
# 1 70.7389 27.9357 19.6776 0.0000 0.0000 0.0002
# 2 27.9357 70.7389 19.6776 0.0000 0.0000 -0.0002
# 3 19.6776 19.6776 98.9556 0.0000 0.0000 0.0000
# 4 0.0000 0.0000 0.0000 25.6879 0.0000 0.0000
# 5 0.0000 0.0000 0.0000 0.0000 25.6879 0.0000
# 6 0.0002 -0.0002 0.0000 0.0000 0.0000 27.3465
#
#
#
# Elastic Compliance Matrix: (Units=1/GPa)
#
#
# Indices 1 2 3 4 5 6 
#
# 1 0.017185 -0.006178 -0.002189 0.000000 0.000000 0.000000
# 2 -0.006178 0.017185 -0.002189 0.000000 0.000000 0.000000
# 3 -0.002189 -0.002189 0.010976 0.000000 0.000000 0.000000
# 4 0.000000 0.000000 0.000000 0.038929 0.000000 0.000000
# 5 0.000000 0.000000 0.000000 0.000000 0.038929 0.000000
# 6 0.000000 0.000000 0.000000 0.000000 0.000000 0.036568
#
#
# Mechanical properties :
#
#
# Convention : Reuss Voigt Hill
#
# Bulk Modulus (GPa) = 41.26204 41.66834 41.46519
# Shear Modulus (GPa) = 26.46052 27.28729 26.87391
#
# Velocity S-wave (km/s) = 3.65073 3.70733 3.67914
# Velocity P-wave (km/s) = 6.20916 6.27006 6.23968
#
# Compressibility (1/GPa) = 0.02423535
#
# Stress axis : x y z
#
# Youngs Moduli (GPa) = 58.19020 58.19020 91.10739
#
# Poissons Ratio (x) = 0.35948 0.19942
# Poissons Ratio (y) = 0.35948 0.19942
# Poissons Ratio (z) = 0.12737 0.12737
#
# Static dielectric constant tensor:
#      x y z
#    x 3.628510 0.000000 0.000000 
#    y 0.000000 3.628510 0.000000 
#    z 0.000000 0.000000 3.556740 
# 
# 
# High freq. dielectric constant tensor:
#      x y z
#    x 1.759420 0.000000 0.000000 
#    y 0.000000 1.759420 0.000000 
#    z 0.000000 0.000000 1.766840 
# 
# From -- ./inp_files/2908.got.cif
#   From: 2010.03.12/outbox.cif.g09.slc.cpg/sg108_2_cif.got.tgz:2908.got - 2010.04.14 01:53:11.
