data_PCOD8307099
_publ_section_title
;
Structure prediction by ZEFSAII (Michael W. Deem and Ramdas Pophale) SiO2 
 PCOD8307099
Probable space group: P 42 M C
;
_chemical_formula_sum "Si O2"
_cell_formula_units_Z 38
_cell_length_a 11.444076
_cell_length_b 11.444076
_cell_length_c 14.673882
_cell_angle_alpha 90.000000
_cell_angle_beta 90.000000
_cell_angle_gamma 90.000000
_cell_volume 1921.792477
_symmetry_space_group_name_H-M "P 42 M C"
_symmetry_group_IT_number 105
_symmetry_cell_setting 'tetragonal'
loop_
_space_group_symop_operation_xyz
x,y,z
-y,x,1/2+z
-x,-y,z
y,-x,1/2+z
-x,y,z
x,-y,z
-y,-x,1/2+z
y,x,1/2+z
loop_
_atom_site_type_symbol
_atom_site_label
_atom_site_fract_x
_atom_site_fract_y
_atom_site_fract_z
Si Si1 0.500000 0.000000 0.835351
Si Si2 0.500000 0.636749 0.762041
Si Si3 0.865781 0.703604 0.539206
Si Si4 0.000000 0.370887 0.163160
Si Si5 0.236877 0.500000 0.442318
Si Si6 0.267519 0.770460 0.706692
Si Si7 0.134169 0.867744 0.375224
O O1 0.384086 0.000000 0.773693
O O2 0.500000 0.116352 0.889921
O O3 0.500000 0.500000 0.741016
O O4 0.500000 0.655967 0.871500
O O5 0.383907 0.692642 0.717793
O O6 0.766247 0.614624 0.504144
O O7 0.835435 0.715776 0.645799
O O8 0.853406 0.820382 0.478380
O O9 0.000000 0.657099 0.531882
O O10 0.882650 0.300013 0.143650
O O11 0.000000 0.500000 0.115674
O O12 0.213971 0.793868 0.806054
O O13 0.000000 0.867579 0.343355
O O14 0.183748 0.000000 0.373952
#
# Coordination Sequence:
#
# PCOD8307099 Si02
#       7
#     2   4   8   4   4   8   8
#     4  10  14  34  74  88 100 146 236 272 284 344
#     4  12  26  44  66  93 123 162 218 270 327 372
#     4  11  24  38  63  96 129 165 216 263 314 380
#     4  10  18  34  65  93 109 157 226 257 301 373
#     4  12  20  44  70  91 113 166 227 269 297 378
#     4  12  22  40  64  91 128 167 207 268 319 382
#     4  10  21  37  61  94 131 166 205 260 324 381
#
# _framework density 19.773206999999999
#
# number of rings (size 3 to 8) (size 9 to 14) (size 15 to 20)
#    0.316    0.632    7.368    0.632    2.947    0.000 
#    1.895    0.000    0.000    0.000    0.000    0.000 
#    0.000    0.000    0.000    0.000    0.000    0.000 
#
# Total GULP energy -470896.348929 kJ/mol
# GULP energy per Si atom -12392.009182 kJ/mol
# Density = 1.972820 g / cm^3
# Si number density = 19.773207 Si / 1000 Ang^3
#
#
#
# Elastic Constant Matrix: (Units=GPa)
#
#
# Indices 1 2 3 4 5 6 
#
# 1 102.1783 32.7252 23.5482 0.0000 0.0000 0.0000
# 2 32.7252 102.1783 23.5482 0.0000 0.0000 0.0000
# 3 23.5482 23.5482 84.4817 0.0000 0.0000 0.0000
# 4 0.0000 0.0000 0.0000 29.5675 0.0000 0.0000
# 5 0.0000 0.0000 0.0000 0.0000 29.5675 0.0000
# 6 0.0000 0.0000 0.0000 0.0000 0.0000 18.5684
#
#
#
# Elastic Compliance Matrix: (Units=1/GPa)
#
#
# Indices 1 2 3 4 5 6 
#
# 1 0.011305 -0.003093 -0.002289 0.000000 0.000000 0.000000
# 2 -0.003093 0.011305 -0.002289 0.000000 0.000000 0.000000
# 3 -0.002289 -0.002289 0.013113 0.000000 0.000000 0.000000
# 4 0.000000 0.000000 0.000000 0.033821 0.000000 0.000000
# 5 0.000000 0.000000 0.000000 0.000000 0.033821 0.000000
# 6 0.000000 0.000000 0.000000 0.000000 0.000000 0.053855
#
#
# Mechanical properties :
#
#
# Convention : Reuss Voigt Hill
#
# Bulk Modulus (GPa) = 49.06588 49.83130 49.44859
# Shear Modulus (GPa) = 27.87759 29.47511 28.67635
#
# Velocity S-wave (km/s) = 3.75889 3.86509 3.81236
# Velocity P-wave (km/s) = 6.61114 6.72122 6.66641
#
# Compressibility (1/GPa) = 0.02038076
#
# Stress axis : x y z
#
# Youngs Moduli (GPa) = 88.45641 88.45641 76.26070
#
# Poissons Ratio (x) = 0.27361 0.17456
# Poissons Ratio (y) = 0.27361 0.17456
# Poissons Ratio (z) = 0.20247 0.20247
#
# Static dielectric constant tensor:
#      x y z
#    x 3.190720 0.000000 0.000000 
#    y 0.000000 3.190720 0.000000 
#    z 0.000000 0.000000 3.405300 
# 
# 
# High freq. dielectric constant tensor:
#      x y z
#    x 1.764350 0.000000 0.000000 
#    y 0.000000 1.764350 0.000000 
#    z 0.000000 0.000000 1.756290 
# 
# From -- ./inp_files/2516.got.cif
#   From: 2010.03.12/outbox.cif.g09.slc.cpg/sg105_2_cif.got.tgz:2516.got - 2010.04.14 01:45:32.
