data_PCOD8307431
_publ_section_title
;
Structure prediction by ZEFSAII (Michael W. Deem and Ramdas Pophale) SiO2 
 PCOD8307431
Probable space group: P 42 B C
;
_chemical_formula_sum "Si O2"
_cell_formula_units_Z 48
_cell_length_a 13.330101
_cell_length_b 13.330101
_cell_length_c 12.030372
_cell_angle_alpha 90.000000
_cell_angle_beta 90.000000
_cell_angle_gamma 90.000000
_cell_volume 2137.695961
_symmetry_space_group_name_H-M "P 42 B C"
_symmetry_group_IT_number 106
_symmetry_cell_setting 'tetragonal'
loop_
_space_group_symop_operation_xyz
x,y,z
-y,x,1/2+z
-x,-y,z
y,-x,1/2+z
1/2-x,1/2+y,z
1/2+x,1/2-y,z
1/2-y,1/2-x,1/2+z
1/2+y,1/2+x,1/2+z
loop_
_atom_site_type_symbol
_atom_site_label
_atom_site_fract_x
_atom_site_fract_y
_atom_site_fract_z
Si Si1 0.302028 0.714412 0.591030
Si Si2 0.154297 0.432362 0.673948
Si Si3 0.688031 0.433549 0.777708
Si Si4 0.185172 0.018569 0.028145
Si Si5 0.000000 0.000000 0.662027
Si Si6 0.118742 0.610139 0.020264
Si Si7 0.000000 0.500000 0.335332
O O1 0.314399 0.833304 0.606374
O O2 0.275516 0.666638 0.712551
O O3 0.399144 0.668716 0.529782
O O4 0.215162 0.678747 0.506385
O O5 0.251707 0.468548 0.739723
O O6 0.117598 0.517041 0.588638
O O7 0.062243 0.419483 0.760810
O O8 0.573411 0.443303 0.743975
O O9 0.692613 0.425344 0.909918
O O10 0.085570 0.059756 0.090293
O O11 0.296161 0.039936 0.081271
O O12 0.083970 0.563247 0.902657
#
# Coordination Sequence:
#
# PCOD8307431 Si02
#       7
#     8   8   8   8   4   8   4
#     4  10  24  43  65  96 130 174 224 282 342 404
#     4  11  23  43  65  97 135 170 226 286 343 407
#     4  10  22  41  61  95 128 172 223 275 336 409
#     4  11  21  43  64  95 132 178 231 273 345 412
#     4  10  22  40  64  92 136 180 220 288 338 406
#     4  11  24  44  69  98 138 176 230 288 340 415
#     4  12  22  42  68 100 132 178 224 284 342 410
#
# _framework density 22.454082
#
# number of rings (size 3 to 8) (size 9 to 14) (size 15 to 20)
#    0.000    1.333    1.667    4.000    0.000    1.333 
#   18.000    0.000    0.000    0.000    0.000    0.000 
#    0.000    0.000    0.000    0.000    0.000    0.000 
#
# Total GULP energy -594704.163213 kJ/mol
# GULP energy per Si atom -12389.670067 kJ/mol
# Density = 2.240298 g / cm^3
# Si number density = 22.454082 Si / 1000 Ang^3
#
#
#
# Elastic Constant Matrix: (Units=GPa)
#
#
# Indices 1 2 3 4 5 6 
#
# 1 125.5389 28.4748 31.6522 0.0000 0.0000 0.0000
# 2 28.4748 125.5389 31.6522 0.0000 0.0000 0.0000
# 3 31.6522 31.6522 76.4747 0.0000 0.0000 0.0000
# 4 0.0000 0.0000 0.0000 29.2691 0.0000 0.0000
# 5 0.0000 0.0000 0.0000 0.0000 29.2691 0.0000
# 6 0.0000 0.0000 0.0000 0.0000 0.0000 38.0772
#
#
#
# Elastic Compliance Matrix: (Units=1/GPa)
#
#
# Indices 1 2 3 4 5 6 
#
# 1 0.009063 -0.001239 -0.003238 0.000000 0.000000 0.000000
# 2 -0.001239 0.009063 -0.003238 0.000000 0.000000 0.000000
# 3 -0.003238 -0.003238 0.015757 0.000000 0.000000 0.000000
# 4 0.000000 0.000000 0.000000 0.034166 0.000000 0.000000
# 5 0.000000 0.000000 0.000000 0.000000 0.034166 0.000000
# 6 0.000000 0.000000 0.000000 0.000000 0.000000 0.026262
#
#
# Mechanical properties :
#
#
# Convention : Reuss Voigt Hill
#
# Bulk Modulus (GPa) = 54.19569 56.79009 55.49289
# Shear Modulus (GPa) = 33.32019 35.04132 34.18076
#
# Velocity S-wave (km/s) = 3.85636 3.95470 3.90584
# Velocity P-wave (km/s) = 6.63455 6.79702 6.71627
#
# Compressibility (1/GPa) = 0.01845165
#
# Stress axis : x y z
#
# Youngs Moduli (GPa) = 110.33610 110.33610 63.46461
#
# Poissons Ratio (x) = 0.13673 0.20552
# Poissons Ratio (y) = 0.13673 0.20552
# Poissons Ratio (z) = 0.35730 0.35730
#
# Static dielectric constant tensor:
#      x y z
#    x 4.290420 0.000000 0.000000 
#    y 0.000000 4.290420 0.000000 
#    z 0.000000 0.000000 3.848440 
# 
# 
# High freq. dielectric constant tensor:
#      x y z
#    x 1.895470 0.000000 0.000000 
#    y 0.000000 1.895470 0.000000 
#    z 0.000000 0.000000 1.862490 
# 
# From -- ./inp_files/959.got.cif
#   From: 2010.03.12/outbox.cif.g09.slc.cpg/sg106_cif.got.tgz:959.got - 2010.04.14 01:48:02.
