data_PCOD8307421
_publ_section_title
;
Structure prediction by ZEFSAII (Michael W. Deem and Ramdas Pophale) SiO2 
 PCOD8307421
Probable space group: P 42 B C
;
_chemical_formula_sum "Si O2"
_cell_formula_units_Z 36
_cell_length_a 8.566707
_cell_length_b 8.566707
_cell_length_c 19.683034
_cell_angle_alpha 90.000000
_cell_angle_beta 90.000000
_cell_angle_gamma 90.000000
_cell_volume 1444.507727
_symmetry_space_group_name_H-M "P 42 B C"
_symmetry_group_IT_number 106
_symmetry_cell_setting 'tetragonal'
loop_
_space_group_symop_operation_xyz
x,y,z
-y,x,1/2+z
-x,-y,z
y,-x,1/2+z
1/2-x,1/2+y,z
1/2+x,1/2-y,z
1/2-y,1/2-x,1/2+z
1/2+y,1/2+x,1/2+z
loop_
_atom_site_type_symbol
_atom_site_label
_atom_site_fract_x
_atom_site_fract_y
_atom_site_fract_z
Si Si1 0.041039 0.793134 0.151690
Si Si2 0.500000 0.500000 0.773354
Si Si3 0.952607 0.751291 0.447619
Si Si4 0.206866 0.958960 0.395018
Si Si5 0.047393 0.751291 0.599089
O O1 0.098543 0.617120 0.137942
O O2 0.901216 0.834705 0.099314
O O3 0.198563 0.893610 0.139142
O O4 0.991021 0.840890 0.228262
O O5 0.491022 0.340890 0.818446
O O6 0.882880 0.598543 0.408766
O O7 0.106390 0.801437 0.407566
O O8 1.000000 0.704790 0.523354
O O9 0.834705 0.901216 0.447394
#
# Coordination Sequence:
#
# PCOD8307421 Si02
#       5
#     8   4   8   8   8
#     4  10  21  38  62  90 133 172 217 285 327 406
#     4   8  20  40  62  90 124 170 220 270 348 390
#     4  10  21  38  59  91 129 172 218 269 334 394
#     4  10  21  38  62  90 133 172 217 285 327 406
#     4  10  21  38  59  91 129 172 218 269 334 394
#
# _framework density 24.921983999999998
#
# number of rings (size 3 to 8) (size 9 to 14) (size 15 to 20)
#    0.000    2.667    0.000    4.000    0.000    8.889 
#    0.000    4.444    0.000   21.333    0.000    0.000 
#    0.000    0.000    0.000    0.000    0.000    0.000 
#
# Total GULP energy -445986.854515 kJ/mol
# GULP energy per Si atom -12388.523737 kJ/mol
# Density = 2.486526 g / cm^3
# Si number density = 24.921984 Si / 1000 Ang^3
#
#
#
# Elastic Constant Matrix: (Units=GPa)
#
#
# Indices 1 2 3 4 5 6 
#
# 1 57.9534 61.6111 52.0932 0.0000 0.0000 0.0000
# 2 61.6111 57.9534 52.0932 0.0000 0.0000 0.0000
# 3 52.0932 52.0932 173.3891 0.0000 0.0000 0.0000
# 4 0.0000 0.0000 0.0000 38.8395 0.0000 0.0000
# 5 0.0000 0.0000 0.0000 0.0000 38.8395 0.0000
# 6 0.0000 0.0000 0.0000 0.0000 0.0000 79.3683
#
#
#
# Elastic Compliance Matrix: (Units=1/GPa)
#
#
# Indices 1 2 3 4 5 6 
#
# 1 -0.131033 0.142363 -0.003404 0.000000 0.000000 0.000000
# 2 0.142363 -0.131033 -0.003404 0.000000 0.000000 0.000000
# 3 -0.003404 -0.003404 0.007813 0.000000 0.000000 0.000000
# 4 0.000000 0.000000 0.000000 0.025747 0.000000 0.000000
# 5 0.000000 0.000000 0.000000 0.000000 0.025747 0.000000
# 6 0.000000 0.000000 0.000000 0.000000 0.000000 0.012599
#
#
# Mechanical properties :
#
#
# Convention : Reuss Voigt Hill
#
# Bulk Modulus (GPa) = 59.32389 68.98786 64.15587
# Shear Modulus (GPa) = -10.97330 39.64268 14.33469
#
# Velocity S-wave (km/s) = -2.10062 3.99265 2.40090
# Velocity P-wave (km/s) = 4.23934 6.99976 5.78656
#
# Compressibility (1/GPa) = 0.01685662
#
# Stress axis : x y z
#
# Youngs Moduli (GPa) = -7.63166 -7.63166 127.99603
#
# Poissons Ratio (x) = 1.08647 0.43569
# Poissons Ratio (y) = 1.08647 0.43569
# Poissons Ratio (z) = -0.02598 -0.02598
#
# Static dielectric constant tensor:
#      x y z
#    x 4.625980 0.000000 0.000000 
#    y 0.000000 4.625980 0.000000 
#    z 0.000000 0.000000 4.409120 
# 
# 
# High freq. dielectric constant tensor:
#      x y z
#    x 1.993150 0.000000 0.000000 
#    y 0.000000 1.993150 0.000000 
#    z 0.000000 0.000000 1.965140 
# 
# From -- ./inp_files/1575.got.cif
#   From: 2010.03.12/outbox.cif.g09.slc.cpg/sg106_cif.got.tgz:1575.got - 2010.04.14 01:48:02.
