data_PCOD8307691
_publ_section_title
;
Structure prediction by ZEFSAII (Michael W. Deem and Ramdas Pophale) SiO2 
 PCOD8307691
Probable space group: I 4 M M
;
_chemical_formula_sum "Si O2"
_cell_formula_units_Z 96
_cell_length_a 33.885080
_cell_length_b 33.885080
_cell_length_c 7.649435
_cell_angle_alpha 90.000000
_cell_angle_beta 90.000000
_cell_angle_gamma 90.000000
_cell_volume 8783.070914
_symmetry_space_group_name_H-M "I 4 M M"
_symmetry_group_IT_number 107
_symmetry_cell_setting 'tetragonal'
loop_
_space_group_symop_operation_xyz
x,y,z
-y,x,z
-x,-y,z
y,-x,z
-x,y,z
x,-y,z
-y,-x,z
y,x,z
1/2+x,1/2+y,1/2+z
1/2-y,1/2+x,1/2+z
1/2-x,1/2-y,1/2+z
1/2+y,1/2-x,1/2+z
1/2-x,1/2+y,1/2+z
1/2+x,1/2-y,1/2+z
1/2-y,1/2-x,1/2+z
1/2+y,1/2+x,1/2+z
loop_
_atom_site_type_symbol
_atom_site_label
_atom_site_fract_x
_atom_site_fract_y
_atom_site_fract_z
Si Si1 0.247058 0.686535 0.669690
Si Si2 0.252941 0.186534 0.559447
Si Si3 0.545326 0.609547 0.063068
Si Si4 0.646995 0.286349 0.364572
Si Si5 0.414960 0.348958 0.364577
Si Si6 0.045326 0.109547 0.166086
O O1 0.279367 0.720634 0.663020
O O2 0.205019 0.705021 0.614573
O O3 0.259180 0.651804 0.536609
O O4 0.244057 0.668558 0.864568
O O5 0.220633 0.220633 0.566112
O O6 0.240817 0.151803 0.692527
O O7 0.500000 0.598828 0.098385
O O8 0.569920 0.569920 0.102708
O O9 0.552138 0.624153 0.864577
O O10 0.558803 0.644797 0.190890
O O11 0.679753 0.320248 0.364577
O O12 0.603097 0.304923 0.364577
O O13 0.379270 0.379270 0.364574
O O14 0.441197 0.355203 0.538265
O O15 0.069920 0.069920 0.126447
O O16 0.000000 0.098828 0.130768
#
# Coordination Sequence:
#
# PCOD8307691 Si02
#       6
#    16  16  16  16  16  16
#     4   9  14  20  30  42  57  75  96 120 141 158
#     4   9  14  20  30  42  57  75  96 120 141 158
#     4   9  17  28  41  54  66  79  95 118 149 186
#     4   9  16  23  31  44  59  79 100 118 139 163
#     4   9  17  27  36  47  65  82  98 116 140 175
#     4   9  17  28  41  54  66  79  95 118 149 186
#
# _framework density 10.930116999999999
#
# number of rings (size 3 to 8) (size 9 to 14) (size 15 to 20)
#    0.000    3.000    1.667    0.500    0.000    1.667 
#    0.000    8.333    0.000    3.000    0.000    0.000 
#    0.000    0.000    0.000    0.000    0.000    0.000 
#
# Total GULP energy -594963.667356 kJ/mol
# GULP energy per Si atom -12395.076403 kJ/mol
# Density = 1.090524 g / cm^3
# Si number density = 10.930117 Si / 1000 Ang^3
#
#
#
# Elastic Constant Matrix: (Units=GPa)
#
#
# Indices 1 2 3 4 5 6 
#
# 1 36.5861 35.6800 37.6208 0.0000 0.0000 0.0000
# 2 35.6800 36.5861 37.6208 0.0000 0.0000 0.0000
# 3 37.6208 37.6208 108.2191 0.0000 0.0000 0.0000
# 4 0.0000 0.0000 0.0000 13.8083 0.0000 0.0000
# 5 0.0000 0.0000 0.0000 0.0000 13.8083 0.0000
# 6 0.0000 0.0000 0.0000 0.0000 0.0000 15.9668
#
#
#
# Elastic Compliance Matrix: (Units=1/GPa)
#
#
# Indices 1 2 3 4 5 6 
#
# 1 0.562674 -0.540987 -0.007539 0.000000 0.000000 0.000002
# 2 -0.540987 0.562674 -0.007539 0.000000 0.000000 -0.000002
# 3 -0.007539 -0.007539 0.014482 0.000000 0.000000 0.000000
# 4 0.000000 0.000000 0.000000 0.072420 0.000000 0.000000
# 5 0.000000 0.000000 0.000000 0.000000 0.072420 0.000000
# 6 0.000002 -0.000002 0.000000 0.000000 0.000000 0.062630
#
#
# Mechanical properties :
#
#
# Convention : Reuss Voigt Hill
#
# Bulk Modulus (GPa) = 36.10103 44.80386 40.45244
# Shear Modulus (GPa) = 2.02538 13.41463 7.72001
#
# Velocity S-wave (km/s) = 1.36274 3.50710 2.66053
# Velocity P-wave (km/s) = 5.96462 7.58155 6.82116
#
# Compressibility (1/GPa) = 0.02770004
#
# Stress axis : x y z
#
# Youngs Moduli (GPa) = 1.77723 1.77723 69.04917
#
# Poissons Ratio (x) = 0.96146 0.52059
# Poissons Ratio (y) = 0.96146 0.52059
# Poissons Ratio (z) = 0.01340 0.01340
#
# Static dielectric constant tensor:
#      x y z
#    x 2.147230 0.000000 0.000000 
#    y 0.000000 2.147230 0.000000 
#    z 0.000000 0.000000 2.618210 
# 
# 
# High freq. dielectric constant tensor:
#      x y z
#    x 1.369390 0.000000 0.000000 
#    y 0.000000 1.369390 0.000000 
#    z 0.000000 0.000000 1.436120 
# 
# From -- ./inp_files/1605.got.cif
#   From: 2010.03.12/outbox.cif.g09.slc.cpg/sg107_1_cif.got.tgz:1605.got - 2010.04.14 01:49:11.
