data_PCOD8307135
_publ_section_title
;
Structure prediction by ZEFSAII (Michael W. Deem and Ramdas Pophale) SiO2 
 PCOD8307135
Probable space group: P 42 M C
;
_chemical_formula_sum "Si O2"
_cell_formula_units_Z 56
_cell_length_a 15.278841
_cell_length_b 15.278841
_cell_length_c 14.229930
_cell_angle_alpha 90.000000
_cell_angle_beta 90.000000
_cell_angle_gamma 90.000000
_cell_volume 3321.877297
_symmetry_space_group_name_H-M "P 42 M C"
_symmetry_group_IT_number 105
_symmetry_cell_setting 'tetragonal'
loop_
_space_group_symop_operation_xyz
x,y,z
-y,x,1/2+z
-x,-y,z
y,-x,1/2+z
-x,y,z
x,-y,z
-y,-x,1/2+z
y,x,1/2+z
loop_
_atom_site_type_symbol
_atom_site_label
_atom_site_fract_x
_atom_site_fract_y
_atom_site_fract_z
Si Si1 0.404638 0.896953 0.119950
Si Si2 0.101077 0.594460 0.246719
Si Si3 0.225381 0.844652 0.425188
Si Si4 0.759666 0.896204 0.637034
Si Si5 0.398193 0.896877 0.331015
Si Si6 0.101637 0.687457 0.434791
Si Si7 0.095176 0.901578 0.782494
O O1 0.500000 0.853781 0.105509
O O2 0.370794 0.873400 0.224081
O O3 0.414503 0.000000 0.110532
O O4 0.341665 0.863872 0.037408
O O5 0.145279 0.500000 0.224706
O O6 0.143218 0.670038 0.181395
O O7 0.109788 0.610867 0.358263
O O8 0.000000 0.590160 0.219346
O O9 0.221665 0.857464 0.535778
O O10 0.328139 0.844670 0.395040
O O11 0.171138 0.757978 0.398823
O O12 0.167975 0.915260 0.367962
O O13 0.838172 0.866239 0.704442
O O14 0.755286 0.000000 0.629894
O O15 0.500000 0.869265 0.351380
O O16 0.388438 0.000000 0.351081
O O17 0.000000 0.721021 0.438135
O O18 0.000000 0.905919 0.734272
O O19 0.122337 0.000000 0.817470
#
# Coordination Sequence:
#
# PCOD8307135 Si02
#       7
#     8   8   8   8   8   8   8
#     4   8  15  29  49  72  96 124 162 207 254 302
#     4   9  17  32  52  70  96 132 166 209 258 299
#     4  12  22  32  50  72 100 133 168 211 256 295
#     4  10  21  35  46  67  96 129 178 216 243 293
#     4   9  19  35  52  70  93 127 173 215 254 302
#     4  10  19  30  48  76 105 132 166 206 250 305
#     4  10  21  36  50  66  96 138 180 214 242 282
#
# _framework density 16.857937
#
# number of rings (size 3 to 8) (size 9 to 14) (size 15 to 20)
#    0.000    2.286    1.429    3.000    2.000    3.429 
#    0.000    2.857    0.000    0.000    0.000    0.000 
#    0.000    2.286    0.000    6.857    0.000    0.000 
#
# Total GULP energy -693740.257077 kJ/mol
# GULP energy per Si atom -12388.218876 kJ/mol
# Density = 1.681957 g / cm^3
# Si number density = 16.857937 Si / 1000 Ang^3
#
#
#
# Elastic Constant Matrix: (Units=GPa)
#
#
# Indices 1 2 3 4 5 6 
#
# 1 82.4391 28.2688 36.1215 0.0000 0.0000 0.0000
# 2 28.2688 82.4391 36.1215 0.0000 0.0000 0.0000
# 3 36.1215 36.1215 106.7323 0.0000 0.0000 0.0000
# 4 0.0000 0.0000 0.0000 20.7715 0.0000 0.0000
# 5 0.0000 0.0000 0.0000 0.0000 20.7715 0.0000
# 6 0.0000 0.0000 0.0000 0.0000 0.0000 7.6472
#
#
#
# Elastic Compliance Matrix: (Units=1/GPa)
#
#
# Indices 1 2 3 4 5 6 
#
# 1 0.015027 -0.003434 -0.003923 0.000000 0.000000 0.000000
# 2 -0.003434 0.015027 -0.003923 0.000000 0.000000 0.000000
# 3 -0.003923 -0.003923 0.012025 0.000000 0.000000 0.000000
# 4 0.000000 0.000000 0.000000 0.048143 0.000000 0.000000
# 5 0.000000 0.000000 0.000000 0.000000 0.048143 0.000000
# 6 0.000000 0.000000 0.000000 0.000000 0.000000 0.130767
#
#
# Mechanical properties :
#
#
# Convention : Reuss Voigt Hill
#
# Bulk Modulus (GPa) = 51.23694 52.51491 51.87592
# Shear Modulus (GPa) = 16.76741 21.24462 19.00602
#
# Velocity S-wave (km/s) = 3.15720 3.55380 3.36135
# Velocity P-wave (km/s) = 6.61437 6.93242 6.77526
#
# Compressibility (1/GPa) = 0.01951717
#
# Stress axis : x y z
#
# Youngs Moduli (GPa) = 66.54838 66.54838 83.16112
#
# Poissons Ratio (x) = 0.22850 0.32628
# Poissons Ratio (y) = 0.22850 0.32628
# Poissons Ratio (z) = 0.26110 0.26110
#
# Static dielectric constant tensor:
#      x y z
#    x 3.143920 0.000000 0.000000 
#    y 0.000000 3.143920 0.000000 
#    z 0.000000 0.000000 3.319140 
# 
# 
# High freq. dielectric constant tensor:
#      x y z
#    x 1.619440 0.000000 0.000000 
#    y 0.000000 1.619440 0.000000 
#    z 0.000000 0.000000 1.659330 
# 
# From -- ./inp_files/2612.got.cif
#   From: 2010.03.12/outbox.cif.g09.slc.cpg/sg105_2_cif.got.tgz:2612.got - 2010.04.14 01:45:32.
