data_PCOD8307622
_publ_section_title
;
Structure prediction by ZEFSAII (Michael W. Deem and Ramdas Pophale) SiO2 
 PCOD8307622
Probable space group: I 4 M M
;
_chemical_formula_sum "Si O2"
_cell_formula_units_Z 80
_cell_length_a 13.683649
_cell_length_b 13.683649
_cell_length_c 25.012943
_cell_angle_alpha 90.000000
_cell_angle_beta 90.000000
_cell_angle_gamma 90.000000
_cell_volume 4683.479725
_symmetry_space_group_name_H-M "I 4 M M"
_symmetry_group_IT_number 107
_symmetry_cell_setting 'tetragonal'
loop_
_space_group_symop_operation_xyz
x,y,z
-y,x,z
-x,-y,z
y,-x,z
-x,y,z
x,-y,z
-y,-x,z
y,x,z
1/2+x,1/2+y,1/2+z
1/2-y,1/2+x,1/2+z
1/2-x,1/2-y,1/2+z
1/2+y,1/2-x,1/2+z
1/2-x,1/2+y,1/2+z
1/2+x,1/2-y,1/2+z
1/2-y,1/2-x,1/2+z
1/2+y,1/2+x,1/2+z
loop_
_atom_site_type_symbol
_atom_site_label
_atom_site_fract_x
_atom_site_fract_y
_atom_site_fract_z
Si Si1 0.612277 0.887722 0.334420
Si Si2 0.730010 0.111958 0.645952
Si Si3 0.886093 0.727573 0.940175
Si Si4 0.611958 0.769991 0.022889
Si Si5 0.727573 0.113907 0.228665
O O1 0.500000 0.869973 0.318463
O O2 0.643239 0.821963 0.384352
O O3 0.678037 0.856761 0.284488
O O4 0.630026 0.000000 0.350377
O O5 0.829654 0.170347 0.658407
O O6 0.698624 0.123273 0.584420
O O7 0.641516 0.153977 0.680979
O O8 0.749967 0.000000 0.661221
O O9 0.829418 0.829418 0.946081
O O10 0.000000 0.751008 0.943693
O O11 0.858484 0.653976 0.987861
O O12 0.500000 0.750033 0.007620
O O13 0.670348 0.670348 0.010433
O O14 0.829419 0.170582 0.222759
O O15 0.751008 0.000000 0.225147
#
# Coordination Sequence:
#
# PCOD8307622 Si02
#       5
#    16  16  16  16  16
#     4   9  17  30  50  74  95 117 150 192 239 289
#     4   9  18  32  50  73  99 125 154 190 234 284
#     4  10  20  33  49  69  95 127 162 199 236 275
#     4   9  18  32  50  73  99 125 154 190 234 284
#     4  10  20  33  49  69  95 127 162 199 236 275
#
# _framework density 17.081316000000001
#
# number of rings (size 3 to 8) (size 9 to 14) (size 15 to 20)
#    0.000    2.600    0.000    1.800    0.000    4.000 
#    0.000    4.000    0.000    0.000    0.000   11.200 
#    0.000    0.000    0.000    0.000    0.000    0.000 
#
# Total GULP energy -496100.101293 kJ/mol
# GULP energy per Si atom -12402.502532 kJ/mol
# Density = 1.704244 g / cm^3
# Si number density = 17.081316 Si / 1000 Ang^3
#
#
#
# Elastic Constant Matrix: (Units=GPa)
#
#
# Indices 1 2 3 4 5 6 
#
# 1 101.3367 48.4115 58.1136 0.0000 0.0000 0.0000
# 2 48.4115 101.3367 58.1136 0.0000 0.0000 0.0000
# 3 58.1136 58.1136 94.9861 0.0000 0.0000 0.0000
# 4 0.0000 0.0000 0.0000 27.3647 0.0000 0.0000
# 5 0.0000 0.0000 0.0000 0.0000 27.3647 0.0000
# 6 0.0000 0.0000 0.0000 0.0000 0.0000 16.0163
#
#
#
# Elastic Compliance Matrix: (Units=1/GPa)
#
#
# Indices 1 2 3 4 5 6 
#
# 1 0.015805 -0.003089 -0.007780 0.000000 0.000000 0.000000
# 2 -0.003089 0.015805 -0.007780 0.000000 0.000000 0.000000
# 3 -0.007780 -0.007780 0.020048 0.000000 0.000000 0.000000
# 4 0.000000 0.000000 0.000000 0.036543 0.000000 0.000000
# 5 0.000000 0.000000 0.000000 0.000000 0.036543 0.000000
# 6 0.000000 0.000000 0.000000 0.000000 0.000000 0.062436
#
#
# Mechanical properties :
#
#
# Convention : Reuss Voigt Hill
#
# Bulk Modulus (GPa) = 69.63640 69.65967 69.64804
# Shear Modulus (GPa) = 21.80864 23.01718 22.41291
#
# Velocity S-wave (km/s) = 3.57705 3.67482 3.62626
# Velocity P-wave (km/s) = 7.61028 7.67304 7.64173
#
# Compressibility (1/GPa) = 0.01436030
#
# Stress axis : x y z
#
# Youngs Moduli (GPa) = 63.26922 63.26922 49.88115
#
# Poissons Ratio (x) = 0.19545 0.38808
# Poissons Ratio (y) = 0.19545 0.38808
# Poissons Ratio (z) = 0.49223 0.49223
#
# Static dielectric constant tensor:
#      x y z
#    x 3.094090 0.000000 0.000000 
#    y 0.000000 3.094090 0.000000 
#    z 0.000000 0.000000 3.307230 
# 
# 
# High freq. dielectric constant tensor:
#      x y z
#    x 1.655130 0.000000 0.000000 
#    y 0.000000 1.655130 0.000000 
#    z 0.000000 0.000000 1.668950 
# 
# From -- ./inp_files/4589.got.cif
#   From: 2010.03.12/outbox.cif.g09.slc.cpg/sg107_3_cif.got.tgz:4589.got - 2010.04.14 01:49:11.
