data_PCOD8307430
_publ_section_title
;
Structure prediction by ZEFSAII (Michael W. Deem and Ramdas Pophale) SiO2 
 PCOD8307430
Probable space group: P 42 B C
;
_chemical_formula_sum "Si O2"
_cell_formula_units_Z 40
_cell_length_a 12.301196
_cell_length_b 12.301196
_cell_length_c 12.774890
_cell_angle_alpha 90.000000
_cell_angle_beta 90.000000
_cell_angle_gamma 90.000000
_cell_volume 1933.088984
_symmetry_space_group_name_H-M "P 42 B C"
_symmetry_group_IT_number 106
_symmetry_cell_setting 'tetragonal'
loop_
_space_group_symop_operation_xyz
x,y,z
-y,x,1/2+z
-x,-y,z
y,-x,1/2+z
1/2-x,1/2+y,z
1/2+x,1/2-y,z
1/2-y,1/2-x,1/2+z
1/2+y,1/2+x,1/2+z
loop_
_atom_site_type_symbol
_atom_site_label
_atom_site_fract_x
_atom_site_fract_y
_atom_site_fract_z
Si Si1 0.881570 0.516915 0.121210
Si Si2 0.252442 0.785720 0.078463
Si Si3 0.392882 0.425649 0.937008
Si Si4 0.401040 0.213274 0.437303
Si Si5 0.740920 0.876342 0.267581
O O1 0.858996 0.639546 0.086106
O O2 0.786076 0.484830 0.202429
O O3 0.000000 0.500000 0.171634
O O4 0.876574 0.438520 0.020918
O O5 0.244603 0.727753 0.190832
O O6 0.144745 0.856214 0.040694
O O7 0.280166 0.699762 0.987316
O O8 0.500000 0.500000 0.959148
O O9 0.295568 0.505044 0.905709
O O10 0.403917 0.347967 0.835451
O O11 0.363841 0.146502 0.337627
#
# Coordination Sequence:
#
# PCOD8307430 Si02
#       5
#     8   8   8   8   8
#     4  10  22  39  60  90 120 168 207 255 325 374
#     4   9  21  42  59  88 131 161 207 271 317 387
#     4  10  22  41  64  94 125 173 214 268 337 390
#     4   9  21  41  59  87 125 164 208 261 323 382
#     4  10  22  39  61  95 123 162 220 264 314 389
#
# _framework density 20.692270000000001
#
# number of rings (size 3 to 8) (size 9 to 14) (size 15 to 20)
#    0.000    2.400    0.000    0.000    5.600    5.600 
#   10.800    0.000    0.000    0.000    0.000    0.000 
#    0.000    0.000    0.000    0.000    0.000    0.000 
#
# Total GULP energy -495649.523534 kJ/mol
# GULP energy per Si atom -12391.238088 kJ/mol
# Density = 2.064517 g / cm^3
# Si number density = 20.692270 Si / 1000 Ang^3
#
#
#
# Elastic Constant Matrix: (Units=GPa)
#
#
# Indices 1 2 3 4 5 6 
#
# 1 95.6118 29.4296 25.0746 0.0000 0.0000 0.0000
# 2 29.4296 95.6118 25.0746 0.0000 0.0000 0.0000
# 3 25.0746 25.0746 87.3554 0.0000 0.0000 0.0000
# 4 0.0000 0.0000 0.0000 22.3769 0.0000 0.0000
# 5 0.0000 0.0000 0.0000 0.0000 22.3769 0.0000
# 6 0.0000 0.0000 0.0000 0.0000 0.0000 28.6220
#
#
#
# Elastic Compliance Matrix: (Units=1/GPa)
#
#
# Indices 1 2 3 4 5 6 
#
# 1 0.012074 -0.003036 -0.002594 0.000000 0.000000 0.000000
# 2 -0.003036 0.012074 -0.002594 0.000000 0.000000 0.000000
# 3 -0.002594 -0.002594 0.012937 0.000000 0.000000 0.000000
# 4 0.000000 0.000000 0.000000 0.044689 0.000000 0.000000
# 5 0.000000 0.000000 0.000000 0.000000 0.044689 0.000000
# 6 0.000000 0.000000 0.000000 0.000000 0.000000 0.034938
#
#
# Mechanical properties :
#
#
# Convention : Reuss Voigt Hill
#
# Bulk Modulus (GPa) = 48.46022 48.63742 48.54882
# Shear Modulus (GPa) = 27.06686 27.94184 27.50435
#
# Velocity S-wave (km/s) = 3.62064 3.67870 3.64979
# Velocity P-wave (km/s) = 6.39915 6.44980 6.42452
#
# Compressibility (1/GPa) = 0.02063548
#
# Stress axis : x y z
#
# Youngs Moduli (GPa) = 82.82395 82.82395 77.29897
#
# Poissons Ratio (x) = 0.25145 0.20053
# Poissons Ratio (y) = 0.25145 0.20053
# Poissons Ratio (z) = 0.21486 0.21486
#
# Static dielectric constant tensor:
#      x y z
#    x 3.800930 0.000000 0.000000 
#    y 0.000000 3.800930 0.000000 
#    z 0.000000 0.000000 3.784960 
# 
# 
# High freq. dielectric constant tensor:
#      x y z
#    x 1.807040 0.000000 0.000000 
#    y 0.000000 1.807040 0.000000 
#    z 0.000000 0.000000 1.811560 
# 
# From -- ./inp_files/1219.got.cif
#   From: 2010.03.12/outbox.cif.g09.slc.cpg/sg106_cif.got.tgz:1219.got - 2010.04.14 01:48:02.
