data_PCOD8307370
_publ_section_title
;
Structure prediction by ZEFSAII (Michael W. Deem and Ramdas Pophale) SiO2 
 PCOD8307370
Probable space group: P 42 M C
;
_chemical_formula_sum "Si O2"
_cell_formula_units_Z 48
_cell_length_a 9.340109
_cell_length_b 9.340109
_cell_length_c 30.929057
_cell_angle_alpha 90.000000
_cell_angle_beta 90.000000
_cell_angle_gamma 90.000000
_cell_volume 2698.177820
_symmetry_space_group_name_H-M "P 42 M C"
_symmetry_group_IT_number 105
_symmetry_cell_setting 'tetragonal'
loop_
_space_group_symop_operation_xyz
x,y,z
-y,x,1/2+z
-x,-y,z
y,-x,1/2+z
-x,y,z
x,-y,z
-y,-x,1/2+z
y,x,1/2+z
loop_
_atom_site_type_symbol
_atom_site_label
_atom_site_fract_x
_atom_site_fract_y
_atom_site_fract_z
Si Si1 0.332386 0.831685 0.815650
Si Si2 0.669967 0.158132 0.485310
Si Si3 0.669967 0.158132 0.145990
Si Si4 0.831812 0.666109 0.888659
Si Si5 0.333891 0.168188 0.242641
Si Si6 0.666411 0.333589 0.565650
O O1 0.500000 0.796176 0.815650
O O2 0.261678 0.764518 0.857938
O O3 0.261677 0.764519 0.773362
O O4 0.302737 0.000000 0.815650
O O5 0.500000 0.153426 0.487561
O O6 0.713016 0.210939 0.437411
O O7 0.731692 0.261230 0.522556
O O8 0.732704 0.000000 0.493602
O O9 0.500000 0.153426 0.143739
O O10 0.713016 0.210940 0.193889
O O11 0.731692 0.261230 0.108744
O O12 0.732704 0.000000 0.137698
O O13 0.794607 0.500000 0.880138
O O14 0.000000 0.691985 0.880385
O O15 0.500000 0.205394 0.251162
O O16 0.308015 0.000000 0.250915
O O17 0.500000 0.300568 0.570314
O O18 0.699432 0.500000 0.560986
#
# Coordination Sequence:
#
# PCOD8307370 Si02
#       6
#     8   8   8   8   8   8
#     4  11  24  37  48  70 104 133 158 195 246 300
#     4   8  15  29  48  70  96 124 155 194 237 279
#     4   8  15  29  48  70  96 124 155 194 237 279
#     4   9  18  34  56  77  95 123 167 209 242 285
#     4   9  18  34  56  77  95 123 167 209 242 285
#     4   9  16  26  44  71  98 124 156 191 228 274
#
# _framework density 17.789783
#
# number of rings (size 3 to 8) (size 9 to 14) (size 15 to 20)
#    0.000    3.000    0.000    3.000    0.000    5.333 
#    0.000    5.000    0.000    6.500    0.000    0.000 
#    0.000    0.000    0.000    0.000    0.000    0.000 
#
# Total GULP energy -594977.797630 kJ/mol
# GULP energy per Si atom -12395.370784 kJ/mol
# Density = 1.774929 g / cm^3
# Si number density = 17.789783 Si / 1000 Ang^3
#
#
#
# Elastic Constant Matrix: (Units=GPa)
#
#
# Indices 1 2 3 4 5 6 
#
# 1 73.7058 54.5693 77.1699 0.0000 0.0000 0.0000
# 2 54.5693 73.7058 77.1699 0.0000 0.0000 0.0000
# 3 77.1699 77.1699 190.9635 0.0000 0.0000 0.0000
# 4 0.0000 0.0000 0.0000 1.5495 0.0000 0.0000
# 5 0.0000 0.0000 0.0000 0.0000 1.5495 0.0000
# 6 0.0000 0.0000 0.0000 0.0000 0.0000 21.2025
#
#
#
# Elastic Compliance Matrix: (Units=1/GPa)
#
#
# Indices 1 2 3 4 5 6 
#
# 1 0.033715 -0.018542 -0.006132 0.000000 0.000000 0.000000
# 2 -0.018542 0.033715 -0.006132 0.000000 0.000000 0.000000
# 3 -0.006132 -0.006132 0.010192 0.000000 0.000000 0.000000
# 4 0.000000 0.000000 0.000000 0.645360 0.000000 0.000000
# 5 0.000000 0.000000 0.000000 0.000000 0.645360 0.000000
# 6 0.000000 0.000000 0.000000 0.000000 0.000000 0.047164
#
#
# Mechanical properties :
#
#
# Convention : Reuss Voigt Hill
#
# Bulk Modulus (GPa) = 62.45196 84.02147 73.23671
# Shear Modulus (GPa) = 3.37279 13.49137 8.43208
#
# Velocity S-wave (km/s) = 1.37842 2.75685 2.17948
# Velocity P-wave (km/s) = 6.14126 7.58066 6.89860
#
# Compressibility (1/GPa) = 0.01601231
#
# Stress axis : x y z
#
# Youngs Moduli (GPa) = 29.66052 29.66052 98.11317
#
# Poissons Ratio (x) = 0.54995 0.60160
# Poissons Ratio (y) = 0.54995 0.60160
# Poissons Ratio (z) = 0.18187 0.18187
#
# Static dielectric constant tensor:
#      x y z
#    x 3.166830 0.000000 0.000000 
#    y 0.000000 3.166830 0.000000 
#    z 0.000000 0.000000 3.747330 
# 
# 
# High freq. dielectric constant tensor:
#      x y z
#    x 1.665000 0.000000 0.000000 
#    y 0.000000 1.665000 0.000000 
#    z 0.000000 0.000000 1.708280 
# 
# From -- ./inp_files/4697.got.cif
#   From: 2010.03.12/outbox.cif.g09.slc.cpg/sg105_3_cif.got.tgz:4697.got - 2010.04.14 01:45:32.
