data_PCOD8307777
_publ_section_title
;
Structure prediction by ZEFSAII (Michael W. Deem and Ramdas Pophale) SiO2 
 PCOD8307777
Probable space group: I 4 C M
;
_chemical_formula_sum "Si O2"
_cell_formula_units_Z 112
_cell_length_a 13.538993
_cell_length_b 13.538993
_cell_length_c 32.049267
_cell_angle_alpha 90.000000
_cell_angle_beta 90.000000
_cell_angle_gamma 90.000000
_cell_volume 5874.769461
_symmetry_space_group_name_H-M "I 4 C M"
_symmetry_group_IT_number 108
_symmetry_cell_setting 'tetragonal'
loop_
_space_group_symop_operation_xyz
x,y,z
-y,x,z
-x,-y,z
y,-x,z
-x,y,1/2+z
x,-y,1/2+z
-y,-x,1/2+z
y,x,1/2+z
1/2+x,1/2+y,1/2+z
1/2-y,1/2+x,1/2+z
1/2-x,1/2-y,1/2+z
1/2+y,1/2-x,1/2+z
1/2-x,1/2+y,z
1/2+x,1/2-y,z
1/2-y,1/2-x,z
1/2+y,1/2+x,z
loop_
_atom_site_type_symbol
_atom_site_label
_atom_site_fract_x
_atom_site_fract_y
_atom_site_fract_z
Si Si1 0.159052 0.026172 0.416290
Si Si2 0.279486 0.381067 0.633996
Si Si3 0.980816 0.838131 0.821500
Si Si4 0.079669 0.740099 0.674393
Si Si5 0.613790 0.273393 0.540838
Si Si6 0.253615 0.085055 0.496750
Si Si7 0.001105 0.661412 0.759551
O O1 0.198954 0.028588 0.369090
O O2 0.111519 0.920260 0.424062
O O3 0.246795 0.044835 0.449239
O O4 0.181582 0.318419 0.638371
O O5 0.359061 0.341943 0.668151
O O6 0.245620 0.491398 0.642233
O O7 0.322289 0.377291 0.586914
O O8 0.891949 0.914825 0.812279
O O9 0.970133 0.739036 0.794773
O O10 0.147572 0.647572 0.661465
O O11 0.038002 0.727148 0.720851
O O12 0.670815 0.170815 0.539797
O O13 0.658091 0.348705 0.507080
O O14 0.502508 0.246021 0.529839
O O15 0.354306 0.145695 0.502085
O O16 0.905639 0.594362 0.747689
O O17 0.090114 0.590114 0.774918
#
# Coordination Sequence:
#
# PCOD8307777 Si02
#       7
#    16  16  16  16  16  16  16
#     4   9  17  35  59  84 112 147 192 241 286 339
#     4  10  21  38  59  82 113 151 193 238 287 341
#     4   9  20  37  60  90 120 147 190 244 291 343
#     4  10  22  39  58  84 115 147 192 240 283 340
#     4  10  22  37  55  85 115 146 195 241 281 344
#     4  11  21  35  58  83 116 155 191 237 289 340
#     4  10  22  39  59  85 117 155 197 236 285 353
#
# _framework density 19.064577
#
# number of rings (size 3 to 8) (size 9 to 14) (size 15 to 20)
#    0.000    2.143    1.429    2.143    2.000    4.571 
#    0.000    5.714    0.000    0.000    0.000    0.000 
#    0.000    0.000    0.000    0.000    0.000    0.000 
#
# Total GULP energy -694251.628362 kJ/mol
# GULP energy per Si atom -12397.350506 kJ/mol
# Density = 1.902119 g / cm^3
# Si number density = 19.064577 Si / 1000 Ang^3
#
#
#
# Elastic Constant Matrix: (Units=GPa)
#
#
# Indices 1 2 3 4 5 6 
#
# 1 102.2864 35.4094 58.5669 0.0000 0.0000 -0.0002
# 2 35.4094 102.2864 58.5669 0.0000 0.0000 0.0002
# 3 58.5669 58.5669 84.1640 0.0000 0.0000 0.0000
# 4 0.0000 0.0000 0.0000 32.9341 0.0000 0.0000
# 5 0.0000 0.0000 0.0000 0.0000 32.9341 0.0000
# 6 -0.0002 0.0002 0.0000 0.0000 0.0000 12.3120
#
#
#
# Elastic Compliance Matrix: (Units=1/GPa)
#
#
# Indices 1 2 3 4 5 6 
#
# 1 0.016375 0.001423 -0.012385 0.000000 0.000000 0.000000
# 2 0.001423 0.016375 -0.012385 0.000000 0.000000 0.000000
# 3 -0.012385 -0.012385 0.029118 0.000000 0.000000 0.000000
# 4 0.000000 0.000000 0.000000 0.030364 0.000000 0.000000
# 5 0.000000 0.000000 0.000000 0.000000 0.030364 0.000000
# 6 0.000000 0.000000 0.000000 0.000000 0.000000 0.081222
#
#
# Mechanical properties :
#
#
# Convention : Reuss Voigt Hill
#
# Bulk Modulus (GPa) = 65.90186 65.98038 65.94112
# Shear Modulus (GPa) = 19.56404 24.71562 22.13983
#
# Velocity S-wave (km/s) = 3.20691 3.60448 3.41149
# Velocity P-wave (km/s) = 6.95378 7.21159 7.08386
#
# Compressibility (1/GPa) = 0.01517408
#
# Stress axis : x y z
#
# Youngs Moduli (GPa) = 61.06727 61.06727 34.34277
#
# Poissons Ratio (x) = -0.08687 0.42534
# Poissons Ratio (y) = -0.08687 0.42534
# Poissons Ratio (z) = 0.75632 0.75632
#
# Static dielectric constant tensor:
#      x y z
#    x 3.424660 0.000000 0.000000 
#    y 0.000000 3.424660 0.000000 
#    z 0.000000 0.000000 3.537070 
# 
# 
# High freq. dielectric constant tensor:
#      x y z
#    x 1.734300 0.000000 0.000000 
#    y 0.000000 1.734300 0.000000 
#    z 0.000000 0.000000 1.746410 
# 
# From -- ./inp_files/3373.got.cif
#   From: 2010.03.12/outbox.cif.g09.slc.cpg/sg108_2_cif.got.tgz:3373.got - 2010.04.14 01:53:11.
