data_PCOD8307890
_publ_section_title
;
Structure prediction by ZEFSAII (Michael W. Deem and Ramdas Pophale) SiO2 
 PCOD8307890
Probable space group: I 41 M D
;
_chemical_formula_sum "Si O2"
_cell_formula_units_Z 64
_cell_length_a 19.664738
_cell_length_b 19.664738
_cell_length_c 6.972090
_cell_angle_alpha 90.000000
_cell_angle_beta 90.000000
_cell_angle_gamma 90.000000
_cell_volume 2696.120594
_symmetry_space_group_name_H-M "I 41 M D"
_symmetry_group_IT_number 109
_symmetry_cell_setting 'tetragonal'
loop_
_space_group_symop_operation_xyz
x,y,z
-y,1/2+x,1/4+z
-x,-y,z
y,1/2-x,1/4+z
-x,y,z
x,-y,z
-y,1/2-x,1/4+z
y,1/2+x,1/4+z
1/2+x,1/2+y,1/2+z
1/2-y,x,3/4+z
1/2-x,1/2-y,1/2+z
1/2+y,-x,3/4+z
1/2-x,1/2+y,1/2+z
1/2+x,1/2-y,1/2+z
1/2-y,-x,3/4+z
1/2+y,x,3/4+z
loop_
_atom_site_type_symbol
_atom_site_label
_atom_site_fract_x
_atom_site_fract_y
_atom_site_fract_z
Si Si1 0.638621 0.423889 0.101610
Si Si2 0.671098 0.922887 0.066657
Si Si3 0.124873 0.322603 0.250641
Si Si4 0.752698 0.167978 0.498389
O O1 0.617931 0.500000 0.039895
O O2 0.642528 0.419702 0.332477
O O3 0.714706 0.406955 0.015496
O O4 0.585365 0.367083 0.023591
O O5 0.661923 0.000000 0.996390
O O6 0.627547 0.872101 0.932828
O O7 0.751159 0.906585 0.066224
O O8 0.201377 0.316178 0.170823
O O9 0.816694 0.220540 0.539863
#
# Coordination Sequence:
#
# PCOD8307890 Si02
#       4
#    16  16  16  16
#     4  11  26  44  69 105 148 193 242 295 366 444
#     4  12  28  47  74 111 147 193 249 304 367 443
#     4  11  24  44  76 107 147 184 244 310 373 430
#     4  10  19  35  65  97 133 175 222 293 359 407
#
# _framework density 23.737811000000001
#
# number of rings (size 3 to 8) (size 9 to 14) (size 15 to 20)
#    0.000    1.000    5.000    2.250    7.000    3.500 
#    0.000    0.000    0.000    0.000    0.000    0.000 
#    0.000    0.000    0.000    0.000    0.000    0.000 
#
# Total GULP energy -396468.815053 kJ/mol
# GULP energy per Si atom -12389.650470 kJ/mol
# Density = 2.368378 g / cm^3
# Si number density = 23.737811 Si / 1000 Ang^3
#
#
#
# Elastic Constant Matrix: (Units=GPa)
#
#
# Indices 1 2 3 4 5 6 
#
# 1 144.4698 41.9753 33.5630 0.0000 0.0000 0.0000
# 2 41.9753 144.4698 33.5630 0.0000 0.0000 0.0000
# 3 33.5630 33.5630 98.7694 0.0000 0.0000 0.0000
# 4 0.0000 0.0000 0.0000 27.2275 0.0000 0.0000
# 5 0.0000 0.0000 0.0000 0.0000 27.2275 0.0000
# 6 0.0000 0.0000 0.0000 0.0000 0.0000 15.1049
#
#
#
# Elastic Compliance Matrix: (Units=1/GPa)
#
#
# Indices 1 2 3 4 5 6 
#
# 1 0.007934 -0.001823 -0.002077 0.000000 0.000000 0.000000
# 2 -0.001823 0.007934 -0.002077 0.000000 0.000000 0.000000
# 3 -0.002077 -0.002077 0.011536 0.000000 0.000000 0.000000
# 4 0.000000 0.000000 0.000000 0.036728 0.000000 0.000000
# 5 0.000000 0.000000 0.000000 0.000000 0.036728 0.000000
# 6 0.000000 0.000000 0.000000 0.000000 0.000000 0.066204
#
#
# Mechanical properties :
#
#
# Convention : Reuss Voigt Hill
#
# Bulk Modulus (GPa) = 64.71789 67.32352 66.02071
# Shear Modulus (GPa) = 27.14952 32.48580 29.81766
#
# Velocity S-wave (km/s) = 3.38557 3.70337 3.54803
# Velocity P-wave (km/s) = 6.52730 6.83443 6.68263
#
# Compressibility (1/GPa) = 0.01545168
#
# Stress axis : x y z
#
# Youngs Moduli (GPa) = 126.04148 126.04148 86.68569
#
# Poissons Ratio (x) = 0.22974 0.18002
# Poissons Ratio (y) = 0.22974 0.18002
# Poissons Ratio (z) = 0.26174 0.26174
#
# Static dielectric constant tensor:
#      x y z
#    x 4.192160 0.000000 0.000000 
#    y 0.000000 4.192160 0.000000 
#    z 0.000000 0.000000 4.501670 
# 
# 
# High freq. dielectric constant tensor:
#      x y z
#    x 1.922380 0.000000 0.000000 
#    y 0.000000 1.922380 0.000000 
#    z 0.000000 0.000000 1.952220 
# 
# From -- ./inp_files/1206.got.cif
#   From: 2010.03.12/outbox.cif.g09.slc.cpg/sg109_1_cif.got.tgz:1206.got - 2010.04.14 01:55:16.
