data_PCOD8307670
_publ_section_title
;
Structure prediction by ZEFSAII (Michael W. Deem and Ramdas Pophale) SiO2 
 PCOD8307670
Probable space group: I 4 M M
;
_chemical_formula_sum "Si O2"
_cell_formula_units_Z 128
_cell_length_a 24.935233
_cell_length_b 24.935233
_cell_length_c 10.527670
_cell_angle_alpha 90.000000
_cell_angle_beta 90.000000
_cell_angle_gamma 90.000000
_cell_volume 6545.745631
_symmetry_space_group_name_H-M "I 4 M M"
_symmetry_group_IT_number 107
_symmetry_cell_setting 'tetragonal'
loop_
_space_group_symop_operation_xyz
x,y,z
-y,x,z
-x,-y,z
y,-x,z
-x,y,z
x,-y,z
-y,-x,z
y,x,z
1/2+x,1/2+y,1/2+z
1/2-y,1/2+x,1/2+z
1/2-x,1/2-y,1/2+z
1/2+y,1/2-x,1/2+z
1/2-x,1/2+y,1/2+z
1/2+x,1/2-y,1/2+z
1/2-y,1/2-x,1/2+z
1/2+y,1/2+x,1/2+z
loop_
_atom_site_type_symbol
_atom_site_label
_atom_site_fract_x
_atom_site_fract_y
_atom_site_fract_z
Si Si1 0.058927 0.252474 0.830320
Si Si2 0.258144 0.342312 0.499335
Si Si3 0.148360 0.939905 0.349041
Si Si4 0.395566 0.312189 0.113827
Si Si5 0.247164 0.402251 0.733449
Si Si6 0.062013 0.374545 0.843944
Si Si7 0.740798 0.172952 0.455790
Si Si8 0.866431 0.438331 0.640044
O O1 0.062112 0.212851 0.710386
O O2 0.068355 0.314080 0.792657
O O3 0.000000 0.245993 0.891068
O O4 0.101350 0.233699 0.932554
O O5 0.302466 0.302466 0.444501
O O6 0.265990 0.352338 0.647717
O O7 0.199660 0.316488 0.481247
O O8 0.102467 0.897533 0.306274
O O9 0.168334 0.926830 0.489895
O O10 0.200346 0.938788 0.256716
O O11 0.124248 0.000000 0.344645
O O12 0.362949 0.362949 0.171969
O O13 0.352370 0.265307 0.083756
O O14 0.227761 0.376027 0.863601
O O15 0.197344 0.432696 0.667459
O O16 0.098616 0.408576 0.747534
O O17 0.000000 0.393391 0.832187
O O18 0.080382 0.378487 0.993601
O O19 0.784275 0.215726 0.400840
O O20 0.882026 0.500000 0.652603
#
# Coordination Sequence:
#
# PCOD8307670 Si02
#       8
#    16  16  16  16  16  16  16  16
#     4  11  22  36  54  79 113 151 189 234 284 347
#     4  11  22  34  54  81 113 152 189 229 281 341
#     4  10  21  38  60  86 117 154 197 249 303 362
#     4   9  19  36  57  84 115 146 186 235 292 355
#     4  11  21  36  58  82 119 152 191 238 294 358
#     4  10  24  43  62  89 121 157 206 260 308 358
#     4   9  20  34  53  83 115 146 184 231 286 352
#     4  11  24  42  64  88 118 160 206 256 313 365
#
# _framework density 19.554684999999999
#
# number of rings (size 3 to 8) (size 9 to 14) (size 15 to 20)
#    0.000    1.750    1.250    3.750    3.500    2.375 
#    0.000    3.750    0.000    0.000    0.000    0.000 
#    0.000    2.250    0.000    0.250    0.000    0.000 
#
# Total GULP energy -793165.046471 kJ/mol
# GULP energy per Si atom -12393.203851 kJ/mol
# Density = 1.951018 g / cm^3
# Si number density = 19.554685 Si / 1000 Ang^3
#
#
#
# Elastic Constant Matrix: (Units=GPa)
#
#
# Indices 1 2 3 4 5 6 
#
# 1 105.9539 45.2333 36.4520 0.0000 0.0000 -0.0004
# 2 45.2333 105.9539 36.4520 0.0000 0.0000 0.0004
# 3 36.4520 36.4520 64.5452 0.0000 0.0000 0.0000
# 4 0.0000 0.0000 0.0000 25.5601 0.0000 0.0000
# 5 0.0000 0.0000 0.0000 0.0000 25.5601 0.0000
# 6 -0.0004 0.0004 0.0000 0.0000 0.0000 23.3984
#
#
#
# Elastic Compliance Matrix: (Units=1/GPa)
#
#
# Indices 1 2 3 4 5 6 
#
# 1 0.012779 -0.003690 -0.005133 0.000000 0.000000 0.000000
# 2 -0.003690 0.012779 -0.005133 0.000000 0.000000 0.000000
# 3 -0.005133 -0.005133 0.021291 0.000000 0.000000 0.000000
# 4 0.000000 0.000000 0.000000 0.039124 0.000000 0.000000
# 5 0.000000 0.000000 0.000000 0.000000 0.039124 0.000000
# 6 0.000000 0.000000 0.000000 0.000000 0.000000 0.042738
#
#
# Mechanical properties :
#
#
# Convention : Reuss Voigt Hill
#
# Bulk Modulus (GPa) = 52.80680 56.96973 54.88827
# Shear Modulus (GPa) = 24.74514 25.45811 25.10162
#
# Velocity S-wave (km/s) = 3.56115 3.61209 3.58671
# Velocity P-wave (km/s) = 6.63117 6.82591 6.72924
#
# Compressibility (1/GPa) = 0.01893695
#
# Stress axis : x y z
#
# Youngs Moduli (GPa) = 78.25165 78.25165 46.96772
#
# Poissons Ratio (x) = 0.28872 0.24110
# Poissons Ratio (y) = 0.28872 0.24110
# Poissons Ratio (z) = 0.40170 0.40170
#
# Static dielectric constant tensor:
#      x y z
#    x 3.571420 0.000000 0.000000 
#    y 0.000000 3.571420 0.000000 
#    z 0.000000 0.000000 3.515380 
# 
# 
# High freq. dielectric constant tensor:
#      x y z
#    x 1.757840 0.000000 0.000000 
#    y 0.000000 1.757840 0.000000 
#    z 0.000000 0.000000 1.755160 
# 
# From -- ./inp_files/2640.got.cif
#   From: 2010.03.12/outbox.cif.g09.slc.cpg/sg107_2_cif.got.tgz:2640.got - 2010.04.14 01:49:11.
