data_PCOD8307189
_publ_section_title
;
Structure prediction by ZEFSAII (Michael W. Deem and Ramdas Pophale) SiO2 
 PCOD8307189
Probable space group: P 42 M C
;
_chemical_formula_sum "Si O2"
_cell_formula_units_Z 40
_cell_length_a 9.514044
_cell_length_b 9.514044
_cell_length_c 25.797921
_cell_angle_alpha 90.000000
_cell_angle_beta 90.000000
_cell_angle_gamma 90.000000
_cell_volume 2335.151273
_symmetry_space_group_name_H-M "P 42 M C"
_symmetry_group_IT_number 105
_symmetry_cell_setting 'tetragonal'
loop_
_space_group_symop_operation_xyz
x,y,z
-y,x,1/2+z
-x,-y,z
y,-x,1/2+z
-x,y,z
x,-y,z
-y,-x,1/2+z
y,x,1/2+z
loop_
_atom_site_type_symbol
_atom_site_label
_atom_site_fract_x
_atom_site_fract_y
_atom_site_fract_z
Si Si1 0.663208 0.664260 0.733950
Si Si2 0.832738 0.656641 0.912997
Si Si3 0.666289 0.345355 0.617490
Si Si4 0.162848 0.833922 0.316683
Si Si5 0.155524 0.667144 0.026470
O O1 0.500000 0.693625 0.745955
O O2 0.697526 0.500000 0.742916
O O3 0.701240 0.709434 0.675160
O O4 0.758840 0.760912 0.769469
O O5 0.775635 0.500000 0.899367
O O6 0.779875 0.766379 0.870014
O O7 0.000000 0.651487 0.915449
O O8 0.778774 0.705541 0.969988
O O9 0.500000 0.353139 0.610875
O O10 0.731235 0.500000 0.609811
O O11 0.733062 0.246914 0.573098
O O12 0.000000 0.790992 0.317816
O O13 0.182855 0.000000 0.309993
O O14 0.148074 0.500000 0.031195
O O15 0.000000 0.731849 0.032151
#
# Coordination Sequence:
#
# PCOD8307189 Si02
#       5
#     8   8   8   8   8
#     4   9  18  32  49  69  93 122 156 191 228 273
#     4   8  14  26  44  64  86 114 149 187 224 264
#     4   8  14  25  41  63  91 117 141 177 225 270
#     4  10  20  32  47  68  93 122 157 194 231 273
#     4   8  13  22  39  62  83 107 145 186 220 261
#
# _framework density 17.129512999999999
#
# number of rings (size 3 to 8) (size 9 to 14) (size 15 to 20)
#    0.000    3.400    0.000    3.000    0.000    2.400 
#    0.000    3.000    0.000    4.800    0.000    2.800 
#    0.000    0.000    0.000    0.000    0.000    0.000 
#
# Total GULP energy -495692.587046 kJ/mol
# GULP energy per Si atom -12392.314676 kJ/mol
# Density = 1.709053 g / cm^3
# Si number density = 17.129513 Si / 1000 Ang^3
#
#
#
# Elastic Constant Matrix: (Units=GPa)
#
#
# Indices 1 2 3 4 5 6 
#
# 1 59.5209 32.9496 62.3893 0.0000 0.0000 0.0000
# 2 32.9496 59.5209 62.3893 0.0000 0.0000 0.0000
# 3 62.3893 62.3893 169.1389 0.0000 0.0000 0.0000
# 4 0.0000 0.0000 0.0000 11.7046 0.0000 0.0000
# 5 0.0000 0.0000 0.0000 0.0000 11.7046 0.0000
# 6 0.0000 0.0000 0.0000 0.0000 0.0000 17.7418
#
#
#
# Elastic Compliance Matrix: (Units=1/GPa)
#
#
# Indices 1 2 3 4 5 6 
#
# 1 0.029583 -0.008052 -0.007942 0.000000 0.000000 0.000000
# 2 -0.008052 0.029583 -0.007942 0.000000 0.000000 0.000000
# 3 -0.007942 -0.007942 0.011771 0.000000 0.000000 0.000000
# 4 0.000000 0.000000 0.000000 0.085436 0.000000 0.000000
# 5 0.000000 0.000000 0.000000 0.000000 0.085436 0.000000
# 6 0.000000 0.000000 0.000000 0.000000 0.000000 0.056364
#
#
# Mechanical properties :
#
#
# Convention : Reuss Voigt Hill
#
# Bulk Modulus (GPa) = 43.35482 67.07080 55.21281
# Shear Modulus (GPa) = 14.13490 16.92704 15.53097
#
# Velocity S-wave (km/s) = 2.87571 3.14694 3.01438
# Velocity P-wave (km/s) = 6.03251 7.24185 6.66467
#
# Compressibility (1/GPa) = 0.02306548
#
# Stress axis : x y z
#
# Youngs Moduli (GPa) = 33.80334 33.80334 84.95143
#
# Poissons Ratio (x) = 0.27217 0.67469
# Poissons Ratio (y) = 0.27217 0.67469
# Poissons Ratio (z) = 0.26847 0.26847
#
# Static dielectric constant tensor:
#      x y z
#    x 3.057240 0.000000 0.000000 
#    y 0.000000 3.057240 0.000000 
#    z 0.000000 0.000000 3.552370 
# 
# 
# High freq. dielectric constant tensor:
#      x y z
#    x 1.625110 0.000000 0.000000 
#    y 0.000000 1.625110 0.000000 
#    z 0.000000 0.000000 1.679270 
# 
# From -- ./inp_files/4224.got.cif
#   From: 2010.03.12/outbox.cif.g09.slc.cpg/sg105_3_cif.got.tgz:4224.got - 2010.04.14 01:45:32.
