data_PCOD8307359
_publ_section_title
;
Structure prediction by ZEFSAII (Michael W. Deem and Ramdas Pophale) SiO2 
 PCOD8307359
Probable space group: P 42 M C
;
_chemical_formula_sum "Si O2"
_cell_formula_units_Z 40
_cell_length_a 14.312881
_cell_length_b 14.312881
_cell_length_c 9.834537
_cell_angle_alpha 90.000000
_cell_angle_beta 90.000000
_cell_angle_gamma 90.000000
_cell_volume 2014.689113
_symmetry_space_group_name_H-M "P 42 M C"
_symmetry_group_IT_number 105
_symmetry_cell_setting 'tetragonal'
loop_
_space_group_symop_operation_xyz
x,y,z
-y,x,1/2+z
-x,-y,z
y,-x,1/2+z
-x,y,z
x,-y,z
-y,-x,1/2+z
y,x,1/2+z
loop_
_atom_site_type_symbol
_atom_site_label
_atom_site_fract_x
_atom_site_fract_y
_atom_site_fract_z
Si Si1 0.390764 0.742954 0.972030
Si Si2 0.394505 0.894505 0.497240
Si Si3 0.757046 0.109236 0.022450
Si Si4 0.215481 0.892766 0.329201
Si Si5 0.392766 0.284519 0.665279
O O1 0.500000 0.760293 0.986970
O O2 0.341635 0.841635 0.997240
O O3 0.363613 0.706356 0.822163
O O4 0.357711 0.666459 0.079505
O O5 0.500000 0.881110 0.440198
O O6 0.322356 0.873998 0.375536
O O7 0.373998 0.822356 0.618944
O O8 0.381110 0.000000 0.554282
O O9 0.833541 0.142289 0.914975
O O10 0.739707 0.000000 0.007509
O O11 0.793644 0.136387 0.172317
O O12 0.187679 0.000000 0.350764
O O13 0.500000 0.312321 0.643716
#
# Coordination Sequence:
#
# PCOD8307359 Si02
#       5
#     8   8   8   8   8
#     4  11  24  41  61  89 123 158 200 246 297 353
#     4   9  18  34  60  90 119 152 192 244 301 358
#     4  11  24  41  61  89 123 158 200 246 297 353
#     4  10  22  40  62  89 119 154 199 245 297 358
#     4  10  22  40  62  89 119 154 199 245 297 358
#
# _framework density 19.854181000000001
#
# number of rings (size 3 to 8) (size 9 to 14) (size 15 to 20)
#    0.000    1.800    2.000    1.200    0.000    4.400 
#    0.000    8.000    0.000    0.000    0.000    0.000 
#    0.000    0.000    0.000    0.000    0.000    0.000 
#
# Total GULP energy -496117.892214 kJ/mol
# GULP energy per Si atom -12402.947305 kJ/mol
# Density = 1.980899 g / cm^3
# Si number density = 19.854181 Si / 1000 Ang^3
#
#
#
# Elastic Constant Matrix: (Units=GPa)
#
#
# Indices 1 2 3 4 5 6 
#
# 1 83.7442 76.8566 80.3150 0.0000 0.0000 0.0000
# 2 76.8566 83.7442 80.3150 0.0000 0.0000 0.0000
# 3 80.3150 80.3150 152.8839 0.0000 0.0000 0.0000
# 4 0.0000 0.0000 0.0000 14.6600 0.0000 0.0000
# 5 0.0000 0.0000 0.0000 0.0000 14.6600 0.0000
# 6 0.0000 0.0000 0.0000 0.0000 0.0000 18.8556
#
#
#
# Elastic Compliance Matrix: (Units=1/GPa)
#
#
# Indices 1 2 3 4 5 6 
#
# 1 0.079154 -0.066033 -0.006893 0.000000 0.000000 0.000000
# 2 -0.066033 0.079154 -0.006893 0.000000 0.000000 0.000000
# 3 -0.006893 -0.006893 0.013783 0.000000 0.000000 0.000000
# 4 0.000000 0.000000 0.000000 0.068213 0.000000 0.000000
# 5 0.000000 0.000000 0.000000 0.000000 0.068213 0.000000
# 6 0.000000 0.000000 0.000000 0.000000 0.000000 0.053035
#
#
# Mechanical properties :
#
#
# Convention : Reuss Voigt Hill
#
# Bulk Modulus (GPa) = 80.30040 88.37174 84.33607
# Shear Modulus (GPa) = 9.51767 15.16083 12.33925
#
# Velocity S-wave (km/s) = 2.19185 2.76635 2.49568
# Velocity P-wave (km/s) = 6.85117 7.40342 7.13264
#
# Compressibility (1/GPa) = 0.01245324
#
# Stress axis : x y z
#
# Youngs Moduli (GPa) = 12.63365 12.63365 72.55428
#
# Poissons Ratio (x) = 0.83424 0.50009
# Poissons Ratio (y) = 0.83424 0.50009
# Poissons Ratio (z) = 0.08708 0.08708
#
# Static dielectric constant tensor:
#      x y z
#    x 3.654740 0.000000 0.000000 
#    y 0.000000 3.654740 0.000000 
#    z 0.000000 0.000000 3.696690 
# 
# 
# High freq. dielectric constant tensor:
#      x y z
#    x 1.779380 0.000000 0.000000 
#    y 0.000000 1.779380 0.000000 
#    z 0.000000 0.000000 1.775540 
# 
# From -- ./inp_files/867.got.cif
#   From: 2010.03.12/outbox.cif.g09.slc.cpg/sg105_1_cif.got.tgz:867.got - 2010.04.14 01:45:32.
