data_PCOD8307469
_publ_section_title
;
Structure prediction by ZEFSAII (Michael W. Deem and Ramdas Pophale) SiO2 
 PCOD8307469
Probable space group: P 42 B C
;
_chemical_formula_sum "Si O2"
_cell_formula_units_Z 48
_cell_length_a 9.042960
_cell_length_b 9.042960
_cell_length_c 22.326950
_cell_angle_alpha 90.000000
_cell_angle_beta 90.000000
_cell_angle_gamma 90.000000
_cell_volume 1825.789140
_symmetry_space_group_name_H-M "P 42 B C"
_symmetry_group_IT_number 106
_symmetry_cell_setting 'tetragonal'
loop_
_space_group_symop_operation_xyz
x,y,z
-y,x,1/2+z
-x,-y,z
y,-x,1/2+z
1/2-x,1/2+y,z
1/2+x,1/2-y,z
1/2-y,1/2-x,1/2+z
1/2+y,1/2+x,1/2+z
loop_
_atom_site_type_symbol
_atom_site_label
_atom_site_fract_x
_atom_site_fract_y
_atom_site_fract_z
Si Si1 0.651442 0.458745 0.953910
Si Si2 0.670559 0.123533 0.507475
Si Si3 0.657599 0.577541 0.155065
Si Si4 0.112746 0.114160 0.326617
Si Si5 0.844621 0.568277 0.273289
Si Si6 0.835484 0.352008 0.083553
O O1 0.500000 0.500000 0.989210
O O2 0.652305 0.542683 0.890872
O O3 0.790727 0.516532 0.992962
O O4 0.640024 0.278538 0.948061
O O5 0.775262 0.193105 0.556672
O O6 0.631171 0.961800 0.532359
O O7 0.500000 0.500000 0.152395
O O8 0.728079 0.561914 0.219920
O O9 0.781303 0.511827 0.108109
O O10 0.620585 0.748296 0.139688
O O11 0.128537 0.262985 0.289942
O O12 0.272763 0.030081 0.327673
O O13 0.000000 0.000000 0.294105
O O14 0.000000 0.500000 0.253849
#
# Coordination Sequence:
#
# PCOD8307469 Si02
#       6
#     8   8   8   8   8   8
#     4  11  27  49  77 117 157 208 262 325 400 480
#     4  12  26  49  77 111 159 203 267 321 395 474
#     4  12  28  52  76 116 159 211 267 329 404 480
#     4  11  27  52  80 114 165 206 267 338 408 490
#     4  12  28  48  83 118 157 211 272 339 411 486
#     4  12  27  47  80 113 159 211 261 330 396 477
#
# _framework density 26.290005000000001
#
# number of rings (size 3 to 8) (size 9 to 14) (size 15 to 20)
#    0.000    0.333    3.333    3.500    9.333    4.667 
#    0.000    0.000    0.000    0.000    0.000    0.000 
#    0.000    0.000    0.000    0.000    0.000    0.000 
#
# Total GULP energy -594708.531423 kJ/mol
# GULP energy per Si atom -12389.761071 kJ/mol
# Density = 2.623017 g / cm^3
# Si number density = 26.290005 Si / 1000 Ang^3
#
#
#
# Elastic Constant Matrix: (Units=GPa)
#
#
# Indices 1 2 3 4 5 6 
#
# 1 182.3831 70.6485 49.6790 0.0000 0.0000 0.0000
# 2 70.6485 182.3831 49.6790 0.0000 0.0000 0.0000
# 3 49.6790 49.6790 105.4389 0.0000 0.0000 0.0000
# 4 0.0000 0.0000 0.0000 24.9502 0.0000 0.0000
# 5 0.0000 0.0000 0.0000 0.0000 24.9502 0.0000
# 6 0.0000 0.0000 0.0000 0.0000 0.0000 45.0773
#
#
#
# Elastic Compliance Matrix: (Units=1/GPa)
#
#
# Indices 1 2 3 4 5 6 
#
# 1 0.006900 -0.002050 -0.002285 0.000000 0.000000 0.000000
# 2 -0.002050 0.006900 -0.002285 0.000000 0.000000 0.000000
# 3 -0.002285 -0.002285 0.011637 0.000000 0.000000 0.000000
# 4 0.000000 0.000000 0.000000 0.040080 0.000000 0.000000
# 5 0.000000 0.000000 0.000000 0.000000 0.040080 0.000000
# 6 0.000000 0.000000 0.000000 0.000000 0.000000 0.022184
#
#
# Mechanical properties :
#
#
# Convention : Reuss Voigt Hill
#
# Bulk Modulus (GPa) = 81.99060 90.02421 86.00740
# Shear Modulus (GPa) = 34.46251 39.00879 36.73565
#
# Velocity S-wave (km/s) = 3.62451 3.85618 3.74213
# Velocity P-wave (km/s) = 6.98361 7.35825 7.17338
#
# Compressibility (1/GPa) = 0.01219652
#
# Stress axis : x y z
#
# Youngs Moduli (GPa) = 144.93784 144.93784 85.93151
#
# Poissons Ratio (x) = 0.29716 0.19634
# Poissons Ratio (y) = 0.29716 0.19634
# Poissons Ratio (z) = 0.33115 0.33115
#
# Static dielectric constant tensor:
#      x y z
#    x 5.524240 0.000000 0.000000 
#    y 0.000000 5.524240 0.000000 
#    z 0.000000 0.000000 4.740390 
# 
# 
# High freq. dielectric constant tensor:
#      x y z
#    x 2.079540 0.000000 0.000000 
#    y 0.000000 2.079540 0.000000 
#    z 0.000000 0.000000 2.042460 
# 
# From -- ./inp_files/1770.got.cif
#   From: 2010.03.12/outbox.cif.g09.slc.cpg/sg106_cif.got.tgz:1770.got - 2010.04.14 01:48:02.
