data_PCOD8307848
_publ_section_title
;
Structure prediction by ZEFSAII (Michael W. Deem and Ramdas Pophale) SiO2 
 PCOD8307848
Probable space group: I 41 M D
;
_chemical_formula_sum "Si O2"
_cell_formula_units_Z 96
_cell_length_a 15.838662
_cell_length_b 15.838662
_cell_length_c 25.658985
_cell_angle_alpha 90.000000
_cell_angle_beta 90.000000
_cell_angle_gamma 90.000000
_cell_volume 6436.895444
_symmetry_space_group_name_H-M "I 41 M D"
_symmetry_group_IT_number 109
_symmetry_cell_setting 'tetragonal'
loop_
_space_group_symop_operation_xyz
x,y,z
-y,1/2+x,1/4+z
-x,-y,z
y,1/2-x,1/4+z
-x,y,z
x,-y,z
-y,1/2-x,1/4+z
y,1/2+x,1/4+z
1/2+x,1/2+y,1/2+z
1/2-y,x,3/4+z
1/2-x,1/2-y,1/2+z
1/2+y,-x,3/4+z
1/2-x,1/2+y,1/2+z
1/2+x,1/2-y,1/2+z
1/2-y,-x,3/4+z
1/2+y,x,3/4+z
loop_
_atom_site_type_symbol
_atom_site_label
_atom_site_fract_x
_atom_site_fract_y
_atom_site_fract_z
Si Si1 0.341027 0.691945 0.690970
Si Si2 0.000000 0.091883 0.152255
Si Si3 0.317635 0.599467 0.521811
Si Si4 0.905386 0.598952 0.688768
Si Si5 0.206869 0.309114 0.607104
Si Si6 0.500000 0.408590 0.531858
Si Si7 0.270239 0.099353 0.271971
O O1 0.416687 0.643746 0.664182
O O2 0.377297 0.775150 0.717569
O O3 0.272071 0.727303 0.649784
O O4 0.303569 0.625211 0.732198
O O5 0.000000 0.073936 0.092282
O O6 0.000000 0.000000 0.181073
O O7 0.325445 0.500000 0.530344
O O8 0.261782 0.632941 0.569197
O O9 0.412361 0.640134 0.518383
O O10 0.904746 0.500000 0.679512
O O11 0.862995 0.636951 0.637352
O O12 0.858224 0.620749 0.743065
O O13 0.000000 0.634824 0.693950
O O14 0.156711 0.236935 0.574355
O O15 0.500000 0.500000 0.502897
O O16 0.262455 0.000000 0.285730
#
# Coordination Sequence:
#
# PCOD8307848 Si02
#       7
#    16   8  16  16  16   8  16
#     4  10  19  29  43  64  90 116 145 179 213 256
#     4  11  18  28  44  63  89 121 149 174 210 259
#     4  10  18  29  43  62  88 115 147 179 214 253
#     4   9  17  29  45  64  87 116 146 175 212 260
#     4  10  18  28  44  64  89 116 141 178 217 256
#     4   9  18  28  44  62  81 115 149 179 212 259
#     4   9  18  30  44  64  89 116 144 176 213 256
#
# _framework density 14.914021
#
# number of rings (size 3 to 8) (size 9 to 14) (size 15 to 20)
#    0.000    2.333    2.500    1.500    0.000    1.333 
#    0.000    0.000    1.833    0.000    0.000    0.000 
#    0.000    0.000    0.000    0.000    0.000    0.000 
#
# Total GULP energy -594759.701473 kJ/mol
# GULP energy per Si atom -12390.827114 kJ/mol
# Density = 1.488008 g / cm^3
# Si number density = 14.914021 Si / 1000 Ang^3
#
#
#
# Elastic Constant Matrix: (Units=GPa)
#
#
# Indices 1 2 3 4 5 6 
#
# 1 86.9899 30.3670 28.2526 0.0000 0.0000 0.0000
# 2 30.3670 86.9899 28.2526 0.0000 0.0000 0.0000
# 3 28.2526 28.2526 60.1071 0.0000 0.0000 0.0000
# 4 0.0000 0.0000 0.0000 22.1371 0.0000 0.0000
# 5 0.0000 0.0000 0.0000 0.0000 22.1371 0.0000
# 6 0.0000 0.0000 0.0000 0.0000 0.0000 14.3178
#
#
#
# Elastic Compliance Matrix: (Units=1/GPa)
#
#
# Indices 1 2 3 4 5 6 
#
# 1 0.014337 -0.003324 -0.005177 0.000000 0.000000 0.000000
# 2 -0.003324 0.014337 -0.005177 0.000000 0.000000 0.000000
# 3 -0.005177 -0.005177 0.021504 0.000000 0.000000 0.000000
# 4 0.000000 0.000000 0.000000 0.045173 0.000000 0.000000
# 5 0.000000 0.000000 0.000000 0.000000 0.045173 0.000000
# 6 0.000000 0.000000 0.000000 0.000000 0.000000 0.069843
#
#
# Mechanical properties :
#
#
# Convention : Reuss Voigt Hill
#
# Bulk Modulus (GPa) = 43.81449 45.31459 44.56454
# Shear Modulus (GPa) = 20.38080 21.53272 20.95676
#
# Velocity S-wave (km/s) = 3.70070 3.80385 3.75263
# Velocity P-wave (km/s) = 6.90667 7.05281 6.98012
#
# Compressibility (1/GPa) = 0.02282350
#
# Stress axis : x y z
#
# Youngs Moduli (GPa) = 69.74904 69.74904 46.50404
#
# Poissons Ratio (x) = 0.23182 0.24074
# Poissons Ratio (y) = 0.23182 0.24074
# Poissons Ratio (z) = 0.36107 0.36107
#
# Static dielectric constant tensor:
#      x y z
#    x 2.952170 0.000000 0.000000 
#    y 0.000000 2.952170 0.000000 
#    z 0.000000 0.000000 2.925030 
# 
# 
# High freq. dielectric constant tensor:
#      x y z
#    x 1.560250 0.000000 0.000000 
#    y 0.000000 1.560250 0.000000 
#    z 0.000000 0.000000 1.565630 
# 
# From -- ./inp_files/4421.got.cif
#   From: 2010.03.12/outbox.cif.g09.slc.cpg/sg109_3_cif.got.tgz:4421.got - 2010.04.14 01:55:16.
