data_PCOD8307241
_publ_section_title
;
Structure prediction by ZEFSAII (Michael W. Deem and Ramdas Pophale) SiO2 
 PCOD8307241
Probable space group: P 42 M C
;
_chemical_formula_sum "Si O2"
_cell_formula_units_Z 48
_cell_length_a 8.142361
_cell_length_b 8.142361
_cell_length_c 34.266462
_cell_angle_alpha 90.000000
_cell_angle_beta 90.000000
_cell_angle_gamma 90.000000
_cell_volume 2271.799359
_symmetry_space_group_name_H-M "P 42 M C"
_symmetry_group_IT_number 105
_symmetry_cell_setting 'tetragonal'
loop_
_space_group_symop_operation_xyz
x,y,z
-y,x,1/2+z
-x,-y,z
y,-x,1/2+z
-x,y,z
x,-y,z
-y,-x,1/2+z
y,x,1/2+z
loop_
_atom_site_type_symbol
_atom_site_label
_atom_site_fract_x
_atom_site_fract_y
_atom_site_fract_z
Si Si1 0.310090 0.815595 0.571060
Si Si2 0.684359 0.306044 0.326596
Si Si3 0.191491 0.179846 0.749006
Si Si4 0.305212 0.500000 0.616757
Si Si5 0.500000 0.804473 0.205138
Si Si6 0.183813 0.808045 0.488098
Si Si7 0.816647 0.692548 0.407340
O O1 0.500000 0.829989 0.580819
O O2 0.232628 0.668611 0.597366
O O3 0.288094 0.760766 0.526147
O O4 0.230989 0.000000 0.578589
O O5 0.500000 0.255912 0.315581
O O6 0.711017 0.500000 0.325273
O O7 0.803092 0.223983 0.295068
O O8 0.721581 0.234956 0.369871
O O9 0.269699 0.334479 0.725441
O O10 0.000000 0.179780 0.740799
O O11 0.262732 0.000000 0.735745
O O12 0.500000 0.500000 0.611559
O O13 0.253229 0.500000 0.661128
O O14 0.500000 0.000000 0.208290
O O15 0.268756 0.736532 0.448762
O O16 0.000000 0.734948 0.493244
O O17 0.177156 0.000000 0.482816
O O18 0.821419 0.500000 0.402476
O O19 0.000000 0.767693 0.407561
#
# Coordination Sequence:
#
# PCOD8307241 Si02
#       7
#     8   8   8   4   4   8   8
#     4   9  19  36  55  77 108 142 178 224 277 335
#     4  10  20  34  53  79 111 146 188 234 278 332
#     4  10  21  38  60  83 110 147 185 227 284 341
#     4  10  22  38  58  84 110 142 182 224 278 340
#     4  10  22  40  58  84 116 140 178 232 278 340
#     4   9  18  32  50  74 104 139 183 230 273 324
#     4   9  18  31  46  69 104 143 181 225 273 321
#
# _framework density 21.128629
#
# number of rings (size 3 to 8) (size 9 to 14) (size 15 to 20)
#    0.000    2.500    0.833    0.500    1.167    4.333 
#    0.000    1.667    0.000    0.000    0.000    0.000 
#    0.000    0.000    0.000    0.000    0.000    0.000 
#
# Total GULP energy -594788.813325 kJ/mol
# GULP energy per Si atom -12391.433611 kJ/mol
# Density = 2.108054 g / cm^3
# Si number density = 21.128629 Si / 1000 Ang^3
#
#
#
# Elastic Constant Matrix: (Units=GPa)
#
#
# Indices 1 2 3 4 5 6 
#
# 1 71.2748 27.2280 43.7214 0.0000 0.0000 0.0000
# 2 27.2280 71.2748 43.7214 0.0000 0.0000 0.0000
# 3 43.7214 43.7214 154.7325 0.0000 0.0000 0.0000
# 4 0.0000 0.0000 0.0000 29.0212 0.0000 0.0000
# 5 0.0000 0.0000 0.0000 0.0000 29.0212 0.0000
# 6 0.0000 0.0000 0.0000 0.0000 0.0000 13.6904
#
#
#
# Elastic Compliance Matrix: (Units=1/GPa)
#
#
# Indices 1 2 3 4 5 6 
#
# 1 0.018127 -0.004576 -0.003829 0.000000 0.000000 0.000000
# 2 -0.004576 0.018127 -0.003829 0.000000 0.000000 0.000000
# 3 -0.003829 -0.003829 0.008627 0.000000 0.000000 0.000000
# 4 0.000000 0.000000 0.000000 0.034458 0.000000 0.000000
# 5 0.000000 0.000000 0.000000 0.000000 0.034458 0.000000
# 6 0.000000 0.000000 0.000000 0.000000 0.000000 0.073044
#
#
# Mechanical properties :
#
#
# Convention : Reuss Voigt Hill
#
# Bulk Modulus (GPa) = 48.98901 58.51375 53.75138
# Shear Modulus (GPa) = 22.92397 26.52064 24.72230
#
# Velocity S-wave (km/s) = 3.29746 3.54672 3.42436
# Velocity P-wave (km/s) = 6.14281 6.67282 6.41329
#
# Compressibility (1/GPa) = 0.02041274
#
# Stress axis : x y z
#
# Youngs Moduli (GPa) = 55.16601 55.16601 115.92017
#
# Poissons Ratio (x) = 0.25244 0.44386
# Poissons Ratio (y) = 0.25244 0.44386
# Poissons Ratio (z) = 0.21123 0.21123
#
# Static dielectric constant tensor:
#      x y z
#    x 3.913830 0.000000 0.000000 
#    y 0.000000 3.913830 0.000000 
#    z 0.000000 0.000000 3.940030 
# 
# 
# High freq. dielectric constant tensor:
#      x y z
#    x 1.812200 0.000000 0.000000 
#    y 0.000000 1.812200 0.000000 
#    z 0.000000 0.000000 1.829090 
# 
# From -- ./inp_files/4734.got.cif
#   From: 2010.03.12/outbox.cif.g09.slc.cpg/sg105_3_cif.got.tgz:4734.got - 2010.04.14 01:45:32.
