data_PCOD8307776
_publ_section_title
;
Structure prediction by ZEFSAII (Michael W. Deem and Ramdas Pophale) SiO2 
 PCOD8307776
Probable space group: I 4 C M
;
_chemical_formula_sum "Si O2"
_cell_formula_units_Z 96
_cell_length_a 23.920107
_cell_length_b 23.920107
_cell_length_c 8.647540
_cell_angle_alpha 90.000000
_cell_angle_beta 90.000000
_cell_angle_gamma 90.000000
_cell_volume 4947.876096
_symmetry_space_group_name_H-M "I 4 C M"
_symmetry_group_IT_number 108
_symmetry_cell_setting 'tetragonal'
loop_
_space_group_symop_operation_xyz
x,y,z
-y,x,z
-x,-y,z
y,-x,z
-x,y,1/2+z
x,-y,1/2+z
-y,-x,1/2+z
y,x,1/2+z
1/2+x,1/2+y,1/2+z
1/2-y,1/2+x,1/2+z
1/2-x,1/2-y,1/2+z
1/2+y,1/2-x,1/2+z
1/2-x,1/2+y,z
1/2+x,1/2-y,z
1/2-y,1/2-x,z
1/2+y,1/2+x,z
loop_
_atom_site_type_symbol
_atom_site_label
_atom_site_fract_x
_atom_site_fract_y
_atom_site_fract_z
Si Si1 0.649728 0.267557 0.759160
Si Si2 0.352148 0.147853 0.757640
Si Si3 0.860128 0.058832 0.119331
Si Si4 0.352148 0.852148 0.623101
Si Si5 0.267558 0.649728 0.621583
Si Si6 0.558831 0.639872 0.261412
Si Si7 0.439637 0.939637 0.756221
Si Si8 0.439637 0.060364 0.624523
O O1 0.633512 0.210589 0.674421
O O2 0.707036 0.292963 0.690371
O O3 0.599288 0.309006 0.722635
O O4 0.658393 0.256672 0.940372
O O5 0.366487 0.210590 0.706322
O O6 0.394245 0.105756 0.674337
O O7 0.358615 0.141386 0.940370
O O8 0.809007 0.099289 0.158109
O O9 0.917250 0.082750 0.190371
O O10 0.844147 0.000001 0.190373
O O11 0.870528 0.051564 0.940372
O O12 0.394244 0.894244 0.706405
O O13 0.500000 0.921704 0.690372
O O14 0.442901 0.942901 0.940372
#
# Coordination Sequence:
#
# PCOD8307776 Si02
#       8
#    16   8  16   8  16  16   8   8
#     4  10  21  38  58  83 116 153 191 238 291 344
#     4  12  24  38  60  89 118 153 194 234 278 338
#     4  10  21  37  58  82 112 148 189 235 285 337
#     4  12  24  38  60  89 118 153 194 234 278 338
#     4  10  21  38  58  83 116 153 191 238 291 344
#     4  10  21  37  58  82 112 148 189 235 285 337
#     4  11  23  43  66  89 118 151 188 233 285 339
#     4  11  23  43  66  89 118 151 188 233 285 339
#
# _framework density 19.402265
#
# number of rings (size 3 to 8) (size 9 to 14) (size 15 to 20)
#    0.000    1.500    0.000    6.000    0.000    5.667 
#    0.000    5.000    0.000    0.000    0.000    0.000 
#    0.000    0.000    0.000    0.000    0.000    0.000 
#
# Total GULP energy -595416.779409 kJ/mol
# GULP energy per Si atom -12404.516238 kJ/mol
# Density = 1.935810 g / cm^3
# Si number density = 19.402265 Si / 1000 Ang^3
#
#
#
# Elastic Constant Matrix: (Units=GPa)
#
#
# Indices 1 2 3 4 5 6 
#
# 1 123.0891 62.2407 62.2101 0.0000 0.0000 -0.0009
# 2 62.2407 123.0891 62.2101 0.0000 0.0000 0.0009
# 3 62.2101 62.2101 140.7531 0.0000 0.0000 0.0000
# 4 0.0000 0.0000 0.0000 38.0341 0.0000 0.0000
# 5 0.0000 0.0000 0.0000 0.0000 38.0341 0.0000
# 6 -0.0009 0.0009 0.0000 0.0000 0.0000 29.8328
#
#
#
# Elastic Compliance Matrix: (Units=1/GPa)
#
#
# Indices 1 2 3 4 5 6 
#
# 1 0.012053 -0.004381 -0.003391 0.000000 0.000000 0.000001
# 2 -0.004381 0.012053 -0.003391 0.000000 0.000000 -0.000001
# 3 -0.003391 -0.003391 0.010102 0.000000 0.000000 0.000000
# 4 0.000000 0.000000 0.000000 0.026292 0.000000 0.000000
# 5 0.000000 0.000000 0.000000 0.000000 0.026292 0.000000
# 6 0.000001 -0.000001 0.000000 0.000000 0.000000 0.033520
#
#
# Mechanical properties :
#
#
# Convention : Reuss Voigt Hill
#
# Bulk Modulus (GPa) = 84.15559 84.47255 84.31407
# Shear Modulus (GPa) = 34.10637 34.53159 34.31898
#
# Velocity S-wave (km/s) = 4.19723 4.22331 4.21029
# Velocity P-wave (km/s) = 8.18274 8.21059 8.19668
#
# Compressibility (1/GPa) = 0.01188275
#
# Stress axis : x y z
#
# Youngs Moduli (GPa) = 82.96472 82.96472 98.98876
#
# Poissons Ratio (x) = 0.36347 0.33567
# Poissons Ratio (y) = 0.36347 0.33567
# Poissons Ratio (z) = 0.28133 0.28133
#
# Static dielectric constant tensor:
#      x y z
#    x 3.586140 0.000000 0.000000 
#    y 0.000000 3.586140 0.000000 
#    z 0.000000 0.000000 3.742040 
# 
# 
# High freq. dielectric constant tensor:
#      x y z
#    x 1.760970 0.000000 0.000000 
#    y 0.000000 1.760970 0.000000 
#    z 0.000000 0.000000 1.776410 
# 
# From -- ./inp_files/838.got.cif
#   From: 2010.03.12/outbox.cif.g09.slc.cpg/sg108_1_cif.got.tgz:838.got - 2010.04.14 01:53:11.
