data_PCOD8307695
_publ_section_title
;
Structure prediction by ZEFSAII (Michael W. Deem and Ramdas Pophale) SiO2 
 PCOD8307695
Probable space group: I 4 M M
;
_chemical_formula_sum "Si O2"
_cell_formula_units_Z 128
_cell_length_a 18.323900
_cell_length_b 18.323900
_cell_length_c 26.989083
_cell_angle_alpha 90.000000
_cell_angle_beta 90.000000
_cell_angle_gamma 90.000000
_cell_volume 9061.997853
_symmetry_space_group_name_H-M "I 4 M M"
_symmetry_group_IT_number 107
_symmetry_cell_setting 'tetragonal'
loop_
_space_group_symop_operation_xyz
x,y,z
-y,x,z
-x,-y,z
y,-x,z
-x,y,z
x,-y,z
-y,-x,z
y,x,z
1/2+x,1/2+y,1/2+z
1/2-y,1/2+x,1/2+z
1/2-x,1/2-y,1/2+z
1/2+y,1/2-x,1/2+z
1/2-x,1/2+y,1/2+z
1/2+x,1/2-y,1/2+z
1/2-y,1/2-x,1/2+z
1/2+y,1/2+x,1/2+z
loop_
_atom_site_type_symbol
_atom_site_label
_atom_site_fract_x
_atom_site_fract_y
_atom_site_fract_z
Si Si1 0.084938 0.298597 0.821710
Si Si2 0.916252 0.201582 0.205899
Si Si3 0.416563 0.297454 0.411742
Si Si4 0.084087 0.798331 0.024504
Si Si5 0.662202 0.918016 0.668280
Si Si6 0.416220 0.150780 0.759066
Si Si7 0.772909 0.344280 0.613025
Si Si8 0.081212 0.198465 0.732429
O O1 0.104197 0.271162 0.876913
O O2 0.131340 0.370560 0.808430
O O3 0.107123 0.234800 0.783673
O O4 0.000000 0.318348 0.815570
O O5 0.867537 0.132464 0.221127
O O6 0.902439 0.264623 0.246274
O O7 0.895697 0.231522 0.151955
O O8 0.000000 0.176474 0.205147
O O9 0.500000 0.321716 0.401657
O O10 0.366859 0.366859 0.398988
O O11 0.405896 0.271184 0.468122
O O12 0.124418 0.875583 0.033040
O O13 0.119832 0.736517 0.059035
O O14 0.000000 0.810678 0.038114
O O15 0.606872 0.899494 0.712734
O O16 0.657166 0.859402 0.623873
O O17 0.744007 0.914324 0.688206
O O18 0.644345 0.000000 0.648712
O O19 0.500000 0.135024 0.771033
O O20 0.736761 0.263240 0.614826
O O21 0.132182 0.132182 0.717898
O O22 0.000000 0.167319 0.738349
#
# Coordination Sequence:
#
# PCOD8307695 Si02
#       8
#    16  16  16  16  16  16  16  16
#     4   9  17  27  39  55  75 101 130 160 192 223
#     4   9  17  27  39  57  79 102 127 153 184 224
#     4   9  17  28  41  58  79 102 130 160 188 221
#     4   9  17  28  42  59  78 101 128 158 190 223
#     4   9  17  27  40  58  77  99 128 160 191 224
#     4   9  17  28  41  58  78  98 125 160 193 226
#     4   9  16  27  42  57  76 102 128 156 191 226
#     4   9  16  25  37  55  79 104 130 157 185 221
#
# _framework density 14.124921000000001
#
# number of rings (size 3 to 8) (size 9 to 14) (size 15 to 20)
#    0.000    3.000    0.000    2.250    0.000    5.500 
#    0.000    1.250    0.000    5.250    0.000    1.750 
#    0.000    0.000    0.000    0.000    0.000    0.000 
#
# Total GULP energy -793460.387761 kJ/mol
# GULP energy per Si atom -12397.818559 kJ/mol
# Density = 1.409277 g / cm^3
# Si number density = 14.124921 Si / 1000 Ang^3
#
#
#
# Elastic Constant Matrix: (Units=GPa)
#
#
# Indices 1 2 3 4 5 6 
#
# 1 98.2091 57.0383 42.4264 0.0000 0.0000 0.0000
# 2 57.0383 98.2091 42.4264 0.0000 0.0000 0.0000
# 3 42.4264 42.4264 72.9813 0.0000 0.0000 0.0000
# 4 0.0000 0.0000 0.0000 19.0747 0.0000 0.0000
# 5 0.0000 0.0000 0.0000 0.0000 19.0747 0.0000
# 6 0.0000 0.0000 0.0000 0.0000 0.0000 20.4554
#
#
#
# Elastic Compliance Matrix: (Units=1/GPa)
#
#
# Indices 1 2 3 4 5 6 
#
# 1 0.016865 -0.007424 -0.005488 0.000000 0.000000 0.000000
# 2 -0.007424 0.016865 -0.005488 0.000000 0.000000 0.000000
# 3 -0.005488 -0.005488 0.020083 0.000000 0.000000 0.000000
# 4 0.000000 0.000000 0.000000 0.052425 0.000000 0.000000
# 5 0.000000 0.000000 0.000000 0.000000 0.052425 0.000000
# 6 0.000000 0.000000 0.000000 0.000000 0.000000 0.048887
#
#
# Mechanical properties :
#
#
# Convention : Reuss Voigt Hill
#
# Bulk Modulus (GPa) = 58.78251 61.46465 60.12358
# Shear Modulus (GPa) = 19.99813 20.22153 20.10983
#
# Velocity S-wave (km/s) = 3.76680 3.78778 3.77731
# Velocity P-wave (km/s) = 7.78620 7.92081 7.85379
#
# Compressibility (1/GPa) = 0.01701186
#
# Stress axis : x y z
#
# Youngs Moduli (GPa) = 59.29410 59.29410 49.79247
#
# Poissons Ratio (x) = 0.44020 0.27328
# Poissons Ratio (y) = 0.44020 0.27328
# Poissons Ratio (z) = 0.32543 0.32543
#
# Static dielectric constant tensor:
#      x y z
#    x 2.752920 0.000000 0.000000 
#    y 0.000000 2.752920 0.000000 
#    z 0.000000 0.000000 2.672380 
# 
# 
# High freq. dielectric constant tensor:
#      x y z
#    x 1.533470 0.000000 0.000000 
#    y 0.000000 1.533470 0.000000 
#    z 0.000000 0.000000 1.515180 
# 
# From -- ./inp_files/5482.got.cif
#   From: 2010.03.12/outbox.cif.g09.slc.cpg/sg107_3_cif.got.tgz:5482.got - 2010.04.14 01:49:11.
