data_PCOD8307740
_publ_section_title
;
Structure prediction by ZEFSAII (Michael W. Deem and Ramdas Pophale) SiO2 
 PCOD8307740
Probable space group: I 4 C M
;
_chemical_formula_sum "Si O2"
_cell_formula_units_Z 96
_cell_length_a 28.389036
_cell_length_b 28.389036
_cell_length_c 9.476798
_cell_angle_alpha 90.000000
_cell_angle_beta 90.000000
_cell_angle_gamma 90.000000
_cell_volume 7637.705609
_symmetry_space_group_name_H-M "I 4 C M"
_symmetry_group_IT_number 108
_symmetry_cell_setting 'tetragonal'
loop_
_space_group_symop_operation_xyz
x,y,z
-y,x,z
-x,-y,z
y,-x,z
-x,y,1/2+z
x,-y,1/2+z
-y,-x,1/2+z
y,x,1/2+z
1/2+x,1/2+y,1/2+z
1/2-y,1/2+x,1/2+z
1/2-x,1/2-y,1/2+z
1/2+y,1/2-x,1/2+z
1/2-x,1/2+y,z
1/2+x,1/2-y,z
1/2-y,1/2-x,z
1/2+y,1/2+x,z
loop_
_atom_site_type_symbol
_atom_site_label
_atom_site_fract_x
_atom_site_fract_y
_atom_site_fract_z
Si Si1 0.313608 0.107247 0.223070
Si Si2 0.813608 0.392754 0.905593
Si Si3 0.545456 0.124501 0.226541
Si Si4 0.954544 0.624501 0.902120
Si Si5 0.680649 0.259849 0.406053
Si Si6 0.319351 0.740150 0.722608
O O1 0.353979 0.146022 0.220135
O O2 0.327724 0.066294 0.332428
O O3 0.264898 0.132035 0.274310
O O4 0.307734 0.086576 0.064332
O O5 0.853979 0.353979 0.908527
O O6 0.827724 0.433707 0.796235
O O7 0.764898 0.367966 0.854352
O O8 0.582239 0.082239 0.237118
O O9 0.500000 0.108497 0.314330
O O10 0.532249 0.135107 0.064330
O O11 0.917762 0.582239 0.891542
O O12 0.721906 0.221906 0.398050
O O13 0.673966 0.278092 0.564330
O O14 0.694340 0.305660 0.314330
O O15 0.278093 0.778093 0.730611
#
# Coordination Sequence:
#
# PCOD8307740 Si02
#       6
#    16  16  16  16  16  16
#     4   8  14  25  38  50  66  86 105 127 157 192
#     4   8  14  25  38  50  66  86 105 127 157 192
#     4  10  20  31  42  54  65  80 104 135 173 214
#     4  10  20  31  42  54  65  80 104 135 173 214
#     4   8  13  20  31  48  68  88 106 123 146 178
#     4   8  13  20  31  48  68  88 106 123 146 178
#
# _framework density 12.56922
#
# number of rings (size 3 to 8) (size 9 to 14) (size 15 to 20)
#    0.000    3.333    0.000    3.000    0.000    3.667 
#    0.000    8.333    0.000    0.000    0.000    0.000 
#    0.000    0.000    0.000    0.000    0.000    0.000 
#
# Total GULP energy -594735.416274 kJ/mol
# GULP energy per Si atom -12390.321172 kJ/mol
# Density = 1.254061 g / cm^3
# Si number density = 12.569220 Si / 1000 Ang^3
#
#
#
# Elastic Constant Matrix: (Units=GPa)
#
#
# Indices 1 2 3 4 5 6 
#
# 1 30.0213 28.9498 34.2476 0.0000 0.0000 -0.0001
# 2 28.9498 30.0213 34.2476 0.0000 0.0000 0.0001
# 3 34.2476 34.2476 90.7552 0.0000 0.0000 0.0000
# 4 0.0000 0.0000 0.0000 19.5518 0.0000 0.0000
# 5 0.0000 0.0000 0.0000 0.0000 19.5518 0.0000
# 6 -0.0001 0.0001 0.0000 0.0000 0.0000 10.4779
#
#
#
# Elastic Compliance Matrix: (Units=1/GPa)
#
#
# Indices 1 2 3 4 5 6 
#
# 1 0.481708 -0.451518 -0.011393 0.000000 0.000000 0.000013
# 2 -0.451518 0.481708 -0.011393 0.000000 0.000000 -0.000013
# 3 -0.011393 -0.011393 0.019617 0.000000 0.000000 0.000000
# 4 0.000000 0.000000 0.000000 0.051146 0.000000 0.000000
# 5 0.000000 0.000000 0.000000 0.000000 0.051146 0.000000
# 6 0.000013 -0.000013 0.000000 0.000000 0.000000 0.095439
#
#
# Mechanical properties :
#
#
# Convention : Reuss Voigt Hill
#
# Bulk Modulus (GPa) = 29.04730 38.40976 33.72853
# Shear Modulus (GPa) = 2.33553 13.47317 7.90435
#
# Velocity S-wave (km/s) = 1.36461 3.27757 2.51044
# Velocity P-wave (km/s) = 5.06388 6.70434 5.94101
#
# Compressibility (1/GPa) = 0.03442661
#
# Stress axis : x y z
#
# Youngs Moduli (GPa) = 2.07595 2.07595 50.97634
#
# Poissons Ratio (x) = 0.93733 0.58075
# Poissons Ratio (y) = 0.93733 0.58075
# Poissons Ratio (z) = 0.02365 0.02365
#
# Static dielectric constant tensor:
#      x y z
#    x 2.470070 0.000000 0.000000 
#    y 0.000000 2.470070 0.000000 
#    z 0.000000 0.000000 2.785530 
# 
# 
# High freq. dielectric constant tensor:
#      x y z
#    x 1.439540 0.000000 0.000000 
#    y 0.000000 1.439540 0.000000 
#    z 0.000000 0.000000 1.488550 
# 
# From -- ./inp_files/851.got.cif
#   From: 2010.03.12/outbox.cif.g09.slc.cpg/sg108_1_cif.got.tgz:851.got - 2010.04.14 01:53:11.
