data_PCOD8307061
_publ_section_title
;
Structure prediction by ZEFSAII (Michael W. Deem and Ramdas Pophale) SiO2 
 PCOD8307061
Probable space group: P 4 N C 
;
_chemical_formula_sum "Si O2"
_cell_formula_units_Z 32
_cell_length_a 7.872310
_cell_length_b 7.872310
_cell_length_c 23.206239
_cell_angle_alpha 90.000000
_cell_angle_beta 90.000000
_cell_angle_gamma 90.000000
_cell_volume 1438.166393
_symmetry_space_group_name_H-M "P 4 N C "
_symmetry_group_IT_number 104
_symmetry_cell_setting 'tetragonal'
loop_
_space_group_symop_operation_xyz
x,y,z
-y,x,z
-x,-y,z
y,-x,z
1/2-x,1/2+y,1/2+z
1/2+x,1/2-y,1/2+z
1/2-y,1/2-x,1/2+z
1/2+y,1/2+x,1/2+z
loop_
_atom_site_type_symbol
_atom_site_label
_atom_site_fract_x
_atom_site_fract_y
_atom_site_fract_z
Si Si1 0.233832 0.590928 0.111710
Si Si2 0.767945 0.586833 0.304832
Si Si3 0.000000 0.500000 0.902276
Si Si4 0.000000 0.500000 0.707388
Si Si5 0.909072 0.266168 0.997954
O O1 0.286754 0.394393 0.113731
O O2 0.114244 0.623494 0.167084
O O3 0.124703 0.624703 0.054832
O O4 0.610297 0.711891 0.304832
O O5 0.880242 0.617689 0.361968
O O6 0.880242 0.617688 0.247696
O O7 0.876506 0.385756 0.942580
O O8 0.105607 0.213246 0.995933
#
# Coordination Sequence:
#
# PCOD8307061 Si02
#       5
#     8   8   4   4   8
#     4  11  23  40  64  94 129 168 211 263 324 390
#     4  10  22  40  62  88 120 164 216 271 328 384
#     4  11  21  36  62  90 121 159 210 262 320 385
#     4  11  21  36  62  90 121 159 210 262 320 385
#     4  11  23  40  64  94 129 168 211 263 324 390
#
# _framework density 22.250556
#
# number of rings (size 3 to 8) (size 9 to 14) (size 15 to 20)
#    0.000    1.250    0.000    6.750    0.000    4.000 
#    0.000    0.000    0.000   51.000    0.000    0.000 
#    0.000    0.000    0.000    0.000    0.000    0.000 
#
# Total GULP energy -396825.154312 kJ/mol
# GULP energy per Si atom -12400.786072 kJ/mol
# Density = 2.219991 g / cm^3
# Si number density = 22.250556 Si / 1000 Ang^3
#
#
#
# Elastic Constant Matrix: (Units=GPa)
#
#
# Indices 1 2 3 4 5 6 
#
# 1 128.6349 45.4323 66.9588 0.0000 0.0000 0.0000
# 2 45.4323 128.6349 66.9588 0.0000 0.0000 0.0000
# 3 66.9588 66.9588 204.5961 0.0000 0.0000 0.0000
# 4 0.0000 0.0000 0.0000 32.1385 0.0000 0.0000
# 5 0.0000 0.0000 0.0000 0.0000 32.1385 0.0000
# 6 0.0000 0.0000 0.0000 0.0000 0.0000 28.7409
#
#
#
# Elastic Compliance Matrix: (Units=1/GPa)
#
#
# Indices 1 2 3 4 5 6 
#
# 1 0.009849 -0.002170 -0.002513 0.000000 0.000000 0.000000
# 2 -0.002170 0.009849 -0.002513 0.000000 0.000000 0.000000
# 3 -0.002513 -0.002513 0.006532 0.000000 0.000000 0.000000
# 4 0.000000 0.000000 0.000000 0.031115 0.000000 0.000000
# 5 0.000000 0.000000 0.000000 0.000000 0.031115 0.000000
# 6 0.000000 0.000000 0.000000 0.000000 0.000000 0.034794
#
#
# Mechanical properties :
#
#
# Convention : Reuss Voigt Hill
#
# Bulk Modulus (GPa) = 84.47831 91.17395 87.82613
# Shear Modulus (GPa) = 35.31284 37.43800 36.37542
#
# Velocity S-wave (km/s) = 3.98811 4.10636 4.04766
# Velocity P-wave (km/s) = 7.69779 7.97169 7.83594
#
# Compressibility (1/GPa) = 0.01183736
#
# Stress axis : x y z
#
# Youngs Moduli (GPa) = 101.53824 101.53824 153.08173
#
# Poissons Ratio (x) = 0.22037 0.38467
# Poissons Ratio (y) = 0.22037 0.38467
# Poissons Ratio (z) = 0.25515 0.25515
#
# Static dielectric constant tensor:
#      x y z
#    x 3.944570 0.000000 0.000000 
#    y 0.000000 3.944570 0.000000 
#    z 0.000000 0.000000 4.313240 
# 
# 
# High freq. dielectric constant tensor:
#      x y z
#    x 1.865840 0.000000 0.000000 
#    y 0.000000 1.865840 0.000000 
#    z 0.000000 0.000000 1.901420 
# 
# From -- ./inp_files/1536.got.cif
#   From: 2010.03.12/outbox.cif.g09.slc.cpg/sg104_cif.got.tgz:1536.got - 2010.04.14 01:44:05.
