data_PCOD8307397
_publ_section_title
;
Structure prediction by ZEFSAII (Michael W. Deem and Ramdas Pophale) SiO2 
 PCOD8307397
Probable space group: P 42 B C
;
_chemical_formula_sum "Si O2"
_cell_formula_units_Z 48
_cell_length_a 12.750954
_cell_length_b 12.750954
_cell_length_c 17.457115
_cell_angle_alpha 90.000000
_cell_angle_beta 90.000000
_cell_angle_gamma 90.000000
_cell_volume 2838.296952
_symmetry_space_group_name_H-M "P 42 B C"
_symmetry_group_IT_number 106
_symmetry_cell_setting 'tetragonal'
loop_
_space_group_symop_operation_xyz
x,y,z
-y,x,1/2+z
-x,-y,z
y,-x,1/2+z
1/2-x,1/2+y,z
1/2+x,1/2-y,z
1/2-y,1/2-x,1/2+z
1/2+y,1/2+x,1/2+z
loop_
_atom_site_type_symbol
_atom_site_label
_atom_site_fract_x
_atom_site_fract_y
_atom_site_fract_z
Si Si1 0.230088 0.574765 0.094780
Si Si2 0.389739 0.944033 0.391692
Si Si3 0.425235 0.230087 0.013700
Si Si4 0.744350 0.112866 0.994871
Si Si5 0.755650 0.612866 0.613609
Si Si6 0.610261 0.055967 0.216788
O O1 0.134199 0.634199 0.054240
O O2 0.317892 0.652939 0.127191
O O3 0.194765 0.507420 0.167511
O O4 0.278983 0.499481 0.029287
O O5 0.399743 0.821960 0.416707
O O6 0.351787 0.946012 0.304240
O O7 0.500000 0.000000 0.402828
O O8 0.305235 0.007420 0.440969
O O9 0.500519 0.278983 0.079193
O O10 0.347061 0.317891 0.981289
O O11 0.665959 0.165959 0.054240
O O12 0.821960 0.600257 0.691773
O O13 0.500000 0.000000 0.205652
#
# Coordination Sequence:
#
# PCOD8307397 Si02
#       6
#     8   8   8   8   8   8
#     4  10  18  33  52  76 102 134 175 217 257 306
#     4  10  19  32  53  77 105 139 172 214 261 308
#     4  10  18  33  52  76 102 134 175 217 257 306
#     4   9  19  31  52  76  99 134 175 216 256 304
#     4   9  19  31  52  76  99 134 175 216 256 304
#     4  10  19  32  53  77 105 139 172 214 261 308
#
# _framework density 16.911549999999998
#
# number of rings (size 3 to 8) (size 9 to 14) (size 15 to 20)
#    0.000    2.333    3.333    0.000    0.000    2.000 
#    0.000    0.000    0.000    0.000    0.000    9.333 
#    0.000    0.000    0.000    0.000    0.000    0.000 
#
# Total GULP energy -595116.361823 kJ/mol
# GULP energy per Si atom -12398.257538 kJ/mol
# Density = 1.687306 g / cm^3
# Si number density = 16.911550 Si / 1000 Ang^3
#
#
#
# Elastic Constant Matrix: (Units=GPa)
#
#
# Indices 1 2 3 4 5 6 
#
# 1 86.6362 56.3847 53.4791 0.0000 0.0000 0.0000
# 2 56.3847 86.6362 53.4791 0.0000 0.0000 0.0000
# 3 53.4791 53.4791 110.0526 0.0000 0.0000 0.0000
# 4 0.0000 0.0000 0.0000 15.6483 0.0000 0.0000
# 5 0.0000 0.0000 0.0000 0.0000 15.6483 0.0000
# 6 0.0000 0.0000 0.0000 0.0000 0.0000 32.4617
#
#
#
# Elastic Compliance Matrix: (Units=1/GPa)
#
#
# Indices 1 2 3 4 5 6 
#
# 1 0.022020 -0.011036 -0.005337 0.000000 0.000000 0.000000
# 2 -0.011036 0.022020 -0.005337 0.000000 0.000000 0.000000
# 3 -0.005337 -0.005337 0.014274 0.000000 0.000000 0.000000
# 4 0.000000 0.000000 0.000000 0.063905 0.000000 0.000000
# 5 0.000000 0.000000 0.000000 0.000000 0.063905 0.000000
# 6 0.000000 0.000000 0.000000 0.000000 0.000000 0.030806
#
#
# Mechanical properties :
#
#
# Convention : Reuss Voigt Hill
#
# Bulk Modulus (GPa) = 67.15241 67.77896 67.46568
# Shear Modulus (GPa) = 18.84555 20.75046 19.79800
#
# Velocity S-wave (km/s) = 3.34182 3.50665 3.42523
# Velocity P-wave (km/s) = 7.39490 7.52071 7.45807
#
# Compressibility (1/GPa) = 0.01489150
#
# Stress axis : x y z
#
# Youngs Moduli (GPa) = 45.41356 45.41356 70.05835
#
# Poissons Ratio (x) = 0.50120 0.37392
# Poissons Ratio (y) = 0.50120 0.37392
# Poissons Ratio (z) = 0.24239 0.24239
#
# Static dielectric constant tensor:
#      x y z
#    x 3.138830 0.000000 0.000000 
#    y 0.000000 3.138830 0.000000 
#    z 0.000000 0.000000 3.115520 
# 
# 
# High freq. dielectric constant tensor:
#      x y z
#    x 1.647130 0.000000 0.000000 
#    y 0.000000 1.647130 0.000000 
#    z 0.000000 0.000000 1.641420 
# 
# From -- ./inp_files/1294.got.cif
#   From: 2010.03.12/outbox.cif.g09.slc.cpg/sg106_cif.got.tgz:1294.got - 2010.04.14 01:48:02.
