data_PCOD8307083
_publ_section_title
;
Structure prediction by ZEFSAII (Michael W. Deem and Ramdas Pophale) SiO2 
 PCOD8307083
Probable space group: P 4 N C 
;
_chemical_formula_sum "Si O2"
_cell_formula_units_Z 48
_cell_length_a 8.539056
_cell_length_b 8.539056
_cell_length_c 31.324851
_cell_angle_alpha 90.000000
_cell_angle_beta 90.000000
_cell_angle_gamma 90.000000
_cell_volume 2284.066464
_symmetry_space_group_name_H-M "P 4 N C "
_symmetry_group_IT_number 104
_symmetry_cell_setting 'tetragonal'
loop_
_space_group_symop_operation_xyz
x,y,z
-y,x,z
-x,-y,z
y,-x,z
1/2-x,1/2+y,1/2+z
1/2+x,1/2-y,1/2+z
1/2-y,1/2-x,1/2+z
1/2+y,1/2+x,1/2+z
loop_
_atom_site_type_symbol
_atom_site_label
_atom_site_fract_x
_atom_site_fract_y
_atom_site_fract_z
Si Si1 0.089834 0.239568 0.541750
Si Si2 0.406351 0.741760 0.371540
Si Si3 0.412673 0.744296 0.612283
Si Si4 0.758476 0.098417 0.296319
Si Si5 0.762320 0.098262 0.445140
Si Si6 0.092982 0.240091 0.204035
O O1 0.134536 0.375710 0.574684
O O2 0.117943 0.298977 0.493517
O O3 0.910556 0.197777 0.549820
O O4 0.299551 0.587845 0.370599
O O5 0.368120 0.850110 0.331004
O O6 0.373910 0.841319 0.414234
O O7 0.303439 0.592444 0.607927
O O8 0.376796 0.828480 0.658724
O O9 0.675847 0.128514 0.249488
O O10 0.916120 0.199970 0.301945
O O11 0.917321 0.200062 0.436284
O O12 0.912736 0.197460 0.203889
#
# Coordination Sequence:
#
# PCOD8307083 Si02
#       6
#     8   8   8   8   8   8
#     4   9  19  35  52  72 100 131 163 201 244 290
#     4  11  24  37  48  70 105 135 158 193 245 300
#     4   9  17  30  50  76 104 132 163 201 244 288
#     4   9  17  32  56  79  96 123 167 210 244 284
#     4   9  19  37  58  75  92 122 167 210 244 286
#     4   7  12  26  48  73  99 126 160 203 243 279
#
# _framework density 21.015149000000001
#
# number of rings (size 3 to 8) (size 9 to 14) (size 15 to 20)
#    0.000    3.000    0.000    4.000    0.000    6.000 
#    0.000    6.667    0.000    8.000    0.000    0.000 
#    0.000    0.000    0.000    0.000    0.000    0.000 
#
# Total GULP energy -594744.468044 kJ/mol
# GULP energy per Si atom -12390.509751 kJ/mol
# Density = 2.096732 g / cm^3
# Si number density = 21.015149 Si / 1000 Ang^3
#
#
#
# Elastic Constant Matrix: (Units=GPa)
#
#
# Indices 1 2 3 4 5 6 
#
# 1 14.7071 -6.0644 9.7674 0.0000 0.0000 0.0000
# 2 -6.0644 14.7071 9.7674 0.0000 0.0000 0.0000
# 3 9.7674 9.7674 144.5491 0.0000 0.0000 0.0000
# 4 0.0000 0.0000 0.0000 -9.4185 0.0000 0.0000
# 5 0.0000 0.0000 0.0000 0.0000 -9.4185 0.0000
# 6 0.0000 0.0000 0.0000 0.0000 0.0000 28.2175
#
#
#
# Elastic Compliance Matrix: (Units=1/GPa)
#
#
# Indices 1 2 3 4 5 6 
#
# 1 0.092352 0.044209 -0.009228 0.000000 0.000000 0.000000
# 2 0.044209 0.092352 -0.009228 0.000000 0.000000 0.000000
# 3 -0.009228 -0.009228 0.008165 0.000000 0.000000 0.000000
# 4 0.000000 0.000000 0.000000 -0.106174 0.000000 0.000000
# 5 0.000000 0.000000 0.000000 0.000000 -0.106174 0.000000
# 6 0.000000 0.000000 0.000000 0.000000 0.000000 0.035439
#
#
# Mechanical properties :
#
#
# Convention : Reuss Voigt Hill
#
# Bulk Modulus (GPa) = 4.09202 22.32266 13.20734
# Shear Modulus (GPa) = 108.90329 12.57563 60.73946
#
# Velocity S-wave (km/s) = 7.20651 2.44889 5.38196
# Velocity P-wave (km/s) = 8.43780 4.31756 6.70216
#
# Compressibility (1/GPa) = 0.24437812
#
# Stress axis : x y z
#
# Youngs Moduli (GPa) = 10.82809 10.82809 122.47224
#
# Poissons Ratio (x) = -0.47870 1.13013
# Poissons Ratio (y) = -0.47870 1.13013
# Poissons Ratio (z) = 0.09992 0.09992
#
# Static dielectric constant tensor:
#      x y z
#    x 3.423470 0.000000 0.000000 
#    y 0.000000 3.423470 0.000000 
#    z 0.000000 0.000000 4.271630 
# 
# 
# High freq. dielectric constant tensor:
#      x y z
#    x 1.794970 0.000000 0.000000 
#    y 0.000000 1.794970 0.000000 
#    z 0.000000 0.000000 1.847180 
# 
# From -- ./inp_files/1936.got.cif
#   From: 2010.03.12/outbox.cif.g09.slc.cpg/sg104_cif.got.tgz:1936.got - 2010.04.14 01:44:05.
