data_PCOD8307728
_publ_section_title
;
Structure prediction by ZEFSAII (Michael W. Deem and Ramdas Pophale) SiO2 
 PCOD8307728
Probable space group: I 4 C M
;
_chemical_formula_sum "Si O2"
_cell_formula_units_Z 96
_cell_length_a 18.453002
_cell_length_b 18.453002
_cell_length_c 16.226956
_cell_angle_alpha 90.000000
_cell_angle_beta 90.000000
_cell_angle_gamma 90.000000
_cell_volume 5525.494058
_symmetry_space_group_name_H-M "I 4 C M"
_symmetry_group_IT_number 108
_symmetry_cell_setting 'tetragonal'
loop_
_space_group_symop_operation_xyz
x,y,z
-y,x,z
-x,-y,z
y,-x,z
-x,y,1/2+z
x,-y,1/2+z
-y,-x,1/2+z
y,x,1/2+z
1/2+x,1/2+y,1/2+z
1/2-y,1/2+x,1/2+z
1/2-x,1/2-y,1/2+z
1/2+y,1/2-x,1/2+z
1/2-x,1/2+y,z
1/2+x,1/2-y,z
1/2-y,1/2-x,z
1/2+y,1/2+x,z
loop_
_atom_site_type_symbol
_atom_site_label
_atom_site_fract_x
_atom_site_fract_y
_atom_site_fract_z
Si Si1 0.585486 0.344614 0.278650
Si Si2 0.799624 0.419693 0.684179
Si Si3 0.807560 0.937347 0.359187
Si Si4 0.155386 0.085486 0.128391
Si Si5 0.919693 0.299624 0.222862
Si Si6 0.192440 0.062653 0.547854
O O1 0.604025 0.263600 0.247633
O O2 0.638803 0.368088 0.353026
O O3 0.503346 0.346417 0.310632
O O4 0.598890 0.401110 0.203521
O O5 0.865824 0.365824 0.693749
O O6 0.828595 0.500000 0.703521
O O7 0.768613 0.418058 0.590981
O O8 0.731387 0.918058 0.316060
O O9 0.792679 0.957649 0.453521
O O10 0.236400 0.104025 0.159409
O O11 0.131912 0.138803 0.054015
O O12 0.153583 0.003346 0.096409
O O13 0.865824 0.365824 0.213293
#
# Coordination Sequence:
#
# PCOD8307728 Si02
#       6
#    16  16  16  16  16  16
#     4   9  18  32  49  71 100 135 170 200 233 285
#     4   9  19  35  53  72  95 126 165 208 250 298
#     4  10  19  31  49  75 105 133 163 203 247 289
#     4   9  18  32  49  71 100 135 170 200 233 285
#     4   9  19  35  53  72  95 126 165 208 250 298
#     4  10  19  31  49  75 105 133 163 203 247 289
#
# _framework density 17.374010999999999
#
# number of rings (size 3 to 8) (size 9 to 14) (size 15 to 20)
#    0.000    2.667    0.000    4.000    0.000    7.667 
#    0.000   10.000    0.000   24.000    0.000    9.333 
#    0.000    0.000    0.000    0.000    0.000    0.000 
#
# Total GULP energy -594880.719474 kJ/mol
# GULP energy per Si atom -12393.348322 kJ/mol
# Density = 1.733447 g / cm^3
# Si number density = 17.374011 Si / 1000 Ang^3
#
#
#
# Elastic Constant Matrix: (Units=GPa)
#
#
# Indices 1 2 3 4 5 6 
#
# 1 106.7330 81.4501 50.1072 0.0000 0.0000 0.0000
# 2 81.4501 106.7330 50.1072 0.0000 0.0000 0.0000
# 3 50.1072 50.1072 96.5997 0.0000 0.0000 0.0000
# 4 0.0000 0.0000 0.0000 12.8000 0.0000 0.0000
# 5 0.0000 0.0000 0.0000 0.0000 12.8000 0.0000
# 6 0.0000 0.0000 0.0000 0.0000 0.0000 31.7937
#
#
#
# Elastic Compliance Matrix: (Units=1/GPa)
#
#
# Indices 1 2 3 4 5 6 
#
# 1 0.023447 -0.016105 -0.003808 0.000000 0.000000 0.000000
# 2 -0.016105 0.023447 -0.003808 0.000000 0.000000 0.000000
# 3 -0.003808 -0.003808 0.014303 0.000000 0.000000 0.000000
# 4 0.000000 0.000000 0.000000 0.078125 0.000000 0.000000
# 5 0.000000 0.000000 0.000000 0.000000 0.078125 0.000000
# 6 0.000000 0.000000 0.000000 0.000000 0.000000 0.031453
#
#
# Mechanical properties :
#
#
# Convention : Reuss Voigt Hill
#
# Bulk Modulus (GPa) = 72.70903 74.82163 73.76533
# Shear Modulus (GPa) = 16.61522 20.03882 18.32702
#
# Velocity S-wave (km/s) = 3.09581 3.39983 3.25137
# Velocity P-wave (km/s) = 7.39722 7.65314 7.52627
#
# Compressibility (1/GPa) = 0.01375345
#
# Stress axis : x y z
#
# Youngs Moduli (GPa) = 42.64889 42.64889 69.91587
#
# Poissons Ratio (x) = 0.68687 0.26627
# Poissons Ratio (y) = 0.68687 0.26627
# Poissons Ratio (z) = 0.16242 0.16242
#
# Static dielectric constant tensor:
#      x y z
#    x 3.082340 0.000000 0.000000 
#    y 0.000000 3.082340 0.000000 
#    z 0.000000 0.000000 3.348230 
# 
# 
# High freq. dielectric constant tensor:
#      x y z
#    x 1.657450 0.000000 0.000000 
#    y 0.000000 1.657450 0.000000 
#    z 0.000000 0.000000 1.665100 
# 
# From -- ./inp_files/2461.got.cif
#   From: 2010.03.12/outbox.cif.g09.slc.cpg/sg108_2_cif.got.tgz:2461.got - 2010.04.14 01:53:11.
