data_PCOD8307423
_publ_section_title
;
Structure prediction by ZEFSAII (Michael W. Deem and Ramdas Pophale) SiO2 
 PCOD8307423
Probable space group: P 42 B C
;
_chemical_formula_sum "Si O2"
_cell_formula_units_Z 60
_cell_length_a 14.425889
_cell_length_b 14.425889
_cell_length_c 13.785756
_cell_angle_alpha 90.000000
_cell_angle_beta 90.000000
_cell_angle_gamma 90.000000
_cell_volume 2868.902308
_symmetry_space_group_name_H-M "P 42 B C"
_symmetry_group_IT_number 106
_symmetry_cell_setting 'tetragonal'
loop_
_space_group_symop_operation_xyz
x,y,z
-y,x,1/2+z
-x,-y,z
y,-x,1/2+z
1/2-x,1/2+y,z
1/2+x,1/2-y,z
1/2-y,1/2-x,1/2+z
1/2+y,1/2+x,1/2+z
loop_
_atom_site_type_symbol
_atom_site_label
_atom_site_fract_x
_atom_site_fract_y
_atom_site_fract_z
Si Si1 0.848095 0.971011 0.535670
Si Si2 0.500000 0.500000 0.894832
Si Si3 0.547676 0.803912 0.401521
Si Si4 0.696088 0.952324 0.388143
Si Si5 0.326338 0.313112 0.752740
Si Si6 0.528989 0.651905 0.253994
Si Si7 0.334826 0.834826 0.394832
Si Si8 0.313112 0.673662 0.036924
O O1 0.749586 0.939505 0.491062
O O2 0.858553 0.929981 0.644832
O O3 0.930679 0.938849 0.463070
O O4 0.857987 0.081149 0.538620
O O5 0.430679 0.561151 0.826594
O O6 0.596432 0.903568 0.394832
O O7 0.560495 0.750414 0.298602
O O8 0.440427 0.818693 0.426265
O O9 0.592821 0.744739 0.486726
O O10 0.755261 0.907179 0.302938
O O11 0.681307 0.059573 0.363399
O O12 0.357987 0.418851 0.751045
O O13 0.227390 0.302660 0.804740
O O14 0.313114 0.274111 0.644832
O O15 0.272610 0.802660 0.484924
#
# Coordination Sequence:
#
# PCOD8307423 Si02
#       8
#     8   4   8   8   8   8   8   8
#     4  10  22  38  60  92 130 169 215 272 329 387
#     4  12  18  36  64  94 128 168 214 268 324 386
#     4  11  22  41  64  93 130 176 219 269 326 395
#     4  11  22  41  64  93 130 176 219 269 326 395
#     4  10  21  40  63  92 129 171 220 272 330 388
#     4  10  22  38  60  92 130 169 215 272 329 387
#     4  10  23  42  64  95 132 172 220 278 324 393
#     4  10  21  40  63  92 129 171 220 272 330 388
#
# _framework density 20.913921999999999
#
# number of rings (size 3 to 8) (size 9 to 14) (size 15 to 20)
#    0.000    1.600    4.000    0.800    0.000    2.133 
#    0.000    0.000    0.000    8.000    0.000    0.000 
#    0.000    0.000    0.000    0.000    0.000    0.000 
#
# Total GULP energy -744053.717567 kJ/mol
# GULP energy per Si atom -12400.895293 kJ/mol
# Density = 2.086632 g / cm^3
# Si number density = 20.913922 Si / 1000 Ang^3
#
#
#
# Elastic Constant Matrix: (Units=GPa)
#
#
# Indices 1 2 3 4 5 6 
#
# 1 97.7724 47.0900 59.8055 0.0000 0.0000 0.0000
# 2 47.0900 97.7724 59.8055 0.0000 0.0000 0.0000
# 3 59.8055 59.8055 182.7951 0.0000 0.0000 0.0000
# 4 0.0000 0.0000 0.0000 26.9354 0.0000 0.0000
# 5 0.0000 0.0000 0.0000 0.0000 26.9354 0.0000
# 6 0.0000 0.0000 0.0000 0.0000 0.0000 38.6601
#
#
#
# Elastic Compliance Matrix: (Units=1/GPa)
#
#
# Indices 1 2 3 4 5 6 
#
# 1 0.014594 -0.005136 -0.003094 0.000000 0.000000 0.000000
# 2 -0.005136 0.014594 -0.003094 0.000000 0.000000 0.000000
# 3 -0.003094 -0.003094 0.007495 0.000000 0.000000 0.000000
# 4 0.000000 0.000000 0.000000 0.037126 0.000000 0.000000
# 5 0.000000 0.000000 0.000000 0.000000 0.037126 0.000000
# 6 0.000000 0.000000 0.000000 0.000000 0.000000 0.025866
#
#
# Mechanical properties :
#
#
# Convention : Reuss Voigt Hill
#
# Bulk Modulus (GPa) = 71.25575 79.08243 75.16909
# Shear Modulus (GPa) = 30.46349 32.61543 31.53946
#
# Velocity S-wave (km/s) = 3.82070 3.95334 3.88759
# Velocity P-wave (km/s) = 7.32179 7.66381 7.49475
#
# Compressibility (1/GPa) = 0.01403395
#
# Stress axis : x y z
#
# Youngs Moduli (GPa) = 68.51931 68.51931 133.41443
#
# Poissons Ratio (x) = 0.35193 0.41284
# Poissons Ratio (y) = 0.35193 0.41284
# Poissons Ratio (z) = 0.21203 0.21203
#
# Static dielectric constant tensor:
#      x y z
#    x 3.798060 0.000000 0.000000 
#    y 0.000000 3.798060 0.000000 
#    z 0.000000 0.000000 4.061670 
# 
# 
# High freq. dielectric constant tensor:
#      x y z
#    x 1.815740 0.000000 0.000000 
#    y 0.000000 1.815740 0.000000 
#    z 0.000000 0.000000 1.820160 
# 
# From -- ./inp_files/1362.got.cif
#   From: 2010.03.12/outbox.cif.g09.slc.cpg/sg106_cif.got.tgz:1362.got - 2010.04.14 01:48:02.
