data_PCOD8307073
_publ_section_title
;
Structure prediction by ZEFSAII (Michael W. Deem and Ramdas Pophale) SiO2 
 PCOD8307073
Probable space group: P 4 N C 
;
_chemical_formula_sum "Si O2"
_cell_formula_units_Z 60
_cell_length_a 17.172817
_cell_length_b 17.172817
_cell_length_c 9.302620
_cell_angle_alpha 90.000000
_cell_angle_beta 90.000000
_cell_angle_gamma 90.000000
_cell_volume 2743.395139
_symmetry_space_group_name_H-M "P 4 N C "
_symmetry_group_IT_number 104
_symmetry_cell_setting 'tetragonal'
loop_
_space_group_symop_operation_xyz
x,y,z
-y,x,z
-x,-y,z
y,-x,z
1/2-x,1/2+y,1/2+z
1/2+x,1/2-y,1/2+z
1/2-y,1/2-x,1/2+z
1/2+y,1/2+x,1/2+z
loop_
_atom_site_type_symbol
_atom_site_label
_atom_site_fract_x
_atom_site_fract_y
_atom_site_fract_z
Si Si1 0.000000 0.500000 0.709651
Si Si2 0.259989 0.522986 0.345814
Si Si3 0.647791 0.920359 0.609234
Si Si4 0.247696 0.045262 0.357718
Si Si5 0.256315 0.646361 0.596735
Si Si6 0.133781 0.283549 0.986984
Si Si7 0.977909 0.124170 0.603054
Si Si8 0.911691 0.648503 0.267333
O O1 0.052833 0.557633 0.611349
O O2 0.063992 0.451060 0.803319
O O3 0.191404 0.525488 0.226621
O O4 0.252815 0.592366 0.457857
O O5 0.262114 0.441634 0.430214
O O6 0.340411 0.532082 0.261210
O O7 0.676126 0.925614 0.444517
O O8 0.663421 0.831055 0.651487
O O9 0.209735 0.102892 0.238256
O O10 0.183542 0.029895 0.474966
O O11 0.276336 0.967010 0.281387
O O12 0.303818 0.723741 0.555476
O O13 0.112713 0.350709 0.101021
O O14 0.168348 0.334167 0.857349
O O15 0.062620 0.089594 0.586257
#
# Coordination Sequence:
#
# PCOD8307073 Si02
#       8
#     4   8   8   8   8   8   8   8
#     4  12  22  46  72 102 148 186 252 292 356 460
#     4  11  23  47  67 102 136 188 235 293 366 437
#     4  11  24  42  71 103 140 192 234 293 369 437
#     4  11  25  43  68 103 138 183 235 300 359 435
#     4  12  26  43  70 103 144 188 241 304 366 439
#     4  12  28  45  67 106 146 191 242 303 368 444
#     4  10  24  45  73  99 131 182 236 294 362 433
#     4  12  27  45  70 103 143 189 239 294 369 433
#
# _framework density 21.870709999999999
#
# number of rings (size 3 to 8) (size 9 to 14) (size 15 to 20)
#    0.000    0.667    4.000    2.400    7.467    3.200 
#    0.000    0.000    0.000    1.600    0.000    0.000 
#    0.000    0.000    0.000    0.000    0.000    0.000 
#
# Total GULP energy -743829.350095 kJ/mol
# GULP energy per Si atom -12397.155835 kJ/mol
# Density = 2.182093 g / cm^3
# Si number density = 21.870710 Si / 1000 Ang^3
#
#
#
# Elastic Constant Matrix: (Units=GPa)
#
#
# Indices 1 2 3 4 5 6 
#
# 1 106.1056 38.0291 34.3307 0.0000 0.0000 0.0000
# 2 38.0291 106.1056 34.3307 0.0000 0.0000 0.0000
# 3 34.3307 34.3307 122.3862 0.0000 0.0000 0.0000
# 4 0.0000 0.0000 0.0000 23.3558 0.0000 0.0000
# 5 0.0000 0.0000 0.0000 0.0000 23.3558 0.0000
# 6 0.0000 0.0000 0.0000 0.0000 0.0000 36.9443
#
#
#
# Elastic Compliance Matrix: (Units=1/GPa)
#
#
# Indices 1 2 3 4 5 6 
#
# 1 0.011349 -0.003341 -0.002246 0.000000 0.000000 0.000000
# 2 -0.003341 0.011349 -0.002246 0.000000 0.000000 0.000000
# 3 -0.002246 -0.002246 0.009431 0.000000 0.000000 0.000000
# 4 0.000000 0.000000 0.000000 0.042816 0.000000 0.000000
# 5 0.000000 0.000000 0.000000 0.000000 0.042816 0.000000
# 6 0.000000 0.000000 0.000000 0.000000 0.000000 0.027068
#
#
# Mechanical properties :
#
#
# Convention : Reuss Voigt Hill
#
# Bulk Modulus (GPa) = 60.74666 60.88650 60.81658
# Shear Modulus (GPa) = 30.12372 31.92497 31.02434
#
# Velocity S-wave (km/s) = 3.71530 3.82476 3.77043
# Velocity P-wave (km/s) = 6.80002 6.88512 6.84270
#
# Compressibility (1/GPa) = 0.01646181
#
# Stress axis : x y z
#
# Youngs Moduli (GPa) = 88.11579 88.11579 106.03212
#
# Poissons Ratio (x) = 0.29436 0.23818
# Poissons Ratio (y) = 0.29436 0.23818
# Poissons Ratio (z) = 0.19794 0.19794
#
# Static dielectric constant tensor:
#      x y z
#    x 3.975740 0.000000 0.000000 
#    y 0.000000 3.975740 0.000000 
#    z 0.000000 0.000000 4.104240 
# 
# 
# High freq. dielectric constant tensor:
#      x y z
#    x 1.857920 0.000000 0.000000 
#    y 0.000000 1.857920 0.000000 
#    z 0.000000 0.000000 1.876190 
# 
# From -- ./inp_files/629.got.cif
#   From: 2010.03.12/outbox.cif.g09.slc.cpg/sg104_cif.got.tgz:629.got - 2010.04.14 01:44:05.
