data_PCOD8307114
_publ_section_title
;
Structure prediction by ZEFSAII (Michael W. Deem and Ramdas Pophale) SiO2 
 PCOD8307114
Probable space group: P 42 M C
;
_chemical_formula_sum "Si O2"
_cell_formula_units_Z 64
_cell_length_a 19.622729
_cell_length_b 19.622729
_cell_length_c 9.715533
_cell_angle_alpha 90.000000
_cell_angle_beta 90.000000
_cell_angle_gamma 90.000000
_cell_volume 3740.980491
_symmetry_space_group_name_H-M "P 42 M C"
_symmetry_group_IT_number 105
_symmetry_cell_setting 'tetragonal'
loop_
_space_group_symop_operation_xyz
x,y,z
-y,x,1/2+z
-x,-y,z
y,-x,1/2+z
-x,y,z
x,-y,z
-y,-x,1/2+z
y,x,1/2+z
loop_
_atom_site_type_symbol
_atom_site_label
_atom_site_fract_x
_atom_site_fract_y
_atom_site_fract_z
Si Si1 0.578179 0.156151 0.868310
Si Si2 0.920771 0.190563 0.227218
Si Si3 0.819287 0.322089 0.604377
Si Si4 0.680713 0.822089 0.414099
Si Si5 0.336497 0.677511 0.528425
Si Si6 0.579229 0.309437 0.791258
Si Si7 0.822489 0.163503 0.990051
Si Si8 0.656151 0.921821 0.650166
O O1 0.500000 0.147350 0.909111
O O2 0.593425 0.228803 0.798539
O O3 0.598533 0.098533 0.759238
O O4 0.620874 0.147753 0.007513
O O5 0.882906 0.154410 0.100049
O O6 0.891723 0.163727 0.371510
O O7 0.906575 0.271197 0.219937
O O8 0.000000 0.172235 0.216914
O O9 0.840527 0.340527 0.759238
O O10 0.737693 0.321123 0.596967
O O11 0.850613 0.249242 0.563964
O O12 0.649387 0.749242 0.454512
O O13 0.762307 0.821123 0.421509
O O14 0.647753 0.879126 0.510963
O O15 0.391723 0.663727 0.646966
O O16 0.345590 0.617094 0.418427
O O17 0.500000 0.327765 0.801562
O O18 0.647350 0.000000 0.609365
#
# Coordination Sequence:
#
# PCOD8307114 Si02
#       8
#     8   8   8   8   8   8   8   8
#     4  10  20  34  52  78 112 145 179 222 267 322
#     4  10  20  34  54  83 110 136 180 228 271 322
#     4  10  18  30  54  82 105 137 184 225 270 320
#     4  10  18  30  54  82 105 137 184 225 270 320
#     4  10  18  31  54  80 106 142 176 223 275 321
#     4  10  20  34  54  83 110 136 180 228 271 322
#     4  10  18  31  54  80 106 142 176 223 275 321
#     4  10  20  34  52  78 112 145 179 222 267 322
#
# _framework density 17.107814000000001
#
# number of rings (size 3 to 8) (size 9 to 14) (size 15 to 20)
#    0.000    2.000    5.000    0.000    0.000    0.250 
#    0.000    3.750    0.000    2.250    0.000    0.000 
#    0.000    0.000    0.000    0.000    0.000    0.000 
#
# Total GULP energy -793847.313750 kJ/mol
# GULP energy per Si atom -12403.864277 kJ/mol
# Density = 1.706888 g / cm^3
# Si number density = 17.107814 Si / 1000 Ang^3
#
#
#
# Elastic Constant Matrix: (Units=GPa)
#
#
# Indices 1 2 3 4 5 6 
#
# 1 86.9532 34.8498 59.7745 0.0000 0.0000 0.0000
# 2 34.8498 86.9532 59.7745 0.0000 0.0000 0.0000
# 3 59.7745 59.7745 158.4944 0.0000 0.0000 0.0000
# 4 0.0000 0.0000 0.0000 27.1872 0.0000 0.0000
# 5 0.0000 0.0000 0.0000 0.0000 27.1872 0.0000
# 6 0.0000 0.0000 0.0000 0.0000 0.0000 15.2726
#
#
#
# Elastic Compliance Matrix: (Units=1/GPa)
#
#
# Indices 1 2 3 4 5 6 
#
# 1 0.016114 -0.003079 -0.004916 0.000000 0.000000 0.000000
# 2 -0.003079 0.016114 -0.004916 0.000000 0.000000 0.000000
# 3 -0.004916 -0.004916 0.010017 0.000000 0.000000 0.000000
# 4 0.000000 0.000000 0.000000 0.036782 0.000000 0.000000
# 5 0.000000 0.000000 0.000000 0.000000 0.036782 0.000000
# 6 0.000000 0.000000 0.000000 0.000000 0.000000 0.065477
#
#
# Mechanical properties :
#
#
# Convention : Reuss Voigt Hill
#
# Bulk Modulus (GPa) = 60.88876 71.24426 66.06651
# Shear Modulus (GPa) = 23.52035 25.79621 24.65828
#
# Velocity S-wave (km/s) = 3.71189 3.88733 3.80062
# Velocity P-wave (km/s) = 7.35115 7.86658 7.61323
#
# Compressibility (1/GPa) = 0.01642339
#
# Stress axis : x y z
#
# Youngs Moduli (GPa) = 62.05852 62.05852 99.82609
#
# Poissons Ratio (x) = 0.19107 0.49075
# Poissons Ratio (y) = 0.19107 0.49075
# Poissons Ratio (z) = 0.30508 0.30508
#
# Static dielectric constant tensor:
#      x y z
#    x 2.976770 0.000000 0.000000 
#    y 0.000000 2.976770 0.000000 
#    z 0.000000 0.000000 3.205840 
# 
# 
# High freq. dielectric constant tensor:
#      x y z
#    x 1.636870 0.000000 0.000000 
#    y 0.000000 1.636870 0.000000 
#    z 0.000000 0.000000 1.672030 
# 
# From -- ./inp_files/1194.got.cif
#   From: 2010.03.12/outbox.cif.g09.slc.cpg/sg105_1_cif.got.tgz:1194.got - 2010.04.14 01:45:32.
