data_PCOD8307783
_publ_section_title
;
Structure prediction by ZEFSAII (Michael W. Deem and Ramdas Pophale) SiO2 
 PCOD8307783
Probable space group: I 4 C M
;
_chemical_formula_sum "Si O2"
_cell_formula_units_Z 96
_cell_length_a 21.892127
_cell_length_b 21.892127
_cell_length_c 9.398662
_cell_angle_alpha 90.000000
_cell_angle_beta 90.000000
_cell_angle_gamma 90.000000
_cell_volume 4504.451854
_symmetry_space_group_name_H-M "I 4 C M"
_symmetry_group_IT_number 108
_symmetry_cell_setting 'tetragonal'
loop_
_space_group_symop_operation_xyz
x,y,z
-y,x,z
-x,-y,z
y,-x,z
-x,y,1/2+z
x,-y,1/2+z
-y,-x,1/2+z
y,x,1/2+z
1/2+x,1/2+y,1/2+z
1/2-y,1/2+x,1/2+z
1/2-x,1/2-y,1/2+z
1/2+y,1/2-x,1/2+z
1/2-x,1/2+y,z
1/2+x,1/2-y,z
1/2-y,1/2-x,z
1/2+y,1/2+x,z
loop_
_atom_site_type_symbol
_atom_site_label
_atom_site_fract_x
_atom_site_fract_y
_atom_site_fract_z
Si Si1 0.462040 0.794185 0.049650
Si Si2 0.471164 0.596013 0.812494
Si Si3 0.867341 0.215723 0.869910
Si Si4 0.837810 0.238697 0.557780
Si Si5 0.170353 0.977893 0.536510
Si Si6 0.661551 0.064954 0.354113
O O1 0.397432 0.770288 0.984619
O O2 0.502102 0.735761 0.096942
O O3 0.449820 0.835214 0.187180
O O4 0.500447 0.833687 0.936485
O O5 0.425443 0.540760 0.821545
O O6 0.456113 0.630362 0.667860
O O7 0.464796 0.640301 0.950155
O O8 0.858430 0.203546 0.701592
O O9 0.886617 0.285882 0.897878
O O10 0.805535 0.197202 0.949876
O O11 0.922246 0.173612 0.924602
O O12 0.791778 0.291778 0.605231
O O13 0.596520 0.096520 0.388117
#
# Coordination Sequence:
#
# PCOD8307783 Si02
#       6
#    16  16  16  16  16  16
#     4  10  22  39  63  96 122 167 209 261 329 379
#     4  11  24  38  54  78 117 175 220 265 305 350
#     4  10  23  37  61  92 124 169 204 261 317 378
#     4  11  22  39  62  92 128 160 204 256 324 395
#     4  11  23  38  58  85 122 160 219 267 309 372
#     4  10  21  44  68  92 132 169 212 262 318 390
#
# _framework density 21.312249999999999
#
# number of rings (size 3 to 8) (size 9 to 14) (size 15 to 20)
#    0.000    1.500    0.000    7.000    7.000    4.000 
#    0.000    3.333    0.000    4.000    0.000    0.000 
#    0.000    0.000    0.000    0.000    0.000    0.000 
#
# Total GULP energy -595158.336658 kJ/mol
# GULP energy per Si atom -12399.132014 kJ/mol
# Density = 2.126374 g / cm^3
# Si number density = 21.312250 Si / 1000 Ang^3
#
#
#
# Elastic Constant Matrix: (Units=GPa)
#
#
# Indices 1 2 3 4 5 6 
#
# 1 75.3626 26.9587 20.1873 0.0000 0.0000 0.0000
# 2 26.9587 75.3626 20.1873 0.0000 0.0000 0.0000
# 3 20.1873 20.1873 65.7099 0.0000 0.0000 0.0000
# 4 0.0000 0.0000 0.0000 30.2770 0.0000 0.0000
# 5 0.0000 0.0000 0.0000 0.0000 30.2770 0.0000
# 6 0.0000 0.0000 0.0000 0.0000 0.0000 34.7005
#
#
#
# Elastic Compliance Matrix: (Units=1/GPa)
#
#
# Indices 1 2 3 4 5 6 
#
# 1 0.015890 -0.004769 -0.003417 0.000000 0.000000 0.000000
# 2 -0.004769 0.015890 -0.003417 0.000000 0.000000 0.000000
# 3 -0.003417 -0.003417 0.017318 0.000000 0.000000 0.000000
# 4 0.000000 0.000000 0.000000 0.033028 0.000000 0.000000
# 5 0.000000 0.000000 0.000000 0.000000 0.033028 0.000000
# 6 0.000000 0.000000 0.000000 0.000000 0.000000 0.028818
#
#
# Mechanical properties :
#
#
# Convention : Reuss Voigt Hill
#
# Bulk Modulus (GPa) = 38.61946 39.01128 38.81537
# Shear Modulus (GPa) = 28.43992 28.99105 28.71548
#
# Velocity S-wave (km/s) = 3.65696 3.69223 3.67464
# Velocity P-wave (km/s) = 5.99927 6.04327 6.02131
#
# Compressibility (1/GPa) = 0.02589368
#
# Stress axis : x y z
#
# Youngs Moduli (GPa) = 62.93114 62.93114 57.74432
#
# Poissons Ratio (x) = 0.30012 0.19729
# Poissons Ratio (y) = 0.30012 0.19729
# Poissons Ratio (z) = 0.21501 0.21501
#
# Static dielectric constant tensor:
#      x y z
#    x 3.857240 0.000000 0.000000 
#    y 0.000000 3.857240 0.000000 
#    z 0.000000 0.000000 3.708780 
# 
# 
# High freq. dielectric constant tensor:
#      x y z
#    x 1.831240 0.000000 0.000000 
#    y 0.000000 1.831240 0.000000 
#    z 0.000000 0.000000 1.829090 
# 
# From -- ./inp_files/762.got.cif
#   From: 2010.03.12/outbox.cif.g09.slc.cpg/sg108_1_cif.got.tgz:762.got - 2010.04.14 01:53:11.
