data_PCOD8307214
_publ_section_title
;
Structure prediction by ZEFSAII (Michael W. Deem and Ramdas Pophale) SiO2 
 PCOD8307214
Probable space group: P 42 M C
;
_chemical_formula_sum "Si O2"
_cell_formula_units_Z 48
_cell_length_a 9.281456
_cell_length_b 9.281456
_cell_length_c 31.041106
_cell_angle_alpha 90.000000
_cell_angle_beta 90.000000
_cell_angle_gamma 90.000000
_cell_volume 2674.049284
_symmetry_space_group_name_H-M "P 42 M C"
_symmetry_group_IT_number 105
_symmetry_cell_setting 'tetragonal'
loop_
_space_group_symop_operation_xyz
x,y,z
-y,x,1/2+z
-x,-y,z
y,-x,1/2+z
-x,y,z
x,-y,z
-y,-x,1/2+z
y,x,1/2+z
loop_
_atom_site_type_symbol
_atom_site_label
_atom_site_fract_x
_atom_site_fract_y
_atom_site_fract_z
Si Si1 0.661733 0.171615 0.254090
Si Si2 0.166901 0.668788 0.422981
Si Si3 0.832455 0.668932 0.997121
Si Si4 0.160131 0.828815 0.579667
Si Si5 0.834097 0.832703 0.837308
Si Si6 0.160706 0.828363 0.173842
O O1 0.500000 0.232062 0.255759
O O2 0.745053 0.225148 0.296449
O O3 0.737637 0.234939 0.211299
O O4 0.663900 0.000000 0.252484
O O5 0.198602 0.500000 0.420784
O O6 0.262389 0.738909 0.459730
O O7 0.213482 0.738649 0.377874
O O8 0.000000 0.701755 0.432831
O O9 0.805607 0.500000 0.997709
O O10 0.000000 0.707258 0.989595
O O11 0.776173 0.731835 0.042580
O O12 0.215980 0.776226 0.626733
O O13 0.000000 0.767221 0.569818
O O14 0.152693 0.000000 0.581460
O O15 0.000000 0.794625 0.847686
O O16 0.816308 0.000000 0.826170
O O17 0.000000 0.765501 0.180746
O O18 0.154407 0.000000 0.176162
#
# Coordination Sequence:
#
# PCOD8307214 Si02
#       6
#     8   8   8   8   8   8
#     4   9  16  25  40  66  97 123 151 193 239 279
#     4  10  21  36  53  73  97 126 162 203 246 293
#     4  10  20  33  51  75 101 129 162 200 243 292
#     4   8  14  26  46  70  94 122 157 196 236 279
#     4   9  17  30  49  71  94 122 155 192 237 288
#     4   8  13  23  41  64  89 119 155 193 235 281
#
# _framework density 17.950305
#
# number of rings (size 3 to 8) (size 9 to 14) (size 15 to 20)
#    0.000    3.000    0.000    2.500    0.000    4.667 
#    0.000    2.500    0.000    4.000    0.000    4.667 
#    0.000    0.000    0.000    0.000    0.000    0.000 
#
# Total GULP energy -595067.958966 kJ/mol
# GULP energy per Si atom -12397.249145 kJ/mol
# Density = 1.790945 g / cm^3
# Si number density = 17.950305 Si / 1000 Ang^3
#
#
#
# Elastic Constant Matrix: (Units=GPa)
#
#
# Indices 1 2 3 4 5 6 
#
# 1 70.4585 37.7471 73.1989 0.0000 0.0000 0.0000
# 2 37.7471 70.4585 73.1989 0.0000 0.0000 0.0000
# 3 73.1989 73.1989 194.0299 0.0000 0.0000 0.0000
# 4 0.0000 0.0000 0.0000 0.7189 0.0000 0.0000
# 5 0.0000 0.0000 0.0000 0.0000 0.7189 0.0000
# 6 0.0000 0.0000 0.0000 0.0000 0.0000 14.1865
#
#
#
# Elastic Compliance Matrix: (Units=1/GPa)
#
#
# Indices 1 2 3 4 5 6 
#
# 1 0.024723 -0.005847 -0.007121 0.000000 0.000000 0.000000
# 2 -0.005847 0.024723 -0.007121 0.000000 0.000000 0.000000
# 3 -0.007121 -0.007121 0.010527 0.000000 0.000000 0.000000
# 4 0.000000 0.000000 0.000000 1.390930 0.000000 0.000000
# 5 0.000000 0.000000 0.000000 0.000000 1.390930 0.000000
# 6 0.000000 0.000000 0.000000 0.000000 0.000000 0.070490
#
#
# Mechanical properties :
#
#
# Convention : Reuss Voigt Hill
#
# Bulk Modulus (GPa) = 50.51835 78.13741 64.32788
# Shear Modulus (GPa) = 1.68970 13.17834 7.43402
#
# Velocity S-wave (km/s) = 0.97127 2.71247 2.03726
# Velocity P-wave (km/s) = 5.42792 7.30988 6.43804
#
# Compressibility (1/GPa) = 0.01979479
#
# Stress axis : x y z
#
# Youngs Moduli (GPa) = 40.44755 40.44755 94.99471
#
# Poissons Ratio (x) = 0.23650 0.67648
# Poissons Ratio (y) = 0.23650 0.67648
# Poissons Ratio (z) = 0.28804 0.28804
#
# Static dielectric constant tensor:
#      x y z
#    x 3.095720 0.000000 0.000000 
#    y 0.000000 3.095720 0.000000 
#    z 0.000000 0.000000 3.681880 
# 
# 
# High freq. dielectric constant tensor:
#      x y z
#    x 1.662220 0.000000 0.000000 
#    y 0.000000 1.662220 0.000000 
#    z 0.000000 0.000000 1.714120 
# 
# From -- ./inp_files/4712.got.cif
#   From: 2010.03.12/outbox.cif.g09.slc.cpg/sg105_3_cif.got.tgz:4712.got - 2010.04.14 01:45:32.
