data_PCOD8307169
_publ_section_title
;
Structure prediction by ZEFSAII (Michael W. Deem and Ramdas Pophale) SiO2 
 PCOD8307169
Probable space group: P 42 M C
;
_chemical_formula_sum "Si O2"
_cell_formula_units_Z 48
_cell_length_a 9.825804
_cell_length_b 9.825804
_cell_length_c 27.877176
_cell_angle_alpha 90.000000
_cell_angle_beta 90.000000
_cell_angle_gamma 90.000000
_cell_volume 2691.441661
_symmetry_space_group_name_H-M "P 42 M C"
_symmetry_group_IT_number 105
_symmetry_cell_setting 'tetragonal'
loop_
_space_group_symop_operation_xyz
x,y,z
-y,x,1/2+z
-x,-y,z
y,-x,1/2+z
-x,y,z
x,-y,z
-y,-x,1/2+z
y,x,1/2+z
loop_
_atom_site_type_symbol
_atom_site_label
_atom_site_fract_x
_atom_site_fract_y
_atom_site_fract_z
Si Si1 0.500000 0.841342 0.271940
Si Si2 0.000000 0.346141 0.375403
Si Si3 0.152499 0.840153 0.112204
Si Si4 0.229414 0.159953 0.218440
Si Si5 0.000000 0.657816 0.262478
Si Si6 0.733918 0.340983 0.424874
Si Si7 0.500000 0.164995 0.381227
Si Si8 0.653835 0.157489 0.028848
O O1 0.627796 0.795731 0.240600
O O2 0.500000 0.782126 0.325913
O O3 0.500000 0.000000 0.278907
O O4 0.134659 0.281379 0.397582
O O5 0.000000 0.500000 0.394085
O O6 0.000000 0.333014 0.319061
O O7 0.227413 0.806981 0.162061
O O8 0.244318 0.781975 0.069031
O O9 0.000000 0.776019 0.111331
O O10 0.140378 0.000000 0.105723
O O11 0.128617 0.261445 0.244093
O O12 0.193723 0.000000 0.227751
O O13 0.000000 0.500000 0.245281
O O14 0.699630 0.500000 0.411575
O O15 0.625138 0.232087 0.408279
O O16 0.752294 0.327100 0.481714
O O17 0.500000 0.000000 0.385952
O O18 0.500000 0.171007 0.048519
O O19 0.685577 0.000000 0.016637
#
# Coordination Sequence:
#
# PCOD8307169 Si02
#       8
#     4   4   8   8   4   8   4   8
#     4   9  20  35  55  81 109 141 185 237 278 317
#     4   9  18  33  57  83 107 137 181 233 278 321
#     4   9  17  29  49  78 108 140 176 217 269 328
#     4  10  19  35  56  78 108 145 184 229 273 324
#     4  11  21  33  53  81 111 145 183 219 270 335
#     4  10  19  36  58  79 107 141 184 229 274 326
#     4  11  23  37  51  77 115 149 183 223 272 333
#     4   9  17  30  53  83 108 132 172 231 279 316
#
# _framework density 17.834308
#
# number of rings (size 3 to 8) (size 9 to 14) (size 15 to 20)
#    0.000    2.333    1.667    1.500    1.167    0.667 
#    0.000    2.500    1.833    0.000    0.000    0.000 
#    0.000    0.000    0.000    0.000    0.000    0.000 
#
# Total GULP energy -594884.945075 kJ/mol
# GULP energy per Si atom -12393.436356 kJ/mol
# Density = 1.779372 g / cm^3
# Si number density = 17.834308 Si / 1000 Ang^3
#
#
#
# Elastic Constant Matrix: (Units=GPa)
#
#
# Indices 1 2 3 4 5 6 
#
# 1 105.7135 59.2844 59.4113 0.0000 0.0000 0.0000
# 2 59.2844 105.7135 59.4113 0.0000 0.0000 0.0000
# 3 59.4113 59.4113 116.2287 0.0000 0.0000 0.0000
# 4 0.0000 0.0000 0.0000 30.1598 0.0000 0.0000
# 5 0.0000 0.0000 0.0000 0.0000 30.1598 0.0000
# 6 0.0000 0.0000 0.0000 0.0000 0.0000 -0.2317
#
#
#
# Elastic Compliance Matrix: (Units=1/GPa)
#
#
# Indices 1 2 3 4 5 6 
#
# 1 0.015565 -0.005973 -0.004903 0.000000 0.000000 0.000000
# 2 -0.005973 0.015565 -0.004903 0.000000 0.000000 0.000000
# 3 -0.004903 -0.004903 0.013616 0.000000 0.000000 0.000000
# 4 0.000000 0.000000 0.000000 0.033157 0.000000 0.000000
# 5 0.000000 0.000000 0.000000 0.000000 0.033157 0.000000
# 6 0.000000 0.000000 0.000000 0.000000 0.000000 -4.316418
#
#
# Mechanical properties :
#
#
# Convention : Reuss Voigt Hill
#
# Bulk Modulus (GPa) = 75.82803 75.98552 75.90677
# Shear Modulus (GPa) = -1.19921 21.98752 10.39415
#
# Velocity S-wave (km/s) = -0.82090 3.51504 2.41678
# Velocity P-wave (km/s) = 6.45847 7.69239 7.10228
#
# Compressibility (1/GPa) = 0.01318774
#
# Stress axis : x y z
#
# Youngs Moduli (GPa) = 64.24764 64.24764 73.44387
#
# Poissons Ratio (x) = 0.38378 0.36007
# Poissons Ratio (y) = 0.38378 0.36007
# Poissons Ratio (z) = 0.31499 0.31499
#
# Static dielectric constant tensor:
#      x y z
#    x 2.866550 0.000000 0.000000 
#    y 0.000000 2.866550 0.000000 
#    z 0.000000 0.000000 3.490760 
# 
# 
# High freq. dielectric constant tensor:
#      x y z
#    x 1.674260 0.000000 0.000000 
#    y 0.000000 1.674260 0.000000 
#    z 0.000000 0.000000 1.702940 
# 
# From -- ./inp_files/4874.got.cif
#   From: 2010.03.12/outbox.cif.g09.slc.cpg/sg105_3_cif.got.tgz:4874.got - 2010.04.14 01:45:32.
