data_PCOD8307939
_publ_section_title
;
Structure prediction by ZEFSAII (Michael W. Deem and Ramdas Pophale) SiO2 
 PCOD8307939
Probable space group: I 41 M D
;
_chemical_formula_sum "Si O2"
_cell_formula_units_Z 96
_cell_length_a 19.921080
_cell_length_b 19.921080
_cell_length_c 12.242665
_cell_angle_alpha 90.000000
_cell_angle_beta 90.000000
_cell_angle_gamma 90.000000
_cell_volume 4858.494607
_symmetry_space_group_name_H-M "I 41 M D"
_symmetry_group_IT_number 109
_symmetry_cell_setting 'tetragonal'
loop_
_space_group_symop_operation_xyz
x,y,z
-y,1/2+x,1/4+z
-x,-y,z
y,1/2-x,1/4+z
-x,y,z
x,-y,z
-y,1/2-x,1/4+z
y,1/2+x,1/4+z
1/2+x,1/2+y,1/2+z
1/2-y,x,3/4+z
1/2-x,1/2-y,1/2+z
1/2+y,-x,3/4+z
1/2-x,1/2+y,1/2+z
1/2+x,1/2-y,1/2+z
1/2-y,-x,3/4+z
1/2+y,x,3/4+z
loop_
_atom_site_type_symbol
_atom_site_label
_atom_site_fract_x
_atom_site_fract_y
_atom_site_fract_z
Si Si1 0.643646 0.637551 0.667720
Si Si2 0.317809 0.318468 0.125477
Si Si3 0.000000 0.419817 0.098302
Si Si4 0.080240 0.000000 0.096363
Si Si5 0.331832 0.293046 0.888067
Si Si6 0.139304 0.425873 0.027328
Si Si7 0.075317 0.221416 0.985389
O O1 0.608032 0.565974 0.656796
O O2 0.638688 0.659896 0.793810
O O3 0.721540 0.630967 0.633618
O O4 0.607467 0.695484 0.597429
O O5 0.278079 0.247996 0.123453
O O6 0.381999 0.310417 0.204503
O O7 0.275515 0.378907 0.174879
O O8 0.343170 0.332641 0.002270
O O9 0.064494 0.394165 0.030361
O O10 0.000000 0.500000 0.103985
O O11 0.000000 0.392567 0.222234
O O12 0.000000 0.000000 0.103823
O O13 0.139791 0.500000 0.975421
O O14 0.158837 0.429278 0.154079
O O15 0.000000 0.249907 0.008224
#
# Coordination Sequence:
#
# PCOD8307939 Si02
#       7
#    16  16   8   8  16  16  16
#     4  11  23  42  63  95 125 168 215 260 325 376
#     4  11  21  42  62  89 125 169 208 262 328 372
#     4   9  18  36  61  87 125 163 195 249 325 385
#     4  11  22  42  65  91 133 172 197 253 333 390
#     4  10  24  43  63  86 127 174 215 265 310 388
#     4  10  21  37  59  88 121 161 204 252 315 386
#     4  11  22  36  62  96 124 157 207 267 319 377
#
# _framework density 19.759208000000001
#
# number of rings (size 3 to 8) (size 9 to 14) (size 15 to 20)
#    0.000    1.500    3.333    2.500    3.500    0.000 
#   10.500    0.000    0.000    1.000    0.000    0.000 
#    0.000    0.000    0.000    0.000    0.000    0.000 
#
# Total GULP energy -595115.847009 kJ/mol
# GULP energy per Si atom -12398.246813 kJ/mol
# Density = 1.971423 g / cm^3
# Si number density = 19.759208 Si / 1000 Ang^3
#
#
#
# Elastic Constant Matrix: (Units=GPa)
#
#
# Indices 1 2 3 4 5 6 
#
# 1 91.8862 45.6211 38.1454 0.0000 0.0000 0.0000
# 2 45.6211 91.8862 38.1454 0.0000 0.0000 0.0000
# 3 38.1454 38.1454 126.4073 0.0000 0.0000 0.0000
# 4 0.0000 0.0000 0.0000 22.8092 0.0000 0.0000
# 5 0.0000 0.0000 0.0000 0.0000 22.8092 0.0000
# 6 0.0000 0.0000 0.0000 0.0000 0.0000 32.2616
#
#
#
# Elastic Compliance Matrix: (Units=1/GPa)
#
#
# Indices 1 2 3 4 5 6 
#
# 1 0.015175 -0.006440 -0.002636 0.000000 0.000000 0.000000
# 2 -0.006440 0.015175 -0.002636 0.000000 0.000000 0.000000
# 3 -0.002636 -0.002636 0.009502 0.000000 0.000000 0.000000
# 4 0.000000 0.000000 0.000000 0.043842 0.000000 0.000000
# 5 0.000000 0.000000 0.000000 0.000000 0.043842 0.000000
# 6 0.000000 0.000000 0.000000 0.000000 0.000000 0.030997
#
#
# Mechanical properties :
#
#
# Convention : Reuss Voigt Hill
#
# Bulk Modulus (GPa) = 60.87223 61.55594 61.21409
# Shear Modulus (GPa) = 26.67650 28.12718 27.40184
#
# Velocity S-wave (km/s) = 3.67833 3.77702 3.72800
# Velocity P-wave (km/s) = 6.99386 7.08815 7.04116
#
# Compressibility (1/GPa) = 0.01642785
#
# Stress axis : x y z
#
# Youngs Moduli (GPa) = 65.89933 65.89933 105.24380
#
# Poissons Ratio (x) = 0.42439 0.27741
# Poissons Ratio (y) = 0.42439 0.27741
# Poissons Ratio (z) = 0.17370 0.17370
#
# Static dielectric constant tensor:
#      x y z
#    x 3.586570 0.000000 0.000000 
#    y 0.000000 3.586570 0.000000 
#    z 0.000000 0.000000 3.743700 
# 
# 
# High freq. dielectric constant tensor:
#      x y z
#    x 1.766280 0.000000 0.000000 
#    y 0.000000 1.766280 0.000000 
#    z 0.000000 0.000000 1.769970 
# 
# From -- ./inp_files/2076.got.cif
#   From: 2010.03.12/outbox.cif.g09.slc.cpg/sg109_2_cif.got.tgz:2076.got - 2010.04.14 01:55:16.
