data_PCOD8307886
_publ_section_title
;
Structure prediction by ZEFSAII (Michael W. Deem and Ramdas Pophale) SiO2 
 PCOD8307886
Probable space group: I 41 M D
;
_chemical_formula_sum "Si O2"
_cell_formula_units_Z 112
_cell_length_a 24.557862
_cell_length_b 24.557862
_cell_length_c 10.176901
_cell_angle_alpha 90.000000
_cell_angle_beta 90.000000
_cell_angle_gamma 90.000000
_cell_volume 6137.572834
_symmetry_space_group_name_H-M "I 41 M D"
_symmetry_group_IT_number 109
_symmetry_cell_setting 'tetragonal'
loop_
_space_group_symop_operation_xyz
x,y,z
-y,1/2+x,1/4+z
-x,-y,z
y,1/2-x,1/4+z
-x,y,z
x,-y,z
-y,1/2-x,1/4+z
y,1/2+x,1/4+z
1/2+x,1/2+y,1/2+z
1/2-y,x,3/4+z
1/2-x,1/2-y,1/2+z
1/2+y,-x,3/4+z
1/2-x,1/2+y,1/2+z
1/2+x,1/2-y,1/2+z
1/2-y,-x,3/4+z
1/2+y,x,3/4+z
loop_
_atom_site_type_symbol
_atom_site_label
_atom_site_fract_x
_atom_site_fract_y
_atom_site_fract_z
Si Si1 0.260812 0.293358 0.182850
Si Si2 0.937272 0.790606 0.217199
Si Si3 0.332256 0.937981 0.252124
Si Si4 0.120133 0.169915 0.971708
Si Si5 0.168002 0.061782 0.883451
Si Si6 0.237017 0.561195 0.004802
Si Si7 0.114280 0.336558 0.865012
O O1 0.267393 0.245418 0.288693
O O2 0.205981 0.325473 0.219822
O O3 0.316078 0.329812 0.185316
O O4 0.919322 0.806114 0.364598
O O5 0.924510 0.728196 0.184262
O O6 0.000000 0.803615 0.197559
O O7 0.904968 0.828052 0.116240
O O8 0.284248 0.934899 0.357373
O O9 0.379291 0.895229 0.295077
O O10 0.356053 0.000000 0.246367
O O11 0.128832 0.105710 0.950292
O O12 0.079500 0.191514 0.859374
O O13 0.162759 0.067684 0.725964
O O14 0.151162 0.000000 0.921688
O O15 0.253208 0.500000 0.041784
O O16 0.291008 0.598294 0.008319
#
# Coordination Sequence:
#
# PCOD8307886 Si02
#       7
#    16  16  16  16  16  16  16
#     4  11  21  33  50  81 120 155 185 230 296 359
#     4  10  21  37  59  82 114 158 195 234 295 358
#     4  10  22  38  56  86 119 153 195 242 294 357
#     4  11  19  36  56  83 116 151 194 241 296 345
#     4  11  21  36  60  88 118 153 206 251 287 352
#     4  10  19  34  60  85 113 151 194 239 287 354
#     4  11  19  36  57  84 116 154 199 243 293 347
#
# _framework density 18.248255
#
# number of rings (size 3 to 8) (size 9 to 14) (size 15 to 20)
#    0.000    1.429    5.714    1.714    0.000    3.429 
#    0.000    0.000    0.000    6.000    0.000    4.000 
#    0.000    0.000    0.000    0.000    0.000    0.000 
#
# Total GULP energy -694397.724919 kJ/mol
# GULP energy per Si atom -12399.959374 kJ/mol
# Density = 1.820672 g / cm^3
# Si number density = 18.248255 Si / 1000 Ang^3
#
#
#
# Elastic Constant Matrix: (Units=GPa)
#
#
# Indices 1 2 3 4 5 6 
#
# 1 88.1876 40.4897 43.2277 0.0000 0.0000 0.0000
# 2 40.4897 88.1876 43.2277 0.0000 0.0000 0.0000
# 3 43.2277 43.2277 128.0817 0.0000 0.0000 0.0000
# 4 0.0000 0.0000 0.0000 28.5312 0.0000 0.0000
# 5 0.0000 0.0000 0.0000 0.0000 28.5312 0.0000
# 6 0.0000 0.0000 0.0000 0.0000 0.0000 18.5838
#
#
#
# Elastic Compliance Matrix: (Units=1/GPa)
#
#
# Indices 1 2 3 4 5 6 
#
# 1 0.015508 -0.005457 -0.003392 0.000000 0.000000 0.000000
# 2 -0.005457 0.015508 -0.003392 0.000000 0.000000 0.000000
# 3 -0.003392 -0.003392 0.010097 0.000000 0.000000 0.000000
# 4 0.000000 0.000000 0.000000 0.035049 0.000000 0.000000
# 5 0.000000 0.000000 0.000000 0.000000 0.035049 0.000000
# 6 0.000000 0.000000 0.000000 0.000000 0.000000 0.053810
#
#
# Mechanical properties :
#
#
# Convention : Reuss Voigt Hill
#
# Bulk Modulus (GPa) = 60.13279 62.03856 61.08567
# Shear Modulus (GPa) = 25.63471 26.96336 26.29903
#
# Velocity S-wave (km/s) = 3.75210 3.84811 3.80041
# Velocity P-wave (km/s) = 7.19689 7.33585 7.26670
#
# Compressibility (1/GPa) = 0.01662986
#
# Stress axis : x y z
#
# Youngs Moduli (GPa) = 64.48346 64.48346 99.03801
#
# Poissons Ratio (x) = 0.35192 0.33594
# Poissons Ratio (y) = 0.35192 0.33594
# Poissons Ratio (z) = 0.21873 0.21873
#
# Static dielectric constant tensor:
#      x y z
#    x 3.312560 0.000000 0.000000 
#    y 0.000000 3.312560 0.000000 
#    z 0.000000 0.000000 3.474910 
# 
# 
# High freq. dielectric constant tensor:
#      x y z
#    x 1.692950 0.000000 0.000000 
#    y 0.000000 1.692950 0.000000 
#    z 0.000000 0.000000 1.714860 
# 
# From -- ./inp_files/2142.got.cif
#   From: 2010.03.12/outbox.cif.g09.slc.cpg/sg109_2_cif.got.tgz:2142.got - 2010.04.14 01:55:16.
