data_PCOD8307186
_publ_section_title
;
Structure prediction by ZEFSAII (Michael W. Deem and Ramdas Pophale) SiO2 
 PCOD8307186
Probable space group: P 42 M C
;
_chemical_formula_sum "Si O2"
_cell_formula_units_Z 64
_cell_length_a 20.320642
_cell_length_b 20.320642
_cell_length_c 12.152979
_cell_angle_alpha 90.000000
_cell_angle_beta 90.000000
_cell_angle_gamma 90.000000
_cell_volume 5018.311283
_symmetry_space_group_name_H-M "P 42 M C"
_symmetry_group_IT_number 105
_symmetry_cell_setting 'tetragonal'
loop_
_space_group_symop_operation_xyz
x,y,z
-y,x,1/2+z
-x,-y,z
y,-x,1/2+z
-x,y,z
x,-y,z
-y,-x,1/2+z
y,x,1/2+z
loop_
_atom_site_type_symbol
_atom_site_label
_atom_site_fract_x
_atom_site_fract_y
_atom_site_fract_z
Si Si1 0.922365 0.817747 0.804750
Si Si2 0.078109 0.427730 0.812030
Si Si3 0.078270 0.305201 0.200271
Si Si4 0.078270 0.694799 0.951548
Si Si5 0.572270 0.078109 0.839789
Si Si6 0.921512 0.386959 0.575909
Si Si7 0.240980 0.077593 0.075909
Si Si8 0.817747 0.077635 0.847069
O O1 0.899235 0.760990 0.889262
O O2 0.899342 0.797278 0.683519
O O3 0.886468 0.886468 0.825909
O O4 0.000000 0.830460 0.813800
O O5 0.098881 0.500000 0.857471
O O6 0.107173 0.369842 0.889387
O O7 0.104603 0.421984 0.686659
O O8 0.000000 0.420529 0.810769
O O9 0.107173 0.369842 0.262432
O O10 0.100765 0.239010 0.262557
O O11 0.000000 0.308780 0.199896
O O12 0.106014 0.303967 0.075910
O O13 0.000000 0.691220 0.951924
O O14 0.500000 0.098881 0.794347
O O15 0.579471 0.000000 0.841050
O O16 0.578016 0.104602 0.965161
O O17 0.891903 0.313591 0.575909
O O18 0.000000 0.386996 0.575910
O O19 0.248864 0.000000 0.075908
O O20 0.202721 0.100659 0.968301
O O21 0.830459 0.000000 0.838019
#
# Coordination Sequence:
#
# PCOD8307186 Si02
#       8
#     8   8   8   8   8   8   8   8
#     4  10  20  32  45  57  70  89 117 155 197 239
#     4   9  15  22  35  55  75  94 114 135 161 200
#     4   9  17  28  39  52  72  95 115 138 174 220
#     4   9  17  28  39  52  72  95 115 138 174 220
#     4   9  15  22  35  55  75  94 114 135 161 200
#     4   9  13  22  37  53  74  92 111 138 166 205
#     4   9  16  29  45  57  69  89 114 143 185 230
#     4  10  20  32  45  57  70  89 117 155 197 239
#
# _framework density 12.753295
#
# number of rings (size 3 to 8) (size 9 to 14) (size 15 to 20)
#    0.000    2.750    2.500    0.375    1.750    2.250 
#    0.000    2.500    0.000    2.250    0.000    0.000 
#    0.000    0.000    0.000    0.000    0.000    0.000 
#
# Total GULP energy -793118.826564 kJ/mol
# GULP energy per Si atom -12392.481665 kJ/mol
# Density = 1.272427 g / cm^3
# Si number density = 12.753295 Si / 1000 Ang^3
#
#
#
# Elastic Constant Matrix: (Units=GPa)
#
#
# Indices 1 2 3 4 5 6 
#
# 1 49.8322 27.3153 29.8377 0.0000 0.0000 0.0000
# 2 27.3153 49.8322 29.8377 0.0000 0.0000 0.0000
# 3 29.8377 29.8377 110.3289 0.0000 0.0000 0.0000
# 4 0.0000 0.0000 0.0000 10.1246 0.0000 0.0000
# 5 0.0000 0.0000 0.0000 0.0000 10.1246 0.0000
# 6 0.0000 0.0000 0.0000 0.0000 0.0000 0.7942
#
#
#
# Elastic Compliance Matrix: (Units=1/GPa)
#
#
# Indices 1 2 3 4 5 6 
#
# 1 0.030401 -0.014010 -0.004433 0.000000 0.000000 0.000000
# 2 -0.014010 0.030401 -0.004433 0.000000 0.000000 0.000000
# 3 -0.004433 -0.004433 0.011461 0.000000 0.000000 0.000000
# 4 0.000000 0.000000 0.000000 0.098769 0.000000 0.000000
# 5 0.000000 0.000000 0.000000 0.000000 0.098769 0.000000
# 6 0.000000 0.000000 0.000000 0.000000 0.000000 1.259151
#
#
# Mechanical properties :
#
#
# Convention : Reuss Voigt Hill
#
# Bulk Modulus (GPa) = 37.71840 42.66385 40.19112
# Shear Modulus (GPa) = 3.15748 12.40886 7.78317
#
# Velocity S-wave (km/s) = 1.57518 3.12267 2.47308
# Velocity P-wave (km/s) = 5.74002 6.82109 6.30377
#
# Compressibility (1/GPa) = 0.02651226
#
# Stress axis : x y z
#
# Youngs Moduli (GPa) = 32.89359 32.89359 87.24874
#
# Poissons Ratio (x) = 0.46084 0.38676
# Poissons Ratio (y) = 0.46084 0.38676
# Poissons Ratio (z) = 0.14581 0.14581
#
# Static dielectric constant tensor:
#      x y z
#    x 2.311650 0.000000 0.000000 
#    y 0.000000 2.311650 0.000000 
#    z 0.000000 0.000000 2.983940 
# 
# 
# High freq. dielectric constant tensor:
#      x y z
#    x 1.440790 0.000000 0.000000 
#    y 0.000000 1.440790 0.000000 
#    z 0.000000 0.000000 1.504410 
# 
# From -- ./inp_files/2076.got.cif
#   From: 2010.03.12/outbox.cif.g09.slc.cpg/sg105_2_cif.got.tgz:2076.got - 2010.04.14 01:45:32.
