data_PCOD8307857
_publ_section_title
;
Structure prediction by ZEFSAII (Michael W. Deem and Ramdas Pophale) SiO2 
 PCOD8307857
Probable space group: I 41 M D
;
_chemical_formula_sum "Si O2"
_cell_formula_units_Z 96
_cell_length_a 23.359304
_cell_length_b 23.359304
_cell_length_c 10.256430
_cell_angle_alpha 90.000000
_cell_angle_beta 90.000000
_cell_angle_gamma 90.000000
_cell_volume 5596.493680
_symmetry_space_group_name_H-M "I 41 M D"
_symmetry_group_IT_number 109
_symmetry_cell_setting 'tetragonal'
loop_
_space_group_symop_operation_xyz
x,y,z
-y,1/2+x,1/4+z
-x,-y,z
y,1/2-x,1/4+z
-x,y,z
x,-y,z
-y,1/2-x,1/4+z
y,1/2+x,1/4+z
1/2+x,1/2+y,1/2+z
1/2-y,x,3/4+z
1/2-x,1/2-y,1/2+z
1/2+y,-x,3/4+z
1/2-x,1/2+y,1/2+z
1/2+x,1/2-y,1/2+z
1/2-y,-x,3/4+z
1/2+y,x,3/4+z
loop_
_atom_site_type_symbol
_atom_site_label
_atom_site_fract_x
_atom_site_fract_y
_atom_site_fract_z
Si Si1 0.432608 0.847373 0.267920
Si Si2 0.432356 0.766371 0.497465
Si Si3 0.068051 0.667808 0.251110
Si Si4 0.567467 0.776781 0.017411
Si Si5 0.566876 0.642917 0.416183
Si Si6 0.933301 0.154640 0.610276
O O1 0.500000 0.859911 0.282174
O O2 0.409148 0.803797 0.377417
O O3 0.416398 0.821925 0.128394
O O4 0.398677 0.906369 0.283736
O O5 0.500000 0.767624 0.488564
O O6 0.410432 0.792101 0.633326
O O7 0.411884 0.701178 0.484982
O O8 0.091772 0.698159 0.381822
O O9 0.092667 0.604051 0.231129
O O10 0.000000 0.661223 0.254387
O O11 0.500000 0.769837 0.007926
O O12 0.592773 0.714305 0.054300
O O13 0.500000 0.629693 0.442677
O O14 0.579162 0.649060 0.263288
O O15 0.000000 0.151786 0.581452
#
# Coordination Sequence:
#
# PCOD8307857 Si02
#       6
#    16  16  16  16  16  16
#     4  10  18  32  54  77 103 136 171 212 260 310
#     4   9  17  31  51  74 100 135 176 206 245 309
#     4  10  20  34  53  79 107 137 172 216 264 312
#     4   9  19  35  52  72 103 142 178 206 250 315
#     4  10  19  32  54  81 106 134 172 219 264 307
#     4  10  19  32  54  81 105 134 175 219 259 307
#
# _framework density 17.153597999999999
#
# number of rings (size 3 to 8) (size 9 to 14) (size 15 to 20)
#    0.000    2.333    3.333    0.000    0.000    2.000 
#    0.000    4.167    0.000    9.000    0.000    0.000 
#    0.000    0.000    0.000    0.000    0.000    0.000 
#
# Total GULP energy -595105.820402 kJ/mol
# GULP energy per Si atom -12398.037925 kJ/mol
# Density = 1.711456 g / cm^3
# Si number density = 17.153598 Si / 1000 Ang^3
#
#
#
# Elastic Constant Matrix: (Units=GPa)
#
#
# Indices 1 2 3 4 5 6 
#
# 1 72.9957 45.6774 45.1103 0.0000 0.0000 0.0000
# 2 45.6774 72.9957 45.1103 0.0000 0.0000 0.0000
# 3 45.1103 45.1103 132.5897 0.0000 0.0000 0.0000
# 4 0.0000 0.0000 0.0000 22.7765 0.0000 0.0000
# 5 0.0000 0.0000 0.0000 0.0000 22.7765 0.0000
# 6 0.0000 0.0000 0.0000 0.0000 0.0000 9.6352
#
#
#
# Elastic Compliance Matrix: (Units=1/GPa)
#
#
# Indices 1 2 3 4 5 6 
#
# 1 0.023986 -0.012619 -0.003867 0.000000 0.000000 0.000000
# 2 -0.012619 0.023986 -0.003867 0.000000 0.000000 0.000000
# 3 -0.003867 -0.003867 0.010173 0.000000 0.000000 0.000000
# 4 0.000000 0.000000 0.000000 0.043905 0.000000 0.000000
# 5 0.000000 0.000000 0.000000 0.000000 0.043905 0.000000
# 6 0.000000 0.000000 0.000000 0.000000 0.000000 0.103786
#
#
# Mechanical properties :
#
#
# Convention : Reuss Voigt Hill
#
# Bulk Modulus (GPa) = 57.34664 61.15302 59.24983
# Shear Modulus (GPa) = 16.87697 20.54983 18.71340
#
# Velocity S-wave (km/s) = 3.14008 3.46495 3.30651
# Velocity P-wave (km/s) = 6.83013 7.19274 7.01378
#
# Compressibility (1/GPa) = 0.01743781
#
# Stress axis : x y z
#
# Youngs Moduli (GPa) = 41.69099 41.69099 98.29478
#
# Poissons Ratio (x) = 0.52612 0.38012
# Poissons Ratio (y) = 0.52612 0.38012
# Poissons Ratio (z) = 0.16123 0.16123
#
# Static dielectric constant tensor:
#      x y z
#    x 3.087900 0.000000 0.000000 
#    y 0.000000 3.087900 0.000000 
#    z 0.000000 0.000000 3.472190 
# 
# 
# High freq. dielectric constant tensor:
#      x y z
#    x 1.644600 0.000000 0.000000 
#    y 0.000000 1.644600 0.000000 
#    z 0.000000 0.000000 1.670120 
# 
# From -- ./inp_files/1405.got.cif
#   From: 2010.03.12/outbox.cif.g09.slc.cpg/sg109_1_cif.got.tgz:1405.got - 2010.04.14 01:55:16.
