data_PCOD8307786
_publ_section_title
;
Structure prediction by ZEFSAII (Michael W. Deem and Ramdas Pophale) SiO2 
 PCOD8307786
Probable space group: I 4 C M
;
_chemical_formula_sum "Si O2"
_cell_formula_units_Z 96
_cell_length_a 22.754630
_cell_length_b 22.754630
_cell_length_c 8.767268
_cell_angle_alpha 90.000000
_cell_angle_beta 90.000000
_cell_angle_gamma 90.000000
_cell_volume 4539.456289
_symmetry_space_group_name_H-M "I 4 C M"
_symmetry_group_IT_number 108
_symmetry_cell_setting 'tetragonal'
loop_
_space_group_symop_operation_xyz
x,y,z
-y,x,z
-x,-y,z
y,-x,z
-x,y,1/2+z
x,-y,1/2+z
-y,-x,1/2+z
y,x,1/2+z
1/2+x,1/2+y,1/2+z
1/2-y,1/2+x,1/2+z
1/2-x,1/2-y,1/2+z
1/2+y,1/2-x,1/2+z
1/2-x,1/2+y,z
1/2+x,1/2-y,z
1/2-y,1/2-x,z
1/2+y,1/2+x,z
loop_
_atom_site_type_symbol
_atom_site_label
_atom_site_fract_x
_atom_site_fract_y
_atom_site_fract_z
Si Si1 0.427403 0.267179 0.606060
Si Si2 0.659258 0.747135 0.355705
Si Si3 0.954850 0.913388 0.545607
Si Si4 0.479342 0.786697 0.398716
Si Si5 0.169928 0.577366 0.189407
Si Si6 0.615704 0.371015 0.276407
O O1 0.373018 0.237161 0.515936
O O2 0.485757 0.262228 0.500421
O O3 0.435172 0.240826 0.775265
O O4 0.411252 0.334894 0.632978
O O5 0.725462 0.774539 0.361625
O O6 0.623094 0.777061 0.218634
O O7 0.658109 0.677292 0.327671
O O8 0.936991 0.880484 0.704912
O O9 0.931173 0.871203 0.412296
O O10 0.023876 0.921828 0.537473
O O11 0.523884 0.828302 0.307671
O O12 0.442621 0.826571 0.514235
O O13 0.107363 0.607363 0.215875
#
# Coordination Sequence:
#
# PCOD8307786 Si02
#       6
#    16  16  16  16  16  16
#     4  10  22  38  62  92 118 159 207 258 313 367
#     4  10  23  43  60  90 130 163 207 258 318 386
#     4  11  26  43  62  88 123 166 218 273 322 366
#     4   9  20  37  63  94 118 157 209 252 301 369
#     4   9  19  37  62  90 125 160 195 251 306 361
#     4  12  24  41  62  90 119 167 205 260 321 376
#
# _framework density 21.147905999999999
#
# number of rings (size 3 to 8) (size 9 to 14) (size 15 to 20)
#    0.000    1.833    1.667    1.000    4.667    6.667 
#    0.000    2.500    0.000    1.500    0.000    0.000 
#    0.000    0.000    0.000    0.000    0.000    0.000 
#
# Total GULP energy -594923.564705 kJ/mol
# GULP energy per Si atom -12394.240931 kJ/mol
# Density = 2.109977 g / cm^3
# Si number density = 21.147906 Si / 1000 Ang^3
#
#
#
# Elastic Constant Matrix: (Units=GPa)
#
#
# Indices 1 2 3 4 5 6 
#
# 1 87.6540 44.8978 34.0795 0.0000 0.0000 0.0000
# 2 44.8978 87.6540 34.0795 0.0000 0.0000 0.0000
# 3 34.0795 34.0795 128.4342 0.0000 0.0000 0.0000
# 4 0.0000 0.0000 0.0000 23.9556 0.0000 0.0000
# 5 0.0000 0.0000 0.0000 0.0000 23.9556 0.0000
# 6 0.0000 0.0000 0.0000 0.0000 0.0000 28.6446
#
#
#
# Elastic Compliance Matrix: (Units=1/GPa)
#
#
# Indices 1 2 3 4 5 6 
#
# 1 0.016062 -0.007326 -0.002318 0.000000 0.000000 0.000000
# 2 -0.007326 0.016062 -0.002318 0.000000 0.000000 0.000000
# 3 -0.002318 -0.002318 0.009016 0.000000 0.000000 0.000000
# 4 0.000000 0.000000 0.000000 0.041744 0.000000 0.000000
# 5 0.000000 0.000000 0.000000 0.000000 0.041744 0.000000
# 6 0.000000 0.000000 0.000000 0.000000 0.000000 0.034911
#
#
# Mechanical properties :
#
#
# Convention : Reuss Voigt Hill
#
# Bulk Modulus (GPa) = 58.08472 58.87291 58.47881
# Shear Modulus (GPa) = 26.42668 28.02352 27.22510
#
# Velocity S-wave (km/s) = 3.53882 3.64417 3.59188
# Velocity P-wave (km/s) = 6.65006 6.75320 6.70183
#
# Compressibility (1/GPa) = 0.01721623
#
# Stress axis : x y z
#
# Youngs Moduli (GPa) = 62.25751 62.25751 110.91029
#
# Poissons Ratio (x) = 0.45611 0.25710
# Poissons Ratio (y) = 0.45611 0.25710
# Poissons Ratio (z) = 0.14432 0.14432
#
# Static dielectric constant tensor:
#      x y z
#    x 3.680060 0.000000 0.000000 
#    y 0.000000 3.680060 0.000000 
#    z 0.000000 0.000000 4.034530 
# 
# 
# High freq. dielectric constant tensor:
#      x y z
#    x 1.810030 0.000000 0.000000 
#    y 0.000000 1.810030 0.000000 
#    z 0.000000 0.000000 1.847710 
# 
# From -- ./inp_files/787.got.cif
#   From: 2010.03.12/outbox.cif.g09.slc.cpg/sg108_1_cif.got.tgz:787.got - 2010.04.14 01:53:11.
