data_PCOD8307259
_publ_section_title
;
Structure prediction by ZEFSAII (Michael W. Deem and Ramdas Pophale) SiO2 
 PCOD8307259
Probable space group: P 42 M C
;
_chemical_formula_sum "Si O2"
_cell_formula_units_Z 48
_cell_length_a 9.585740
_cell_length_b 9.585740
_cell_length_c 27.420667
_cell_angle_alpha 90.000000
_cell_angle_beta 90.000000
_cell_angle_gamma 90.000000
_cell_volume 2519.586687
_symmetry_space_group_name_H-M "P 42 M C"
_symmetry_group_IT_number 105
_symmetry_cell_setting 'tetragonal'
loop_
_space_group_symop_operation_xyz
x,y,z
-y,x,1/2+z
-x,-y,z
y,-x,1/2+z
-x,y,z
x,-y,z
-y,-x,1/2+z
y,x,1/2+z
loop_
_atom_site_type_symbol
_atom_site_label
_atom_site_fract_x
_atom_site_fract_y
_atom_site_fract_z
Si Si1 0.850501 0.000000 0.684260
Si Si2 0.000000 0.661124 0.275028
Si Si3 0.500000 0.330196 0.183486
Si Si4 0.161833 0.275256 0.623962
Si Si5 0.335474 0.769201 0.849857
Si Si6 0.334902 0.500000 0.796044
Si Si7 0.336024 0.837351 0.537719
Si Si8 0.158466 0.841225 0.443427
O O1 0.839558 0.127933 0.648680
O O2 0.729473 0.000000 0.722804
O O3 0.000000 0.000000 0.711705
O O4 0.131265 0.707105 0.306012
O O5 0.000000 0.500000 0.262805
O O6 0.500000 0.500000 0.177309
O O7 0.631145 0.257678 0.158526
O O8 0.500000 0.282921 0.240225
O O9 0.244711 0.260626 0.573118
O O10 0.000000 0.329144 0.616523
O O11 0.500000 0.772185 0.860704
O O12 0.278608 0.625669 0.828562
O O13 0.260054 0.810997 0.898972
O O14 0.500000 0.500000 0.793563
O O15 0.500000 0.794739 0.538585
O O16 0.272058 0.807965 0.484638
O O17 0.318847 0.000000 0.551700
O O18 0.000000 0.816027 0.462660
O O19 0.175029 0.000000 0.425419
#
# Coordination Sequence:
#
# PCOD8307259 Si02
#       8
#     4   4   4   8   8   4   8   8
#     4  10  22  36  60  92 122 160 204 248 301 360
#     4  10  20  34  56  84 118 154 198 246 287 358
#     4  11  23  41  63  89 123 163 207 253 304 367
#     4  11  22  40  62  88 125 163 201 251 309 372
#     4  10  20  37  58  83 116 154 198 242 295 355
#     4   9  20  37  59  83 117 159 195 239 296 349
#     4  10  21  38  62  90 117 153 203 254 304 366
#     4  10  21  37  58  84 115 152 192 245 307 360
#
# _framework density 19.050743000000001
#
# number of rings (size 3 to 8) (size 9 to 14) (size 15 to 20)
#    0.000    1.833    1.667    2.250    1.167    4.000 
#    1.500    1.667    0.000    0.000    0.000    0.000 
#    0.000    0.000    0.000    0.000    0.000    0.000 
#
# Total GULP energy -594902.422303 kJ/mol
# GULP energy per Si atom -12393.800465 kJ/mol
# Density = 1.900738 g / cm^3
# Si number density = 19.050743 Si / 1000 Ang^3
#
#
#
# Elastic Constant Matrix: (Units=GPa)
#
#
# Indices 1 2 3 4 5 6 
#
# 1 99.2527 31.6740 35.4943 0.0000 0.0000 0.0000
# 2 31.6740 99.2527 35.4943 0.0000 0.0000 0.0000
# 3 35.4943 35.4943 87.4092 0.0000 0.0000 0.0000
# 4 0.0000 0.0000 0.0000 23.2086 0.0000 0.0000
# 5 0.0000 0.0000 0.0000 0.0000 23.2086 0.0000
# 6 0.0000 0.0000 0.0000 0.0000 0.0000 31.7361
#
#
#
# Elastic Compliance Matrix: (Units=1/GPa)
#
#
# Indices 1 2 3 4 5 6 
#
# 1 0.012296 -0.002502 -0.003977 0.000000 0.000000 0.000000
# 2 -0.002502 0.012296 -0.003977 0.000000 0.000000 0.000000
# 3 -0.003977 -0.003977 0.014670 0.000000 0.000000 0.000000
# 4 0.000000 0.000000 0.000000 0.043088 0.000000 0.000000
# 5 0.000000 0.000000 0.000000 0.000000 0.043088 0.000000
# 6 0.000000 0.000000 0.000000 0.000000 0.000000 0.031510
#
#
# Mechanical properties :
#
#
# Convention : Reuss Voigt Hill
#
# Bulk Modulus (GPa) = 54.49487 54.58222 54.53855
# Shear Modulus (GPa) = 27.17747 27.84745 27.51246
#
# Velocity S-wave (km/s) = 3.78111 3.82743 3.80434
# Velocity P-wave (km/s) = 6.90866 6.94590 6.92731
#
# Compressibility (1/GPa) = 0.01835035
#
# Stress axis : x y z
#
# Youngs Moduli (GPa) = 81.32776 81.32776 68.16408
#
# Poissons Ratio (x) = 0.20345 0.27110
# Poissons Ratio (y) = 0.20345 0.27110
# Poissons Ratio (z) = 0.32346 0.32346
#
# Static dielectric constant tensor:
#      x y z
#    x 3.708790 0.000000 0.000000 
#    y 0.000000 3.708790 0.000000 
#    z 0.000000 0.000000 3.409160 
# 
# 
# High freq. dielectric constant tensor:
#      x y z
#    x 1.744300 0.000000 0.000000 
#    y 0.000000 1.744300 0.000000 
#    z 0.000000 0.000000 1.744330 
# 
# From -- ./inp_files/4950.got.cif
#   From: 2010.03.12/outbox.cif.g09.slc.cpg/sg105_3_cif.got.tgz:4950.got - 2010.04.14 01:45:32.
