data_PCOD8307758
_publ_section_title
;
Structure prediction by ZEFSAII (Michael W. Deem and Ramdas Pophale) SiO2 
 PCOD8307758
Probable space group: I 4 C M
;
_chemical_formula_sum "Si O2"
_cell_formula_units_Z 96
_cell_length_a 13.781189
_cell_length_b 13.781189
_cell_length_c 24.009510
_cell_angle_alpha 90.000000
_cell_angle_beta 90.000000
_cell_angle_gamma 90.000000
_cell_volume 4559.914236
_symmetry_space_group_name_H-M "I 4 C M"
_symmetry_group_IT_number 108
_symmetry_cell_setting 'tetragonal'
loop_
_space_group_symop_operation_xyz
x,y,z
-y,x,z
-x,-y,z
y,-x,z
-x,y,1/2+z
x,-y,1/2+z
-y,-x,1/2+z
y,x,1/2+z
1/2+x,1/2+y,1/2+z
1/2-y,1/2+x,1/2+z
1/2-x,1/2-y,1/2+z
1/2+y,1/2-x,1/2+z
1/2-x,1/2+y,z
1/2+x,1/2-y,z
1/2-y,1/2-x,z
1/2+y,1/2+x,z
loop_
_atom_site_type_symbol
_atom_site_label
_atom_site_fract_x
_atom_site_fract_y
_atom_site_fract_z
Si Si1 0.603699 0.734411 0.536440
Si Si2 0.424798 0.639501 0.369170
Si Si3 0.253297 0.597399 0.977635
Si Si4 0.503333 0.153434 0.241685
Si Si5 0.225921 0.120244 0.658822
Si Si6 0.805039 0.144477 0.763514
O O1 0.669591 0.830410 0.536796
O O2 0.656309 0.643446 0.509314
O O3 0.510610 0.761381 0.499827
O O4 0.575913 0.697113 0.598910
O O5 0.370569 0.538464 0.379547
O O6 0.392790 0.722798 0.411924
O O7 0.392830 0.665253 0.306199
O O8 0.154016 0.654016 0.989433
O O9 0.419314 0.080687 0.222319
O O10 0.544382 0.199853 0.185909
O O11 0.451163 0.239376 0.278051
O O12 0.590510 0.090510 0.272261
O O13 0.277719 0.222282 0.646090
O O14 0.137203 0.143961 0.702056
O O15 0.741113 0.241113 0.765165
#
# Coordination Sequence:
#
# PCOD8307758 Si02
#       6
#    16  16  16  16  16  16
#     4  10  23  41  64  96 128 163 215 264 316 388
#     4  11  22  39  61  86 120 160 213 265 311 377
#     4  11  23  42  68  91 124 170 213 265 324 380
#     4   9  18  33  55  84 120 163 205 249 311 384
#     4   9  19  35  55  86 124 157 198 254 311 376
#     4  10  20  35  59  88 123 163 205 254 316 383
#
# _framework density 21.053027
#
# number of rings (size 3 to 8) (size 9 to 14) (size 15 to 20)
#    0.000    2.000    1.667    1.500    2.333    1.333 
#    0.000    2.500    0.000    0.000    0.000    0.000 
#    0.000    0.000    0.000    0.000    0.000    0.000 
#
# Total GULP energy -594644.081754 kJ/mol
# GULP energy per Si atom -12388.418370 kJ/mol
# Density = 2.100511 g / cm^3
# Si number density = 21.053027 Si / 1000 Ang^3
#
#
#
# Elastic Constant Matrix: (Units=GPa)
#
#
# Indices 1 2 3 4 5 6 
#
# 1 69.0108 47.0627 27.1313 0.0000 0.0000 -0.0002
# 2 47.0627 69.0108 27.1313 0.0000 0.0000 0.0002
# 3 27.1313 27.1313 122.6451 0.0000 0.0000 0.0000
# 4 0.0000 0.0000 0.0000 28.6076 0.0000 0.0000
# 5 0.0000 0.0000 0.0000 0.0000 28.6076 0.0000
# 6 -0.0002 0.0002 0.0000 0.0000 0.0000 29.3041
#
#
#
# Elastic Compliance Matrix: (Units=1/GPa)
#
#
# Indices 1 2 3 4 5 6 
#
# 1 0.027586 -0.017977 -0.002126 0.000000 0.000000 0.000000
# 2 -0.017977 0.027586 -0.002126 0.000000 0.000000 0.000000
# 3 -0.002126 -0.002126 0.009094 0.000000 0.000000 0.000000
# 4 0.000000 0.000000 0.000000 0.034956 0.000000 0.000000
# 5 0.000000 0.000000 0.000000 0.000000 0.034956 0.000000
# 6 0.000000 0.000000 0.000000 0.000000 0.000000 0.034125
#
#
# Mechanical properties :
#
#
# Convention : Reuss Voigt Hill
#
# Bulk Modulus (GPa) = 50.48137 51.47971 50.98054
# Shear Modulus (GPa) = 22.79354 27.92662 25.36008
#
# Velocity S-wave (km/s) = 3.29397 3.64605 3.47447
# Velocity P-wave (km/s) = 6.20461 6.49849 6.35325
#
# Compressibility (1/GPa) = 0.01980929
#
# Stress axis : x y z
#
# Youngs Moduli (GPa) = 36.25092 36.25092 109.96166
#
# Poissons Ratio (x) = 0.65167 0.23374
# Poissons Ratio (y) = 0.65167 0.23374
# Poissons Ratio (z) = 0.07706 0.07706
#
# Static dielectric constant tensor:
#      x y z
#    x 3.871970 0.000000 0.000000 
#    y 0.000000 3.871970 0.000000 
#    z 0.000000 0.000000 3.822570 
# 
# 
# High freq. dielectric constant tensor:
#      x y z
#    x 1.825180 0.000000 0.000000 
#    y 0.000000 1.825180 0.000000 
#    z 0.000000 0.000000 1.811300 
# 
# From -- ./inp_files/2904.got.cif
#   From: 2010.03.12/outbox.cif.g09.slc.cpg/sg108_2_cif.got.tgz:2904.got - 2010.04.14 01:53:11.
