data_PCOD8307853
_publ_section_title
;
Structure prediction by ZEFSAII (Michael W. Deem and Ramdas Pophale) SiO2 
 PCOD8307853
Probable space group: I 41 M D
;
_chemical_formula_sum "Si O2"
_cell_formula_units_Z 128
_cell_length_a 18.142367
_cell_length_b 18.142367
_cell_length_c 21.990879
_cell_angle_alpha 90.000000
_cell_angle_beta 90.000000
_cell_angle_gamma 90.000000
_cell_volume 7238.198432
_symmetry_space_group_name_H-M "I 41 M D"
_symmetry_group_IT_number 109
_symmetry_cell_setting 'tetragonal'
loop_
_space_group_symop_operation_xyz
x,y,z
-y,1/2+x,1/4+z
-x,-y,z
y,1/2-x,1/4+z
-x,y,z
x,-y,z
-y,1/2-x,1/4+z
y,1/2+x,1/4+z
1/2+x,1/2+y,1/2+z
1/2-y,x,3/4+z
1/2-x,1/2-y,1/2+z
1/2+y,-x,3/4+z
1/2-x,1/2+y,1/2+z
1/2+x,1/2-y,1/2+z
1/2-y,-x,3/4+z
1/2+y,x,3/4+z
loop_
_atom_site_type_symbol
_atom_site_label
_atom_site_fract_x
_atom_site_fract_y
_atom_site_fract_z
Si Si1 0.264264 0.631565 0.955290
Si Si2 0.418104 0.685850 0.960398
Si Si3 0.779646 0.868349 0.104150
Si Si4 0.082841 0.582310 0.404692
Si Si5 0.832084 0.418684 0.845994
Si Si6 0.281993 0.717721 0.410356
Si Si7 0.771862 0.084089 0.588882
Si Si8 0.583549 0.276329 0.729753
O O1 0.352970 0.627855 0.944578
O O2 0.227155 0.589145 0.899552
O O3 0.233933 0.715789 0.957746
O O4 0.245834 0.593079 0.019166
O O5 0.500000 0.651960 0.948713
O O6 0.405517 0.756748 0.918307
O O7 0.410077 0.709725 0.031205
O O8 0.864591 0.894783 0.098204
O O9 0.774740 0.779519 0.107004
O O10 0.728692 0.899193 0.051052
O O11 0.090958 0.500000 0.378618
O O12 0.138878 0.595350 0.460809
O O13 0.000000 0.596799 0.428348
O O14 0.868372 0.500000 0.851093
O O15 0.896236 0.357818 0.849331
O O16 0.362825 0.722611 0.381086
O O17 0.277233 0.639207 0.443770
O O18 0.759011 0.000000 0.609267
O O19 0.500000 0.250234 0.716405
#
# Coordination Sequence:
#
# PCOD8307853 Si02
#       8
#    16  16  16  16  16  16  16  16
#     4   9  17  30  50  72  95 128 168 199 234 293
#     4   9  17  28  44  69 100 129 158 197 239 278
#     4  10  18  31  51  72  96 131 173 202 231 288
#     4   9  18  31  46  69 101 130 158 201 250 285
#     4   9  18  32  49  71  99 129 161 198 239 285
#     4   9  19  33  50  72 100 128 160 206 248 284
#     4  10  19  32  52  75  96 124 161 202 251 298
#     4  10  19  31  51  75  97 129 169 204 241 289
#
# _framework density 17.683959999999999
#
# number of rings (size 3 to 8) (size 9 to 14) (size 15 to 20)
#    0.000    2.625    0.000    2.250    0.000    6.250 
#    0.000    0.625    0.000   16.500    0.000    5.250 
#    0.000    0.000    0.000    0.000    0.000    0.000 
#
# Total GULP energy -793147.681183 kJ/mol
# GULP energy per Si atom -12392.932518 kJ/mol
# Density = 1.764371 g / cm^3
# Si number density = 17.683960 Si / 1000 Ang^3
#
#
#
# Elastic Constant Matrix: (Units=GPa)
#
#
# Indices 1 2 3 4 5 6 
#
# 1 113.8897 36.3122 40.0204 0.0000 0.0000 0.0000
# 2 36.3122 113.8897 40.0204 0.0000 0.0000 0.0000
# 3 40.0204 40.0204 71.4288 0.0000 0.0000 0.0000
# 4 0.0000 0.0000 0.0000 20.7379 0.0000 0.0000
# 5 0.0000 0.0000 0.0000 0.0000 20.7379 0.0000
# 6 0.0000 0.0000 0.0000 0.0000 0.0000 16.9687
#
#
#
# Elastic Compliance Matrix: (Units=1/GPa)
#
#
# Indices 1 2 3 4 5 6 
#
# 1 0.011191 -0.001699 -0.005318 0.000000 0.000000 0.000000
# 2 -0.001699 0.011191 -0.005318 0.000000 0.000000 0.000000
# 3 -0.005318 -0.005318 0.019959 0.000000 0.000000 0.000000
# 4 0.000000 0.000000 0.000000 0.048221 0.000000 0.000000
# 5 0.000000 0.000000 0.000000 0.000000 0.048221 0.000000
# 6 0.000000 0.000000 0.000000 0.000000 0.000000 0.058932
#
#
# Mechanical properties :
#
#
# Convention : Reuss Voigt Hill
#
# Bulk Modulus (GPa) = 56.59193 59.10156 57.84675
# Shear Modulus (GPa) = 21.90332 23.87922 22.89127
#
# Velocity S-wave (km/s) = 3.52319 3.67867 3.60177
# Velocity P-wave (km/s) = 6.97293 7.17893 7.07668
#
# Compressibility (1/GPa) = 0.01767036
#
# Stress axis : x y z
#
# Youngs Moduli (GPa) = 89.35777 89.35776 50.10248
#
# Poissons Ratio (x) = 0.15185 0.26644
# Poissons Ratio (y) = 0.15185 0.26644
# Poissons Ratio (z) = 0.47520 0.47520
#
# Static dielectric constant tensor:
#      x y z
#    x 3.290800 0.000000 0.000000 
#    y 0.000000 3.290800 0.000000 
#    z 0.000000 0.000000 3.118560 
# 
# 
# High freq. dielectric constant tensor:
#      x y z
#    x 1.674850 0.000000 0.000000 
#    y 0.000000 1.674850 0.000000 
#    z 0.000000 0.000000 1.666900 
# 
# From -- ./inp_files/4555.got.cif
#   From: 2010.03.12/outbox.cif.g09.slc.cpg/sg109_3_cif.got.tgz:4555.got - 2010.04.14 01:55:16.
