data_PCOD8307614
_publ_section_title
;
Structure prediction by ZEFSAII (Michael W. Deem and Ramdas Pophale) SiO2 
 PCOD8307614
Probable space group: I 4 M M
;
_chemical_formula_sum "Si O2"
_cell_formula_units_Z 112
_cell_length_a 13.842327
_cell_length_b 13.842327
_cell_length_c 36.041991
_cell_angle_alpha 90.000000
_cell_angle_beta 90.000000
_cell_angle_gamma 90.000000
_cell_volume 6906.006500
_symmetry_space_group_name_H-M "I 4 M M"
_symmetry_group_IT_number 107
_symmetry_cell_setting 'tetragonal'
loop_
_space_group_symop_operation_xyz
x,y,z
-y,x,z
-x,-y,z
y,-x,z
-x,y,z
x,-y,z
-y,-x,z
y,x,z
1/2+x,1/2+y,1/2+z
1/2-y,1/2+x,1/2+z
1/2-x,1/2-y,1/2+z
1/2+y,1/2-x,1/2+z
1/2-x,1/2+y,1/2+z
1/2+x,1/2-y,1/2+z
1/2-y,1/2-x,1/2+z
1/2+y,1/2+x,1/2+z
loop_
_atom_site_type_symbol
_atom_site_label
_atom_site_fract_x
_atom_site_fract_y
_atom_site_fract_z
Si Si1 0.389603 0.235253 0.356910
Si Si2 0.609277 0.887101 0.425842
Si Si3 0.773920 0.613958 0.556377
Si Si4 0.391379 0.237710 0.637201
Si Si5 0.727573 0.887334 0.217842
Si Si6 0.614015 0.771386 0.997332
Si Si7 0.888460 0.268908 0.773357
O O1 0.500000 0.262249 0.363002
O O2 0.334195 0.334195 0.363456
O O3 0.354430 0.157603 0.387086
O O4 0.371619 0.194256 0.315499
O O5 0.500000 0.854075 0.435641
O O6 0.680190 0.854613 0.458611
O O7 0.613700 0.000000 0.419981
O O8 0.754907 0.500000 0.548746
O O9 0.673868 0.673868 0.550357
O O10 0.817132 0.631464 0.598331
O O11 0.856832 0.653756 0.529493
O O12 0.500000 0.271553 0.636948
O O13 0.338143 0.338143 0.637468
O O14 0.368965 0.182565 0.676136
O O15 0.825623 0.825623 0.223928
O O16 0.645828 0.854785 0.246632
O O17 0.751598 0.000000 0.224334
O O18 0.500000 0.750907 0.999562
O O19 0.669958 0.669958 0.001735
O O20 0.828854 0.171147 0.765298
O O21 0.000000 0.245136 0.765636
#
# Coordination Sequence:
#
# PCOD8307614 Si02
#       7
#    16  16  16  16  16  16  16
#     4   9  17  29  45  65  89 115 143 176 214 258
#     4   9  17  29  46  68  91 114 141 173 212 261
#     4   9  17  29  46  69  95 121 148 177 213 261
#     4   8  14  25  41  62  89 118 146 177 213 256
#     4   9  17  29  45  66  92 120 149 181 218 262
#     4  10  20  33  49  67  87 115 151 190 229 263
#     4   9  18  31  46  65  88 116 151 189 227 264
#
# _framework density 16.217766999999998
#
# number of rings (size 3 to 8) (size 9 to 14) (size 15 to 20)
#    0.000    3.000    0.000    0.857    0.000    2.571 
#    0.000    6.429    0.000    2.571    0.000    2.000 
#    0.000    9.143    0.000    0.000    0.000    0.000 
#
# Total GULP energy -693829.577530 kJ/mol
# GULP energy per Si atom -12389.813884 kJ/mol
# Density = 1.618086 g / cm^3
# Si number density = 16.217767 Si / 1000 Ang^3
#
#
#
# Elastic Constant Matrix: (Units=GPa)
#
#
# Indices 1 2 3 4 5 6 
#
# 1 70.1349 34.4063 53.7750 0.0000 0.0000 0.0000
# 2 34.4063 70.1349 53.7750 0.0000 0.0000 0.0000
# 3 53.7750 53.7750 131.8237 0.0000 0.0000 0.0000
# 4 0.0000 0.0000 0.0000 24.8319 0.0000 0.0000
# 5 0.0000 0.0000 0.0000 0.0000 24.8319 0.0000
# 6 0.0000 0.0000 0.0000 0.0000 0.0000 15.7728
#
#
#
# Elastic Compliance Matrix: (Units=1/GPa)
#
#
# Indices 1 2 3 4 5 6 
#
# 1 0.022236 -0.005753 -0.006724 0.000000 0.000000 0.000000
# 2 -0.005753 0.022236 -0.006724 0.000000 0.000000 0.000000
# 3 -0.006724 -0.006724 0.013072 0.000000 0.000000 0.000000
# 4 0.000000 0.000000 0.000000 0.040271 0.000000 0.000000
# 5 0.000000 0.000000 0.000000 0.000000 0.040271 0.000000
# 6 0.000000 0.000000 0.000000 0.000000 0.000000 0.063400
#
#
# Mechanical properties :
#
#
# Convention : Reuss Voigt Hill
#
# Bulk Modulus (GPa) = 52.24103 61.77847 57.00975
# Shear Modulus (GPa) = 20.30310 21.76313 21.03311
#
# Velocity S-wave (km/s) = 3.54206 3.66721 3.60518
# Velocity P-wave (km/s) = 7.00075 7.49046 7.24974
#
# Compressibility (1/GPa) = 0.01914204
#
# Stress axis : x y z
#
# Youngs Moduli (GPa) = 44.97222 44.97222 76.50096
#
# Poissons Ratio (x) = 0.25872 0.51439
# Poissons Ratio (y) = 0.25872 0.51439
# Poissons Ratio (z) = 0.30239 0.30239
#
# Static dielectric constant tensor:
#      x y z
#    x 2.905350 0.000000 0.000000 
#    y 0.000000 2.905350 0.000000 
#    z 0.000000 0.000000 3.538590 
# 
# 
# High freq. dielectric constant tensor:
#      x y z
#    x 1.606720 0.000000 0.000000 
#    y 0.000000 1.606720 0.000000 
#    z 0.000000 0.000000 1.644160 
# 
# From -- ./inp_files/5796.got.cif
#   From: 2010.03.12/outbox.cif.g09.slc.cpg/sg107_3_cif.got.tgz:5796.got - 2010.04.14 01:49:11.
