data_PCOD8307833
_publ_section_title
;
Structure prediction by ZEFSAII (Michael W. Deem and Ramdas Pophale) SiO2 
 PCOD8307833
Probable space group: I 41 M D
;
_chemical_formula_sum "Si O2"
_cell_formula_units_Z 64
_cell_length_a 11.832392
_cell_length_b 11.832392
_cell_length_c 30.213605
_cell_angle_alpha 90.000000
_cell_angle_beta 90.000000
_cell_angle_gamma 90.000000
_cell_volume 4230.070888
_symmetry_space_group_name_H-M "I 41 M D"
_symmetry_group_IT_number 109
_symmetry_cell_setting 'tetragonal'
loop_
_space_group_symop_operation_xyz
x,y,z
-y,1/2+x,1/4+z
-x,-y,z
y,1/2-x,1/4+z
-x,y,z
x,-y,z
-y,1/2-x,1/4+z
y,1/2+x,1/4+z
1/2+x,1/2+y,1/2+z
1/2-y,x,3/4+z
1/2-x,1/2-y,1/2+z
1/2+y,-x,3/4+z
1/2-x,1/2+y,1/2+z
1/2+x,1/2-y,1/2+z
1/2-y,-x,3/4+z
1/2+y,x,3/4+z
loop_
_atom_site_type_symbol
_atom_site_label
_atom_site_fract_x
_atom_site_fract_y
_atom_site_fract_z
Si Si1 0.280085 0.633787 0.645330
Si Si2 0.866204 0.252219 0.227824
Si Si3 0.633760 0.374000 0.817025
Si Si4 0.865593 0.500000 0.345401
Si Si5 0.132041 0.500000 0.248580
O O1 0.279109 0.500000 0.652254
O O2 0.282865 0.690509 0.693489
O O3 0.175863 0.674460 0.614456
O O4 0.391093 0.678220 0.620822
O O5 0.830709 0.206788 0.276362
O O6 0.835972 0.385180 0.222927
O O7 0.000000 0.228233 0.219010
O O8 0.500000 0.379981 0.817843
O O9 0.685036 0.500000 0.811094
O O10 0.809990 0.500000 0.296795
O O11 0.000000 0.500000 0.342996
O O12 0.000000 0.500000 0.257637
#
# Coordination Sequence:
#
# PCOD8307833 Si02
#       5
#    16  16  16   8   8
#     4  10  17  25  40  62  88 116 143 171 209 256
#     4  10  17  25  40  62  88 115 142 174 213 255
#     4   9  17  27  39  60  89 115 142 177 213 251
#     4   9  14  24  38  55  85 117 139 166 207 254
#     4   9  16  26  38  58  88 116 142 174 212 253
#
# _framework density 15.129770000000001
#
# number of rings (size 3 to 8) (size 9 to 14) (size 15 to 20)
#    0.000    2.500    3.750    0.750    0.000    1.000 
#    0.000    0.000    0.000    0.000    3.250    0.875 
#    3.750    0.000    0.000    0.000    0.000    0.000 
#
# Total GULP energy -396498.801195 kJ/mol
# GULP energy per Si atom -12390.587537 kJ/mol
# Density = 1.509533 g / cm^3
# Si number density = 15.129770 Si / 1000 Ang^3
#
#
#
# Elastic Constant Matrix: (Units=GPa)
#
#
# Indices 1 2 3 4 5 6 
#
# 1 66.0351 16.1805 33.9123 0.0000 0.0000 0.0000
# 2 16.1805 66.0351 33.9123 0.0000 0.0000 0.0000
# 3 33.9123 33.9123 105.9195 0.0000 0.0000 0.0000
# 4 0.0000 0.0000 0.0000 19.8693 0.0000 0.0000
# 5 0.0000 0.0000 0.0000 0.0000 19.8693 0.0000
# 6 0.0000 0.0000 0.0000 0.0000 0.0000 8.2287
#
#
#
# Elastic Compliance Matrix: (Units=1/GPa)
#
#
# Indices 1 2 3 4 5 6 
#
# 1 0.018294 -0.001765 -0.005292 0.000000 0.000000 0.000000
# 2 -0.001765 0.018294 -0.005292 0.000000 0.000000 0.000000
# 3 -0.005292 -0.005292 0.012830 0.000000 0.000000 0.000000
# 4 0.000000 0.000000 0.000000 0.050329 0.000000 0.000000
# 5 0.000000 0.000000 0.000000 0.000000 0.050329 0.000000
# 6 0.000000 0.000000 0.000000 0.000000 0.000000 0.121526
#
#
# Mechanical properties :
#
#
# Convention : Reuss Voigt Hill
#
# Bulk Modulus (GPa) = 40.45412 45.11112 42.78262
# Shear Modulus (GPa) = 16.41832 19.85912 18.13872
#
# Velocity S-wave (km/s) = 3.29776 3.62689 3.46624
# Velocity P-wave (km/s) = 6.42623 6.88622 6.66020
#
# Compressibility (1/GPa) = 0.02471936
#
# Stress axis : x y z
#
# Youngs Moduli (GPa) = 54.66393 54.66393 77.94327
#
# Poissons Ratio (x) = 0.09647 0.41248
# Poissons Ratio (y) = 0.09647 0.41248
# Poissons Ratio (z) = 0.28928 0.28928
#
# Static dielectric constant tensor:
#      x y z
#    x 2.807080 0.000000 0.000000 
#    y 0.000000 2.807080 0.000000 
#    z 0.000000 0.000000 2.995220 
# 
# 
# High freq. dielectric constant tensor:
#      x y z
#    x 1.538430 0.000000 0.000000 
#    y 0.000000 1.538430 0.000000 
#    z 0.000000 0.000000 1.588760 
# 
# From -- ./inp_files/3669.got.cif
#   From: 2010.03.12/outbox.cif.g09.slc.cpg/sg109_2_cif.got.tgz:3669.got - 2010.04.14 01:55:16.
