data_PCOD8307757
_publ_section_title
;
Structure prediction by ZEFSAII (Michael W. Deem and Ramdas Pophale) SiO2 
 PCOD8307757
Probable space group: I 4 C M
;
_chemical_formula_sum "Si O2"
_cell_formula_units_Z 128
_cell_length_a 16.854555
_cell_length_b 16.854555
_cell_length_c 22.314411
_cell_angle_alpha 90.000000
_cell_angle_beta 90.000000
_cell_angle_gamma 90.000000
_cell_volume 6338.989160
_symmetry_space_group_name_H-M "I 4 C M"
_symmetry_group_IT_number 108
_symmetry_cell_setting 'tetragonal'
loop_
_space_group_symop_operation_xyz
x,y,z
-y,x,z
-x,-y,z
y,-x,z
-x,y,1/2+z
x,-y,1/2+z
-y,-x,1/2+z
y,x,1/2+z
1/2+x,1/2+y,1/2+z
1/2-y,1/2+x,1/2+z
1/2-x,1/2-y,1/2+z
1/2+y,1/2-x,1/2+z
1/2-x,1/2+y,z
1/2+x,1/2-y,z
1/2-y,1/2-x,z
1/2+y,1/2+x,z
loop_
_atom_site_type_symbol
_atom_site_label
_atom_site_fract_x
_atom_site_fract_y
_atom_site_fract_z
Si Si1 0.067072 0.891975 0.524180
Si Si2 0.224261 0.402538 0.600178
Si Si3 0.882797 0.149829 0.653426
Si Si4 0.932685 0.107389 0.781125
Si Si5 0.371362 0.003410 0.281851
Si Si6 0.216321 0.158293 0.975229
Si Si7 0.182991 0.444656 0.158546
Si Si8 0.606549 0.762868 0.847880
O O1 0.067713 0.873904 0.594656
O O2 0.120971 0.831213 0.484745
O O3 0.975895 0.891884 0.506258
O O4 0.148121 0.351880 0.617606
O O5 0.292977 0.380246 0.647340
O O6 0.251137 0.388686 0.532495
O O7 0.200787 0.494598 0.604851
O O8 0.926044 0.109761 0.709362
O O9 0.882695 0.244797 0.663139
O O10 0.886855 0.181343 0.810584
O O11 0.024816 0.108047 0.801543
O O12 0.407348 0.092652 0.292259
O O13 0.444235 0.944235 0.280429
O O14 0.324699 0.996804 0.219057
O O15 0.309705 0.975863 0.333733
O O16 0.253768 0.246233 0.971759
O O17 0.240927 0.107265 0.917656
O O18 0.102877 0.397124 0.144263
O O19 0.681590 0.818411 0.829770
#
# Coordination Sequence:
#
# PCOD8307757 Si02
#       8
#    16  16  16  16  16  16  16  16
#     4  10  20  35  59  88 115 148 193 248 302 358
#     4  10  21  36  57  86 119 155 197 247 298 356
#     4  11  20  35  56  85 120 153 194 237 298 365
#     4  11  23  38  57  85 121 155 190 242 304 364
#     4   9  18  34  57  85 116 153 199 248 299 358
#     4   9  20  39  59  81 115 158 201 245 298 361
#     4  11  21  35  57  87 123 160 194 243 309 369
#     4  10  21  40  63  84 115 161 209 253 302 365
#
# _framework density 20.192495000000001
#
# number of rings (size 3 to 8) (size 9 to 14) (size 15 to 20)
#    0.000    1.875    1.250    3.750    0.000    3.750 
#    0.000    2.500    0.000    3.000    0.000    0.000 
#    0.000    0.000    0.000    0.000    0.000    0.000 
#
# Total GULP energy -793380.209110 kJ/mol
# GULP energy per Si atom -12396.565767 kJ/mol
# Density = 2.014654 g / cm^3
# Si number density = 20.192495 Si / 1000 Ang^3
#
#
#
# Elastic Constant Matrix: (Units=GPa)
#
#
# Indices 1 2 3 4 5 6 
#
# 1 100.4273 41.5260 35.2990 0.0000 0.0000 0.0001
# 2 41.5260 100.4273 35.2990 0.0000 0.0000 -0.0001
# 3 35.2990 35.2990 75.7558 0.0000 0.0000 0.0000
# 4 0.0000 0.0000 0.0000 23.3742 0.0000 0.0000
# 5 0.0000 0.0000 0.0000 0.0000 23.3742 0.0000
# 6 0.0001 -0.0001 0.0000 0.0000 0.0000 31.6740
#
#
#
# Elastic Compliance Matrix: (Units=1/GPa)
#
#
# Indices 1 2 3 4 5 6 
#
# 1 0.013074 -0.003904 -0.004273 0.000000 0.000000 0.000000
# 2 -0.003904 0.013074 -0.004273 0.000000 0.000000 0.000000
# 3 -0.004273 -0.004273 0.017182 0.000000 0.000000 0.000000
# 4 0.000000 0.000000 0.000000 0.042782 0.000000 0.000000
# 5 0.000000 0.000000 0.000000 0.000000 0.042782 0.000000
# 6 0.000000 0.000000 0.000000 0.000000 0.000000 0.031572
#
#
# Mechanical properties :
#
#
# Convention : Reuss Voigt Hill
#
# Bulk Modulus (GPa) = 54.25763 55.65095 54.95429
# Shear Modulus (GPa) = 26.10870 26.65024 26.37947
#
# Velocity S-wave (km/s) = 3.59972 3.63686 3.61834
# Velocity P-wave (km/s) = 6.64875 6.72724 6.68811
#
# Compressibility (1/GPa) = 0.01843059
#
# Stress axis : x y z
#
# Youngs Moduli (GPa) = 76.49055 76.49055 58.20048
#
# Poissons Ratio (x) = 0.29862 0.24867
# Poissons Ratio (y) = 0.29862 0.24867
# Poissons Ratio (z) = 0.32681 0.32681
#
# Static dielectric constant tensor:
#      x y z
#    x 3.780890 0.000000 0.000000 
#    y 0.000000 3.780890 0.000000 
#    z 0.000000 0.000000 3.503230 
# 
# 
# High freq. dielectric constant tensor:
#      x y z
#    x 1.787910 0.000000 0.000000 
#    y 0.000000 1.787910 0.000000 
#    z 0.000000 0.000000 1.770140 
# 
# From -- ./inp_files/3291.got.cif
#   From: 2010.03.12/outbox.cif.g09.slc.cpg/sg108_2_cif.got.tgz:3291.got - 2010.04.14 01:53:11.
