data_PCOD8307638
_publ_section_title
;
Structure prediction by ZEFSAII (Michael W. Deem and Ramdas Pophale) SiO2 
 PCOD8307638
Probable space group: I 4 M M
;
_chemical_formula_sum "Si O2"
_cell_formula_units_Z 96
_cell_length_a 21.598387
_cell_length_b 21.598387
_cell_length_c 11.726599
_cell_angle_alpha 90.000000
_cell_angle_beta 90.000000
_cell_angle_gamma 90.000000
_cell_volume 5470.344932
_symmetry_space_group_name_H-M "I 4 M M"
_symmetry_group_IT_number 107
_symmetry_cell_setting 'tetragonal'
loop_
_space_group_symop_operation_xyz
x,y,z
-y,x,z
-x,-y,z
y,-x,z
-x,y,z
x,-y,z
-y,-x,z
y,x,z
1/2+x,1/2+y,1/2+z
1/2-y,1/2+x,1/2+z
1/2-x,1/2-y,1/2+z
1/2+y,1/2-x,1/2+z
1/2-x,1/2+y,1/2+z
1/2+x,1/2-y,1/2+z
1/2-y,1/2-x,1/2+z
1/2+y,1/2+x,1/2+z
loop_
_atom_site_type_symbol
_atom_site_label
_atom_site_fract_x
_atom_site_fract_y
_atom_site_fract_z
Si Si1 0.289213 0.883458 0.838230
Si Si2 0.929900 0.752510 0.180958
Si Si3 0.571797 0.328865 0.457303
Si Si4 0.431082 0.866905 0.535248
Si Si5 0.809852 0.428253 0.086200
Si Si6 0.154130 0.746056 0.394276
O O1 0.218409 0.898809 0.866850
O O2 0.299937 0.896216 0.706619
O O3 0.302444 0.812357 0.868131
O O4 0.335175 0.926909 0.911138
O O5 0.917084 0.684327 0.131360
O O6 0.883520 0.766038 0.282896
O O7 0.000000 0.756464 0.226713
O O8 0.918206 0.803430 0.084445
O O9 0.500000 0.338563 0.428732
O O10 0.605353 0.394648 0.445476
O O11 0.500000 0.894623 0.549049
O O12 0.381780 0.921899 0.549098
O O13 0.791652 0.500000 0.089426
O O14 0.766630 0.393559 0.995889
O O15 0.197383 0.802618 0.432327
#
# Coordination Sequence:
#
# PCOD8307638 Si02
#       6
#    16  16  16  16  16  16
#     4  10  20  37  53  76 104 141 177 220 267 312
#     4   9  17  34  55  78 108 138 173 217 268 319
#     4  10  20  34  55  78 103 137 173 216 269 321
#     4   9  18  34  55  76 103 139 179 218 260 312
#     4  11  22  36  53  77 111 144 179 222 267 312
#     4  11  22  34  53  80 108 141 181 223 269 320
#
# _framework density 17.549166
#
# number of rings (size 3 to 8) (size 9 to 14) (size 15 to 20)
#    0.000    2.000    1.667    4.000    0.000    1.833 
#    0.000    0.000    0.000    2.000    0.000    0.000 
#    0.000    3.000    0.000    0.333    0.000    0.000 
#
# Total GULP energy -595310.537360 kJ/mol
# GULP energy per Si atom -12402.302862 kJ/mol
# Density = 1.750922 g / cm^3
# Si number density = 17.549166 Si / 1000 Ang^3
#
#
#
# Elastic Constant Matrix: (Units=GPa)
#
#
# Indices 1 2 3 4 5 6 
#
# 1 55.5524 28.3634 6.4948 0.0000 0.0000 0.0002
# 2 28.3634 55.5524 6.4948 0.0000 0.0000 -0.0002
# 3 6.4948 6.4948 69.4066 0.0000 0.0000 0.0000
# 4 0.0000 0.0000 0.0000 17.7872 0.0000 0.0000
# 5 0.0000 0.0000 0.0000 0.0000 17.7872 0.0000
# 6 0.0002 -0.0002 0.0000 0.0000 0.0000 22.1881
#
#
#
# Elastic Compliance Matrix: (Units=1/GPa)
#
#
# Indices 1 2 3 4 5 6 
#
# 1 0.024436 -0.012344 -0.001132 0.000000 0.000000 0.000000
# 2 -0.012344 0.024436 -0.001132 0.000000 0.000000 0.000000
# 3 -0.001132 -0.001132 0.014620 0.000000 0.000000 0.000000
# 4 0.000000 0.000000 0.000000 0.056220 0.000000 0.000000
# 5 0.000000 0.000000 0.000000 0.000000 0.056220 0.000000
# 6 0.000000 0.000000 0.000000 0.000000 0.000000 0.045069
#
#
# Mechanical properties :
#
#
# Convention : Reuss Voigt Hill
#
# Bulk Modulus (GPa) = 29.17381 29.24635 29.21008
# Shear Modulus (GPa) = 19.11019 20.82971 19.96995
#
# Velocity S-wave (km/s) = 3.30351 3.44893 3.37700
# Velocity P-wave (km/s) = 5.58668 5.70629 5.64680
#
# Compressibility (1/GPa) = 0.03427732
#
# Stress axis : x y z
#
# Youngs Moduli (GPa) = 40.92366 40.92366 68.40122
#
# Poissons Ratio (x) = 0.50516 0.07740
# Poissons Ratio (y) = 0.50516 0.07740
# Poissons Ratio (z) = 0.04631 0.04631
#
# Static dielectric constant tensor:
#      x y z
#    x 3.156810 0.000000 0.000000 
#    y 0.000000 3.156810 0.000000 
#    z 0.000000 0.000000 3.248020 
# 
# 
# High freq. dielectric constant tensor:
#      x y z
#    x 1.669680 0.000000 0.000000 
#    y 0.000000 1.669680 0.000000 
#    z 0.000000 0.000000 1.679620 
# 
# From -- ./inp_files/2425.got.cif
#   From: 2010.03.12/outbox.cif.g09.slc.cpg/sg107_2_cif.got.tgz:2425.got - 2010.04.14 01:49:11.
