data_PCOD8307320
_publ_section_title
;
Structure prediction by ZEFSAII (Michael W. Deem and Ramdas Pophale) SiO2 
 PCOD8307320
Probable space group: P 42 M C
;
_chemical_formula_sum "Si O2"
_cell_formula_units_Z 48
_cell_length_a 9.218291
_cell_length_b 9.218291
_cell_length_c 30.332713
_cell_angle_alpha 90.000000
_cell_angle_beta 90.000000
_cell_angle_gamma 90.000000
_cell_volume 2577.579584
_symmetry_space_group_name_H-M "P 42 M C"
_symmetry_group_IT_number 105
_symmetry_cell_setting 'tetragonal'
loop_
_space_group_symop_operation_xyz
x,y,z
-y,x,1/2+z
-x,-y,z
y,-x,1/2+z
-x,y,z
x,-y,z
-y,-x,1/2+z
y,x,1/2+z
loop_
_atom_site_type_symbol
_atom_site_label
_atom_site_fract_x
_atom_site_fract_y
_atom_site_fract_z
Si Si1 0.666346 0.669456 0.244510
Si Si2 0.835946 0.830503 0.418966
Si Si3 0.164055 0.830503 0.318037
Si Si4 0.829466 0.667828 0.580105
Si Si5 0.667828 0.829466 0.656898
Si Si6 0.666346 0.330544 0.492493
O O1 0.500000 0.712513 0.236144
O O2 0.685540 0.500000 0.252495
O O3 0.722240 0.747651 0.287993
O O4 0.758502 0.720795 0.202448
O O5 0.798152 0.793672 0.368502
O O6 0.722240 0.747652 0.449011
O O7 0.000000 0.780100 0.429793
O O8 0.819974 0.000000 0.427950
O O9 0.000000 0.780100 0.307211
O O10 0.180027 0.000000 0.309053
O O11 0.791193 0.500000 0.589532
O O12 0.765736 0.765736 0.618502
O O13 0.758503 0.720794 0.534555
O O14 0.000000 0.693658 0.576798
O O15 0.500000 0.791193 0.647472
O O16 0.693658 0.000000 0.660206
O O17 0.500000 0.287487 0.500860
O O18 0.685541 0.500000 0.484508
#
# Coordination Sequence:
#
# PCOD8307320 Si02
#       6
#     8   8   8   8   8   8
#     4  10  21  36  55  80 109 141 177 218 264 314
#     4   9  19  36  56  78 106 141 180 221 265 313
#     4   9  19  36  56  78 106 141 180 221 265 313
#     4  10  21  37  57  80 106 138 176 216 261 314
#     4  10  21  37  57  80 106 138 176 216 261 314
#     4  10  21  36  55  80 109 141 177 218 264 314
#
# _framework density 18.622121
#
# number of rings (size 3 to 8) (size 9 to 14) (size 15 to 20)
#    0.000    2.333    0.000    3.000    0.000    7.333 
#    0.000    5.000    0.000    0.000    0.000    0.000 
#    0.000    0.000    0.000    0.000    0.000    0.000 
#
# Total GULP energy -595378.757985 kJ/mol
# GULP energy per Si atom -12403.724125 kJ/mol
# Density = 1.857974 g / cm^3
# Si number density = 18.622121 Si / 1000 Ang^3
#
#
#
# Elastic Constant Matrix: (Units=GPa)
#
#
# Indices 1 2 3 4 5 6 
#
# 1 86.5273 56.5863 70.0847 0.0000 0.0000 0.0000
# 2 56.5863 86.5273 70.0847 0.0000 0.0000 0.0000
# 3 70.0847 70.0847 134.8690 0.0000 0.0000 0.0000
# 4 0.0000 0.0000 0.0000 45.4866 0.0000 0.0000
# 5 0.0000 0.0000 0.0000 0.0000 45.4866 0.0000
# 6 0.0000 0.0000 0.0000 0.0000 0.0000 33.6573
#
#
#
# Elastic Compliance Matrix: (Units=1/GPa)
#
#
# Indices 1 2 3 4 5 6 
#
# 1 0.023814 -0.009585 -0.007395 0.000000 0.000000 0.000000
# 2 -0.009585 0.023814 -0.007395 0.000000 0.000000 0.000000
# 3 -0.007395 -0.007395 0.015100 0.000000 0.000000 0.000000
# 4 0.000000 0.000000 0.000000 0.021984 0.000000 0.000000
# 5 0.000000 0.000000 0.000000 0.000000 0.021984 0.000000
# 6 0.000000 0.000000 0.000000 0.000000 0.000000 0.029711
#
#
# Mechanical properties :
#
#
# Convention : Reuss Voigt Hill
#
# Bulk Modulus (GPa) = 71.52407 77.93721 74.73064
# Shear Modulus (GPa) = 26.34120 32.33731 29.33926
#
# Velocity S-wave (km/s) = 3.76508 4.17165 3.97357
# Velocity P-wave (km/s) = 7.57579 8.07133 7.82748
#
# Compressibility (1/GPa) = 0.01398131
#
# Stress axis : x y z
#
# Youngs Moduli (GPa) = 41.99132 41.99132 66.22608
#
# Poissons Ratio (x) = 0.40247 0.48971
# Poissons Ratio (y) = 0.40247 0.48971
# Poissons Ratio (z) = 0.31051 0.31051
#
# Static dielectric constant tensor:
#      x y z
#    x 3.382300 0.000000 0.000000 
#    y 0.000000 3.382300 0.000000 
#    z 0.000000 0.000000 3.463280 
# 
# 
# High freq. dielectric constant tensor:
#      x y z
#    x 1.722270 0.000000 0.000000 
#    y 0.000000 1.722270 0.000000 
#    z 0.000000 0.000000 1.732490 
# 
# From -- ./inp_files/4657.got.cif
#   From: 2010.03.12/outbox.cif.g09.slc.cpg/sg105_3_cif.got.tgz:4657.got - 2010.04.14 01:45:32.
