data_PCOD8307243
_publ_section_title
;
Structure prediction by ZEFSAII (Michael W. Deem and Ramdas Pophale) SiO2 
 PCOD8307243
Probable space group: P 42 M C
;
_chemical_formula_sum "Si O2"
_cell_formula_units_Z 48
_cell_length_a 9.240946
_cell_length_b 9.240946
_cell_length_c 31.113833
_cell_angle_alpha 90.000000
_cell_angle_beta 90.000000
_cell_angle_gamma 90.000000
_cell_volume 2656.968351
_symmetry_space_group_name_H-M "P 42 M C"
_symmetry_group_IT_number 105
_symmetry_cell_setting 'tetragonal'
loop_
_space_group_symop_operation_xyz
x,y,z
-y,x,1/2+z
-x,-y,z
y,-x,1/2+z
-x,y,z
x,-y,z
-y,-x,1/2+z
y,x,1/2+z
loop_
_atom_site_type_symbol
_atom_site_label
_atom_site_fract_x
_atom_site_fract_y
_atom_site_fract_z
Si Si1 0.327864 0.338887 0.523820
Si Si2 0.829908 0.330984 0.682193
Si Si3 0.158926 0.328862 0.351890
Si Si4 0.667087 0.170693 0.756003
Si Si5 0.329413 0.167668 0.606351
Si Si6 0.327772 0.659762 0.930269
O O1 0.500000 0.344699 0.520660
O O2 0.269349 0.500000 0.535201
O O3 0.276744 0.226712 0.560089
O O4 0.269621 0.287914 0.476796
O O5 0.791943 0.500000 0.681571
O O6 0.771157 0.261888 0.725810
O O7 0.753696 0.255562 0.642297
O O8 0.000000 0.302951 0.679290
O O9 0.149539 0.500000 0.357501
O O10 0.221520 0.294553 0.304529
O O11 0.252469 0.259798 0.390367
O O12 0.000000 0.260399 0.355892
O O13 0.500000 0.205093 0.744945
O O14 0.695639 0.000000 0.750121
O O15 0.500000 0.191872 0.612755
O O16 0.287686 0.000000 0.609591
O O17 0.500000 0.652801 0.926538
O O18 0.260782 0.500000 0.926823
#
# Coordination Sequence:
#
# PCOD8307243 Si02
#       6
#     8   8   8   8   8   8
#     4   8  14  26  45  69  97 127 158 195 238 281
#     4  11  24  38  51  71  99 128 160 200 247 298
#     4   8  14  25  42  67  98 126 154 194 239 279
#     4   9  18  33  53  76 100 128 165 204 241 287
#     4  10  20  34  54  77  98 125 164 204 242 290
#     4   8  13  22  39  64  92 123 159 195 233 278
#
# _framework density 18.065704
#
# number of rings (size 3 to 8) (size 9 to 14) (size 15 to 20)
#    0.000    3.000    0.000    3.500    0.000    5.333 
#    0.000    2.500    0.000    4.000    0.000    2.333 
#    0.000    0.000    0.000    0.000    0.000    0.000 
#
# Total GULP energy -594895.203605 kJ/mol
# GULP energy per Si atom -12393.650075 kJ/mol
# Density = 1.802459 g / cm^3
# Si number density = 18.065704 Si / 1000 Ang^3
#
#
#
# Elastic Constant Matrix: (Units=GPa)
#
#
# Indices 1 2 3 4 5 6 
#
# 1 66.7275 39.9080 62.0141 0.0000 0.0000 0.0000
# 2 39.9080 66.7275 62.0141 0.0000 0.0000 0.0000
# 3 62.0141 62.0141 175.8342 0.0000 0.0000 0.0000
# 4 0.0000 0.0000 0.0000 -3.9268 0.0000 0.0000
# 5 0.0000 0.0000 0.0000 0.0000 -3.9268 0.0000
# 6 0.0000 0.0000 0.0000 0.0000 0.0000 18.4673
#
#
#
# Elastic Compliance Matrix: (Units=1/GPa)
#
#
# Indices 1 2 3 4 5 6 
#
# 1 0.026593 -0.010693 -0.005608 0.000000 0.000000 0.000000
# 2 -0.010693 0.026593 -0.005608 0.000000 0.000000 0.000000
# 3 -0.005608 -0.005608 0.009643 0.000000 0.000000 0.000000
# 4 0.000000 0.000000 0.000000 -0.254662 0.000000 0.000000
# 5 0.000000 0.000000 0.000000 0.000000 -0.254662 0.000000
# 6 0.000000 0.000000 0.000000 0.000000 0.000000 0.054150
#
#
# Mechanical properties :
#
#
# Convention : Reuss Voigt Hill
#
# Bulk Modulus (GPa) = 52.59831 70.79571 61.69701
# Shear Modulus (GPa) = -14.61171 11.81295 -1.39938
#
# Velocity S-wave (km/s) = -2.84704 2.55990 -0.88107
# Velocity P-wave (km/s) = 4.28610 6.92895 5.76112
#
# Compressibility (1/GPa) = 0.01901202
#
# Stress axis : x y z
#
# Youngs Moduli (GPa) = 37.60359 37.60359 103.70538
#
# Poissons Ratio (x) = 0.40210 0.58155
# Poissons Ratio (y) = 0.40210 0.58155
# Poissons Ratio (z) = 0.21087 0.21087
#
# Static dielectric constant tensor:
#      x y z
#    x 3.169580 0.000000 0.000000 
#    y 0.000000 3.169580 0.000000 
#    z 0.000000 0.000000 3.752120 
# 
# 
# High freq. dielectric constant tensor:
#      x y z
#    x 1.667630 0.000000 0.000000 
#    y 0.000000 1.667630 0.000000 
#    z 0.000000 0.000000 1.722610 
# 
# From -- ./inp_files/4699.got.cif
#   From: 2010.03.12/outbox.cif.g09.slc.cpg/sg105_3_cif.got.tgz:4699.got - 2010.04.14 01:45:32.
