data_PCOD8307197
_publ_section_title
;
Structure prediction by ZEFSAII (Michael W. Deem and Ramdas Pophale) SiO2 
 PCOD8307197
Probable space group: P 42 M C
;
_chemical_formula_sum "Si O2"
_cell_formula_units_Z 48
_cell_length_a 9.144904
_cell_length_b 9.144904
_cell_length_c 31.560096
_cell_angle_alpha 90.000000
_cell_angle_beta 90.000000
_cell_angle_gamma 90.000000
_cell_volume 2639.347763
_symmetry_space_group_name_H-M "P 42 M C"
_symmetry_group_IT_number 105
_symmetry_cell_setting 'tetragonal'
loop_
_space_group_symop_operation_xyz
x,y,z
-y,x,1/2+z
-x,-y,z
y,-x,1/2+z
-x,y,z
x,-y,z
-y,-x,1/2+z
y,x,1/2+z
loop_
_atom_site_type_symbol
_atom_site_label
_atom_site_fract_x
_atom_site_fract_y
_atom_site_fract_z
Si Si1 0.172660 0.666488 0.615850
Si Si2 0.669639 0.826859 0.540667
Si Si3 0.171115 0.170049 0.200130
Si Si4 0.326315 0.165936 0.358188
Si Si5 0.162782 0.326647 0.949106
Si Si6 0.669636 0.671740 0.275657
O O1 0.227913 0.500000 0.619059
O O2 0.237268 0.741575 0.574695
O O3 0.226720 0.751990 0.657416
O O4 0.000000 0.675116 0.611963
O O5 0.500000 0.791910 0.548480
O O6 0.722377 0.765953 0.493991
O O7 0.698622 0.000000 0.543959
O O8 0.234813 0.261189 0.238610
O O9 0.000000 0.200770 0.195734
O O10 0.204972 0.000000 0.208158
O O11 0.500000 0.164375 0.356941
O O12 0.275913 0.235271 0.404158
O O13 0.267583 0.265442 0.319991
O O14 0.267523 0.000000 0.352658
O O15 0.155168 0.500000 0.950599
O O16 0.000000 0.262438 0.947777
O O17 0.500000 0.714280 0.268819
O O18 0.692411 0.500000 0.276340
#
# Coordination Sequence:
#
# PCOD8307197 Si02
#       6
#     8   8   8   8   8   8
#     4  10  21  36  53  73  98 128 162 201 245 293
#     4   9  17  30  50  76 104 132 163 201 244 288
#     4  10  21  37  56  74  91 119 162 206 246 291
#     4   8  13  24  45  70  96 129 167 204 239 276
#     4   7  11  22  42  69  98 127 162 202 239 276
#     4  10  20  32  48  74 105 132 158 193 241 294
#
# _framework density 18.186312000000001
#
# number of rings (size 3 to 8) (size 9 to 14) (size 15 to 20)
#    0.000    3.000    0.000    3.500    0.000    4.000 
#    0.000    0.833    0.000    4.000    0.000    2.333 
#    0.000    0.000    0.000    0.000    0.000    0.000 
#
# Total GULP energy -594679.434648 kJ/mol
# GULP energy per Si atom -12389.154889 kJ/mol
# Density = 1.814492 g / cm^3
# Si number density = 18.186312 Si / 1000 Ang^3
#
#
#
# Elastic Constant Matrix: (Units=GPa)
#
#
# Indices 1 2 3 4 5 6 
#
# 1 44.8398 22.8740 50.1366 0.0000 0.0000 0.0000
# 2 22.8740 44.8398 50.1366 0.0000 0.0000 0.0000
# 3 50.1366 50.1366 198.2856 0.0000 0.0000 0.0000
# 4 0.0000 0.0000 0.0000 27.9765 0.0000 0.0000
# 5 0.0000 0.0000 0.0000 0.0000 27.9765 0.0000
# 6 0.0000 0.0000 0.0000 0.0000 0.0000 22.1132
#
#
#
# Elastic Compliance Matrix: (Units=1/GPa)
#
#
# Indices 1 2 3 4 5 6 
#
# 1 0.034566 -0.010959 -0.005969 0.000000 0.000000 0.000000
# 2 -0.010959 0.034566 -0.005969 0.000000 0.000000 0.000000
# 3 -0.005969 -0.005969 0.008062 0.000000 0.000000 0.000000
# 4 0.000000 0.000000 0.000000 0.035744 0.000000 0.000000
# 5 0.000000 0.000000 0.000000 0.000000 0.035744 0.000000
# 6 0.000000 0.000000 0.000000 0.000000 0.000000 0.045222
#
#
# Mechanical properties :
#
#
# Convention : Reuss Voigt Hill
#
# Bulk Modulus (GPa) = 31.84711 59.36217 45.60464
# Shear Modulus (GPa) = 19.98669 26.60108 23.29389
#
# Velocity S-wave (km/s) = 3.31871 3.82867 3.58278
# Velocity P-wave (km/s) = 5.67756 7.22890 6.49968
#
# Compressibility (1/GPa) = 0.03140002
#
# Stress axis : x y z
#
# Youngs Moduli (GPa) = 28.92984 28.92984 124.04140
#
# Poissons Ratio (x) = 0.31704 0.74042
# Poissons Ratio (y) = 0.31704 0.74042
# Poissons Ratio (z) = 0.17269 0.17269
#
# Static dielectric constant tensor:
#      x y z
#    x 3.027300 0.000000 0.000000 
#    y 0.000000 3.027300 0.000000 
#    z 0.000000 0.000000 3.941600 
# 
# 
# High freq. dielectric constant tensor:
#      x y z
#    x 1.670690 0.000000 0.000000 
#    y 0.000000 1.670690 0.000000 
#    z 0.000000 0.000000 1.734820 
# 
# From -- ./inp_files/4661.got.cif
#   From: 2010.03.12/outbox.cif.g09.slc.cpg/sg105_3_cif.got.tgz:4661.got - 2010.04.14 01:45:32.
