data_PCOD8307879
_publ_section_title
;
Structure prediction by ZEFSAII (Michael W. Deem and Ramdas Pophale) SiO2 
 PCOD8307879
Probable space group: I 41 M D
;
_chemical_formula_sum "Si O2"
_cell_formula_units_Z 112
_cell_length_a 14.231245
_cell_length_b 14.231245
_cell_length_c 31.717688
_cell_angle_alpha 90.000000
_cell_angle_beta 90.000000
_cell_angle_gamma 90.000000
_cell_volume 6423.730517
_symmetry_space_group_name_H-M "I 41 M D"
_symmetry_group_IT_number 109
_symmetry_cell_setting 'tetragonal'
loop_
_space_group_symop_operation_xyz
x,y,z
-y,1/2+x,1/4+z
-x,-y,z
y,1/2-x,1/4+z
-x,y,z
x,-y,z
-y,1/2-x,1/4+z
y,1/2+x,1/4+z
1/2+x,1/2+y,1/2+z
1/2-y,x,3/4+z
1/2-x,1/2-y,1/2+z
1/2+y,-x,3/4+z
1/2-x,1/2+y,1/2+z
1/2+x,1/2-y,1/2+z
1/2-y,-x,3/4+z
1/2+y,x,3/4+z
loop_
_atom_site_type_symbol
_atom_site_label
_atom_site_fract_x
_atom_site_fract_y
_atom_site_fract_z
Si Si1 0.716975 0.891896 0.694310
Si Si2 0.891896 0.283025 0.128232
Si Si3 0.394558 0.212355 0.862407
Si Si4 0.606037 0.607001 0.295042
Si Si5 0.894558 0.787645 0.710135
Si Si6 0.893963 0.392999 0.277500
Si Si7 0.605109 0.894891 0.161271
O O1 0.639523 0.860477 0.661271
O O2 0.816217 0.842906 0.683695
O O3 0.680221 0.868379 0.741197
O O4 0.734229 0.000000 0.687959
O O5 0.842906 0.183783 0.138847
O O6 0.868379 0.319779 0.081345
O O7 0.000000 0.265771 0.134583
O O8 0.500000 0.181786 0.876389
O O9 0.379679 0.185163 0.813550
O O10 0.378922 0.323087 0.872165
O O11 0.500000 0.612984 0.313069
O O12 0.624315 0.500000 0.277882
O O13 0.620321 0.685163 0.258993
O O14 0.878922 0.676913 0.700377
O O15 0.000000 0.818214 0.696153
O O16 0.875685 0.500000 0.294661
O O17 0.000000 0.387016 0.259473
O O18 0.500000 0.881692 0.142623
O O19 0.618308 0.000000 0.179919
#
# Coordination Sequence:
#
# PCOD8307879 Si02
#       7
#    16  16  16  16  16  16  16
#     4  11  21  33  50  75 107 141 172 207 253 305
#     4  11  21  33  50  75 107 141 172 207 253 305
#     4  10  19  33  53  75  99 129 171 217 258 299
#     4   9  18  32  51  76 104 135 171 208 248 302
#     4  10  19  33  53  75  99 129 171 217 258 299
#     4   9  18  32  51  76 104 135 171 208 248 302
#     4   9  18  34  56  78  99 128 172 220 259 300
#
# _framework density 17.435351000000001
#
# number of rings (size 3 to 8) (size 9 to 14) (size 15 to 20)
#    0.000    2.143    1.429    2.571    0.000    5.429 
#    0.000    0.000    0.000    5.143    0.000    4.000 
#    0.000    0.000    0.000    0.000    0.000    0.000 
#
# Total GULP energy -694004.013644 kJ/mol
# GULP energy per Si atom -12392.928815 kJ/mol
# Density = 1.739567 g / cm^3
# Si number density = 17.435351 Si / 1000 Ang^3
#
#
#
# Elastic Constant Matrix: (Units=GPa)
#
#
# Indices 1 2 3 4 5 6 
#
# 1 3.2632 182.2265 48.2513 0.0000 0.0000 0.0000
# 2 182.2265 3.2632 48.2513 0.0000 0.0000 0.0000
# 3 48.2513 48.2513 70.2177 0.0000 0.0000 0.0000
# 4 0.0000 0.0000 0.0000 25.1282 0.0000 0.0000
# 5 0.0000 0.0000 0.0000 0.0000 25.1282 0.0000
# 6 0.0000 0.0000 0.0000 0.0000 0.0000 26.2102
#
#
#
# Elastic Compliance Matrix: (Units=1/GPa)
#
#
# Indices 1 2 3 4 5 6 
#
# 1 0.001402 0.006989 -0.005766 0.000000 0.000000 0.000000
# 2 0.006989 0.001402 -0.005766 0.000000 0.000000 0.000000
# 3 -0.005766 -0.005766 0.022166 0.000000 0.000000 0.000000
# 4 0.000000 0.000000 0.000000 0.039796 0.000000 0.000000
# 5 0.000000 0.000000 0.000000 0.000000 0.039796 0.000000
# 6 0.000000 0.000000 0.000000 0.000000 0.000000 0.038153
#
#
# Mechanical properties :
#
#
# Convention : Reuss Voigt Hill
#
# Bulk Modulus (GPa) = 62.95735 70.46691 66.71213
# Shear Modulus (GPa) = 31.82816 1.82767 16.82791
#
# Velocity S-wave (km/s) = 4.27722 1.02495 3.11007
# Velocity P-wave (km/s) = 7.78333 6.47337 7.15838
#
# Compressibility (1/GPa) = 0.01588377
#
# Stress axis : x y z
#
# Youngs Moduli (GPa) = 713.47410 713.47417 45.11462
#
# Poissons Ratio (x) = -4.98671 0.26013
# Poissons Ratio (y) = -4.98671 0.26013
# Poissons Ratio (z) = 4.11386 4.11386
#
# Static dielectric constant tensor:
#      x y z
#    x 3.481380 0.000000 0.000000 
#    y 0.000000 3.481380 0.000000 
#    z 0.000000 0.000000 2.972670 
# 
# 
# High freq. dielectric constant tensor:
#      x y z
#    x 1.685240 0.000000 0.000000 
#    y 0.000000 1.685240 0.000000 
#    z 0.000000 0.000000 1.638810 
# 
# From -- ./inp_files/5057.got.cif
#   From: 2010.03.12/outbox.cif.g09.slc.cpg/sg109_3_cif.got.tgz:5057.got - 2010.04.14 01:55:16.
