data_PCOD8307026
_publ_section_title
;
Structure prediction by ZEFSAII (Michael W. Deem and Ramdas Pophale) SiO2 
 PCOD8307026
Probable space group: P 4 C C
;
_chemical_formula_sum "Si O2"
_cell_formula_units_Z 28
_cell_length_a 7.926857
_cell_length_b 7.926857
_cell_length_c 19.309727
_cell_angle_alpha 90.000000
_cell_angle_beta 90.000000
_cell_angle_gamma 90.000000
_cell_volume 1213.327891
_symmetry_space_group_name_H-M "P 4 C C"
_symmetry_group_IT_number 103
_symmetry_cell_setting 'tetragonal'
loop_
_space_group_symop_operation_xyz
x,y,z
-y,x,z
-x,-y,z
y,-x,z
-x,y,1/2+z
x,-y,1/2+z
-y,-x,1/2+z
y,x,1/2+z
loop_
_atom_site_type_symbol
_atom_site_label
_atom_site_fract_x
_atom_site_fract_y
_atom_site_fract_z
Si Si1 0.089324 0.735364 0.125000
Si Si2 0.735364 0.910676 0.396277
Si Si3 0.500000 0.000000 0.510638
Si Si4 0.406323 0.763028 0.760638
O O1 0.121294 0.615146 0.058938
O O2 0.122141 0.630343 0.194259
O O3 0.894496 0.788779 0.122081
O O4 0.615146 0.878706 0.462339
O O5 0.630344 0.877859 0.327018
O O6 0.894496 0.788779 0.399196
O O7 0.287120 0.600665 0.760639
#
# Coordination Sequence:
#
# PCOD8307026 Si02
#       4
#     8   8   4   8
#     4  11  24  43  68  97 130 174 224 273 335 410
#     4  11  24  43  68  97 130 174 224 273 335 410
#     4  12  24  40  64  94 132 168 216 278 328 388
#     4  11  24  43  68  99 134 172 220 279 338 397
#
# _framework density 23.077029
#
# number of rings (size 3 to 8) (size 9 to 14) (size 15 to 20)
#    0.000    0.857    0.000    6.857    0.000    8.000 
#    0.000    0.000    0.000    3.429    0.000    0.000 
#    0.000    0.000    0.000    0.000    0.000    0.000 
#
# Total GULP energy -347330.170961 kJ/mol
# GULP energy per Si atom -12404.648963 kJ/mol
# Density = 2.302451 g / cm^3
# Si number density = 23.077029 Si / 1000 Ang^3
#
#
#
# Elastic Constant Matrix: (Units=GPa)
#
#
# Indices 1 2 3 4 5 6 
#
# 1 136.5309 52.4727 80.8974 0.0000 0.0000 0.0000
# 2 52.4727 136.5309 80.8974 0.0000 0.0000 0.0000
# 3 80.8974 80.8974 238.1819 0.0000 0.0000 0.0000
# 4 0.0000 0.0000 0.0000 47.1751 0.0000 0.0000
# 5 0.0000 0.0000 0.0000 0.0000 47.1751 0.0000
# 6 0.0000 0.0000 0.0000 0.0000 0.0000 36.6464
#
#
#
# Elastic Compliance Matrix: (Units=1/GPa)
#
#
# Indices 1 2 3 4 5 6 
#
# 1 0.009678 -0.002218 -0.002534 0.000000 0.000000 0.000000
# 2 -0.002218 0.009678 -0.002534 0.000000 0.000000 0.000000
# 3 -0.002534 -0.002534 0.005920 0.000000 0.000000 0.000000
# 4 0.000000 0.000000 0.000000 0.021198 0.000000 0.000000
# 5 0.000000 0.000000 0.000000 0.000000 0.021198 0.000000
# 6 0.000000 0.000000 0.000000 0.000000 0.000000 0.027288
#
#
# Mechanical properties :
#
#
# Convention : Reuss Voigt Hill
#
# Bulk Modulus (GPa) = 93.41878 104.41987 98.91932
# Shear Modulus (GPa) = 44.20918 45.99774 45.10346
#
# Velocity S-wave (km/s) = 4.38165 4.46940 4.42574
# Velocity P-wave (km/s) = 8.13435 8.48414 8.31108
#
# Compressibility (1/GPa) = 0.01070449
#
# Stress axis : x y z
#
# Youngs Moduli (GPa) = 103.32508 103.32508 168.93048
#
# Poissons Ratio (x) = 0.22921 0.42802
# Poissons Ratio (y) = 0.22921 0.42802
# Poissons Ratio (z) = 0.26180 0.26180
#
# Static dielectric constant tensor:
#      x y z
#    x 4.185840 0.000000 0.000000 
#    y 0.000000 4.185840 0.000000 
#    z 0.000000 0.000000 4.362160 
# 
# 
# High freq. dielectric constant tensor:
#      x y z
#    x 1.917290 0.000000 0.000000 
#    y 0.000000 1.917290 0.000000 
#    z 0.000000 0.000000 1.929430 
# 
# From -- ./inp_files/959.got.cif
#   From: 2010.03.12/outbox.cif.g09.slc.cpg/sg103_cif.got.tgz:959.got - 2010.04.14 01:42:52.
