data_PCOD8307386
_publ_section_title
;
Structure prediction by ZEFSAII (Michael W. Deem and Ramdas Pophale) SiO2 
 PCOD8307386
Probable space group: P 42 M C
;
_chemical_formula_sum "Si O2"
_cell_formula_units_Z 40
_cell_length_a 9.435498
_cell_length_b 9.435498
_cell_length_c 26.022009
_cell_angle_alpha 90.000000
_cell_angle_beta 90.000000
_cell_angle_gamma 90.000000
_cell_volume 2316.703616
_symmetry_space_group_name_H-M "P 42 M C"
_symmetry_group_IT_number 105
_symmetry_cell_setting 'tetragonal'
loop_
_space_group_symop_operation_xyz
x,y,z
-y,x,1/2+z
-x,-y,z
y,-x,1/2+z
-x,y,z
x,-y,z
-y,-x,1/2+z
y,x,1/2+z
loop_
_atom_site_type_symbol
_atom_site_label
_atom_site_fract_x
_atom_site_fract_y
_atom_site_fract_z
Si Si1 0.666094 0.835857 0.282720
Si Si2 0.168640 0.842323 0.491216
Si Si3 0.842323 0.168641 0.379172
Si Si4 0.339281 0.668617 0.685194
Si Si5 0.164143 0.666094 0.587668
O O1 0.500000 0.815097 0.290451
O O2 0.740090 0.776688 0.334150
O O3 0.724566 0.743405 0.235326
O O4 0.703736 0.000000 0.272020
O O5 0.217192 0.782808 0.435194
O O6 0.223312 0.740089 0.536238
O O7 0.000000 0.848068 0.490759
O O8 0.229995 0.000000 0.501041
O O9 0.000000 0.229995 0.369347
O O10 0.848068 0.000000 0.379629
O O11 0.500000 0.727190 0.685194
O O12 0.337936 0.500000 0.685194
O O13 0.256594 0.724566 0.635063
O O14 0.184904 0.500000 0.579937
O O15 0.000000 0.703736 0.598368
#
# Coordination Sequence:
#
# PCOD8307386 Si02
#       5
#     8   8   8   8   8
#     4   9  16  27  45  66  83 103 139 181 209 235
#     4   8  14  26  44  64  86 112 139 167 204 250
#     4   8  14  26  44  64  86 112 139 167 204 250
#     4   9  17  29  44  61  84 114 142 169 208 254
#     4   9  16  27  45  66  83 103 139 181 209 235
#
# _framework density 17.265912
#
# number of rings (size 3 to 8) (size 9 to 14) (size 15 to 20)
#    0.000    3.400    0.000    1.800    0.000    2.400 
#    0.000    3.000    0.000    9.600    0.000    0.000 
#    0.000    0.000    0.000    0.000    0.000    0.000 
#
# Total GULP energy -495771.607213 kJ/mol
# GULP energy per Si atom -12394.290180 kJ/mol
# Density = 1.722661 g / cm^3
# Si number density = 17.265912 Si / 1000 Ang^3
#
#
#
# Elastic Constant Matrix: (Units=GPa)
#
#
# Indices 1 2 3 4 5 6 
#
# 1 51.9258 25.3065 60.9759 0.0000 0.0000 0.0000
# 2 25.3065 51.9258 60.9759 0.0000 0.0000 0.0000
# 3 60.9759 60.9759 204.0149 0.0000 0.0000 0.0000
# 4 0.0000 0.0000 0.0000 19.0670 0.0000 0.0000
# 5 0.0000 0.0000 0.0000 0.0000 19.0670 0.0000
# 6 0.0000 0.0000 0.0000 0.0000 0.0000 9.7762
#
#
#
# Elastic Compliance Matrix: (Units=1/GPa)
#
#
# Indices 1 2 3 4 5 6 
#
# 1 0.031043 -0.006523 -0.007328 0.000000 0.000000 0.000000
# 2 -0.006523 0.031043 -0.007328 0.000000 0.000000 0.000000
# 3 -0.007328 -0.007328 0.009282 0.000000 0.000000 0.000000
# 4 0.000000 0.000000 0.000000 0.052447 0.000000 0.000000
# 5 0.000000 0.000000 0.000000 0.000000 0.052447 0.000000
# 6 0.000000 0.000000 0.000000 0.000000 0.000000 0.102289
#
#
# Mechanical properties :
#
#
# Convention : Reuss Voigt Hill
#
# Bulk Modulus (GPa) = 34.47329 66.93146 50.70238
# Shear Modulus (GPa) = 15.12489 20.28927 17.70708
#
# Velocity S-wave (km/s) = 2.96294 3.43170 3.20590
# Velocity P-wave (km/s) = 5.63159 7.38589 6.56758
#
# Compressibility (1/GPa) = 0.02900796
#
# Stress axis : x y z
#
# Youngs Moduli (GPa) = 32.21312 32.21312 107.73241
#
# Poissons Ratio (x) = 0.21014 0.78951
# Poissons Ratio (y) = 0.21014 0.78951
# Poissons Ratio (z) = 0.23607 0.23607
#
# Static dielectric constant tensor:
#      x y z
#    x 2.998810 0.000000 0.000000 
#    y 0.000000 2.998810 0.000000 
#    z 0.000000 0.000000 3.672360 
# 
# 
# High freq. dielectric constant tensor:
#      x y z
#    x 1.629770 0.000000 0.000000 
#    y 0.000000 1.629770 0.000000 
#    z 0.000000 0.000000 1.685520 
# 
# From -- ./inp_files/4226.got.cif
#   From: 2010.03.12/outbox.cif.g09.slc.cpg/sg105_3_cif.got.tgz:4226.got - 2010.04.14 01:45:32.
