data_PCOD8307288
_publ_section_title
;
Structure prediction by ZEFSAII (Michael W. Deem and Ramdas Pophale) SiO2 
 PCOD8307288
Probable space group: P 42 M C
;
_chemical_formula_sum "Si O2"
_cell_formula_units_Z 40
_cell_length_a 8.112530
_cell_length_b 8.112530
_cell_length_c 28.636966
_cell_angle_alpha 90.000000
_cell_angle_beta 90.000000
_cell_angle_gamma 90.000000
_cell_volume 1884.688738
_symmetry_space_group_name_H-M "P 42 M C"
_symmetry_group_IT_number 105
_symmetry_cell_setting 'tetragonal'
loop_
_space_group_symop_operation_xyz
x,y,z
-y,x,1/2+z
-x,-y,z
y,-x,1/2+z
-x,y,z
x,-y,z
-y,-x,1/2+z
y,x,1/2+z
loop_
_atom_site_type_symbol
_atom_site_label
_atom_site_fract_x
_atom_site_fract_y
_atom_site_fract_z
Si Si1 0.815072 0.811542 0.905210
Si Si2 0.319476 0.309553 0.997363
Si Si3 0.000000 0.697893 0.050817
Si Si4 0.689868 0.000000 0.654621
Si Si5 0.685655 0.811019 0.210691
Si Si6 0.311907 0.687671 0.810871
O O1 0.706402 0.710119 0.941862
O O2 0.741552 0.801805 0.853411
O O3 0.000000 0.739692 0.905202
O O4 0.812987 0.000000 0.921149
O O5 0.500000 0.231912 0.010706
O O6 0.326716 0.500000 0.009943
O O7 0.165205 0.230232 0.025540
O O8 0.000000 0.500000 0.047834
O O9 0.000000 0.771628 0.103238
O O10 0.729347 0.830778 0.681156
O O11 0.500000 0.000000 0.644883
O O12 0.500000 0.735650 0.201181
O O13 0.730433 0.794059 0.265176
O O14 0.683146 0.000000 0.196632
O O15 0.500000 0.723093 0.797398
O O16 0.283412 0.500000 0.826599
#
# Coordination Sequence:
#
# PCOD8307288 Si02
#       6
#     8   8   4   4   8   8
#     4  11  23  36  53  82 120 161 199 239 294 361
#     4  10  20  37  62  87 114 153 199 248 302 363
#     4   9  20  39  61  89 119 153 199 251 307 366
#     4  11  23  39  65  95 123 159 203 261 323 370
#     4  10  22  41  63  88 122 164 208 254 309 377
#     4  10  21  37  58  85 116 154 200 247 298 358
#
# _framework density 21.223666000000001
#
# number of rings (size 3 to 8) (size 9 to 14) (size 15 to 20)
#    0.000    1.800    1.000    2.700    1.400    7.200 
#    0.000    4.000    0.000    0.000    0.000    0.000 
#    0.000    0.000    0.000    0.000    0.000    0.000 
#
# Total GULP energy -495862.956472 kJ/mol
# GULP energy per Si atom -12396.573912 kJ/mol
# Density = 2.117536 g / cm^3
# Si number density = 21.223666 Si / 1000 Ang^3
#
#
#
# Elastic Constant Matrix: (Units=GPa)
#
#
# Indices 1 2 3 4 5 6 
#
# 1 92.9839 25.5821 39.9111 0.0000 0.0000 0.0000
# 2 25.5821 92.9839 39.9111 0.0000 0.0000 0.0000
# 3 39.9111 39.9111 130.0834 0.0000 0.0000 0.0000
# 4 0.0000 0.0000 0.0000 8.5025 0.0000 0.0000
# 5 0.0000 0.0000 0.0000 0.0000 8.5025 0.0000
# 6 0.0000 0.0000 0.0000 0.0000 0.0000 19.5990
#
#
#
# Elastic Compliance Matrix: (Units=1/GPa)
#
#
# Indices 1 2 3 4 5 6 
#
# 1 0.012733 -0.002103 -0.003261 0.000000 0.000000 0.000000
# 2 -0.002103 0.012733 -0.003261 0.000000 0.000000 0.000000
# 3 -0.003261 -0.003261 0.009689 0.000000 0.000000 0.000000
# 4 0.000000 0.000000 0.000000 0.117613 0.000000 0.000000
# 5 0.000000 0.000000 0.000000 0.000000 0.117613 0.000000
# 6 0.000000 0.000000 0.000000 0.000000 0.000000 0.051023
#
#
# Mechanical properties :
#
#
# Convention : Reuss Voigt Hill
#
# Bulk Modulus (GPa) = 55.85726 58.53999 57.19862
# Shear Modulus (GPa) = 14.50861 21.36391 17.93626
#
# Velocity S-wave (km/s) = 2.61742 3.17615 2.91023
# Velocity P-wave (km/s) = 5.95903 6.41037 6.18882
#
# Compressibility (1/GPa) = 0.01790278
#
# Stress axis : x y z
#
# Youngs Moduli (GPa) = 78.53560 78.53560 103.21394
#
# Poissons Ratio (x) = 0.16519 0.33662
# Poissons Ratio (y) = 0.16519 0.33662
# Poissons Ratio (z) = 0.25613 0.25613
#
# Static dielectric constant tensor:
#      x y z
#    x 3.942760 0.000000 0.000000 
#    y 0.000000 3.942760 0.000000 
#    z 0.000000 0.000000 3.716510 
# 
# 
# High freq. dielectric constant tensor:
#      x y z
#    x 1.829390 0.000000 0.000000 
#    y 0.000000 1.829390 0.000000 
#    z 0.000000 0.000000 1.824080 
# 
# From -- ./inp_files/4255.got.cif
#   From: 2010.03.12/outbox.cif.g09.slc.cpg/sg105_3_cif.got.tgz:4255.got - 2010.04.14 01:45:32.
