data_PCOD8307768
_publ_section_title
;
Structure prediction by ZEFSAII (Michael W. Deem and Ramdas Pophale) SiO2 
 PCOD8307768
Probable space group: I 4 C M
;
_chemical_formula_sum "Si O2"
_cell_formula_units_Z 96
_cell_length_a 14.391591
_cell_length_b 14.391591
_cell_length_c 23.249139
_cell_angle_alpha 90.000000
_cell_angle_beta 90.000000
_cell_angle_gamma 90.000000
_cell_volume 4815.312649
_symmetry_space_group_name_H-M "I 4 C M"
_symmetry_group_IT_number 108
_symmetry_cell_setting 'tetragonal'
loop_
_space_group_symop_operation_xyz
x,y,z
-y,x,z
-x,-y,z
y,-x,z
-x,y,1/2+z
x,-y,1/2+z
-y,-x,1/2+z
y,x,1/2+z
1/2+x,1/2+y,1/2+z
1/2-y,1/2+x,1/2+z
1/2-x,1/2-y,1/2+z
1/2+y,1/2-x,1/2+z
1/2-x,1/2+y,z
1/2+x,1/2-y,z
1/2-y,1/2-x,z
1/2+y,1/2+x,z
loop_
_atom_site_type_symbol
_atom_site_label
_atom_site_fract_x
_atom_site_fract_y
_atom_site_fract_z
Si Si1 0.101681 0.888425 0.487140
Si Si2 0.099884 0.243579 0.769483
Si Si3 0.757124 0.102023 0.215280
Si Si4 0.594362 0.753065 0.398609
Si Si5 0.757842 0.104419 0.083206
Si Si6 0.005211 0.649825 0.994440
O O1 0.144913 0.828929 0.434794
O O2 0.132932 0.852219 0.549827
O O3 0.992603 0.870180 0.480058
O O4 0.163727 0.336274 0.763089
O O5 0.155669 0.154912 0.744222
O O6 0.069499 0.218937 0.834761
O O7 0.001149 0.260205 0.739077
O O8 0.663165 0.163165 0.222843
O O9 0.781634 0.083925 0.148798
O O10 0.666278 0.833723 0.389658
O O11 0.506272 0.791675 0.435281
O O12 0.691411 0.191411 0.077619
O O13 0.712510 0.015252 0.050828
O O14 0.110295 0.610295 0.998080
O O15 0.934190 0.565811 0.993589
#
# Coordination Sequence:
#
# PCOD8307768 Si02
#       6
#    16  16  16  16  16  16
#     4  10  21  34  54  83 112 145 188 235 284 350
#     4  10  23  41  62  90 123 163 213 260 308 374
#     4  10  23  41  62  90 123 163 213 260 308 374
#     4   9  19  37  57  80 115 150 187 241 296 353
#     4   9  19  37  57  80 115 150 187 241 296 353
#     4   8  14  28  52  81 111 144 183 230 290 355
#
# _framework density 19.936401
#
# number of rings (size 3 to 8) (size 9 to 14) (size 15 to 20)
#    0.000    2.667    0.000    1.500    4.667    2.000 
#    0.000   10.000    0.000    0.000    0.000    0.000 
#    0.000    0.000    0.000    0.000    0.000    0.000 
#
# Total GULP energy -594678.651012 kJ/mol
# GULP energy per Si atom -12389.138563 kJ/mol
# Density = 1.989103 g / cm^3
# Si number density = 19.936401 Si / 1000 Ang^3
#
#
#
# Elastic Constant Matrix: (Units=GPa)
#
#
# Indices 1 2 3 4 5 6 
#
# 1 50.7051 39.2335 31.2479 0.0000 0.0000 0.0072
# 2 39.2335 50.7051 31.2479 0.0000 0.0000 -0.0072
# 3 31.2479 31.2479 153.6561 0.0000 0.0000 0.0000
# 4 0.0000 0.0000 0.0000 15.4962 0.0000 0.0000
# 5 0.0000 0.0000 0.0000 0.0000 15.4962 0.0000
# 6 0.0072 -0.0072 0.0000 0.0000 0.0000 -112.3159
#
#
#
# Elastic Compliance Matrix: (Units=1/GPa)
#
#
# Indices 1 2 3 4 5 6 
#
# 1 0.050060 -0.037111 -0.002633 0.000000 0.000000 0.000006
# 2 -0.037111 0.050060 -0.002633 0.000000 0.000000 -0.000006
# 3 -0.002633 -0.002633 0.007579 0.000000 0.000000 0.000000
# 4 0.000000 0.000000 0.000000 0.064532 0.000000 0.000000
# 5 0.000000 0.000000 0.000000 0.000000 0.064532 0.000000
# 6 0.000006 -0.000006 0.000000 0.000000 0.000000 -0.008903
#
#
# Mechanical properties :
#
#
# Convention : Reuss Voigt Hill
#
# Bulk Modulus (GPa) = 43.58623 50.94720 47.26672
# Shear Modulus (GPa) = 15.61219 -6.04223 4.78498
#
# Velocity S-wave (km/s) = 2.80143 -1.74279 1.55091
# Velocity P-wave (km/s) = 5.68982 4.64334 5.19301
#
# Compressibility (1/GPa) = 0.02294303
#
# Stress axis : x y z
#
# Youngs Moduli (GPa) = 19.97609 19.97609 131.94277
#
# Poissons Ratio (x) = 0.74134 0.34744
# Poissons Ratio (y) = 0.74134 0.34744
# Poissons Ratio (z) = 0.05260 0.05260
#
# Static dielectric constant tensor:
#      x y z
#    x 3.665900 0.000000 0.000000 
#    y 0.000000 3.665900 0.000000 
#    z 0.000000 0.000000 4.241910 
# 
# 
# High freq. dielectric constant tensor:
#      x y z
#    x 1.773170 0.000000 0.000000 
#    y 0.000000 1.773170 0.000000 
#    z 0.000000 0.000000 1.783490 
# 
# From -- ./inp_files/2924.got.cif
#   From: 2010.03.12/outbox.cif.g09.slc.cpg/sg108_2_cif.got.tgz:2924.got - 2010.04.14 01:53:11.
