data_PCOD8307046
_publ_section_title
;
Structure prediction by ZEFSAII (Michael W. Deem and Ramdas Pophale) SiO2 
 PCOD8307046
Probable space group: P 4 N C 
;
_chemical_formula_sum "Si O2"
_cell_formula_units_Z 44
_cell_length_a 11.422370
_cell_length_b 11.422370
_cell_length_c 17.549384
_cell_angle_alpha 90.000000
_cell_angle_beta 90.000000
_cell_angle_gamma 90.000000
_cell_volume 2289.677544
_symmetry_space_group_name_H-M "P 4 N C "
_symmetry_group_IT_number 104
_symmetry_cell_setting 'tetragonal'
loop_
_space_group_symop_operation_xyz
x,y,z
-y,x,z
-x,-y,z
y,-x,z
1/2-x,1/2+y,1/2+z
1/2+x,1/2-y,1/2+z
1/2-y,1/2-x,1/2+z
1/2+y,1/2+x,1/2+z
loop_
_atom_site_type_symbol
_atom_site_label
_atom_site_fract_x
_atom_site_fract_y
_atom_site_fract_z
Si Si1 0.587764 0.332919 0.442110
Si Si2 0.199714 0.403483 0.900567
Si Si3 0.189274 0.961700 0.244070
Si Si4 0.000000 0.500000 0.994070
Si Si5 0.587764 0.332919 0.046029
Si Si6 0.403483 0.800286 0.587572
O O1 0.655812 0.451024 0.420528
O O2 0.638321 0.223718 0.394568
O O3 0.605006 0.313560 0.533256
O O4 0.229843 0.448362 0.817437
O O5 0.313560 0.394994 0.954884
O O6 0.114174 0.498668 0.940180
O O7 0.270157 0.948362 0.170702
O O8 0.090643 0.863314 0.244070
O O9 0.998668 0.614174 0.047960
O O10 0.655812 0.451024 0.067611
O O11 0.638321 0.223718 0.093571
#
# Coordination Sequence:
#
# PCOD8307046 Si02
#       6
#     8   8   8   4   8   8
#     4   9  18  34  56  80 107 144 189 232 276 329
#     4  10  21  35  57  83 112 146 184 233 278 329
#     4  11  24  39  56  83 116 149 182 225 288 346
#     4   8  20  38  56  84 108 140 192 230 268 314
#     4   9  18  34  56  80 107 144 189 232 276 329
#     4  10  21  35  57  83 112 146 184 233 278 329
#
# _framework density 19.216681000000001
#
# number of rings (size 3 to 8) (size 9 to 14) (size 15 to 20)
#    0.000    2.727    0.000    2.182    0.000   21.091 
#    0.000    1.818    0.000    2.182    0.000    0.000 
#    0.000    0.000    0.000    0.000    0.000    0.000 
#
# Total GULP energy -545530.055123 kJ/mol
# GULP energy per Si atom -12398.410344 kJ/mol
# Density = 1.917294 g / cm^3
# Si number density = 19.216681 Si / 1000 Ang^3
#
#
#
# Elastic Constant Matrix: (Units=GPa)
#
#
# Indices 1 2 3 4 5 6 
#
# 1 104.0667 65.1656 40.0773 0.0000 0.0000 0.0000
# 2 65.1656 104.0667 40.0773 0.0000 0.0000 0.0000
# 3 40.0773 40.0773 136.2125 0.0000 0.0000 0.0000
# 4 0.0000 0.0000 0.0000 22.8097 0.0000 0.0000
# 5 0.0000 0.0000 0.0000 0.0000 22.8097 0.0000
# 6 0.0000 0.0000 0.0000 0.0000 0.0000 27.8878
#
#
#
# Elastic Compliance Matrix: (Units=1/GPa)
#
#
# Indices 1 2 3 4 5 6 
#
# 1 0.016286 -0.009420 -0.002020 0.000000 0.000000 0.000000
# 2 -0.009420 0.016286 -0.002020 0.000000 0.000000 0.000000
# 3 -0.002020 -0.002020 0.008530 0.000000 0.000000 0.000000
# 4 0.000000 0.000000 0.000000 0.043841 0.000000 0.000000
# 5 0.000000 0.000000 0.000000 0.000000 0.043841 0.000000
# 6 0.000000 0.000000 0.000000 0.000000 0.000000 0.035858
#
#
# Mechanical properties :
#
#
# Convention : Reuss Voigt Hill
#
# Bulk Modulus (GPa) = 70.51467 70.55401 70.53434
# Shear Modulus (GPa) = 25.47248 27.96981 26.72114
#
# Velocity S-wave (km/s) = 3.64475 3.81924 3.73301
# Velocity P-wave (km/s) = 7.38149 7.49956 7.44076
#
# Compressibility (1/GPa) = 0.01418145
#
# Stress axis : x y z
#
# Youngs Moduli (GPa) = 61.40231 61.40231 117.23040
#
# Poissons Ratio (x) = 0.57842 0.23682
# Poissons Ratio (y) = 0.57842 0.23682
# Poissons Ratio (z) = 0.12404 0.12404
#
# Static dielectric constant tensor:
#      x y z
#    x 3.551570 0.000000 0.000000 
#    y 0.000000 3.551570 0.000000 
#    z 0.000000 0.000000 3.182320 
# 
# 
# High freq. dielectric constant tensor:
#      x y z
#    x 1.755600 0.000000 0.000000 
#    y 0.000000 1.755600 0.000000 
#    z 0.000000 0.000000 1.715880 
# 
# From -- ./inp_files/1367.got.cif
#   From: 2010.03.12/outbox.cif.g09.slc.cpg/sg104_cif.got.tgz:1367.got - 2010.04.14 01:44:05.
