data_PCOD8307168
_publ_section_title
;
Structure prediction by ZEFSAII (Michael W. Deem and Ramdas Pophale) SiO2 
 PCOD8307168
Probable space group: P 42 M C
;
_chemical_formula_sum "Si O2"
_cell_formula_units_Z 48
_cell_length_a 9.756361
_cell_length_b 9.756361
_cell_length_c 27.582927
_cell_angle_alpha 90.000000
_cell_angle_beta 90.000000
_cell_angle_gamma 90.000000
_cell_volume 2625.524486
_symmetry_space_group_name_H-M "P 42 M C"
_symmetry_group_IT_number 105
_symmetry_cell_setting 'tetragonal'
loop_
_space_group_symop_operation_xyz
x,y,z
-y,x,1/2+z
-x,-y,z
y,-x,1/2+z
-x,y,z
x,-y,z
-y,-x,1/2+z
y,x,1/2+z
loop_
_atom_site_type_symbol
_atom_site_label
_atom_site_fract_x
_atom_site_fract_y
_atom_site_fract_z
Si Si1 0.846788 0.000000 0.675660
Si Si2 0.000000 0.654647 0.267401
Si Si3 0.500000 0.333790 0.186131
Si Si4 0.158740 0.286252 0.629060
Si Si5 0.340077 0.773958 0.845739
Si Si6 0.338854 0.500000 0.796461
Si Si7 0.162294 0.652462 0.519736
Si Si8 0.159924 0.846321 0.436728
O O1 0.748794 0.000000 0.721079
O O2 0.821796 0.871763 0.641097
O O3 0.000000 0.000000 0.696992
O O4 0.131644 0.684502 0.299570
O O5 0.000000 0.500000 0.247955
O O6 0.500000 0.500000 0.180226
O O7 0.632778 0.265842 0.162206
O O8 0.500000 0.282931 0.241794
O O9 0.204759 0.306471 0.573810
O O10 0.000000 0.334506 0.636951
O O11 0.500000 0.779214 0.862392
O O12 0.288751 0.627463 0.827838
O O13 0.241746 0.817639 0.888749
O O14 0.500000 0.500000 0.791530
O O15 0.219899 0.500000 0.508164
O O16 0.225903 0.762517 0.481922
O O17 0.000000 0.651474 0.514203
O O18 0.000000 0.863062 0.445680
O O19 0.224955 0.000000 0.432933
#
# Coordination Sequence:
#
# PCOD8307168 Si02
#       8
#     4   4   4   8   8   4   8   8
#     4  10  22  34  52  82 116 152 182 226 291 348
#     4  10  20  34  56  80 110 152 188 232 275 336
#     4  11  21  37  61  85 113 147 195 241 272 329
#     4  10  20  36  56  82 115 147 187 235 287 339
#     4  10  19  35  56  78 107 141 187 230 274 326
#     4   9  20  35  55  81 109 145 187 227 272 319
#     4   9  17  31  54  78 103 141 185 229 275 328
#     4  10  20  32  52  83 112 139 178 233 286 330
#
# _framework density 18.282060999999999
#
# number of rings (size 3 to 8) (size 9 to 14) (size 15 to 20)
#    0.000    2.167    1.667    1.750    1.167    3.333 
#    0.000    2.083    1.833    0.000    0.000    0.000 
#    0.000    0.000    0.000    0.000    0.000    0.000 
#
# Total GULP energy -595018.425476 kJ/mol
# GULP energy per Si atom -12396.217197 kJ/mol
# Density = 1.824045 g / cm^3
# Si number density = 18.282061 Si / 1000 Ang^3
#
#
#
# Elastic Constant Matrix: (Units=GPa)
#
#
# Indices 1 2 3 4 5 6 
#
# 1 93.5149 32.2080 35.4936 0.0000 0.0000 0.0000
# 2 32.2080 93.5149 35.4936 0.0000 0.0000 0.0000
# 3 35.4936 35.4936 90.6097 0.0000 0.0000 0.0000
# 4 0.0000 0.0000 0.0000 29.0394 0.0000 0.0000
# 5 0.0000 0.0000 0.0000 0.0000 29.0394 0.0000
# 6 0.0000 0.0000 0.0000 0.0000 0.0000 19.6084
#
#
#
# Elastic Compliance Matrix: (Units=1/GPa)
#
#
# Indices 1 2 3 4 5 6 
#
# 1 0.013262 -0.003049 -0.004001 0.000000 0.000000 0.000000
# 2 -0.003049 0.013262 -0.004001 0.000000 0.000000 0.000000
# 3 -0.004001 -0.004001 0.014171 0.000000 0.000000 0.000000
# 4 0.000000 0.000000 0.000000 0.034436 0.000000 0.000000
# 5 0.000000 0.000000 0.000000 0.000000 0.034436 0.000000
# 6 0.000000 0.000000 0.000000 0.000000 0.000000 0.050999
#
#
# Mechanical properties :
#
#
# Convention : Reuss Voigt Hill
#
# Bulk Modulus (GPa) = 53.78090 53.78109 53.78099
# Shear Modulus (GPa) = 26.47408 27.16709 26.82058
#
# Velocity S-wave (km/s) = 3.80951 3.85905 3.83436
# Velocity P-wave (km/s) = 6.98792 7.02407 7.00602
#
# Compressibility (1/GPa) = 0.01859396
#
# Stress axis : x y z
#
# Youngs Moduli (GPa) = 75.40281 75.40281 70.56897
#
# Poissons Ratio (x) = 0.22992 0.28232
# Poissons Ratio (y) = 0.22992 0.28232
# Poissons Ratio (z) = 0.30165 0.30165
#
# Static dielectric constant tensor:
#      x y z
#    x 3.439150 0.000000 0.000000 
#    y 0.000000 3.439150 0.000000 
#    z 0.000000 0.000000 3.423200 
# 
# 
# High freq. dielectric constant tensor:
#      x y z
#    x 1.697030 0.000000 0.000000 
#    y 0.000000 1.697030 0.000000 
#    z 0.000000 0.000000 1.717540 
# 
# From -- ./inp_files/4948.got.cif
#   From: 2010.03.12/outbox.cif.g09.slc.cpg/sg105_3_cif.got.tgz:4948.got - 2010.04.14 01:45:32.
