data_PCOD8307755
_publ_section_title
;
Structure prediction by ZEFSAII (Michael W. Deem and Ramdas Pophale) SiO2 
 PCOD8307755
Probable space group: I 4 C M
;
_chemical_formula_sum "Si O2"
_cell_formula_units_Z 112
_cell_length_a 34.399702
_cell_length_b 34.399702
_cell_length_c 4.927946
_cell_angle_alpha 90.000000
_cell_angle_beta 90.000000
_cell_angle_gamma 90.000000
_cell_volume 5831.433144
_symmetry_space_group_name_H-M "I 4 C M"
_symmetry_group_IT_number 108
_symmetry_cell_setting 'tetragonal'
loop_
_space_group_symop_operation_xyz
x,y,z
-y,x,z
-x,-y,z
y,-x,z
-x,y,1/2+z
x,-y,1/2+z
-y,-x,1/2+z
y,x,1/2+z
1/2+x,1/2+y,1/2+z
1/2-y,1/2+x,1/2+z
1/2-x,1/2-y,1/2+z
1/2+y,1/2-x,1/2+z
1/2-x,1/2+y,z
1/2+x,1/2-y,z
1/2-y,1/2-x,z
1/2+y,1/2+x,z
loop_
_atom_site_type_symbol
_atom_site_label
_atom_site_fract_x
_atom_site_fract_y
_atom_site_fract_z
Si Si1 0.254009 0.427662 0.920790
Si Si2 0.179780 0.525387 0.560270
Si Si3 0.225003 0.117714 0.940594
Si Si4 0.474540 0.673702 0.775451
Si Si5 0.408331 0.027261 0.520678
Si Si6 0.397006 0.360355 0.071820
Si Si7 0.236767 0.798912 0.246981
O O1 0.247744 0.394526 0.692938
O O2 0.281570 0.459605 0.771807
O O3 0.211258 0.442118 0.993434
O O4 0.275637 0.413445 0.194483
O O5 0.185866 0.487778 0.369731
O O6 0.136382 0.542126 0.516967
O O7 0.242874 0.156530 0.817745
O O8 0.181937 0.123422 0.067453
O O9 0.511504 0.666339 0.582007
O O10 0.441246 0.644127 0.673801
O O11 0.434478 0.065523 0.516600
O O12 0.418079 0.999431 0.273658
O O13 0.376318 0.391618 0.267726
O O14 0.204841 0.778663 0.441068
O O15 0.278290 0.778290 0.285939
#
# Coordination Sequence:
#
# PCOD8307755 Si02
#       7
#    16  16  16  16  16  16  16
#     4  11  21  34  54  79 107 142 179 219 267 318
#     4  10  20  36  55  75 103 140 179 214 256 321
#     4  11  21  34  52  79 108 139 182 227 271 319
#     4  11  21  35  54  81 113 144 180 221 262 312
#     4  10  21  36  56  81 107 136 174 222 277 338
#     4  11  21  35  54  79 112 147 179 217 270 327
#     4  10  20  35  54  73  98 137 183 228 271 313
#
# _framework density 19.206257000000001
#
# number of rings (size 3 to 8) (size 9 to 14) (size 15 to 20)
#    0.000    1.429    0.000    8.143    0.000    0.857 
#    0.000    1.429    0.000    0.000    0.000    0.000 
#    0.000   20.000    0.000    0.000    0.000    0.000 
#
# Total GULP energy -694352.672094 kJ/mol
# GULP energy per Si atom -12399.154859 kJ/mol
# Density = 1.916254 g / cm^3
# Si number density = 19.206257 Si / 1000 Ang^3
#
#
#
# Elastic Constant Matrix: (Units=GPa)
#
#
# Indices 1 2 3 4 5 6 
#
# 1 80.6706 42.0295 18.1849 0.0000 0.0000 0.0000
# 2 42.0295 80.6706 18.1849 0.0000 0.0000 0.0000
# 3 18.1849 18.1849 96.5473 0.0000 0.0000 0.0000
# 4 0.0000 0.0000 0.0000 28.3855 0.0000 0.0000
# 5 0.0000 0.0000 0.0000 0.0000 28.3855 0.0000
# 6 0.0000 0.0000 0.0000 0.0000 0.0000 24.5495
#
#
#
# Elastic Compliance Matrix: (Units=1/GPa)
#
#
# Indices 1 2 3 4 5 6 
#
# 1 0.017256 -0.008624 -0.001626 0.000000 0.000000 0.000000
# 2 -0.008624 0.017256 -0.001626 0.000000 0.000000 0.000000
# 3 -0.001626 -0.001626 0.010970 0.000000 0.000000 0.000000
# 4 0.000000 0.000000 0.000000 0.035229 0.000000 0.000000
# 5 0.000000 0.000000 0.000000 0.000000 0.035229 0.000000
# 6 0.000000 0.000000 0.000000 0.000000 0.000000 0.040734
#
#
# Mechanical properties :
#
#
# Convention : Reuss Voigt Hill
#
# Bulk Modulus (GPa) = 46.01830 46.07635 46.04732
# Shear Modulus (GPa) = 26.64279 28.23001 27.43640
#
# Velocity S-wave (km/s) = 3.72854 3.83800 3.78367
# Velocity P-wave (km/s) = 6.52289 6.60929 6.56623
#
# Compressibility (1/GPa) = 0.02173049
#
# Stress axis : x y z
#
# Youngs Moduli (GPa) = 57.95241 57.95241 91.15705
#
# Poissons Ratio (x) = 0.49976 0.14821
# Poissons Ratio (y) = 0.49976 0.14821
# Poissons Ratio (z) = 0.09422 0.09422
#
# Static dielectric constant tensor:
#      x y z
#    x 3.369000 0.000000 0.000000 
#    y 0.000000 3.369000 0.000000 
#    z 0.000000 0.000000 3.826790 
# 
# 
# High freq. dielectric constant tensor:
#      x y z
#    x 1.727110 0.000000 0.000000 
#    y 0.000000 1.727110 0.000000 
#    z 0.000000 0.000000 1.777630 
# 
# From -- ./inp_files/212.got.cif
#   From: 2010.03.12/outbox.cif.g09.slc.cpg/sg108_1_cif.got.tgz:212.got - 2010.04.14 01:53:11.
