data_PCOD8307222
_publ_section_title
;
Structure prediction by ZEFSAII (Michael W. Deem and Ramdas Pophale) SiO2 
 PCOD8307222
Probable space group: P 42 M C
;
_chemical_formula_sum "Si O2"
_cell_formula_units_Z 48
_cell_length_a 8.140847
_cell_length_b 8.140847
_cell_length_c 34.433813
_cell_angle_alpha 90.000000
_cell_angle_beta 90.000000
_cell_angle_gamma 90.000000
_cell_volume 2282.045514
_symmetry_space_group_name_H-M "P 42 M C"
_symmetry_group_IT_number 105
_symmetry_cell_setting 'tetragonal'
loop_
_space_group_symop_operation_xyz
x,y,z
-y,x,1/2+z
-x,-y,z
y,-x,1/2+z
-x,y,z
x,-y,z
-y,-x,1/2+z
y,x,1/2+z
loop_
_atom_site_type_symbol
_atom_site_label
_atom_site_fract_x
_atom_site_fract_y
_atom_site_fract_z
Si Si1 0.692997 0.000000 0.049410
Si Si2 0.000000 0.696196 0.637525
Si Si3 0.190580 0.180759 0.922659
Si Si4 0.307123 0.817567 0.764565
Si Si5 0.682590 0.805571 0.502369
Si Si6 0.682831 0.309494 0.844206
Si Si7 0.684864 0.688760 0.683212
O O1 0.752584 0.830884 0.030164
O O2 0.500000 0.000000 0.048242
O O3 0.758161 0.000000 0.093408
O O4 0.831394 0.767231 0.657136
O O5 0.000000 0.500000 0.641565
O O6 0.212845 0.274034 0.882344
O O7 0.000000 0.160229 0.930650
O O8 0.273165 0.000000 0.920961
O O9 0.265129 0.281893 0.959006
O O10 0.500000 0.804607 0.771315
O O11 0.227846 0.764599 0.805796
O O12 0.257978 0.704939 0.728089
O O13 0.248453 0.000000 0.754135
O O14 0.500000 0.739727 0.515287
O O15 0.677128 0.000000 0.502089
O O16 0.500000 0.236172 0.850552
O O17 0.673119 0.500000 0.836585
O O18 0.500000 0.769094 0.676740
O O19 0.669026 0.500000 0.672258
#
# Coordination Sequence:
#
# PCOD8307222 Si02
#       7
#     4   4   8   8   8   8   8
#     4  11  23  39  61  91 125 153 189 251 307 359
#     4   9  20  37  57  85 115 145 185 231 291 355
#     4  10  20  36  57  79 108 147 192 240 289 343
#     4   9  17  31  51  75 106 143 182 226 279 335
#     4  10  21  40  64  85 113 158 203 241 293 365
#     4  10  20  33  51  78 111 147 189 235 283 341
#     4   9  17  33  57  79 104 143 186 226 276 345
#
# _framework density 21.033761999999999
#
# number of rings (size 3 to 8) (size 9 to 14) (size 15 to 20)
#    0.000    2.333    0.833    1.750    0.000    5.667 
#    1.500    3.750    0.000    2.000    0.000    0.000 
#    0.000    0.000    0.000    0.000    0.000    0.000 
#
# Total GULP energy -594733.440253 kJ/mol
# GULP energy per Si atom -12390.280005 kJ/mol
# Density = 2.098589 g / cm^3
# Si number density = 21.033762 Si / 1000 Ang^3
#
#
#
# Elastic Constant Matrix: (Units=GPa)
#
#
# Indices 1 2 3 4 5 6 
#
# 1 79.1828 23.2532 46.5894 0.0000 0.0000 0.0000
# 2 23.2532 79.1828 46.5894 0.0000 0.0000 0.0000
# 3 46.5894 46.5894 173.6648 0.0000 0.0000 0.0000
# 4 0.0000 0.0000 0.0000 1.3693 0.0000 0.0000
# 5 0.0000 0.0000 0.0000 0.0000 1.3693 0.0000
# 6 0.0000 0.0000 0.0000 0.0000 0.0000 16.7977
#
#
#
# Elastic Compliance Matrix: (Units=1/GPa)
#
#
# Indices 1 2 3 4 5 6 
#
# 1 0.015397 -0.002483 -0.003464 0.000000 0.000000 0.000000
# 2 -0.002483 0.015397 -0.003464 0.000000 0.000000 0.000000
# 3 -0.003464 -0.003464 0.007617 0.000000 0.000000 0.000000
# 4 0.000000 0.000000 0.000000 0.730288 0.000000 0.000000
# 5 0.000000 0.000000 0.000000 0.000000 0.730288 0.000000
# 6 0.000000 0.000000 0.000000 0.000000 0.000000 0.059532
#
#
# Mechanical properties :
#
#
# Convention : Reuss Voigt Hill
#
# Bulk Modulus (GPa) = 51.05532 62.76602 56.91067
# Shear Modulus (GPa) = 3.15683 18.28052 10.71867
#
# Velocity S-wave (km/s) = 1.22642 2.95125 2.25987
# Velocity P-wave (km/s) = 5.13139 6.44349 5.82451
#
# Compressibility (1/GPa) = 0.01958660
#
# Stress axis : x y z
#
# Youngs Moduli (GPa) = 64.94976 64.94976 131.28582
#
# Poissons Ratio (x) = 0.16128 0.45481
# Poissons Ratio (y) = 0.16128 0.45481
# Poissons Ratio (z) = 0.22501 0.22501
#
# Static dielectric constant tensor:
#      x y z
#    x 3.740370 0.000000 0.000000 
#    y 0.000000 3.740370 0.000000 
#    z 0.000000 0.000000 3.910770 
# 
# 
# High freq. dielectric constant tensor:
#      x y z
#    x 1.808100 0.000000 0.000000 
#    y 0.000000 1.808100 0.000000 
#    z 0.000000 0.000000 1.826280 
# 
# From -- ./inp_files/4848.got.cif
#   From: 2010.03.12/outbox.cif.g09.slc.cpg/sg105_3_cif.got.tgz:4848.got - 2010.04.14 01:45:32.
