data_PCOD8307913
_publ_section_title
;
Structure prediction by ZEFSAII (Michael W. Deem and Ramdas Pophale) SiO2 
 PCOD8307913
Probable space group: I 41 M D
;
_chemical_formula_sum "Si O2"
_cell_formula_units_Z 128
_cell_length_a 22.627033
_cell_length_b 22.627033
_cell_length_c 14.519239
_cell_angle_alpha 90.000000
_cell_angle_beta 90.000000
_cell_angle_gamma 90.000000
_cell_volume 7433.598058
_symmetry_space_group_name_H-M "I 41 M D"
_symmetry_group_IT_number 109
_symmetry_cell_setting 'tetragonal'
loop_
_space_group_symop_operation_xyz
x,y,z
-y,1/2+x,1/4+z
-x,-y,z
y,1/2-x,1/4+z
-x,y,z
x,-y,z
-y,1/2-x,1/4+z
y,1/2+x,1/4+z
1/2+x,1/2+y,1/2+z
1/2-y,x,3/4+z
1/2-x,1/2-y,1/2+z
1/2+y,-x,3/4+z
1/2-x,1/2+y,1/2+z
1/2+x,1/2-y,1/2+z
1/2-y,-x,3/4+z
1/2+y,x,3/4+z
loop_
_atom_site_type_symbol
_atom_site_label
_atom_site_fract_x
_atom_site_fract_y
_atom_site_fract_z
Si Si1 0.169658 0.143885 0.762850
Si Si2 0.569201 0.187227 0.843115
Si Si3 0.274660 0.661284 0.737947
Si Si4 0.435816 0.339123 0.384886
Si Si5 0.620930 0.741544 0.673378
Si Si6 0.703513 0.432943 0.100706
Si Si7 0.723086 0.654777 0.948496
Si Si8 0.065903 0.872073 0.094912
O O1 0.112204 0.128645 0.822701
O O2 0.227017 0.134655 0.826485
O O3 0.164702 0.099058 0.678020
O O4 0.169693 0.209596 0.722933
O O5 0.500000 0.200969 0.850529
O O6 0.603935 0.220541 0.923716
O O7 0.593497 0.211470 0.745209
O O8 0.579469 0.117080 0.860174
O O9 0.317879 0.715069 0.711127
O O10 0.286654 0.640978 0.841741
O O11 0.208739 0.683833 0.731054
O O12 0.500000 0.355481 0.343883
O O13 0.426353 0.269619 0.386243
O O14 0.430214 0.359153 0.488266
O O15 0.576486 0.687189 0.654835
O O16 0.681887 0.500000 0.090713
O O17 0.698339 0.402493 0.001316
O O18 0.000000 0.896001 0.120842
#
# Coordination Sequence:
#
# PCOD8307913 Si02
#       8
#    16  16  16  16  16  16  16  16
#     4  11  20  31  55  82 114 147 179 218 273 330
#     4  11  24  38  55  82 111 145 188 229 273 328
#     4  11  22  36  57  83 112 140 180 229 285 329
#     4   9  18  32  48  76 112 146 181 216 262 317
#     4  11  21  33  55  85 116 145 177 225 276 334
#     4  10  21  34  53  81 112 145 182 218 265 330
#     4  11  21  35  57  84 112 142 179 227 282 331
#     4  10  20  35  54  75 110 152 183 220 268 321
#
# _framework density 17.219118000000002
#
# number of rings (size 3 to 8) (size 9 to 14) (size 15 to 20)
#    0.000    1.500    5.000    1.125    3.500    1.250 
#    0.000    0.000    0.000    0.375    0.000    0.000 
#    0.000    0.000    0.000    0.000    0.000    0.000 
#
# Total GULP energy -793489.229813 kJ/mol
# GULP energy per Si atom -12398.269216 kJ/mol
# Density = 1.717993 g / cm^3
# Si number density = 17.219118 Si / 1000 Ang^3
#
#
#
# Elastic Constant Matrix: (Units=GPa)
#
#
# Indices 1 2 3 4 5 6 
#
# 1 25.3723 85.9236 23.3623 0.0000 0.0000 0.0000
# 2 85.9236 25.3723 23.3623 0.0000 0.0000 0.0000
# 3 23.3623 23.3623 86.8471 0.0000 0.0000 0.0000
# 4 0.0000 0.0000 0.0000 20.5932 0.0000 0.0000
# 5 0.0000 0.0000 0.0000 0.0000 20.5932 0.0000
# 6 0.0000 0.0000 0.0000 0.0000 0.0000 13.9339
#
#
#
# Elastic Compliance Matrix: (Units=1/GPa)
#
#
# Indices 1 2 3 4 5 6 
#
# 1 -0.003193 0.013322 -0.002725 0.000000 0.000000 0.000000
# 2 0.013322 -0.003193 -0.002725 0.000000 0.000000 0.000000
# 3 -0.002725 -0.002725 0.012980 0.000000 0.000000 0.000000
# 4 0.000000 0.000000 0.000000 0.048560 0.000000 0.000000
# 5 0.000000 0.000000 0.000000 0.000000 0.048560 0.000000
# 6 0.000000 0.000000 0.000000 0.000000 0.000000 0.071767
#
#
# Mechanical properties :
#
#
# Convention : Reuss Voigt Hill
#
# Bulk Modulus (GPa) = 44.76398 44.76535 44.76467
# Shear Modulus (GPa) = 29.90740 11.35364 20.63052
#
# Velocity S-wave (km/s) = 4.17210 2.57059 3.46514
# Velocity P-wave (km/s) = 7.01867 5.90462 6.48561
#
# Compressibility (1/GPa) = 0.02233939
#
# Stress axis : x y z
#
# Youngs Moduli (GPa) = -313.18689 -313.18689 77.03908
#
# Poissons Ratio (x) = 4.17226 0.20991
# Poissons Ratio (y) = 4.17226 0.20991
# Poissons Ratio (z) = -0.85335 -0.85335
#
# Static dielectric constant tensor:
#      x y z
#    x 3.206030 0.000000 0.000000 
#    y 0.000000 3.206030 0.000000 
#    z 0.000000 0.000000 3.314980 
# 
# 
# High freq. dielectric constant tensor:
#      x y z
#    x 1.653800 0.000000 0.000000 
#    y 0.000000 1.653800 0.000000 
#    z 0.000000 0.000000 1.671050 
# 
# From -- ./inp_files/2196.got.cif
#   From: 2010.03.12/outbox.cif.g09.slc.cpg/sg109_2_cif.got.tgz:2196.got - 2010.04.14 01:55:16.
