data_PCOD8307504
_publ_section_title
;
Structure prediction by ZEFSAII (Michael W. Deem and Ramdas Pophale) SiO2 
 PCOD8307504
Probable space group: I 4 M M
;
_chemical_formula_sum "Si O2"
_cell_formula_units_Z 80
_cell_length_a 15.757968
_cell_length_b 15.757968
_cell_length_c 18.532778
_cell_angle_alpha 90.000000
_cell_angle_beta 90.000000
_cell_angle_gamma 90.000000
_cell_volume 4601.939998
_symmetry_space_group_name_H-M "I 4 M M"
_symmetry_group_IT_number 107
_symmetry_cell_setting 'tetragonal'
loop_
_space_group_symop_operation_xyz
x,y,z
-y,x,z
-x,-y,z
y,-x,z
-x,y,z
x,-y,z
-y,-x,z
y,x,z
1/2+x,1/2+y,1/2+z
1/2-y,1/2+x,1/2+z
1/2-x,1/2-y,1/2+z
1/2+y,1/2-x,1/2+z
1/2-x,1/2+y,1/2+z
1/2+x,1/2-y,1/2+z
1/2-y,1/2-x,1/2+z
1/2+y,1/2+x,1/2+z
loop_
_atom_site_type_symbol
_atom_site_label
_atom_site_fract_x
_atom_site_fract_y
_atom_site_fract_z
Si Si1 0.594121 0.735152 0.500000
Si Si2 0.768756 0.905999 0.584914
Si Si3 0.148260 0.286291 0.151417
Si Si4 0.671426 0.096799 0.443752
Si Si5 0.905610 0.765049 0.299101
O O1 0.500000 0.702117 0.477922
O O2 0.666760 0.666760 0.476222
O O3 0.593866 0.746133 0.586465
O O4 0.606378 0.827810 0.463478
O O5 0.848632 0.848632 0.604038
O O6 0.683668 0.878508 0.628142
O O7 0.749754 0.899807 0.499568
O O8 0.792531 0.000000 0.609415
O O9 0.230425 0.230425 0.166524
O O10 0.095333 0.290578 0.225361
O O11 0.704521 0.120558 0.364584
O O12 0.631843 0.000000 0.445559
O O13 0.845986 0.845986 0.293376
O O14 0.000000 0.800177 0.311714
#
# Coordination Sequence:
#
# PCOD8307504 Si02
#       5
#    16  16  16  16  16
#     4  10  19  32  50  71  97 128 162 200 240 283
#     4   9  16  28  46  67  92 121 154 193 236 283
#     4   8  16  30  46  65  90 122 157 188 225 276
#     4   9  18  32  50  71  95 125 160 194 230 278
#     4  10  18  29  47  70  96 123 150 184 229 283
#
# _framework density 17.383973000000001
#
# number of rings (size 3 to 8) (size 9 to 14) (size 15 to 20)
#    0.000    2.800    0.000    3.600    0.000    1.000 
#    0.000    1.000    0.000   10.200    0.000    0.000 
#    0.000    4.800    0.000    0.000    0.000    0.400 
#
# Total GULP energy -495636.667777 kJ/mol
# GULP energy per Si atom -12390.916694 kJ/mol
# Density = 1.734441 g / cm^3
# Si number density = 17.383973 Si / 1000 Ang^3
#
#
#
# Elastic Constant Matrix: (Units=GPa)
#
#
# Indices 1 2 3 4 5 6 
#
# 1 92.5070 42.4565 24.9394 0.0000 0.0000 0.0000
# 2 42.4565 92.5070 24.9394 0.0000 0.0000 0.0000
# 3 24.9394 24.9394 95.5491 0.0000 0.0000 0.0000
# 4 0.0000 0.0000 0.0000 17.5749 0.0000 0.0000
# 5 0.0000 0.0000 0.0000 0.0000 17.5749 0.0000
# 6 0.0000 0.0000 0.0000 0.0000 0.0000 14.5959
#
#
#
# Elastic Compliance Matrix: (Units=1/GPa)
#
#
# Indices 1 2 3 4 5 6 
#
# 1 0.014090 -0.005890 -0.002140 0.000000 0.000000 0.000000
# 2 -0.005890 0.014090 -0.002140 0.000000 0.000000 0.000000
# 3 -0.002140 -0.002140 0.011583 0.000000 0.000000 0.000000
# 4 0.000000 0.000000 0.000000 0.056899 0.000000 0.000000
# 5 0.000000 0.000000 0.000000 0.000000 0.056899 0.000000
# 6 0.000000 0.000000 0.000000 0.000000 0.000000 0.068512
#
#
# Mechanical properties :
#
#
# Convention : Reuss Voigt Hill
#
# Bulk Modulus (GPa) = 51.48689 51.69264 51.58976
# Shear Modulus (GPa) = 20.08923 22.49766 21.29345
#
# Velocity S-wave (km/s) = 3.40313 3.60135 3.50364
# Velocity P-wave (km/s) = 6.71740 6.86246 6.79031
#
# Compressibility (1/GPa) = 0.01942242
#
# Stress axis : x y z
#
# Youngs Moduli (GPa) = 70.97163 70.97163 86.33217
#
# Poissons Ratio (x) = 0.41800 0.18479
# Poissons Ratio (y) = 0.41800 0.18479
# Poissons Ratio (z) = 0.15191 0.15191
#
# Static dielectric constant tensor:
#      x y z
#    x 3.140200 0.000000 0.000000 
#    y 0.000000 3.140200 0.000000 
#    z 0.000000 0.000000 3.391800 
# 
# 
# High freq. dielectric constant tensor:
#      x y z
#    x 1.656900 0.000000 0.000000 
#    y 0.000000 1.656900 0.000000 
#    z 0.000000 0.000000 1.664730 
# 
# From -- ./inp_files/3073.got.cif
#   From: 2010.03.12/outbox.cif.g09.slc.cpg/sg107_2_cif.got.tgz:3073.got - 2010.04.14 01:49:11.
