data_PCOD8307019
_publ_section_title
;
Structure prediction by ZEFSAII (Michael W. Deem and Ramdas Pophale) SiO2 
 PCOD8307019
Probable space group: P 4 C C
;
_chemical_formula_sum "Si O2"
_cell_formula_units_Z 48
_cell_length_a 8.168229
_cell_length_b 8.168229
_cell_length_c 32.794273
_cell_angle_alpha 90.000000
_cell_angle_beta 90.000000
_cell_angle_gamma 90.000000
_cell_volume 2188.032747
_symmetry_space_group_name_H-M "P 4 C C"
_symmetry_group_IT_number 103
_symmetry_cell_setting 'tetragonal'
loop_
_space_group_symop_operation_xyz
x,y,z
-y,x,z
-x,-y,z
y,-x,z
-x,y,1/2+z
x,-y,1/2+z
-y,-x,1/2+z
y,x,1/2+z
loop_
_atom_site_type_symbol
_atom_site_label
_atom_site_fract_x
_atom_site_fract_y
_atom_site_fract_z
Si Si1 0.756155 0.424414 0.717520
Si Si2 0.500000 0.000000 0.990538
Si Si3 0.570707 0.238758 0.126075
Si Si4 0.764263 0.451891 0.418506
Si Si5 0.263902 0.929922 0.850504
Si Si6 0.031314 0.734783 0.563183
Si Si7 0.500000 0.000000 0.781965
O O1 0.700147 0.609953 0.723743
O O2 0.829108 0.404964 0.672040
O O3 0.887002 0.388776 0.752669
O O4 0.527676 0.161954 0.963607
O O5 0.661234 0.006921 0.018259
O O6 0.696764 0.387591 0.118495
O O7 0.596300 0.084745 0.095788
O O8 0.686739 0.628320 0.410976
O O9 0.906946 0.391222 0.387957
O O10 0.370392 0.900517 0.809702
O O11 0.115538 0.801472 0.852089
O O12 0.860586 0.821429 0.570203
#
# Coordination Sequence:
#
# PCOD8307019 Si02
#       7
#     8   4   8   8   8   8   4
#     4   9  20  37  58  87 122 163 211 262 313 362
#     4  12  23  41  62  88 126 160 194 249 313 370
#     4   9  19  38  62  87 119 163 213 261 311 364
#     4  11  24  43  68  94 120 159 211 258 304 371
#     4  11  24  42  64  93 131 169 205 255 320 380
#     4  11  24  39  59  89 123 160 202 249 306 372
#     4  12  21  35  60  90 124 166 214 259 305 372
#
# _framework density 21.937517
#
# number of rings (size 3 to 8) (size 9 to 14) (size 15 to 20)
#    0.000    1.500    0.000    6.500    0.000    3.333 
#    0.000    5.000    0.000    2.000    0.000    0.000 
#    0.000    0.000    0.000    0.000    0.000    0.000 
#
# Total GULP energy -594777.521921 kJ/mol
# GULP energy per Si atom -12391.198373 kJ/mol
# Density = 2.188759 g / cm^3
# Si number density = 21.937517 Si / 1000 Ang^3
#
#
#
# Elastic Constant Matrix: (Units=GPa)
#
#
# Indices 1 2 3 4 5 6 
#
# 1 96.5793 51.3683 58.2345 0.0000 0.0000 0.0000
# 2 51.3683 96.5793 58.2345 0.0000 0.0000 0.0000
# 3 58.2345 58.2345 162.5119 0.0000 0.0000 0.0000
# 4 0.0000 0.0000 0.0000 21.7504 0.0000 0.0000
# 5 0.0000 0.0000 0.0000 0.0000 21.7504 0.0000
# 6 0.0000 0.0000 0.0000 0.0000 0.0000 46.1604
#
#
#
# Elastic Compliance Matrix: (Units=1/GPa)
#
#
# Indices 1 2 3 4 5 6 
#
# 1 0.015767 -0.006352 -0.003374 0.000000 0.000000 0.000000
# 2 -0.006352 0.015767 -0.003374 0.000000 0.000000 0.000000
# 3 -0.003374 -0.003374 0.008571 0.000000 0.000000 0.000000
# 4 0.000000 0.000000 0.000000 0.045976 0.000000 0.000000
# 5 0.000000 0.000000 0.000000 0.000000 0.045976 0.000000
# 6 0.000000 0.000000 0.000000 0.000000 0.000000 0.021664
#
#
# Mechanical properties :
#
#
# Convention : Reuss Voigt Hill
#
# Bulk Modulus (GPa) = 71.90971 76.81612 74.36291
# Shear Modulus (GPa) = 27.09217 30.45444 28.77330
#
# Velocity S-wave (km/s) = 3.51803 3.72995 3.62553
# Velocity P-wave (km/s) = 7.02513 7.32406 7.17615
#
# Compressibility (1/GPa) = 0.01390633
#
# Stress axis : x y z
#
# Youngs Moduli (GPa) = 63.42431 63.42431 116.66791
#
# Poissons Ratio (x) = 0.40285 0.39362
# Poissons Ratio (y) = 0.40285 0.39362
# Poissons Ratio (z) = 0.21398 0.21398
#
# Static dielectric constant tensor:
#      x y z
#    x 3.938150 0.000000 0.000000 
#    y 0.000000 3.938150 0.000000 
#    z 0.000000 0.000000 3.946560 
# 
# 
# High freq. dielectric constant tensor:
#      x y z
#    x 1.870530 0.000000 0.000000 
#    y 0.000000 1.870530 0.000000 
#    z 0.000000 0.000000 1.865360 
# 
# From -- ./inp_files/1581.got.cif
#   From: 2010.03.12/outbox.cif.g09.slc.cpg/sg103_cif.got.tgz:1581.got - 2010.04.14 01:42:52.
