data_PCOD8307044
_publ_section_title
;
Structure prediction by ZEFSAII (Michael W. Deem and Ramdas Pophale) SiO2 
 PCOD8307044
Probable space group: P 4 N C 
;
_chemical_formula_sum "Si O2"
_cell_formula_units_Z 52
_cell_length_a 16.562336
_cell_length_b 16.562336
_cell_length_c 8.862845
_cell_angle_alpha 90.000000
_cell_angle_beta 90.000000
_cell_angle_gamma 90.000000
_cell_volume 2431.175642
_symmetry_space_group_name_H-M "P 4 N C "
_symmetry_group_IT_number 104
_symmetry_cell_setting 'tetragonal'
loop_
_space_group_symop_operation_xyz
x,y,z
-y,x,z
-x,-y,z
y,-x,z
1/2-x,1/2+y,1/2+z
1/2+x,1/2-y,1/2+z
1/2-y,1/2-x,1/2+z
1/2+y,1/2+x,1/2+z
loop_
_atom_site_type_symbol
_atom_site_label
_atom_site_fract_x
_atom_site_fract_y
_atom_site_fract_z
Si Si1 0.968666 0.204765 0.226090
Si Si2 0.020683 0.870249 0.549633
Si Si3 0.000000 0.500000 0.004372
Si Si4 0.109670 0.548955 0.747106
Si Si5 0.804021 0.146303 0.150143
Si Si6 0.608091 0.774736 0.167680
Si Si7 0.759595 0.264912 0.911337
O O1 0.051229 0.207998 0.132916
O O2 0.978768 0.150527 0.373313
O O3 0.941343 0.295274 0.262647
O O4 0.898265 0.167627 0.121993
O O5 0.035731 0.790328 0.650639
O O6 0.933830 0.908076 0.587606
O O7 0.079280 0.510275 0.902576
O O8 0.990949 0.579341 0.111080
O O9 0.072011 0.637917 0.713119
O O10 0.778666 0.176663 0.318305
O O11 0.749228 0.188666 0.022713
O O12 0.668059 0.745224 0.297905
O O13 0.655195 0.779896 0.008118
#
# Coordination Sequence:
#
# PCOD8307044 Si02
#       7
#     8   8   4   8   8   8   8
#     4  12  21  39  67  93 127 172 214 271 324 387
#     4  11  22  39  64  97 129 170 225 273 323 389
#     4  10  24  40  58  98 120 160 210 262 306 400
#     4  11  22  39  66  87 131 164 213 254 333 375
#     4  11  24  39  67  96 129 170 223 271 327 392
#     4  11  19  40  68  90 121 177 216 263 327 402
#     4  10  20  40  63  93 122 166 228 261 315 401
#
# _framework density 21.388829000000001
#
# number of rings (size 3 to 8) (size 9 to 14) (size 15 to 20)
#    0.000    1.077    6.154    1.846    0.000    1.538 
#    2.769    6.154    0.000    0.000    0.000    0.000 
#    0.000    0.000    0.000    0.000    0.000    0.000 
#
# Total GULP energy -644819.316748 kJ/mol
# GULP energy per Si atom -12400.371476 kJ/mol
# Density = 2.134015 g / cm^3
# Si number density = 21.388829 Si / 1000 Ang^3
#
#
#
# Elastic Constant Matrix: (Units=GPa)
#
#
# Indices 1 2 3 4 5 6 
#
# 1 92.6212 43.5786 23.4173 0.0000 0.0000 0.0000
# 2 43.5786 92.6212 23.4173 0.0000 0.0000 0.0000
# 3 23.4173 23.4173 90.2912 0.0000 0.0000 0.0000
# 4 0.0000 0.0000 0.0000 22.9825 0.0000 0.0000
# 5 0.0000 0.0000 0.0000 0.0000 22.9825 0.0000
# 6 0.0000 0.0000 0.0000 0.0000 0.0000 31.1256
#
#
#
# Elastic Compliance Matrix: (Units=1/GPa)
#
#
# Indices 1 2 3 4 5 6 
#
# 1 0.014226 -0.006165 -0.002091 0.000000 0.000000 0.000000
# 2 -0.006165 0.014226 -0.002091 0.000000 0.000000 0.000000
# 3 -0.002091 -0.002091 0.012160 0.000000 0.000000 0.000000
# 4 0.000000 0.000000 0.000000 0.043511 0.000000 0.000000
# 5 0.000000 0.000000 0.000000 0.000000 0.043511 0.000000
# 6 0.000000 0.000000 0.000000 0.000000 0.000000 0.032128
#
#
# Mechanical properties :
#
#
# Convention : Reuss Voigt Hill
#
# Bulk Modulus (GPa) = 50.20281 50.70664 50.45473
# Shear Modulus (GPa) = 26.72461 27.75949 27.24205
#
# Velocity S-wave (km/s) = 3.53861 3.60648 3.57271
# Velocity P-wave (km/s) = 6.34178 6.41099 6.37648
#
# Compressibility (1/GPa) = 0.01991921
#
# Stress axis : x y z
#
# Youngs Moduli (GPa) = 70.29510 70.29510 82.23874
#
# Poissons Ratio (x) = 0.43335 0.17193
# Poissons Ratio (y) = 0.43335 0.17193
# Poissons Ratio (z) = 0.14696 0.14696
#
# Static dielectric constant tensor:
#      x y z
#    x 3.832640 0.000000 0.000000 
#    y 0.000000 3.832640 0.000000 
#    z 0.000000 0.000000 3.886710 
# 
# 
# High freq. dielectric constant tensor:
#      x y z
#    x 1.830310 0.000000 0.000000 
#    y 0.000000 1.830310 0.000000 
#    z 0.000000 0.000000 1.835490 
# 
# From -- ./inp_files/597.got.cif
#   From: 2010.03.12/outbox.cif.g09.slc.cpg/sg104_cif.got.tgz:597.got - 2010.04.14 01:44:05.
