data_PCOD8307928
_publ_section_title
;
Structure prediction by ZEFSAII (Michael W. Deem and Ramdas Pophale) SiO2 
 PCOD8307928
Probable space group: I 41 M D
;
_chemical_formula_sum "Si O2"
_cell_formula_units_Z 112
_cell_length_a 14.169977
_cell_length_b 14.169977
_cell_length_c 25.556633
_cell_angle_alpha 90.000000
_cell_angle_beta 90.000000
_cell_angle_gamma 90.000000
_cell_volume 5131.471569
_symmetry_space_group_name_H-M "I 41 M D"
_symmetry_group_IT_number 109
_symmetry_cell_setting 'tetragonal'
loop_
_space_group_symop_operation_xyz
x,y,z
-y,1/2+x,1/4+z
-x,-y,z
y,1/2-x,1/4+z
-x,y,z
x,-y,z
-y,1/2-x,1/4+z
y,1/2+x,1/4+z
1/2+x,1/2+y,1/2+z
1/2-y,x,3/4+z
1/2-x,1/2-y,1/2+z
1/2+y,-x,3/4+z
1/2-x,1/2+y,1/2+z
1/2+x,1/2-y,1/2+z
1/2-y,-x,3/4+z
1/2+y,x,3/4+z
loop_
_atom_site_type_symbol
_atom_site_label
_atom_site_fract_x
_atom_site_fract_y
_atom_site_fract_z
Si Si1 0.250159 0.605287 0.352930
Si Si2 0.209241 0.398412 0.034899
Si Si3 0.605458 0.751787 0.830699
Si Si4 0.809228 0.395020 0.747990
Si Si5 0.178746 0.110667 0.694450
Si Si6 0.396744 0.753891 0.113884
Si Si7 0.755658 0.334464 0.465356
O O1 0.267002 0.500000 0.329907
O O2 0.322582 0.683648 0.329863
O O3 0.146894 0.643208 0.338537
O O4 0.256969 0.597863 0.415723
O O5 0.207240 0.500000 0.062679
O O6 0.312284 0.386496 0.007252
O O7 0.129261 0.398547 0.989610
O O8 0.500000 0.750186 0.851315
O O9 0.659477 0.676299 0.868076
O O10 0.607528 0.729989 0.768651
O O11 0.845144 0.500000 0.728297
O O12 0.762723 0.412381 0.803449
O O13 0.732193 0.349009 0.708450
O O14 0.146533 0.160135 0.640591
O O15 0.271829 0.160251 0.718849
O O16 0.194282 0.000000 0.683980
O O17 0.500000 0.779096 0.138624
#
# Coordination Sequence:
#
# PCOD8307928 Si02
#       7
#    16  16  16  16  16  16  16
#     4  12  24  42  64  92 127 167 215 266 318 378
#     4  11  23  40  61  93 136 176 216 258 312 381
#     4  11  23  43  66  92 125 164 209 268 329 380
#     4   9  19  38  63  88 123 162 204 260 317 370
#     4  11  21  38  65  93 131 175 213 258 314 377
#     4  10  20  38  62  94 125 158 208 257 312 383
#     4  10  21  41  62  94 123 166 214 267 317 377
#
# _framework density 21.826098999999999
#
# number of rings (size 3 to 8) (size 9 to 14) (size 15 to 20)
#    0.000    1.429    5.714    1.286    0.000    5.714 
#    0.000    1.429    0.000    6.857    0.000    0.000 
#    0.000    0.000    0.000    0.000    0.000    0.000 
#
# Total GULP energy -693757.125417 kJ/mol
# GULP energy per Si atom -12388.520097 kJ/mol
# Density = 2.177642 g / cm^3
# Si number density = 21.826099 Si / 1000 Ang^3
#
#
#
# Elastic Constant Matrix: (Units=GPa)
#
#
# Indices 1 2 3 4 5 6 
#
# 1 156.5004 48.4672 19.4222 0.0000 0.0000 0.0000
# 2 48.4672 156.5004 19.4222 0.0000 0.0000 0.0000
# 3 19.4222 19.4222 41.7002 0.0000 0.0000 0.0000
# 4 0.0000 0.0000 0.0000 25.6097 0.0000 0.0000
# 5 0.0000 0.0000 0.0000 0.0000 25.6097 0.0000
# 6 0.0000 0.0000 0.0000 0.0000 0.0000 10.2464
#
#
#
# Elastic Compliance Matrix: (Units=1/GPa)
#
#
# Indices 1 2 3 4 5 6 
#
# 1 0.007304 -0.001953 -0.002492 0.000000 0.000000 0.000000
# 2 -0.001953 0.007304 -0.002492 0.000000 0.000000 0.000000
# 3 -0.002492 -0.002492 0.026302 0.000000 0.000000 0.000000
# 4 0.000000 0.000000 0.000000 0.039048 0.000000 0.000000
# 5 0.000000 0.000000 0.000000 0.000000 0.039048 0.000000
# 6 0.000000 0.000000 0.000000 0.000000 0.000000 0.097595
#
#
# Mechanical properties :
#
#
# Convention : Reuss Voigt Hill
#
# Bulk Modulus (GPa) = 36.98869 58.81381 47.90125
# Shear Modulus (GPa) = 20.87796 30.11910 25.49853
#
# Velocity S-wave (km/s) = 3.09618 3.71881 3.42169
# Velocity P-wave (km/s) = 5.45579 6.74125 6.13229
#
# Compressibility (1/GPa) = 0.02703529
#
# Stress axis : x y z
#
# Youngs Moduli (GPa) = 136.91525 136.91525 38.01937
#
# Poissons Ratio (x) = 0.26734 0.09476
# Poissons Ratio (y) = 0.26734 0.09476
# Poissons Ratio (z) = 0.34124 0.34124
#
# Static dielectric constant tensor:
#      x y z
#    x 3.981660 0.000000 0.000000 
#    y 0.000000 3.981660 0.000000 
#    z 0.000000 0.000000 3.977040 
# 
# 
# High freq. dielectric constant tensor:
#      x y z
#    x 1.839060 0.000000 0.000000 
#    y 0.000000 1.839060 0.000000 
#    z 0.000000 0.000000 1.872260 
# 
# From -- ./inp_files/5055.got.cif
#   From: 2010.03.12/outbox.cif.g09.slc.cpg/sg109_3_cif.got.tgz:5055.got - 2010.04.14 01:55:16.
