data_PCOD8307682
_publ_section_title
;
Structure prediction by ZEFSAII (Michael W. Deem and Ramdas Pophale) SiO2 
 PCOD8307682
Probable space group: I 4 M M
;
_chemical_formula_sum "Si O2"
_cell_formula_units_Z 112
_cell_length_a 19.272121
_cell_length_b 19.272121
_cell_length_c 26.057740
_cell_angle_alpha 90.000000
_cell_angle_beta 90.000000
_cell_angle_gamma 90.000000
_cell_volume 9678.226326
_symmetry_space_group_name_H-M "I 4 M M"
_symmetry_group_IT_number 107
_symmetry_cell_setting 'tetragonal'
loop_
_space_group_symop_operation_xyz
x,y,z
-y,x,z
-x,-y,z
y,-x,z
-x,y,z
x,-y,z
-y,-x,z
y,x,z
1/2+x,1/2+y,1/2+z
1/2-y,1/2+x,1/2+z
1/2-x,1/2-y,1/2+z
1/2+y,1/2-x,1/2+z
1/2-x,1/2+y,1/2+z
1/2+x,1/2-y,1/2+z
1/2-y,1/2-x,1/2+z
1/2+y,1/2+x,1/2+z
loop_
_atom_site_type_symbol
_atom_site_label
_atom_site_fract_x
_atom_site_fract_y
_atom_site_fract_z
Si Si1 0.582499 0.838224 0.744300
Si Si2 0.338224 0.917501 0.438989
Si Si3 0.079147 0.808862 0.281648
Si Si4 0.421689 0.082813 0.341644
Si Si5 0.577645 0.082604 0.148156
Si Si6 0.191138 0.920853 0.401637
Si Si7 0.917396 0.577645 0.535133
O O1 0.500000 0.842427 0.745517
O O2 0.605447 0.758207 0.750076
O O3 0.612403 0.883333 0.791331
O O4 0.612117 0.869739 0.691122
O O5 0.383334 0.887598 0.391958
O O6 0.258207 0.894553 0.433211
O O7 0.369738 0.887883 0.492167
O O8 0.342426 0.000000 0.437772
O O9 0.125978 0.874023 0.265671
O O10 0.085674 0.790996 0.341643
O O11 0.000000 0.828036 0.267739
O O12 0.500000 0.111010 0.341644
O O13 0.420426 0.000000 0.341644
O O14 0.500000 0.111802 0.158590
O O15 0.604955 0.104955 0.091644
O O16 0.574650 0.000000 0.150378
O O17 0.125978 0.874022 0.417614
O O18 0.171964 0.000000 0.415546
O O19 0.888198 0.500000 0.524697
O O20 0.000000 0.574651 0.532911
#
# Coordination Sequence:
#
# PCOD8307682 Si02
#       7
#    16  16  16  16  16  16  16
#     4   9  14  21  31  44  62  81 101 127 156 186
#     4   9  14  21  31  44  62  81 101 127 156 186
#     4   9  16  25  35  46  60  78 102 132 165 197
#     4   9  14  18  27  44  63  81  98 119 151 184
#     4   8  13  20  30  45  64  85 107 127 146 172
#     4   9  16  25  35  46  60  78 102 132 165 197
#     4   8  13  20  30  45  64  85 107 127 146 172
#
# _framework density 11.572368000000001
#
# number of rings (size 3 to 8) (size 9 to 14) (size 15 to 20)
#    0.000    3.286    1.429    1.714    0.000    3.714 
#    0.000    1.429    0.000    0.857    0.000    0.000 
#    0.000    0.000    0.000    0.000    0.000    0.000 
#
# Total GULP energy -694007.621428 kJ/mol
# GULP energy per Si atom -12392.993240 kJ/mol
# Density = 1.154603 g / cm^3
# Si number density = 11.572368 Si / 1000 Ang^3
#
#
#
# Elastic Constant Matrix: (Units=GPa)
#
#
# Indices 1 2 3 4 5 6 
#
# 1 52.9343 32.4395 34.8533 0.0000 0.0000 0.0003
# 2 32.4395 52.9343 34.8533 0.0000 0.0000 -0.0003
# 3 34.8533 34.8533 88.0892 0.0000 0.0000 0.0000
# 4 0.0000 0.0000 0.0000 7.0168 0.0000 0.0000
# 5 0.0000 0.0000 0.0000 0.0000 7.0168 0.0000
# 6 0.0003 -0.0003 0.0000 0.0000 0.0000 4.2541
#
#
#
# Elastic Compliance Matrix: (Units=1/GPa)
#
#
# Indices 1 2 3 4 5 6 
#
# 1 0.033048 -0.015745 -0.006846 0.000000 0.000000 -0.000003
# 2 -0.015745 0.033048 -0.006846 0.000000 0.000000 0.000003
# 3 -0.006846 -0.006846 0.016770 0.000000 0.000000 0.000000
# 4 0.000000 0.000000 0.000000 0.142515 0.000000 0.000000
# 5 0.000000 0.000000 0.000000 0.000000 0.142515 0.000000
# 6 -0.000003 0.000003 0.000000 0.000000 0.000000 0.235066
#
#
# Mechanical properties :
#
#
# Convention : Reuss Voigt Hill
#
# Bulk Modulus (GPa) = 41.68205 44.25000 42.96603
# Shear Modulus (GPa) = 7.46455 9.77832 8.62144
#
# Velocity S-wave (km/s) = 2.54250 2.90999 2.73243
# Velocity P-wave (km/s) = 6.68699 7.04354 6.86758
#
# Compressibility (1/GPa) = 0.02399114
#
# Stress axis : x y z
#
# Youngs Moduli (GPa) = 30.25918 30.25918 59.63185
#
# Poissons Ratio (x) = 0.47643 0.40824
# Poissons Ratio (y) = 0.47643 0.40824
# Poissons Ratio (z) = 0.20716 0.20716
#
# Static dielectric constant tensor:
#      x y z
#    x 2.227640 0.000000 0.000000 
#    y 0.000000 2.227640 0.000000 
#    z 0.000000 0.000000 2.662040 
# 
# 
# High freq. dielectric constant tensor:
#      x y z
#    x 1.401810 0.000000 0.000000 
#    y 0.000000 1.401810 0.000000 
#    z 0.000000 0.000000 1.437520 
# 
# From -- ./inp_files/5026.got.cif
#   From: 2010.03.12/outbox.cif.g09.slc.cpg/sg107_3_cif.got.tgz:5026.got - 2010.04.14 01:49:11.
