data_PCOD8307218
_publ_section_title
;
Structure prediction by ZEFSAII (Michael W. Deem and Ramdas Pophale) SiO2 
 PCOD8307218
Probable space group: P 42 M C
;
_chemical_formula_sum "Si O2"
_cell_formula_units_Z 40
_cell_length_a 9.111850
_cell_length_b 9.111850
_cell_length_c 25.874044
_cell_angle_alpha 90.000000
_cell_angle_beta 90.000000
_cell_angle_gamma 90.000000
_cell_volume 2148.213472
_symmetry_space_group_name_H-M "P 42 M C"
_symmetry_group_IT_number 105
_symmetry_cell_setting 'tetragonal'
loop_
_space_group_symop_operation_xyz
x,y,z
-y,x,1/2+z
-x,-y,z
y,-x,1/2+z
-x,y,z
x,-y,z
-y,-x,1/2+z
y,x,1/2+z
loop_
_atom_site_type_symbol
_atom_site_label
_atom_site_fract_x
_atom_site_fract_y
_atom_site_fract_z
Si Si1 0.832111 0.826091 0.516310
Si Si2 0.834528 0.825238 0.314827
Si Si3 0.670104 0.328512 0.609149
Si Si4 0.670646 0.169185 0.213065
Si Si5 0.665737 0.174886 0.414778
O O1 0.754365 0.759899 0.565773
O O2 0.751654 0.767133 0.464999
O O3 0.000000 0.773235 0.514330
O O4 0.821057 0.000000 0.519993
O O5 0.759460 0.770023 0.262194
O O6 0.745621 0.762272 0.363838
O O7 0.000000 0.764774 0.317214
O O8 0.832291 0.000000 0.316503
O O9 0.500000 0.285942 0.607611
O O10 0.695951 0.500000 0.599591
O O11 0.734691 0.280697 0.664302
O O12 0.500000 0.188237 0.225928
O O13 0.708959 0.000000 0.201137
O O14 0.500000 0.235744 0.416396
O O15 0.666125 0.000000 0.413671
#
# Coordination Sequence:
#
# PCOD8307218 Si02
#       5
#     8   8   8   8   8
#     4  10  20  33  51  76 104 133 168 212 259 304
#     4   9  16  26  43  69  99 128 161 204 251 298
#     4  10  21  36  53  73  99 133 171 209 253 307
#     4   9  17  30  48  69  93 123 160 202 249 300
#     4   9  16  27  45  70 101 135 168 204 250 303
#
# _framework density 18.620123
#
# number of rings (size 3 to 8) (size 9 to 14) (size 15 to 20)
#    0.000    2.600    0.000    2.400    0.000    8.000 
#    0.000    2.000    0.000    1.200    0.000    2.800 
#    0.000    0.000    0.000    0.000    0.000    0.000 
#
# Total GULP energy -496057.924942 kJ/mol
# GULP energy per Si atom -12401.448124 kJ/mol
# Density = 1.857774 g / cm^3
# Si number density = 18.620123 Si / 1000 Ang^3
#
#
#
# Elastic Constant Matrix: (Units=GPa)
#
#
# Indices 1 2 3 4 5 6 
#
# 1 85.8978 32.4326 67.8435 0.0000 0.0000 0.0000
# 2 32.4326 85.8978 67.8435 0.0000 0.0000 0.0000
# 3 67.8435 67.8435 178.3349 0.0000 0.0000 0.0000
# 4 0.0000 0.0000 0.0000 3.2720 0.0000 0.0000
# 5 0.0000 0.0000 0.0000 0.0000 3.2720 0.0000
# 6 0.0000 0.0000 0.0000 0.0000 0.0000 16.5141
#
#
#
# Elastic Compliance Matrix: (Units=1/GPa)
#
#
# Indices 1 2 3 4 5 6 
#
# 1 0.016847 -0.001857 -0.005703 0.000000 0.000000 0.000000
# 2 -0.001857 0.016847 -0.005703 0.000000 0.000000 0.000000
# 3 -0.005703 -0.005703 0.009946 0.000000 0.000000 0.000000
# 4 0.000000 0.000000 0.000000 0.305623 0.000000 0.000000
# 5 0.000000 0.000000 0.000000 0.000000 0.305623 0.000000
# 6 0.000000 0.000000 0.000000 0.000000 0.000000 0.060554
#
#
# Mechanical properties :
#
#
# Convention : Reuss Voigt Hill
#
# Bulk Modulus (GPa) = 58.42551 76.26332 67.34441
# Shear Modulus (GPa) = 6.68744 16.74568 11.71656
#
# Velocity S-wave (km/s) = 1.89718 3.00214 2.51119
# Velocity P-wave (km/s) = 6.02037 7.28447 6.68238
#
# Compressibility (1/GPa) = 0.01711581
#
# Stress axis : x y z
#
# Youngs Moduli (GPa) = 59.35826 59.35826 100.54018
#
# Poissons Ratio (x) = 0.11022 0.57334
# Poissons Ratio (y) = 0.11022 0.57334
# Poissons Ratio (z) = 0.33850 0.33850
#
# Static dielectric constant tensor:
#      x y z
#    x 3.308500 0.000000 0.000000 
#    y 0.000000 3.308500 0.000000 
#    z 0.000000 0.000000 3.600820 
# 
# 
# High freq. dielectric constant tensor:
#      x y z
#    x 1.701410 0.000000 0.000000 
#    y 0.000000 1.701410 0.000000 
#    z 0.000000 0.000000 1.740840 
# 
# From -- ./inp_files/3895.got.cif
#   From: 2010.03.12/outbox.cif.g09.slc.cpg/sg105_2_cif.got.tgz:3895.got - 2010.04.14 01:45:32.
