data_PCOD8307004
_publ_section_title
;
Structure prediction by ZEFSAII (Michael W. Deem and Ramdas Pophale) SiO2 
 PCOD8307004
Probable space group: P 4 C C
;
_chemical_formula_sum "Si O2"
_cell_formula_units_Z 60
_cell_length_a 12.194852
_cell_length_b 12.194852
_cell_length_c 19.547047
_cell_angle_alpha 90.000000
_cell_angle_beta 90.000000
_cell_angle_gamma 90.000000
_cell_volume 2906.927665
_symmetry_space_group_name_H-M "P 4 C C"
_symmetry_group_IT_number 103
_symmetry_cell_setting 'tetragonal'
loop_
_space_group_symop_operation_xyz
x,y,z
-y,x,z
-x,-y,z
y,-x,z
-x,y,1/2+z
x,-y,1/2+z
-y,-x,1/2+z
y,x,1/2+z
loop_
_atom_site_type_symbol
_atom_site_label
_atom_site_fract_x
_atom_site_fract_y
_atom_site_fract_z
Si Si1 0.323652 0.467003 0.024980
Si Si2 0.256411 0.274846 0.364792
Si Si3 0.860031 0.670309 0.238150
Si Si4 0.842623 0.085078 0.123750
Si Si5 0.500000 0.000000 0.811477
Si Si6 0.673515 0.459529 0.680232
Si Si7 0.892565 0.144323 0.465427
Si Si8 0.476555 0.202646 0.395381
O O1 0.414045 0.374814 0.009181
O O2 0.284841 0.455259 0.102391
O O3 0.217880 0.451460 0.976385
O O4 0.190032 0.247328 0.295158
O O5 0.226258 0.181876 0.420959
O O6 0.388355 0.279218 0.355409
O O7 0.225221 0.397168 0.384135
O O8 0.874998 0.741085 0.169729
O O9 0.966434 0.604258 0.264335
O O10 0.775219 0.569781 0.227632
O O11 0.956443 0.145758 0.140748
O O12 0.819607 0.115544 0.044872
O O13 0.550560 0.085049 0.865073
O O14 0.629957 0.580205 0.695526
O O15 0.021964 0.151135 0.448760
#
# Coordination Sequence:
#
# PCOD8307004 Si02
#       8
#     8   8   8   8   4   8   8   8
#     4   9  17  36  64  94 121 155 211 266 305 376
#     4  11  26  38  66  93 132 180 213 269 326 396
#     4  11  25  41  64  90 131 179 210 267 333 394
#     4   9  21  42  69  95 120 161 224 283 325 393
#     4  10  28  44  52  92 140 166 206 284 322 386
#     4   9  21  39  63  94 126 164 216 265 313 386
#     4   9  21  44  70  96 125 163 221 285 337 387
#     4  11  23  42  61  90 133 169 215 265 327 389
#
# _framework density 20.640347999999999
#
# number of rings (size 3 to 8) (size 9 to 14) (size 15 to 20)
#    0.000    2.133    1.333    1.600   11.200    0.267 
#    0.000    3.333    0.000    0.000    0.000    0.000 
#    0.000    0.000    0.000    0.000    0.000    0.000 
#
# Total GULP energy -743375.555045 kJ/mol
# GULP energy per Si atom -12389.592584 kJ/mol
# Density = 2.059337 g / cm^3
# Si number density = 20.640348 Si / 1000 Ang^3
#
#
#
# Elastic Constant Matrix: (Units=GPa)
#
#
# Indices 1 2 3 4 5 6 
#
# 1 80.6481 33.4942 41.4738 0.0000 0.0000 0.0000
# 2 33.4942 80.6481 41.4738 0.0000 0.0000 0.0000
# 3 41.4738 41.4738 92.0896 0.0000 0.0000 0.0000
# 4 0.0000 0.0000 0.0000 39.0705 0.0000 0.0000
# 5 0.0000 0.0000 0.0000 0.0000 39.0705 0.0000
# 6 0.0000 0.0000 0.0000 0.0000 0.0000 24.3721
#
#
#
# Elastic Compliance Matrix: (Units=1/GPa)
#
#
# Indices 1 2 3 4 5 6 
#
# 1 0.017115 -0.004092 -0.005865 0.000000 0.000000 0.000000
# 2 -0.004092 0.017115 -0.005865 0.000000 0.000000 0.000000
# 3 -0.005865 -0.005865 0.016142 0.000000 0.000000 0.000000
# 4 0.000000 0.000000 0.000000 0.025595 0.000000 0.000000
# 5 0.000000 0.000000 0.000000 0.000000 0.025595 0.000000
# 6 0.000000 0.000000 0.000000 0.000000 0.000000 0.041031
#
#
# Mechanical properties :
#
#
# Convention : Reuss Voigt Hill
#
# Bulk Modulus (GPa) = 53.39697 54.02991 53.71344
# Shear Modulus (GPa) = 27.70396 29.63223 28.66809
#
# Velocity S-wave (km/s) = 3.66761 3.79310 3.73088
# Velocity P-wave (km/s) = 6.62280 6.73923 6.68127
#
# Compressibility (1/GPa) = 0.01872765
#
# Stress axis : x y z
#
# Youngs Moduli (GPa) = 58.42755 58.42755 61.95047
#
# Poissons Ratio (x) = 0.23908 0.36335
# Poissons Ratio (y) = 0.23908 0.36335
# Poissons Ratio (z) = 0.34269 0.34269
#
# Static dielectric constant tensor:
#      x y z
#    x 3.793470 0.000000 0.000000 
#    y 0.000000 3.793470 0.000000 
#    z 0.000000 0.000000 3.956700 
# 
# 
# High freq. dielectric constant tensor:
#      x y z
#    x 1.801960 0.000000 0.000000 
#    y 0.000000 1.801960 0.000000 
#    z 0.000000 0.000000 1.814240 
# 
# From -- ./inp_files/1311.got.cif
#   From: 2010.03.12/outbox.cif.g09.slc.cpg/sg103_cif.got.tgz:1311.got - 2010.04.14 01:42:52.
