data_PCOD8307615
_publ_section_title
;
Structure prediction by ZEFSAII (Michael W. Deem and Ramdas Pophale) SiO2 
 PCOD8307615
Probable space group: I 4 M M
;
_chemical_formula_sum "Si O2"
_cell_formula_units_Z 112
_cell_length_a 14.116796
_cell_length_b 14.116796
_cell_length_c 35.410445
_cell_angle_alpha 90.000000
_cell_angle_beta 90.000000
_cell_angle_gamma 90.000000
_cell_volume 7056.732618
_symmetry_space_group_name_H-M "I 4 M M"
_symmetry_group_IT_number 107
_symmetry_cell_setting 'tetragonal'
loop_
_space_group_symop_operation_xyz
x,y,z
-y,x,z
-x,-y,z
y,-x,z
-x,y,z
x,-y,z
-y,-x,z
y,x,z
1/2+x,1/2+y,1/2+z
1/2-y,1/2+x,1/2+z
1/2-x,1/2-y,1/2+z
1/2+y,1/2-x,1/2+z
1/2-x,1/2+y,1/2+z
1/2+x,1/2-y,1/2+z
1/2-y,1/2-x,1/2+z
1/2+y,1/2+x,1/2+z
loop_
_atom_site_type_symbol
_atom_site_label
_atom_site_fract_x
_atom_site_fract_y
_atom_site_fract_z
Si Si1 0.891475 0.738795 0.554480
Si Si2 0.392215 0.759149 0.336039
Si Si3 0.109754 0.607317 0.122999
Si Si4 0.265456 0.889177 0.749843
Si Si5 0.738775 0.890775 0.470039
Si Si6 0.887276 0.731083 0.195062
Si Si7 0.890975 0.390492 0.402590
O O1 0.833747 0.833747 0.562106
O O2 0.860268 0.660281 0.584591
O O3 0.872997 0.698130 0.512284
O O4 0.000000 0.767621 0.559797
O O5 0.500000 0.733887 0.344509
O O6 0.337199 0.662802 0.343216
O O7 0.378825 0.796170 0.293429
O O8 0.354478 0.838326 0.364969
O O9 0.138758 0.500000 0.134977
O O10 0.137332 0.680543 0.155655
O O11 0.000000 0.612202 0.113879
O O12 0.166410 0.833591 0.741830
O O13 0.351388 0.841077 0.727174
O O14 0.252421 0.000000 0.738671
O O15 0.836820 0.836820 0.463942
O O16 0.662629 0.853204 0.439835
O O17 0.762069 0.000000 0.463289
O O18 0.831294 0.831294 0.197170
O O19 0.000000 0.749165 0.199949
O O20 0.872106 0.500000 0.410320
O O21 0.000000 0.368358 0.395181
#
# Coordination Sequence:
#
# PCOD8307615 Si02
#       7
#    16  16  16  16  16  16  16
#     4   9  17  28  42  61  85 112 141 173 209 251
#     4   9  17  29  45  65  89 115 142 173 209 251
#     4   9  17  29  46  67  88 111 140 174 214 258
#     4   9  18  31  47  69  94 119 148 180 216 261
#     4   9  17  28  42  60  82 110 142 175 212 252
#     4  10  20  33  49  68  90 117 149 185 223 261
#     4   9  17  28  42  61  84 110 141 177 216 254
#
# _framework density 15.871368
#
# number of rings (size 3 to 8) (size 9 to 14) (size 15 to 20)
#    0.000    2.857    0.000    1.286    0.000    2.714 
#    0.000    7.143    0.000    0.000    0.000    2.000 
#    0.000    3.429    0.000   26.571    0.000    0.714 
#
# Total GULP energy -694208.378449 kJ/mol
# GULP energy per Si atom -12396.578187 kJ/mol
# Density = 1.583524 g / cm^3
# Si number density = 15.871368 Si / 1000 Ang^3
#
#
#
# Elastic Constant Matrix: (Units=GPa)
#
#
# Indices 1 2 3 4 5 6 
#
# 1 78.2336 49.3726 60.7050 0.0000 0.0000 -0.0002
# 2 49.3726 78.2336 60.7050 0.0000 0.0000 0.0002
# 3 60.7050 60.7050 116.4959 0.0000 0.0000 0.0000
# 4 0.0000 0.0000 0.0000 26.8595 0.0000 0.0000
# 5 0.0000 0.0000 0.0000 0.0000 26.8595 0.0000
# 6 -0.0002 0.0002 0.0000 0.0000 0.0000 22.2056
#
#
#
# Elastic Compliance Matrix: (Units=1/GPa)
#
#
# Indices 1 2 3 4 5 6 
#
# 1 0.025096 -0.009553 -0.008099 0.000000 0.000000 0.000000
# 2 -0.009553 0.025096 -0.008099 0.000000 0.000000 0.000000
# 3 -0.008099 -0.008099 0.017025 0.000000 0.000000 0.000000
# 4 0.000000 0.000000 0.000000 0.037231 0.000000 0.000000
# 5 0.000000 0.000000 0.000000 0.000000 0.037231 0.000000
# 6 0.000000 0.000000 0.000000 0.000000 0.000000 0.045034
#
#
# Mechanical properties :
#
#
# Convention : Reuss Voigt Hill
#
# Bulk Modulus (GPa) = 63.64012 68.28090 65.96051
# Shear Modulus (GPa) = 20.53803 21.99698 21.26750
#
# Velocity S-wave (km/s) = 3.60117 3.72688 3.66456
# Velocity P-wave (km/s) = 7.58127 7.85075 7.71719
#
# Compressibility (1/GPa) = 0.01571336
#
# Stress axis : x y z
#
# Youngs Moduli (GPa) = 39.84769 39.84770 58.73864
#
# Poissons Ratio (x) = 0.38068 0.47572
# Poissons Ratio (y) = 0.38068 0.47572
# Poissons Ratio (z) = 0.32272 0.32272
#
# Static dielectric constant tensor:
#      x y z
#    x 2.967320 0.000000 0.000000 
#    y 0.000000 2.967320 0.000000 
#    z 0.000000 0.000000 3.253950 
# 
# 
# High freq. dielectric constant tensor:
#      x y z
#    x 1.600930 0.000000 0.000000 
#    y 0.000000 1.600930 0.000000 
#    z 0.000000 0.000000 1.621070 
# 
# From -- ./inp_files/5790.got.cif
#   From: 2010.03.12/outbox.cif.g09.slc.cpg/sg107_3_cif.got.tgz:5790.got - 2010.04.14 01:49:11.
