data_PCOD8307244
_publ_section_title
;
Structure prediction by ZEFSAII (Michael W. Deem and Ramdas Pophale) SiO2 
 PCOD8307244
Probable space group: P 42 M C
;
_chemical_formula_sum "Si O2"
_cell_formula_units_Z 40
_cell_length_a 9.179580
_cell_length_b 9.179580
_cell_length_c 25.752833
_cell_angle_alpha 90.000000
_cell_angle_beta 90.000000
_cell_angle_gamma 90.000000
_cell_volume 2170.054463
_symmetry_space_group_name_H-M "P 42 M C"
_symmetry_group_IT_number 105
_symmetry_cell_setting 'tetragonal'
loop_
_space_group_symop_operation_xyz
x,y,z
-y,x,1/2+z
-x,-y,z
y,-x,1/2+z
-x,y,z
x,-y,z
-y,-x,1/2+z
y,x,1/2+z
loop_
_atom_site_type_symbol
_atom_site_label
_atom_site_fract_x
_atom_site_fract_y
_atom_site_fract_z
Si Si1 0.329090 0.332109 0.962160
Si Si2 0.835705 0.326769 0.361797
Si Si3 0.167854 0.171461 0.168519
Si Si4 0.330765 0.670844 0.759693
Si Si5 0.667145 0.169453 0.564862
O O1 0.500000 0.308914 0.968727
O O2 0.289541 0.500000 0.951850
O O3 0.266378 0.240436 0.913795
O O4 0.254198 0.274572 0.014519
O O5 0.833027 0.500000 0.363038
O O6 0.747767 0.271310 0.311696
O O7 0.000000 0.266295 0.358938
O O8 0.269949 0.238914 0.211986
O O9 0.218402 0.236254 0.113528
O O10 0.000000 0.213323 0.179983
O O11 0.191146 0.000000 0.167001
O O12 0.500000 0.707568 0.750147
O O13 0.304728 0.500000 0.765851
O O14 0.500000 0.210815 0.576980
O O15 0.685208 0.000000 0.553141
#
# Coordination Sequence:
#
# PCOD8307244 Si02
#       5
#     8   8   8   8   8
#     4   9  17  30  49  73 100 128 162 207 253 296
#     4   9  17  30  50  75 101 131 168 208 251 300
#     4  10  21  36  53  74 102 135 170 210 257 307
#     4  10  20  34  54  78 102 131 170 214 258 305
#     4   9  18  33  52  73  99 133 170 206 249 302
#
# _framework density 18.432718999999999
#
# number of rings (size 3 to 8) (size 9 to 14) (size 15 to 20)
#    0.000    2.600    0.000    1.800    0.000    6.400 
#    0.000    3.000    0.000    3.600    0.000    0.000 
#    0.000    0.000    0.000    0.000    0.000    0.000 
#
# Total GULP energy -496094.243736 kJ/mol
# GULP energy per Si atom -12402.356093 kJ/mol
# Density = 1.839076 g / cm^3
# Si number density = 18.432719 Si / 1000 Ang^3
#
#
#
# Elastic Constant Matrix: (Units=GPa)
#
#
# Indices 1 2 3 4 5 6 
#
# 1 72.6867 39.8512 70.9431 0.0000 0.0000 0.0000
# 2 39.8512 72.6867 70.9431 0.0000 0.0000 0.0000
# 3 70.9431 70.9431 183.2888 0.0000 0.0000 0.0000
# 4 0.0000 0.0000 0.0000 7.0933 0.0000 0.0000
# 5 0.0000 0.0000 0.0000 0.0000 7.0933 0.0000
# 6 0.0000 0.0000 0.0000 0.0000 0.0000 19.6901
#
#
#
# Elastic Compliance Matrix: (Units=1/GPa)
#
#
# Indices 1 2 3 4 5 6 
#
# 1 0.023905 -0.006550 -0.006717 0.000000 0.000000 0.000000
# 2 -0.006550 0.023905 -0.006717 0.000000 0.000000 0.000000
# 3 -0.006717 -0.006717 0.010656 0.000000 0.000000 0.000000
# 4 0.000000 0.000000 0.000000 0.140978 0.000000 0.000000
# 5 0.000000 0.000000 0.000000 0.000000 0.140978 0.000000
# 6 0.000000 0.000000 0.000000 0.000000 0.000000 0.050787
#
#
# Mechanical properties :
#
#
# Convention : Reuss Voigt Hill
#
# Bulk Modulus (GPa) = 54.06428 76.90411 65.48420
# Shear Modulus (GPa) = 11.43265 16.57032 14.00148
#
# Velocity S-wave (km/s) = 2.49316 3.00152 2.75907
# Velocity P-wave (km/s) = 6.13857 7.33650 6.76411
#
# Compressibility (1/GPa) = 0.01849650
#
# Stress axis : x y z
#
# Youngs Moduli (GPa) = 41.83224 41.83224 93.84464
#
# Poissons Ratio (x) = 0.27400 0.63039
# Poissons Ratio (y) = 0.27400 0.63039
# Poissons Ratio (z) = 0.28100 0.28100
#
# Static dielectric constant tensor:
#      x y z
#    x 3.287860 0.000000 0.000000 
#    y 0.000000 3.287860 0.000000 
#    z 0.000000 0.000000 3.590960 
# 
# 
# High freq. dielectric constant tensor:
#      x y z
#    x 1.700340 0.000000 0.000000 
#    y 0.000000 1.700340 0.000000 
#    z 0.000000 0.000000 1.729680 
# 
# From -- ./inp_files/3901.got.cif
#   From: 2010.03.12/outbox.cif.g09.slc.cpg/sg105_2_cif.got.tgz:3901.got - 2010.04.14 01:45:32.
