data_PCOD8307892
_publ_section_title
;
Structure prediction by ZEFSAII (Michael W. Deem and Ramdas Pophale) SiO2 
 PCOD8307892
Probable space group: I 41 M D
;
_chemical_formula_sum "Si O2"
_cell_formula_units_Z 72
_cell_length_a 16.491339
_cell_length_b 16.491339
_cell_length_c 14.067200
_cell_angle_alpha 90.000000
_cell_angle_beta 90.000000
_cell_angle_gamma 90.000000
_cell_volume 3825.775667
_symmetry_space_group_name_H-M "I 41 M D"
_symmetry_group_IT_number 109
_symmetry_cell_setting 'tetragonal'
loop_
_space_group_symop_operation_xyz
x,y,z
-y,1/2+x,1/4+z
-x,-y,z
y,1/2-x,1/4+z
-x,y,z
x,-y,z
-y,1/2-x,1/4+z
y,1/2+x,1/4+z
1/2+x,1/2+y,1/2+z
1/2-y,x,3/4+z
1/2-x,1/2-y,1/2+z
1/2+y,-x,3/4+z
1/2-x,1/2+y,1/2+z
1/2+x,1/2-y,1/2+z
1/2-y,-x,3/4+z
1/2+y,x,3/4+z
loop_
_atom_site_type_symbol
_atom_site_label
_atom_site_fract_x
_atom_site_fract_y
_atom_site_fract_z
Si Si1 0.000000 0.404217 0.635870
Si Si2 0.589041 0.355815 0.016107
Si Si3 0.321836 0.406085 0.196148
Si Si4 0.406332 0.500000 0.527148
Si Si5 0.500000 0.207343 0.957528
Si Si6 0.091611 0.857875 0.884086
O O1 0.080098 0.373647 0.691534
O O2 0.000000 0.361788 0.535453
O O3 0.000000 0.500000 0.617442
O O4 0.500000 0.388393 0.046098
O O5 0.579718 0.265800 0.969026
O O6 0.642090 0.352810 0.110684
O O7 0.350091 0.500000 0.189667
O O8 0.226104 0.397428 0.188464
O O9 0.348555 0.366692 0.295234
O O10 0.500000 0.500000 0.564500
O O11 0.339439 0.500000 0.608958
O O12 0.387477 0.577265 0.463601
O O13 0.000000 0.868780 0.845549
#
# Coordination Sequence:
#
# PCOD8307892 Si02
#       6
#     8  16  16   8   8  16
#     4  10  19  39  59  86 117 159 200 239 292 355
#     4   9  21  35  58  90 119 154 195 241 303 348
#     4  11  21  38  63  92 124 155 199 260 301 363
#     4  10  21  47  65  86 114 165 217 238 304 363
#     4  10  23  39  62  86 119 164 195 252 283 370
#     4  10  23  40  65  91 118 161 205 251 305 361
#
# _framework density 18.819714000000001
#
# number of rings (size 3 to 8) (size 9 to 14) (size 15 to 20)
#    0.667    1.333    2.222    1.000    3.111    0.889 
#    8.000    0.000    0.000    0.000    0.000    0.000 
#    0.000    0.000    0.000    0.000    0.000    0.000 
#
# Total GULP energy -446281.498412 kJ/mol
# GULP energy per Si atom -12396.708289 kJ/mol
# Density = 1.877688 g / cm^3
# Si number density = 18.819714 Si / 1000 Ang^3
#
#
#
# Elastic Constant Matrix: (Units=GPa)
#
#
# Indices 1 2 3 4 5 6 
#
# 1 102.3372 35.5778 72.3881 0.0000 0.0000 0.0000
# 2 35.5778 102.3372 72.3881 0.0000 0.0000 0.0000
# 3 72.3881 72.3881 147.6486 0.0000 0.0000 0.0000
# 4 0.0000 0.0000 0.0000 62.9579 0.0000 0.0000
# 5 0.0000 0.0000 0.0000 0.0000 62.9579 0.0000
# 6 0.0000 0.0000 0.0000 0.0000 0.0000 18.3201
#
#
#
# Elastic Compliance Matrix: (Units=1/GPa)
#
#
# Indices 1 2 3 4 5 6 
#
# 1 0.014959 -0.000020 -0.007325 0.000000 0.000000 0.000000
# 2 -0.000020 0.014959 -0.007325 0.000000 0.000000 0.000000
# 3 -0.007325 -0.007325 0.013955 0.000000 0.000000 0.000000
# 4 0.000000 0.000000 0.000000 0.015884 0.000000 0.000000
# 5 0.000000 0.000000 0.000000 0.000000 0.015884 0.000000
# 6 0.000000 0.000000 0.000000 0.000000 0.000000 0.054585
#
#
# Mechanical properties :
#
#
# Convention : Reuss Voigt Hill
#
# Bulk Modulus (GPa) = 68.79368 79.22569 74.00969
# Shear Modulus (GPa) = 30.41195 40.31180 35.36187
#
# Velocity S-wave (km/s) = 4.02426 4.63319 4.33942
# Velocity P-wave (km/s) = 7.63062 8.41490 8.03234
#
# Compressibility (1/GPa) = 0.01453622
#
# Stress axis : x y z
#
# Youngs Moduli (GPa) = 66.84718 66.84718 71.65919
#
# Poissons Ratio (x) = 0.00131 0.52487
# Poissons Ratio (y) = 0.00131 0.52487
# Poissons Ratio (z) = 0.48963 0.48963
#
# Static dielectric constant tensor:
#      x y z
#    x 3.286300 0.000000 0.000000 
#    y 0.000000 3.286300 0.000000 
#    z 0.000000 0.000000 3.257900 
# 
# 
# High freq. dielectric constant tensor:
#      x y z
#    x 1.725790 0.000000 0.000000 
#    y 0.000000 1.725790 0.000000 
#    z 0.000000 0.000000 1.727980 
# 
# From -- ./inp_files/1929.got.cif
#   From: 2010.03.12/outbox.cif.g09.slc.cpg/sg109_1_cif.got.tgz:1929.got - 2010.04.14 01:55:16.
