data_PCOD8307697
_publ_section_title
;
Structure prediction by ZEFSAII (Michael W. Deem and Ramdas Pophale) SiO2 
 PCOD8307697
Probable space group: I 4 M M
;
_chemical_formula_sum "Si O2"
_cell_formula_units_Z 128
_cell_length_a 17.244925
_cell_length_b 17.244925
_cell_length_c 27.607575
_cell_angle_alpha 90.000000
_cell_angle_beta 90.000000
_cell_angle_gamma 90.000000
_cell_volume 8210.146006
_symmetry_space_group_name_H-M "I 4 M M"
_symmetry_group_IT_number 107
_symmetry_cell_setting 'tetragonal'
loop_
_space_group_symop_operation_xyz
x,y,z
-y,x,z
-x,-y,z
y,-x,z
-x,y,z
x,-y,z
-y,-x,z
y,x,z
1/2+x,1/2+y,1/2+z
1/2-y,1/2+x,1/2+z
1/2-x,1/2-y,1/2+z
1/2+y,1/2-x,1/2+z
1/2-x,1/2+y,1/2+z
1/2+x,1/2-y,1/2+z
1/2-y,1/2-x,1/2+z
1/2+y,1/2+x,1/2+z
loop_
_atom_site_type_symbol
_atom_site_label
_atom_site_fract_x
_atom_site_fract_y
_atom_site_fract_z
Si Si1 0.212923 0.087868 0.470550
Si Si2 0.912132 0.787077 0.908507
Si Si3 0.284413 0.589235 0.244770
Si Si4 0.203032 0.667553 0.328272
Si Si5 0.715112 0.410943 0.520339
Si Si6 0.089235 0.784413 0.634288
Si Si7 0.410943 0.284890 0.858718
Si Si8 0.832449 0.703033 0.550786
O O1 0.137799 0.137799 0.484564
O O2 0.236773 0.100087 0.414990
O O3 0.285362 0.111131 0.504640
O O4 0.189300 0.000000 0.481023
O O5 0.862201 0.862201 0.894493
O O6 0.888869 0.714637 0.874417
O O7 0.000000 0.810699 0.898034
O O8 0.899914 0.763227 0.964066
O O9 0.302744 0.500000 0.256714
O O10 0.363075 0.636926 0.255244
O O11 0.214493 0.620164 0.278431
O O12 0.256807 0.600012 0.189529
O O13 0.263986 0.736015 0.333147
O O14 0.118900 0.709005 0.329321
O O15 0.699142 0.500000 0.534202
O O16 0.637508 0.362493 0.533332
O O17 0.790995 0.381099 0.549736
O O18 0.136927 0.863074 0.623815
O O19 0.120162 0.714493 0.600626
O O20 0.000000 0.802746 0.622345
O O21 0.500000 0.300859 0.844855
O O22 0.362494 0.362494 0.845725
O O23 0.763987 0.763987 0.545913
#
# Coordination Sequence:
#
# PCOD8307697 Si02
#       8
#    16  16  16  16  16  16  16  16
#     4   9  16  25  39  60  85 113 142 171 204 241
#     4   9  16  25  39  60  85 113 142 171 204 241
#     4   9  17  28  43  64  88 114 143 173 204 236
#     4   9  16  27  42  59  82 112 144 173 201 239
#     4   9  17  28  43  63  84 106 134 169 210 255
#     4   9  17  28  43  64  88 114 143 173 204 236
#     4   9  17  28  43  63  84 106 134 169 210 255
#     4   9  16  27  42  59  82 112 144 173 201 239
#
# _framework density 15.590465
#
# number of rings (size 3 to 8) (size 9 to 14) (size 15 to 20)
#    0.000    3.000    0.000    1.500    0.000    3.750 
#    0.000    3.750    0.000    8.250    0.000    8.750 
#    0.000    0.000    0.000    9.750    0.000    0.250 
#
# Total GULP energy -793306.315213 kJ/mol
# GULP energy per Si atom -12395.411175 kJ/mol
# Density = 1.555498 g / cm^3
# Si number density = 15.590465 Si / 1000 Ang^3
#
#
#
# Elastic Constant Matrix: (Units=GPa)
#
#
# Indices 1 2 3 4 5 6 
#
# 1 80.8970 66.3757 45.0215 0.0000 0.0000 0.0001
# 2 66.3757 80.8970 45.0215 0.0000 0.0000 -0.0001
# 3 45.0215 45.0215 64.3155 0.0000 0.0000 0.0000
# 4 0.0000 0.0000 0.0000 20.0960 0.0000 0.0000
# 5 0.0000 0.0000 0.0000 0.0000 20.0960 0.0000
# 6 0.0001 -0.0001 0.0000 0.0000 0.0000 18.5274
#
#
#
# Elastic Compliance Matrix: (Units=1/GPa)
#
#
# Indices 1 2 3 4 5 6 
#
# 1 0.040367 -0.028497 -0.008310 0.000000 0.000000 0.000000
# 2 -0.028497 0.040367 -0.008310 0.000000 0.000000 0.000000
# 3 -0.008310 -0.008310 0.027182 0.000000 0.000000 0.000000
# 4 0.000000 0.000000 0.000000 0.049761 0.000000 0.000000
# 5 0.000000 0.000000 0.000000 0.000000 0.049761 0.000000
# 6 0.000000 0.000000 0.000000 0.000000 0.000000 0.053974
#
#
# Mechanical properties :
#
#
# Convention : Reuss Voigt Hill
#
# Bulk Modulus (GPa) = 56.54533 59.88297 58.21415
# Shear Modulus (GPa) = 13.98445 16.38993 15.18719
#
# Velocity S-wave (km/s) = 2.99822 3.24586 3.12450
# Velocity P-wave (km/s) = 6.95224 7.24851 7.10192
#
# Compressibility (1/GPa) = 0.01768493
#
# Stress axis : x y z
#
# Youngs Moduli (GPa) = 24.77245 24.77245 36.78923
#
# Poissons Ratio (x) = 0.70594 0.30570
# Poissons Ratio (y) = 0.70594 0.30570
# Poissons Ratio (z) = 0.20585 0.20585
#
# Static dielectric constant tensor:
#      x y z
#    x 2.933000 0.000000 0.000000 
#    y 0.000000 2.933000 0.000000 
#    z 0.000000 0.000000 2.999540 
# 
# 
# High freq. dielectric constant tensor:
#      x y z
#    x 1.581030 0.000000 0.000000 
#    y 0.000000 1.581030 0.000000 
#    z 0.000000 0.000000 1.587390 
# 
# From -- ./inp_files/5469.got.cif
#   From: 2010.03.12/outbox.cif.g09.slc.cpg/sg107_3_cif.got.tgz:5469.got - 2010.04.14 01:49:11.
