data_PCOD8307368
_publ_section_title
;
Structure prediction by ZEFSAII (Michael W. Deem and Ramdas Pophale) SiO2 
 PCOD8307368
Probable space group: P 42 M C
;
_chemical_formula_sum "Si O2"
_cell_formula_units_Z 40
_cell_length_a 8.035524
_cell_length_b 8.035524
_cell_length_c 29.163113
_cell_angle_alpha 90.000000
_cell_angle_beta 90.000000
_cell_angle_gamma 90.000000
_cell_volume 1883.051881
_symmetry_space_group_name_H-M "P 42 M C"
_symmetry_group_IT_number 105
_symmetry_cell_setting 'tetragonal'
loop_
_space_group_symop_operation_xyz
x,y,z
-y,x,1/2+z
-x,-y,z
y,-x,1/2+z
-x,y,z
x,-y,z
-y,-x,1/2+z
y,x,1/2+z
loop_
_atom_site_type_symbol
_atom_site_label
_atom_site_fract_x
_atom_site_fract_y
_atom_site_fract_z
Si Si1 0.315454 0.810163 0.797820
Si Si2 0.309682 0.314467 0.508887
Si Si3 0.688558 0.000000 0.352543
Si Si4 0.802967 0.691084 0.704875
Si Si5 0.700104 0.000000 0.453640
Si Si6 0.304065 0.183146 0.105280
O O1 0.500000 0.739094 0.810647
O O2 0.167508 0.718804 0.824180
O O3 0.290384 0.797448 0.743287
O O4 0.305802 0.000000 0.812824
O O5 0.500000 0.331738 0.495167
O O6 0.225933 0.500000 0.501651
O O7 0.298563 0.258205 0.562232
O O8 0.228689 0.168546 0.477903
O O9 0.500000 0.000000 0.366688
O O10 0.777576 0.000000 0.402245
O O11 0.750249 0.500000 0.712099
O O12 0.747245 0.760424 0.654503
O O13 0.000000 0.712238 0.710422
O O14 0.500000 0.000000 0.457433
O O15 0.500000 0.167487 0.111615
O O16 0.228747 0.000000 0.095652
#
# Coordination Sequence:
#
# PCOD8307368 Si02
#       6
#     8   8   4   8   4   8
#     4  11  24  40  58  84 119 155 191 238 303 369
#     4   9  17  32  54  78 108 145 181 226 285 342
#     4  11  23  41  65  87 111 149 201 255 303 350
#     4   9  17  32  56  83 112 151 195 237 284 337
#     4   9  20  37  57  83 109 139 185 243 295 344
#     4   8  15  29  50  78 112 147 183 224 272 329
#
# _framework density 21.242111000000001
#
# number of rings (size 3 to 8) (size 9 to 14) (size 15 to 20)
#    0.000    2.600    1.000    2.100    0.000    3.200 
#    1.800    6.500    0.000    2.400    0.000    0.000 
#    0.000    0.000    0.000    0.000    0.000    0.000 
#
# Total GULP energy -495538.812642 kJ/mol
# GULP energy per Si atom -12388.470316 kJ/mol
# Density = 2.119376 g / cm^3
# Si number density = 21.242111 Si / 1000 Ang^3
#
#
#
# Elastic Constant Matrix: (Units=GPa)
#
#
# Indices 1 2 3 4 5 6 
#
# 1 74.0565 22.9438 41.4814 0.0000 0.0000 0.0000
# 2 22.9438 74.0565 41.4814 0.0000 0.0000 0.0000
# 3 41.4814 41.4814 153.1266 0.0000 0.0000 0.0000
# 4 0.0000 0.0000 0.0000 10.6508 0.0000 0.0000
# 5 0.0000 0.0000 0.0000 0.0000 10.6508 0.0000
# 6 0.0000 0.0000 0.0000 0.0000 0.0000 9.6137
#
#
#
# Elastic Compliance Matrix: (Units=1/GPa)
#
#
# Indices 1 2 3 4 5 6 
#
# 1 0.016491 -0.003073 -0.003635 0.000000 0.000000 0.000000
# 2 -0.003073 0.016491 -0.003635 0.000000 0.000000 0.000000
# 3 -0.003635 -0.003635 0.008500 0.000000 0.000000 0.000000
# 4 0.000000 0.000000 0.000000 0.093890 0.000000 0.000000
# 5 0.000000 0.000000 0.000000 0.000000 0.093890 0.000000
# 6 0.000000 0.000000 0.000000 0.000000 0.000000 0.104018
#
#
# Mechanical properties :
#
#
# Convention : Reuss Voigt Hill
#
# Bulk Modulus (GPa) = 48.08501 57.00588 52.54544
# Shear Modulus (GPa) = 13.85431 19.20526 16.52978
#
# Velocity S-wave (km/s) = 2.55661 3.01011 2.79258
# Velocity P-wave (km/s) = 5.60364 6.24304 5.93196
#
# Compressibility (1/GPa) = 0.02079650
#
# Stress axis : x y z
#
# Youngs Moduli (GPa) = 60.63783 60.63783 117.64820
#
# Poissons Ratio (x) = 0.18635 0.42764
# Poissons Ratio (y) = 0.18635 0.42764
# Poissons Ratio (z) = 0.22041 0.22041
#
# Static dielectric constant tensor:
#      x y z
#    x 3.710320 0.000000 0.000000 
#    y 0.000000 3.710320 0.000000 
#    z 0.000000 0.000000 3.988770 
# 
# 
# High freq. dielectric constant tensor:
#      x y z
#    x 1.809450 0.000000 0.000000 
#    y 0.000000 1.809450 0.000000 
#    z 0.000000 0.000000 1.835770 
# 
# From -- ./inp_files/4286.got.cif
#   From: 2010.03.12/outbox.cif.g09.slc.cpg/sg105_3_cif.got.tgz:4286.got - 2010.04.14 01:45:32.
