data_PCOD8307534
_publ_section_title
;
Structure prediction by ZEFSAII (Michael W. Deem and Ramdas Pophale) SiO2 
 PCOD8307534
Probable space group: I 4 M M
;
_chemical_formula_sum "Si O2"
_cell_formula_units_Z 96
_cell_length_a 24.130037
_cell_length_b 24.130037
_cell_length_c 9.491099
_cell_angle_alpha 90.000000
_cell_angle_beta 90.000000
_cell_angle_gamma 90.000000
_cell_volume 5526.274829
_symmetry_space_group_name_H-M "I 4 M M"
_symmetry_group_IT_number 107
_symmetry_cell_setting 'tetragonal'
loop_
_space_group_symop_operation_xyz
x,y,z
-y,x,z
-x,-y,z
y,-x,z
-x,y,z
x,-y,z
-y,-x,z
y,x,z
1/2+x,1/2+y,1/2+z
1/2-y,1/2+x,1/2+z
1/2-x,1/2-y,1/2+z
1/2+y,1/2-x,1/2+z
1/2-x,1/2+y,1/2+z
1/2+x,1/2-y,1/2+z
1/2-y,1/2-x,1/2+z
1/2+y,1/2+x,1/2+z
loop_
_atom_site_type_symbol
_atom_site_label
_atom_site_fract_x
_atom_site_fract_y
_atom_site_fract_z
Si Si1 0.726848 0.810752 0.541960
Si Si2 0.562669 0.344768 0.829583
Si Si3 0.275489 0.937276 0.837590
Si Si4 0.836297 0.656107 0.783965
Si Si5 0.733794 0.935725 0.163096
Si Si6 0.600582 0.686541 0.123387
O O1 0.752184 0.752184 0.489885
O O2 0.699899 0.800381 0.694300
O O3 0.678779 0.834888 0.445407
O O4 0.775036 0.855168 0.546933
O O5 0.500000 0.361725 0.784242
O O6 0.605076 0.394925 0.795633
O O7 0.582053 0.290574 0.741111
O O8 0.560082 0.331916 0.996924
O O9 0.326566 0.901203 0.773150
O O10 0.218846 0.930663 0.748096
O O11 0.296335 0.000000 0.827558
O O12 0.261002 0.920679 0.998021
O O13 0.820061 0.594831 0.731073
O O14 0.721677 0.000000 0.187008
O O15 0.632580 0.632580 0.186770
#
# Coordination Sequence:
#
# PCOD8307534 Si02
#       6
#    16  16  16  16  16  16
#     4  10  19  29  46  74 105 132 163 202 250 308
#     4  10  20  34  53  76 104 139 178 220 262 305
#     4  10  21  36  53  75 106 138 172 210 255 314
#     4  11  19  34  50  74 101 138 167 206 259 309
#     4  10  21  36  53  75 102 134 173 214 258 310
#     4   9  18  32  50  75 103 135 174 210 251 300
#
# _framework density 17.371558
#
# number of rings (size 3 to 8) (size 9 to 14) (size 15 to 20)
#    0.000    2.000    3.333    1.000    0.000    2.167 
#    0.000    0.000    0.000    0.500    0.000    2.333 
#    0.000    4.000    0.000    0.000    0.000    0.000 
#
# Total GULP energy -594815.232121 kJ/mol
# GULP energy per Si atom -12391.984003 kJ/mol
# Density = 1.733202 g / cm^3
# Si number density = 17.371558 Si / 1000 Ang^3
#
#
#
# Elastic Constant Matrix: (Units=GPa)
#
#
# Indices 1 2 3 4 5 6 
#
# 1 77.8621 57.1577 36.4104 0.0000 0.0000 0.0000
# 2 57.1577 77.8621 36.4104 0.0000 0.0000 0.0000
# 3 36.4104 36.4104 84.9039 0.0000 0.0000 0.0000
# 4 0.0000 0.0000 0.0000 22.0058 0.0000 0.0000
# 5 0.0000 0.0000 0.0000 0.0000 22.0058 0.0000
# 6 0.0000 0.0000 0.0000 0.0000 0.0000 24.8238
#
#
#
# Elastic Compliance Matrix: (Units=1/GPa)
#
#
# Indices 1 2 3 4 5 6 
#
# 1 0.028967 -0.019332 -0.004132 0.000000 0.000000 0.000000
# 2 -0.019332 0.028967 -0.004132 0.000000 0.000000 0.000000
# 3 -0.004132 -0.004132 0.015322 0.000000 0.000000 0.000000
# 4 0.000000 0.000000 0.000000 0.045443 0.000000 0.000000
# 5 0.000000 0.000000 0.000000 0.000000 0.045443 0.000000
# 6 0.000000 0.000000 0.000000 0.000000 0.000000 0.040284
#
#
# Mechanical properties :
#
#
# Convention : Reuss Voigt Hill
#
# Bulk Modulus (GPa) = 55.35834 55.62057 55.48945
# Shear Modulus (GPa) = 18.82268 21.14372 19.98320
#
# Velocity S-wave (km/s) = 3.29528 3.49255 3.39535
# Velocity P-wave (km/s) = 6.81285 6.95353 6.88355
#
# Compressibility (1/GPa) = 0.01806412
#
# Stress axis : x y z
#
# Youngs Moduli (GPa) = 34.52234 34.52234 65.26649
#
# Poissons Ratio (x) = 0.66739 0.26967
# Poissons Ratio (y) = 0.66739 0.26967
# Poissons Ratio (z) = 0.14264 0.14264
#
# Static dielectric constant tensor:
#      x y z
#    x 3.178250 0.000000 0.000000 
#    y 0.000000 3.178250 0.000000 
#    z 0.000000 0.000000 3.263910 
# 
# 
# High freq. dielectric constant tensor:
#      x y z
#    x 1.656070 0.000000 0.000000 
#    y 0.000000 1.656070 0.000000 
#    z 0.000000 0.000000 1.678750 
# 
# From -- ./inp_files/1481.got.cif
#   From: 2010.03.12/outbox.cif.g09.slc.cpg/sg107_1_cif.got.tgz:1481.got - 2010.04.14 01:49:11.
