data_PCOD8307301
_publ_section_title
;
Structure prediction by ZEFSAII (Michael W. Deem and Ramdas Pophale) SiO2 
 PCOD8307301
Probable space group: P 42 M C
;
_chemical_formula_sum "Si O2"
_cell_formula_units_Z 48
_cell_length_a 18.470452
_cell_length_b 18.470452
_cell_length_c 10.098529
_cell_angle_alpha 90.000000
_cell_angle_beta 90.000000
_cell_angle_gamma 90.000000
_cell_volume 3445.189888
_symmetry_space_group_name_H-M "P 42 M C"
_symmetry_group_IT_number 105
_symmetry_cell_setting 'tetragonal'
loop_
_space_group_symop_operation_xyz
x,y,z
-y,x,1/2+z
-x,-y,z
y,-x,1/2+z
-x,y,z
x,-y,z
-y,-x,1/2+z
y,x,1/2+z
loop_
_atom_site_type_symbol
_atom_site_label
_atom_site_fract_x
_atom_site_fract_y
_atom_site_fract_z
Si Si1 0.413966 0.829030 0.617530
Si Si2 0.327686 0.414111 0.204278
Si Si3 0.414115 0.680992 0.010327
Si Si4 0.413664 0.920378 0.857826
Si Si5 0.083281 0.586444 0.865955
Si Si6 0.413950 0.164296 0.107830
O O1 0.500000 0.832192 0.616211
O O2 0.388763 0.746133 0.631319
O O3 0.381814 0.870053 0.743803
O O4 0.383310 0.871253 0.490306
O O5 0.336280 0.500000 0.202468
O O6 0.330875 0.386513 0.357989
O O7 0.390689 0.381680 0.112155
O O8 0.500000 0.682644 0.005798
O O9 0.383626 0.756013 0.072368
O O10 0.500000 0.920971 0.852815
O O11 0.381778 0.000000 0.837476
O O12 0.386185 0.890573 0.996796
O O13 0.080687 0.500000 0.865198
O O14 0.130032 0.616528 0.742939
O O15 0.000000 0.615514 0.866004
O O16 0.500000 0.168300 0.113134
#
# Coordination Sequence:
#
# PCOD8307301 Si02
#       6
#     8   8   8   8   8   8
#     4   9  16  27  40  57  80 101 123 155 194 241
#     4  10  21  35  48  61  76  98 132 175 224 269
#     4  10  21  35  48  61  76  98 132 175 224 269
#     4   9  14  22  39  58  77 101 122 143 181 234
#     4   9  16  24  37  60  85 105 124 145 179 232
#     4   9  16  27  40  57  80 101 123 155 194 241
#
# _framework density 13.932468
#
# number of rings (size 3 to 8) (size 9 to 14) (size 15 to 20)
#    0.000    2.667    1.667    1.000    2.333    5.000 
#    0.000    1.667    0.000    0.000    0.000    0.000 
#    0.000    0.000    0.000    0.000    0.000    0.000 
#
# Total GULP energy -594762.796438 kJ/mol
# GULP energy per Si atom -12390.891592 kJ/mol
# Density = 1.390076 g / cm^3
# Si number density = 13.932468 Si / 1000 Ang^3
#
#
#
# Elastic Constant Matrix: (Units=GPa)
#
#
# Indices 1 2 3 4 5 6 
#
# 1 27.0475 8.2394 16.1051 0.0000 0.0000 0.0000
# 2 8.2394 27.0475 16.1051 0.0000 0.0000 0.0000
# 3 16.1051 16.1051 106.5896 0.0000 0.0000 0.0000
# 4 0.0000 0.0000 0.0000 21.1128 0.0000 0.0000
# 5 0.0000 0.0000 0.0000 0.0000 21.1128 0.0000
# 6 0.0000 0.0000 0.0000 0.0000 0.0000 0.4489
#
#
#
# Elastic Compliance Matrix: (Units=1/GPa)
#
#
# Indices 1 2 3 4 5 6 
#
# 1 0.043021 -0.010148 -0.004967 0.000000 0.000000 0.000000
# 2 -0.010148 0.043021 -0.004967 0.000000 0.000000 0.000000
# 3 -0.004967 -0.004967 0.010883 0.000000 0.000000 0.000000
# 4 0.000000 0.000000 0.000000 0.047365 0.000000 0.000000
# 5 0.000000 0.000000 0.000000 0.000000 0.047365 0.000000
# 6 0.000000 0.000000 0.000000 0.000000 0.000000 2.227659
#
#
# Mechanical properties :
#
#
# Convention : Reuss Voigt Hill
#
# Bulk Modulus (GPa) = 17.61771 26.84266 22.23019
# Shear Modulus (GPa) = 2.01743 16.55056 9.28399
#
# Velocity S-wave (km/s) = 1.20464 3.45035 2.58419
# Velocity P-wave (km/s) = 3.82196 5.93138 4.98942
#
# Compressibility (1/GPa) = 0.05676105
#
# Stress axis : x y z
#
# Youngs Moduli (GPa) = 23.24459 23.24459 91.88863
#
# Poissons Ratio (x) = 0.23588 0.45641
# Poissons Ratio (y) = 0.23588 0.45641
# Poissons Ratio (z) = 0.11545 0.11545
#
# Static dielectric constant tensor:
#      x y z
#    x 2.503530 0.000000 0.000000 
#    y 0.000000 2.503530 0.000000 
#    z 0.000000 0.000000 3.059890 
# 
# 
# High freq. dielectric constant tensor:
#      x y z
#    x 1.488060 0.000000 0.000000 
#    y 0.000000 1.488060 0.000000 
#    z 0.000000 0.000000 1.556600 
# 
# From -- ./inp_files/987.got.cif
#   From: 2010.03.12/outbox.cif.g09.slc.cpg/sg105_1_cif.got.tgz:987.got - 2010.04.14 01:45:32.
