data_PCOD8307620
_publ_section_title
;
Structure prediction by ZEFSAII (Michael W. Deem and Ramdas Pophale) SiO2 
 PCOD8307620
Probable space group: I 4 M M
;
_chemical_formula_sum "Si O2"
_cell_formula_units_Z 64
_cell_length_a 13.718382
_cell_length_b 13.718382
_cell_length_c 20.323865
_cell_angle_alpha 90.000000
_cell_angle_beta 90.000000
_cell_angle_gamma 90.000000
_cell_volume 3824.829545
_symmetry_space_group_name_H-M "I 4 M M"
_symmetry_group_IT_number 107
_symmetry_cell_setting 'tetragonal'
loop_
_space_group_symop_operation_xyz
x,y,z
-y,x,z
-x,-y,z
y,-x,z
-x,y,z
x,-y,z
-y,-x,z
y,x,z
1/2+x,1/2+y,1/2+z
1/2-y,1/2+x,1/2+z
1/2-x,1/2-y,1/2+z
1/2+y,1/2-x,1/2+z
1/2-x,1/2+y,1/2+z
1/2+x,1/2-y,1/2+z
1/2-y,1/2-x,1/2+z
1/2+y,1/2+x,1/2+z
loop_
_atom_site_type_symbol
_atom_site_label
_atom_site_fract_x
_atom_site_fract_y
_atom_site_fract_z
Si Si1 0.615431 0.892302 0.639240
Si Si2 0.614699 0.772651 0.513086
Si Si3 0.111353 0.268018 0.259945
Si Si4 0.887290 0.728294 0.409351
O O1 0.500000 0.900717 0.636883
O O2 0.650863 0.823127 0.580341
O O3 0.650247 0.849578 0.709378
O O4 0.661813 0.000000 0.631259
O O5 0.500000 0.751494 0.512216
O O6 0.669908 0.669908 0.505340
O O7 0.641239 0.845229 0.453573
O O8 0.168302 0.168302 0.248512
O O9 0.124920 0.307191 0.334046
O O10 0.000000 0.241987 0.244454
O O11 0.828508 0.828508 0.422402
O O12 0.000000 0.748022 0.426684
#
# Coordination Sequence:
#
# PCOD8307620 Si02
#       4
#    16  16  16  16
#     4   9  17  29  45  65  89 118 151 186 226 273
#     4  10  20  33  49  69  93 121 155 196 241 290
#     4   9  17  29  45  67  95 124 155 191 230 275
#     4   9  18  31  47  69  96 126 161 199 237 278
#
# _framework density 16.732772000000001
#
# number of rings (size 3 to 8) (size 9 to 14) (size 15 to 20)
#    0.000    2.750    0.000    1.500    0.000    3.250 
#    0.000    5.000    0.000    4.500    0.000    0.000 
#    0.000    4.500    0.000    1.000    0.000    0.250 
#
# Total GULP energy -396757.973729 kJ/mol
# GULP energy per Si atom -12398.686679 kJ/mol
# Density = 1.669469 g / cm^3
# Si number density = 16.732772 Si / 1000 Ang^3
#
#
#
# Elastic Constant Matrix: (Units=GPa)
#
#
# Indices 1 2 3 4 5 6 
#
# 1 88.0126 38.7040 48.8662 0.0000 0.0000 0.0000
# 2 38.7040 88.0126 48.8662 0.0000 0.0000 0.0000
# 3 48.8662 48.8662 109.7704 0.0000 0.0000 0.0000
# 4 0.0000 0.0000 0.0000 25.8529 0.0000 0.0000
# 5 0.0000 0.0000 0.0000 0.0000 25.8529 0.0000
# 6 0.0000 0.0000 0.0000 0.0000 0.0000 14.8191
#
#
#
# Elastic Compliance Matrix: (Units=1/GPa)
#
#
# Indices 1 2 3 4 5 6 
#
# 1 0.016149 -0.004131 -0.005350 0.000000 0.000000 0.000000
# 2 -0.004131 0.016149 -0.005350 0.000000 0.000000 0.000000
# 3 -0.005350 -0.005350 0.013873 0.000000 0.000000 0.000000
# 4 0.000000 0.000000 0.000000 0.038680 0.000000 0.000000
# 5 0.000000 0.000000 0.000000 0.000000 0.038680 0.000000
# 6 0.000000 0.000000 0.000000 0.000000 0.000000 0.067481
#
#
# Mechanical properties :
#
#
# Convention : Reuss Voigt Hill
#
# Bulk Modulus (GPa) = 60.57276 62.07429 61.32353
# Shear Modulus (GPa) = 22.10646 23.26226 22.68436
#
# Velocity S-wave (km/s) = 3.63870 3.73261 3.68596
# Velocity P-wave (km/s) = 7.34385 7.46689 7.40563
#
# Compressibility (1/GPa) = 0.01650907
#
# Stress axis : x y z
#
# Youngs Moduli (GPa) = 61.92267 61.92267 72.08141
#
# Poissons Ratio (x) = 0.25582 0.38563
# Poissons Ratio (y) = 0.25582 0.38563
# Poissons Ratio (z) = 0.33128 0.33129
#
# Static dielectric constant tensor:
#      x y z
#    x 3.031840 0.000000 0.000000 
#    y 0.000000 3.031840 0.000000 
#    z 0.000000 0.000000 3.397760 
# 
# 
# High freq. dielectric constant tensor:
#      x y z
#    x 1.628670 0.000000 0.000000 
#    y 0.000000 1.628670 0.000000 
#    z 0.000000 0.000000 1.660860 
# 
# From -- ./inp_files/2940.got.cif
#   From: 2010.03.12/outbox.cif.g09.slc.cpg/sg107_2_cif.got.tgz:2940.got - 2010.04.14 01:49:11.
