data_PCOD8307093
_publ_section_title
;
Structure prediction by ZEFSAII (Michael W. Deem and Ramdas Pophale) SiO2 
 PCOD8307093
Probable space group: P 4 N C 
;
_chemical_formula_sum "Si O2"
_cell_formula_units_Z 48
_cell_length_a 11.750826
_cell_length_b 11.750826
_cell_length_c 18.086024
_cell_angle_alpha 90.000000
_cell_angle_beta 90.000000
_cell_angle_gamma 90.000000
_cell_volume 2497.352769
_symmetry_space_group_name_H-M "P 4 N C "
_symmetry_group_IT_number 104
_symmetry_cell_setting 'tetragonal'
loop_
_space_group_symop_operation_xyz
x,y,z
-y,x,z
-x,-y,z
y,-x,z
1/2-x,1/2+y,1/2+z
1/2+x,1/2-y,1/2+z
1/2-y,1/2-x,1/2+z
1/2+y,1/2+x,1/2+z
loop_
_atom_site_type_symbol
_atom_site_label
_atom_site_fract_x
_atom_site_fract_y
_atom_site_fract_z
Si Si1 0.463432 0.681837 0.589310
Si Si2 0.462784 0.681447 0.419029
Si Si3 0.599255 0.083293 0.356668
Si Si4 0.463432 0.681837 0.953534
Si Si5 0.900745 0.583293 0.686176
Si Si6 0.818553 0.037216 0.623815
O O1 0.368074 0.587683 0.606632
O O2 0.454835 0.719738 0.504209
O O3 0.441863 0.788858 0.640085
O O4 0.367822 0.587100 0.401570
O O5 0.441387 0.787668 0.366419
O O6 0.711142 0.058137 0.402759
O O7 0.627766 0.060552 0.271422
O O8 0.500000 0.000000 0.384783
O O9 0.368074 0.587683 0.936212
O O10 0.454835 0.719738 0.038635
O O11 0.941387 0.712332 0.676425
O O12 0.000000 0.500000 0.658061
O O13 0.912900 0.132178 0.641274
#
# Coordination Sequence:
#
# PCOD8307093 Si02
#       6
#     8   8   8   8   8   8
#     4   9  20  40  64  88 113 147 195 246 292 338
#     4   9  20  40  64  88 113 147 195 246 292 338
#     4  11  25  39  55  86 125 158 191 231 284 349
#     4   9  20  40  64  88 113 147 195 246 292 338
#     4  11  25  39  55  86 125 158 191 231 284 349
#     4   9  20  40  64  88 113 147 195 246 292 338
#
# _framework density 19.220351000000001
#
# number of rings (size 3 to 8) (size 9 to 14) (size 15 to 20)
#    0.000    2.333    0.000    3.000    4.667    5.333 
#    0.000    3.333    0.000    0.000    0.000    0.000 
#    0.000    0.000    0.000    0.000    0.000    0.000 
#
# Total GULP energy -595369.880346 kJ/mol
# GULP energy per Si atom -12403.539174 kJ/mol
# Density = 1.917660 g / cm^3
# Si number density = 19.220351 Si / 1000 Ang^3
#
#
#
# Elastic Constant Matrix: (Units=GPa)
#
#
# Indices 1 2 3 4 5 6 
#
# 1 98.6991 36.1017 22.8334 0.0000 0.0000 0.0000
# 2 36.1017 98.6991 22.8334 0.0000 0.0000 0.0000
# 3 22.8334 22.8334 34.3473 0.0000 0.0000 0.0000
# 4 0.0000 0.0000 0.0000 18.5306 0.0000 0.0000
# 5 0.0000 0.0000 0.0000 0.0000 18.5306 0.0000
# 6 0.0000 0.0000 0.0000 0.0000 0.0000 20.2962
#
#
#
# Elastic Compliance Matrix: (Units=1/GPa)
#
#
# Indices 1 2 3 4 5 6 
#
# 1 0.012775 -0.003200 -0.006365 0.000000 0.000000 0.000000
# 2 -0.003200 0.012775 -0.006365 0.000000 0.000000 0.000000
# 3 -0.006365 -0.006365 0.037577 0.000000 0.000000 0.000000
# 4 0.000000 0.000000 0.000000 0.053965 0.000000 0.000000
# 5 0.000000 0.000000 0.000000 0.000000 0.053965 0.000000
# 6 0.000000 0.000000 0.000000 0.000000 0.000000 0.049270
#
#
# Mechanical properties :
#
#
# Convention : Reuss Voigt Hill
#
# Bulk Modulus (GPa) = 31.98343 43.92030 37.95187
# Shear Modulus (GPa) = 19.03966 21.46992 20.25479
#
# Velocity S-wave (km/s) = 3.15079 3.34584 3.24978
# Velocity P-wave (km/s) = 5.46929 6.15035 5.81979
#
# Compressibility (1/GPa) = 0.03126619
#
# Stress axis : x y z
#
# Youngs Moduli (GPa) = 78.27860 78.27860 26.61200
#
# Poissons Ratio (x) = 0.25051 0.16939
# Poissons Ratio (y) = 0.25051 0.16939
# Poissons Ratio (z) = 0.49825 0.49825
#
# Static dielectric constant tensor:
#      x y z
#    x 3.540480 0.000000 0.000000 
#    y 0.000000 3.540480 0.000000 
#    z 0.000000 0.000000 3.365740 
# 
# 
# High freq. dielectric constant tensor:
#      x y z
#    x 1.756110 0.000000 0.000000 
#    y 0.000000 1.756110 0.000000 
#    z 0.000000 0.000000 1.741170 
# 
# From -- ./inp_files/1410.got.cif
#   From: 2010.03.12/outbox.cif.g09.slc.cpg/sg104_cif.got.tgz:1410.got - 2010.04.14 01:44:05.
