data_PCOD8307357
_publ_section_title
;
Structure prediction by ZEFSAII (Michael W. Deem and Ramdas Pophale) SiO2 
 PCOD8307357
Probable space group: P 42 M C
;
_chemical_formula_sum "Si O2"
_cell_formula_units_Z 32
_cell_length_a 7.980804
_cell_length_b 7.980804
_cell_length_c 23.555383
_cell_angle_alpha 90.000000
_cell_angle_beta 90.000000
_cell_angle_gamma 90.000000
_cell_volume 1500.318486
_symmetry_space_group_name_H-M "P 42 M C"
_symmetry_group_IT_number 105
_symmetry_cell_setting 'tetragonal'
loop_
_space_group_symop_operation_xyz
x,y,z
-y,x,1/2+z
-x,-y,z
y,-x,1/2+z
-x,y,z
x,-y,z
-y,-x,1/2+z
y,x,1/2+z
loop_
_atom_site_type_symbol
_atom_site_label
_atom_site_fract_x
_atom_site_fract_y
_atom_site_fract_z
Si Si1 0.190614 0.309461 0.068530
Si Si2 0.812880 0.500000 0.497755
Si Si3 0.308291 0.500000 0.375181
Si Si4 0.691570 0.185567 0.310246
Si Si5 0.190412 0.808791 0.689488
O O1 0.197137 0.500000 0.048087
O O2 0.238211 0.302218 0.135105
O O3 0.000000 0.237552 0.059036
O O4 0.330338 0.210697 0.033558
O O5 0.694934 0.500000 0.443030
O O6 0.000000 0.500000 0.474246
O O7 0.500000 0.500000 0.354481
O O8 0.223155 0.669995 0.349500
O O9 0.500000 0.167588 0.328313
O O10 0.701185 0.241727 0.244347
O O11 0.777437 0.000000 0.318485
O O12 0.000000 0.772352 0.671211
O O13 0.217777 0.000000 0.707461
#
# Coordination Sequence:
#
# PCOD8307357 Si02
#       5
#     8   4   4   8   8
#     4  10  22  40  62  90 122 160 204 254 312 369
#     4  12  26  42  62  88 120 164 208 257 308 363
#     4  10  22  40  58  82 116 152 204 253 300 361
#     4   9  19  35  56  83 115 153 194 245 308 364
#     4   9  18  33  54  83 119 153 189 241 302 362
#
# _framework density 21.328807000000001
#
# number of rings (size 3 to 8) (size 9 to 14) (size 15 to 20)
#    0.000    2.250    0.000    1.875    3.500    3.500 
#    0.000    2.500    0.000    0.000    0.000    0.000 
#    0.000    0.000    0.000    0.000    0.000    0.000 
#
# Total GULP energy -396610.752988 kJ/mol
# GULP energy per Si atom -12394.086031 kJ/mol
# Density = 2.128026 g / cm^3
# Si number density = 21.328807 Si / 1000 Ang^3
#
#
#
# Elastic Constant Matrix: (Units=GPa)
#
#
# Indices 1 2 3 4 5 6 
#
# 1 83.4803 30.4887 40.7186 0.0000 0.0000 0.0000
# 2 30.4887 83.4803 40.7186 0.0000 0.0000 0.0000
# 3 40.7186 40.7186 112.8485 0.0000 0.0000 0.0000
# 4 0.0000 0.0000 0.0000 17.9307 0.0000 0.0000
# 5 0.0000 0.0000 0.0000 0.0000 17.9307 0.0000
# 6 0.0000 0.0000 0.0000 0.0000 0.0000 17.4974
#
#
#
# Elastic Compliance Matrix: (Units=1/GPa)
#
#
# Indices 1 2 3 4 5 6 
#
# 1 0.015347 -0.003524 -0.004266 0.000000 0.000000 0.000000
# 2 -0.003524 0.015347 -0.004266 0.000000 0.000000 0.000000
# 3 -0.004266 -0.004266 0.011940 0.000000 0.000000 0.000000
# 4 0.000000 0.000000 0.000000 0.055770 0.000000 0.000000
# 5 0.000000 0.000000 0.000000 0.000000 0.055770 0.000000
# 6 0.000000 0.000000 0.000000 0.000000 0.000000 0.057151
#
#
# Mechanical properties :
#
#
# Convention : Reuss Voigt Hill
#
# Bulk Modulus (GPa) = 53.99139 55.96234 54.97686
# Shear Modulus (GPa) = 20.69440 21.86395 21.27917
#
# Velocity S-wave (km/s) = 3.11827 3.20518 3.16202
# Velocity P-wave (km/s) = 6.19141 6.32396 6.25804
#
# Compressibility (1/GPa) = 0.01852147
#
# Stress axis : x y z
#
# Youngs Moduli (GPa) = 65.16054 65.16054 83.75278
#
# Poissons Ratio (x) = 0.22964 0.35728
# Poissons Ratio (y) = 0.22964 0.35728
# Poissons Ratio (z) = 0.27797 0.27797
#
# Static dielectric constant tensor:
#      x y z
#    x 3.908610 0.000000 0.000000 
#    y 0.000000 3.908610 0.000000 
#    z 0.000000 0.000000 3.583320 
# 
# 
# High freq. dielectric constant tensor:
#      x y z
#    x 1.829420 0.000000 0.000000 
#    y 0.000000 1.829420 0.000000 
#    z 0.000000 0.000000 1.823190 
# 
# From -- ./inp_files/3841.got.cif
#   From: 2010.03.12/outbox.cif.g09.slc.cpg/sg105_2_cif.got.tgz:3841.got - 2010.04.14 01:45:32.
