data_PCOD8307486
_publ_section_title
;
Structure prediction by ZEFSAII (Michael W. Deem and Ramdas Pophale) SiO2 
 PCOD8307486
Probable space group: I 4 M M
;
_chemical_formula_sum "Si O2"
_cell_formula_units_Z 128
_cell_length_a 17.586812
_cell_length_b 17.586812
_cell_length_c 23.998848
_cell_angle_alpha 90.000000
_cell_angle_beta 90.000000
_cell_angle_gamma 90.000000
_cell_volume 7422.746643
_symmetry_space_group_name_H-M "I 4 M M"
_symmetry_group_IT_number 107
_symmetry_cell_setting 'tetragonal'
loop_
_space_group_symop_operation_xyz
x,y,z
-y,x,z
-x,-y,z
y,-x,z
-x,y,z
x,-y,z
-y,-x,z
y,x,z
1/2+x,1/2+y,1/2+z
1/2-y,1/2+x,1/2+z
1/2-x,1/2-y,1/2+z
1/2+y,1/2-x,1/2+z
1/2-x,1/2+y,1/2+z
1/2+x,1/2-y,1/2+z
1/2-y,1/2-x,1/2+z
1/2+y,1/2+x,1/2+z
loop_
_atom_site_type_symbol
_atom_site_label
_atom_site_fract_x
_atom_site_fract_y
_atom_site_fract_z
Si Si1 0.762970 0.360113 0.011360
Si Si2 0.413309 0.290395 0.392835
Si Si3 0.814009 0.686199 0.324112
Si Si4 0.790395 0.913309 0.129887
Si Si5 0.279829 0.914706 0.011361
Si Si6 0.686200 0.814009 0.698609
Si Si7 0.788848 0.913577 0.628260
Si Si8 0.413577 0.288848 0.894460
O O1 0.722900 0.277101 0.011359
O O2 0.853751 0.348033 0.011361
O O3 0.737862 0.407840 0.064644
O O4 0.737864 0.407841 0.958076
O O5 0.500000 0.308486 0.377461
O O6 0.364413 0.364413 0.377009
O O7 0.387078 0.217218 0.357005
O O8 0.402563 0.272957 0.457816
O O9 0.749317 0.749317 0.324862
O O10 0.836744 0.663254 0.261360
O O11 0.887736 0.719486 0.355033
O O12 0.864413 0.864413 0.145713
O O13 0.772957 0.902563 0.064906
O O14 0.717219 0.887078 0.165717
O O15 0.808486 0.000000 0.145261
O O16 0.315294 0.000000 0.011361
O O17 0.749318 0.749318 0.697859
O O18 0.719486 0.887736 0.667686
O O19 0.863847 0.863847 0.639424
O O20 0.809682 0.000000 0.642486
O O21 0.500000 0.309682 0.880234
O O22 0.363847 0.363847 0.883297
#
# Coordination Sequence:
#
# PCOD8307486 Si02
#       8
#    16  16  16  16  16  16  16  16
#     4  10  17  31  53  74 102 137 176 211 245 300
#     4  10  19  31  50  76 105 135 167 205 249 299
#     4   9  18  33  52  72  95 130 177 217 244 284
#     4  10  19  31  50  76 105 135 167 205 249 299
#     4  10  18  29  51  78 103 132 169 212 253 291
#     4   9  18  33  52  72  95 130 177 217 244 284
#     4  10  20  33  53  79 105 134 167 208 258 309
#     4  10  20  33  53  79 105 134 167 208 258 309
#
# _framework density 17.244289999999999
#
# number of rings (size 3 to 8) (size 9 to 14) (size 15 to 20)
#    0.000    2.250    2.500    1.500    0.000    1.500 
#    0.000    0.000    0.000    8.250    0.000    8.750 
#    0.000    0.000    0.000    0.000    0.000    0.000 
#
# Total GULP energy -793655.092273 kJ/mol
# GULP energy per Si atom -12400.860817 kJ/mol
# Density = 1.720504 g / cm^3
# Si number density = 17.244290 Si / 1000 Ang^3
#
#
#
# Elastic Constant Matrix: (Units=GPa)
#
#
# Indices 1 2 3 4 5 6 
#
# 1 102.3548 56.3522 37.0023 0.0000 0.0000 0.0000
# 2 56.3522 102.3548 37.0023 0.0000 0.0000 0.0000
# 3 37.0023 37.0023 123.7740 0.0000 0.0000 0.0000
# 4 0.0000 0.0000 0.0000 8.7673 0.0000 0.0000
# 5 0.0000 0.0000 0.0000 0.0000 8.7673 0.0000
# 6 0.0000 0.0000 0.0000 0.0000 0.0000 16.9936
#
#
#
# Elastic Compliance Matrix: (Units=1/GPa)
#
#
# Indices 1 2 3 4 5 6 
#
# 1 0.014530 -0.007208 -0.002189 0.000000 0.000000 0.000000
# 2 -0.007208 0.014530 -0.002189 0.000000 0.000000 0.000000
# 3 -0.002189 -0.002189 0.009388 0.000000 0.000000 0.000000
# 4 0.000000 0.000000 0.000000 0.114060 0.000000 0.000000
# 5 0.000000 0.000000 0.000000 0.000000 0.114060 0.000000
# 6 0.000000 0.000000 0.000000 0.000000 0.000000 0.058846
#
#
# Mechanical properties :
#
#
# Convention : Reuss Voigt Hill
#
# Bulk Modulus (GPa) = 65.46264 65.46633 65.46449
# Shear Modulus (GPa) = 14.13723 20.11412 17.12567
#
# Velocity S-wave (km/s) = 2.86636 3.41900 3.15480
# Velocity P-wave (km/s) = 6.99993 7.32342 7.16350
#
# Compressibility (1/GPa) = 0.01527589
#
# Stress axis : x y z
#
# Youngs Moduli (GPa) = 68.82454 68.82454 106.51992
#
# Poissons Ratio (x) = 0.49610 0.23315
# Poissons Ratio (y) = 0.49610 0.23315
# Poissons Ratio (z) = 0.15064 0.15064
#
# Static dielectric constant tensor:
#      x y z
#    x 3.035970 0.000000 0.000000 
#    y 0.000000 3.035970 0.000000 
#    z 0.000000 0.000000 3.406040 
# 
# 
# High freq. dielectric constant tensor:
#      x y z
#    x 1.646500 0.000000 0.000000 
#    y 0.000000 1.646500 0.000000 
#    z 0.000000 0.000000 1.675340 
# 
# From -- ./inp_files/5454.got.cif
#   From: 2010.03.12/outbox.cif.g09.slc.cpg/sg107_3_cif.got.tgz:5454.got - 2010.04.14 01:49:11.
