data_PCOD8307595
_publ_section_title
;
Structure prediction by ZEFSAII (Michael W. Deem and Ramdas Pophale) SiO2 
 PCOD8307595
Probable space group: I 4 M M
;
_chemical_formula_sum "Si O2"
_cell_formula_units_Z 96
_cell_length_a 21.332949
_cell_length_b 21.332949
_cell_length_c 11.775414
_cell_angle_alpha 90.000000
_cell_angle_beta 90.000000
_cell_angle_gamma 90.000000
_cell_volume 5358.928655
_symmetry_space_group_name_H-M "I 4 M M"
_symmetry_group_IT_number 107
_symmetry_cell_setting 'tetragonal'
loop_
_space_group_symop_operation_xyz
x,y,z
-y,x,z
-x,-y,z
y,-x,z
-x,y,z
x,-y,z
-y,-x,z
y,x,z
1/2+x,1/2+y,1/2+z
1/2-y,1/2+x,1/2+z
1/2-x,1/2-y,1/2+z
1/2+y,1/2-x,1/2+z
1/2-x,1/2+y,1/2+z
1/2+x,1/2-y,1/2+z
1/2-y,1/2-x,1/2+z
1/2+y,1/2+x,1/2+z
loop_
_atom_site_type_symbol
_atom_site_label
_atom_site_fract_x
_atom_site_fract_y
_atom_site_fract_z
Si Si1 0.384626 0.212287 0.705320
Si Si2 0.072327 0.317536 0.956924
Si Si3 0.745149 0.845223 0.766188
Si Si4 0.072277 0.652812 0.419791
Si Si5 0.773737 0.126463 0.526938
Si Si6 0.667685 0.570922 0.822915
O O1 0.411940 0.208035 0.580391
O O2 0.312350 0.192592 0.710301
O O3 0.427260 0.167535 0.785707
O O4 0.389712 0.283221 0.748794
O O5 0.109999 0.276019 0.866608
O O6 0.087677 0.392071 0.945115
O O7 0.000000 0.308430 0.929668
O O8 0.796373 0.796373 0.814062
O O9 0.774879 0.886080 0.662354
O O10 0.117929 0.702922 0.482186
O O11 0.000000 0.651502 0.463951
O O12 0.803578 0.196423 0.502914
O O13 0.815281 0.075951 0.457349
O O14 0.668094 0.500000 0.782420
O O15 0.599059 0.599059 0.800610
#
# Coordination Sequence:
#
# PCOD8307595 Si02
#       6
#    16  16  16  16  16  16
#     4  10  19  37  54  77 104 138 178 225 273 319
#     4  11  23  36  52  79 113 146 182 226 272 324
#     4  10  21  35  55  82 108 139 179 229 281 328
#     4  10  20  35  55  74 102 146 187 226 269 321
#     4   9  17  33  54  80 105 131 175 227 281 326
#     4  10  20  33  54  79 106 141 174 213 265 322
#
# _framework density 17.914027999999998
#
# number of rings (size 3 to 8) (size 9 to 14) (size 15 to 20)
#    0.000    2.000    1.667    3.500    0.000    7.167 
#    0.000    0.000    0.000    2.000    0.000    0.000 
#    0.000    0.333    0.000    0.333    0.000    0.000 
#
# Total GULP energy -594879.308914 kJ/mol
# GULP energy per Si atom -12393.318936 kJ/mol
# Density = 1.787325 g / cm^3
# Si number density = 17.914028 Si / 1000 Ang^3
#
#
#
# Elastic Constant Matrix: (Units=GPa)
#
#
# Indices 1 2 3 4 5 6 
#
# 1 88.0703 54.8687 43.2905 0.0000 0.0000 -0.0002
# 2 54.8687 88.0703 43.2905 0.0000 0.0000 0.0002
# 3 43.2905 43.2905 106.8593 0.0000 0.0000 0.0000
# 4 0.0000 0.0000 0.0000 18.2840 0.0000 0.0000
# 5 0.0000 0.0000 0.0000 0.0000 18.2840 0.0000
# 6 -0.0002 0.0002 0.0000 0.0000 0.0000 17.8618
#
#
#
# Elastic Compliance Matrix: (Units=1/GPa)
#
#
# Indices 1 2 3 4 5 6 
#
# 1 0.019695 -0.010424 -0.003756 0.000000 0.000000 0.000000
# 2 -0.010424 0.019695 -0.003756 0.000000 0.000000 0.000000
# 3 -0.003756 -0.003756 0.012401 0.000000 0.000000 0.000000
# 4 0.000000 0.000000 0.000000 0.054693 0.000000 0.000000
# 5 0.000000 0.000000 0.000000 0.000000 0.054693 0.000000
# 6 0.000000 0.000000 0.000000 0.000000 0.000000 0.055985
#
#
# Mechanical properties :
#
#
# Convention : Reuss Voigt Hill
#
# Bulk Modulus (GPa) = 62.81473 62.87770 62.84622
# Shear Modulus (GPa) = 19.35433 20.32262 19.83848
#
# Velocity S-wave (km/s) = 3.29051 3.37182 3.33141
# Velocity P-wave (km/s) = 7.04111 7.09470 7.06796
#
# Compressibility (1/GPa) = 0.01591983
#
# Stress axis : x y z
#
# Youngs Moduli (GPa) = 50.77423 50.77423 80.63729
#
# Poissons Ratio (x) = 0.52927 0.30286
# Poissons Ratio (y) = 0.52927 0.30286
# Poissons Ratio (z) = 0.19070 0.19070
#
# Static dielectric constant tensor:
#      x y z
#    x 3.216200 0.000000 0.000000 
#    y 0.000000 3.216200 0.000000 
#    z 0.000000 0.000000 3.398620 
# 
# 
# High freq. dielectric constant tensor:
#      x y z
#    x 1.678760 0.000000 0.000000 
#    y 0.000000 1.678760 0.000000 
#    z 0.000000 0.000000 1.695510 
# 
# From -- ./inp_files/2426.got.cif
#   From: 2010.03.12/outbox.cif.g09.slc.cpg/sg107_2_cif.got.tgz:2426.got - 2010.04.14 01:49:11.
