data_PCOD8307553
_publ_section_title
;
Structure prediction by ZEFSAII (Michael W. Deem and Ramdas Pophale) SiO2 
 PCOD8307553
Probable space group: I 4 M M
;
_chemical_formula_sum "Si O2"
_cell_formula_units_Z 80
_cell_length_a 13.417201
_cell_length_b 13.417201
_cell_length_c 25.868517
_cell_angle_alpha 90.000000
_cell_angle_beta 90.000000
_cell_angle_gamma 90.000000
_cell_volume 4656.883611
_symmetry_space_group_name_H-M "I 4 M M"
_symmetry_group_IT_number 107
_symmetry_cell_setting 'tetragonal'
loop_
_space_group_symop_operation_xyz
x,y,z
-y,x,z
-x,-y,z
y,-x,z
-x,y,z
x,-y,z
-y,-x,z
y,x,z
1/2+x,1/2+y,1/2+z
1/2-y,1/2+x,1/2+z
1/2-x,1/2-y,1/2+z
1/2+y,1/2-x,1/2+z
1/2-x,1/2+y,1/2+z
1/2+x,1/2-y,1/2+z
1/2-y,1/2-x,1/2+z
1/2+y,1/2+x,1/2+z
loop_
_atom_site_type_symbol
_atom_site_label
_atom_site_fract_x
_atom_site_fract_y
_atom_site_fract_z
Si Si1 0.221801 0.617041 0.479520
Si Si2 0.117041 0.721801 0.389881
Si Si3 0.110987 0.381947 0.582350
Si Si4 0.776367 0.617617 0.684701
Si Si5 0.618053 0.889013 0.787051
O O1 0.244737 0.500000 0.479206
O O2 0.325721 0.674280 0.470481
O O3 0.143071 0.643071 0.434701
O O4 0.174857 0.653806 0.533447
O O5 0.174280 0.825721 0.398920
O O6 0.153806 0.674857 0.335955
O O7 0.000000 0.744737 0.390195
O O8 0.103117 0.500000 0.582268
O O9 0.162823 0.345487 0.634811
O O10 0.000000 0.335533 0.579354
O O11 0.757859 0.500000 0.684701
O O12 0.668191 0.668191 0.684701
O O13 0.837177 0.654513 0.734590
O O14 0.500000 0.896882 0.787133
O O15 0.664467 0.000000 0.790047
#
# Coordination Sequence:
#
# PCOD8307553 Si02
#       5
#    16  16  16  16  16
#     4  10  20  33  50  73 100 130 164 201 243 292
#     4  10  20  33  50  73 100 130 164 201 243 292
#     4   9  17  30  48  68  91 121 157 198 242 284
#     4  10  19  30  45  67  96 128 161 197 240 291
#     4   9  17  30  48  68  91 121 157 198 242 284
#
# _framework density 17.178871000000001
#
# number of rings (size 3 to 8) (size 9 to 14) (size 15 to 20)
#    0.000    2.400    0.000    3.000    0.000    5.000 
#    0.000    0.000    0.000    7.200    0.000    0.000 
#    0.000   30.400    0.000    0.000    0.000    0.000 
#
# Total GULP energy -496026.196970 kJ/mol
# GULP energy per Si atom -12400.654924 kJ/mol
# Density = 1.713977 g / cm^3
# Si number density = 17.178871 Si / 1000 Ang^3
#
#
#
# Elastic Constant Matrix: (Units=GPa)
#
#
# Indices 1 2 3 4 5 6 
#
# 1 81.4023 40.6852 35.2586 0.0000 0.0000 0.0000
# 2 40.6852 81.4023 35.2586 0.0000 0.0000 0.0000
# 3 35.2586 35.2586 145.5372 0.0000 0.0000 0.0000
# 4 0.0000 0.0000 0.0000 22.8533 0.0000 0.0000
# 5 0.0000 0.0000 0.0000 0.0000 22.8533 0.0000
# 6 0.0000 0.0000 0.0000 0.0000 0.0000 16.2836
#
#
#
# Elastic Compliance Matrix: (Units=1/GPa)
#
#
# Indices 1 2 3 4 5 6 
#
# 1 0.017042 -0.007518 -0.002307 0.000000 0.000000 0.000000
# 2 -0.007518 0.017042 -0.002307 0.000000 0.000000 0.000000
# 3 -0.002307 -0.002307 0.007989 0.000000 0.000000 0.000000
# 4 0.000000 0.000000 0.000000 0.043757 0.000000 0.000000
# 5 0.000000 0.000000 0.000000 0.000000 0.043757 0.000000
# 6 0.000000 0.000000 0.000000 0.000000 0.000000 0.061412
#
#
# Mechanical properties :
#
#
# Convention : Reuss Voigt Hill
#
# Bulk Modulus (GPa) = 56.15726 58.97184 57.56455
# Shear Modulus (GPa) = 22.60404 25.54065 24.07235
#
# Velocity S-wave (km/s) = 3.63134 3.86002 3.74742
# Velocity P-wave (km/s) = 7.09527 7.36675 7.23228
#
# Compressibility (1/GPa) = 0.01780714
#
# Stress axis : x y z
#
# Youngs Moduli (GPa) = 58.67990 58.67990 125.17200
#
# Poissons Ratio (x) = 0.44116 0.28880
# Poissons Ratio (y) = 0.44116 0.28880
# Poissons Ratio (z) = 0.13539 0.13539
#
# Static dielectric constant tensor:
#      x y z
#    x 3.009330 0.000000 0.000000 
#    y 0.000000 3.009330 0.000000 
#    z 0.000000 0.000000 3.508350 
# 
# 
# High freq. dielectric constant tensor:
#      x y z
#    x 1.643880 0.000000 0.000000 
#    y 0.000000 1.643880 0.000000 
#    z 0.000000 0.000000 1.685850 
# 
# From -- ./inp_files/4590.got.cif
#   From: 2010.03.12/outbox.cif.g09.slc.cpg/sg107_3_cif.got.tgz:4590.got - 2010.04.14 01:49:11.
