data_PCOD8307954
_publ_section_title
;
Structure prediction by ZEFSAII (Michael W. Deem and Ramdas Pophale) SiO2 
 PCOD8307954
Probable space group: I 41 M D
;
_chemical_formula_sum "Si O2"
_cell_formula_units_Z 112
_cell_length_a 31.971473
_cell_length_b 31.971473
_cell_length_c 5.220526
_cell_angle_alpha 90.000000
_cell_angle_beta 90.000000
_cell_angle_gamma 90.000000
_cell_volume 5336.291612
_symmetry_space_group_name_H-M "I 41 M D"
_symmetry_group_IT_number 109
_symmetry_cell_setting 'tetragonal'
loop_
_space_group_symop_operation_xyz
x,y,z
-y,1/2+x,1/4+z
-x,-y,z
y,1/2-x,1/4+z
-x,y,z
x,-y,z
-y,1/2-x,1/4+z
y,1/2+x,1/4+z
1/2+x,1/2+y,1/2+z
1/2-y,x,3/4+z
1/2-x,1/2-y,1/2+z
1/2+y,-x,3/4+z
1/2-x,1/2+y,1/2+z
1/2+x,1/2-y,1/2+z
1/2-y,-x,3/4+z
1/2+y,x,3/4+z
loop_
_atom_site_type_symbol
_atom_site_label
_atom_site_fract_x
_atom_site_fract_y
_atom_site_fract_z
Si Si1 0.654206 0.951558 0.956430
Si Si2 0.715751 0.609671 0.068270
Si Si3 0.411716 0.309761 0.216380
Si Si4 0.345233 0.167548 0.711583
Si Si5 0.302590 0.218821 0.065649
Si Si6 0.110147 0.086744 0.126513
Si Si7 0.858363 0.047958 0.604065
O O1 0.676054 0.944037 0.684077
O O2 0.606526 0.935662 0.921418
O O3 0.653327 0.000000 0.025009
O O4 0.679293 0.928013 0.183596
O O5 0.760708 0.591225 0.013387
O O6 0.709171 0.649910 0.889793
O O7 0.684290 0.571261 0.029786
O O8 0.706460 0.627624 0.351864
O O9 0.366322 0.331735 0.246554
O O10 0.301452 0.187770 0.818930
O O11 0.374794 0.143095 0.915311
O O12 0.295632 0.267833 0.015816
O O13 0.116531 0.067860 0.842666
O O14 0.114274 0.051655 0.345694
O O15 0.848535 0.000000 0.667026
#
# Coordination Sequence:
#
# PCOD8307954 Si02
#       7
#    16  16  16  16  16  16  16
#     4  11  24  44  68  99 128 168 219 267 333 413
#     4  11  24  41  61  87 129 179 220 282 345 387
#     4  11  25  38  67  91 132 175 223 283 328 395
#     4  10  22  41  62  86 123 178 231 266 335 396
#     4  12  27  38  58  91 131 175 236 294 330 383
#     4  10  21  41  68  94 124 171 206 263 324 401
#     4  11  23  41  67  99 129 167 220 266 325 407
#
# _framework density 20.988358999999999
#
# number of rings (size 3 to 8) (size 9 to 14) (size 15 to 20)
#    0.000    1.143    1.429    5.143   12.000    1.143 
#    0.000    0.000    0.000    2.571    0.000    0.000 
#    0.000    0.000    0.000    0.000    0.000    0.000 
#
# Total GULP energy -693916.871376 kJ/mol
# GULP energy per Si atom -12391.372703 kJ/mol
# Density = 2.094059 g / cm^3
# Si number density = 20.988359 Si / 1000 Ang^3
#
#
#
# Elastic Constant Matrix: (Units=GPa)
#
#
# Indices 1 2 3 4 5 6 
#
# 1 108.1133 43.7860 25.6254 0.0000 0.0000 0.0000
# 2 43.7860 108.1133 25.6254 0.0000 0.0000 0.0000
# 3 25.6254 25.6254 91.7283 0.0000 0.0000 0.0000
# 4 0.0000 0.0000 0.0000 29.7643 0.0000 0.0000
# 5 0.0000 0.0000 0.0000 0.0000 29.7643 0.0000
# 6 0.0000 0.0000 0.0000 0.0000 0.0000 18.3888
#
#
#
# Elastic Compliance Matrix: (Units=1/GPa)
#
#
# Indices 1 2 3 4 5 6 
#
# 1 0.011407 -0.004139 -0.002031 0.000000 0.000000 0.000000
# 2 -0.004139 0.011407 -0.002031 0.000000 0.000000 0.000000
# 3 -0.002031 -0.002031 0.012036 0.000000 0.000000 0.000000
# 4 0.000000 0.000000 0.000000 0.033597 0.000000 0.000000
# 5 0.000000 0.000000 0.000000 0.000000 0.033597 0.000000
# 6 0.000000 0.000000 0.000000 0.000000 0.000000 0.054381
#
#
# Mechanical properties :
#
#
# Convention : Reuss Voigt Hill
#
# Bulk Modulus (GPa) = 54.19759 55.33649 54.76704
# Shear Modulus (GPa) = 27.93681 29.77801 28.85741
#
# Velocity S-wave (km/s) = 3.65233 3.77076 3.71202
# Velocity P-wave (km/s) = 6.60793 6.73653 6.67254
#
# Compressibility (1/GPa) = 0.01845101
#
# Stress axis : x y z
#
# Youngs Moduli (GPa) = 87.66584 87.66584 83.08227
#
# Poissons Ratio (x) = 0.36281 0.16870
# Poissons Ratio (y) = 0.36281 0.16870
# Poissons Ratio (z) = 0.17801 0.17801
#
# Static dielectric constant tensor:
#      x y z
#    x 3.744580 0.000000 0.000000 
#    y 0.000000 3.744580 0.000000 
#    z 0.000000 0.000000 3.927310 
# 
# 
# High freq. dielectric constant tensor:
#      x y z
#    x 1.810260 0.000000 0.000000 
#    y 0.000000 1.810260 0.000000 
#    z 0.000000 0.000000 1.836320 
# 
# From -- ./inp_files/723.got.cif
#   From: 2010.03.12/outbox.cif.g09.slc.cpg/sg109_1_cif.got.tgz:723.got - 2010.04.14 01:55:16.
