data_PCOD8307048
_publ_section_title
;
Structure prediction by ZEFSAII (Michael W. Deem and Ramdas Pophale) SiO2 
 PCOD8307048
Probable space group: P 4 N C 
;
_chemical_formula_sum "Si O2"
_cell_formula_units_Z 64
_cell_length_a 17.808425
_cell_length_b 17.808425
_cell_length_c 7.614552
_cell_angle_alpha 90.000000
_cell_angle_beta 90.000000
_cell_angle_gamma 90.000000
_cell_volume 2414.879029
_symmetry_space_group_name_H-M "P 4 N C "
_symmetry_group_IT_number 104
_symmetry_cell_setting 'tetragonal'
loop_
_space_group_symop_operation_xyz
x,y,z
-y,x,z
-x,-y,z
y,-x,z
1/2-x,1/2+y,1/2+z
1/2+x,1/2-y,1/2+z
1/2-y,1/2-x,1/2+z
1/2+y,1/2+x,1/2+z
loop_
_atom_site_type_symbol
_atom_site_label
_atom_site_fract_x
_atom_site_fract_y
_atom_site_fract_z
Si Si1 0.884373 0.983938 0.256200
Si Si2 0.775864 0.778170 0.186196
Si Si3 0.612077 0.466312 0.341493
Si Si4 0.638547 0.953254 0.073127
Si Si5 0.001186 0.361042 0.580643
Si Si6 0.585445 0.755756 0.884142
Si Si7 0.753322 0.872203 0.842862
Si Si8 0.355287 0.896470 0.241316
O O1 0.802692 0.979683 0.338897
O O2 0.937173 0.916522 0.323389
O O3 0.881841 0.975589 0.049090
O O4 0.781926 0.832059 0.361298
O O5 0.790561 0.826943 0.010593
O O6 0.688476 0.752647 0.186038
O O7 0.833585 0.708970 0.209584
O O8 0.591925 0.548875 0.272550
O O9 0.689873 0.435037 0.268870
O O10 0.676026 0.916026 0.244277
O O11 0.677079 0.916364 0.899501
O O12 0.648205 0.043906 0.079282
O O13 0.548683 0.936743 0.070713
O O14 0.057131 0.344774 0.417922
O O15 0.059256 0.361176 0.743807
O O16 0.937283 0.293222 0.573884
#
# Coordination Sequence:
#
# PCOD8307048 Si02
#       8
#     8   8   8   8   8   8   8   8
#     4   9  17  30  54  95 133 163 208 271 328 387
#     4  11  23  42  62  97 132 167 215 274 332 398
#     4   9  18  32  58  94 122 154 205 262 313 374
#     4  10  22  38  61  91 128 178 217 272 342 389
#     4  11  24  45  62  96 130 181 225 286 337 399
#     4  10  21  36  64  92 133 173 213 272 341 408
#     4  11  22  40  63  93 135 169 208 268 333 400
#     4  11  26  43  69  95 132 177 236 282 331 404
#
# _framework density 26.502361000000001
#
# number of rings (size 3 to 8) (size 9 to 14) (size 15 to 20)
#    0.000    1.750    3.750    1.875    5.250    4.000 
#    0.000    0.000    0.000    0.000    0.000    0.000 
#    0.000    0.000    0.000    0.000    0.000    0.000 
#
# Total GULP energy -792867.284695 kJ/mol
# GULP energy per Si atom -12388.551323 kJ/mol
# Density = 2.644204 g / cm^3
# Si number density = 26.502361 Si / 1000 Ang^3
#
#
#
# Elastic Constant Matrix: (Units=GPa)
#
#
# Indices 1 2 3 4 5 6 
#
# 1 -42.2287 228.4796 0.4259 0.0000 0.0000 0.0000
# 2 228.4796 -42.2287 0.4259 0.0000 0.0000 0.0000
# 3 0.4259 0.4259 40.0305 0.0000 0.0000 0.0000
# 4 0.0000 0.0000 0.0000 23.5994 0.0000 0.0000
# 5 0.0000 0.0000 0.0000 0.0000 23.5994 0.0000
# 6 0.0000 0.0000 0.0000 0.0000 0.0000 30.4585
#
#
#
# Elastic Compliance Matrix: (Units=1/GPa)
#
#
# Indices 1 2 3 4 5 6 
#
# 1 0.000838 0.004532 -0.000057 0.000000 0.000000 0.000000
# 2 0.004532 0.000838 -0.000057 0.000000 0.000000 0.000000
# 3 -0.000057 -0.000057 0.024982 0.000000 0.000000 0.000000
# 4 0.000000 0.000000 0.000000 0.042374 0.000000 0.000000
# 5 0.000000 0.000000 0.000000 0.000000 0.042374 0.000000
# 6 0.000000 0.000000 0.000000 0.000000 0.000000 0.032832
#
#
# Mechanical properties :
#
#
# Convention : Reuss Voigt Hill
#
# Bulk Modulus (GPa) = 28.17506 46.02623 37.10065
# Shear Modulus (GPa) = 33.95980 -2.71910 15.62035
#
# Velocity S-wave (km/s) = 3.58353 -1.01401 2.43038
# Velocity P-wave (km/s) = 5.27034 4.00420 4.68028
#
# Compressibility (1/GPa) = 0.03549238
#
# Stress axis : x y z
#
# Youngs Moduli (GPa) = 1193.78065 1193.78065 40.02852
#
# Poissons Ratio (x) = -5.40984 0.00229
# Poissons Ratio (y) = -5.40984 0.00229
# Poissons Ratio (z) = 0.06820 0.06820
#
# Static dielectric constant tensor:
#      x y z
#    x 5.440740 0.000000 0.000000 
#    y 0.000000 5.440740 0.000000 
#    z 0.000000 0.000000 4.739540 
# 
# 
# High freq. dielectric constant tensor:
#      x y z
#    x 2.070200 0.000000 0.000000 
#    y 0.000000 2.070200 0.000000 
#    z 0.000000 0.000000 2.055110 
# 
# From -- ./inp_files/1090.got.cif
#   From: 2010.03.12/outbox.cif.g09.slc.cpg/sg104_cif.got.tgz:1090.got - 2010.04.14 01:44:05.
