data_PCOD8307143
_publ_section_title
;
Structure prediction by ZEFSAII (Michael W. Deem and Ramdas Pophale) SiO2 
 PCOD8307143
Probable space group: P 42 M C
;
_chemical_formula_sum "Si O2"
_cell_formula_units_Z 46
_cell_length_a 16.641536
_cell_length_b 16.641536
_cell_length_c 9.465928
_cell_angle_alpha 90.000000
_cell_angle_beta 90.000000
_cell_angle_gamma 90.000000
_cell_volume 2621.500920
_symmetry_space_group_name_H-M "P 42 M C"
_symmetry_group_IT_number 105
_symmetry_cell_setting 'tetragonal'
loop_
_space_group_symop_operation_xyz
x,y,z
-y,x,1/2+z
-x,-y,z
y,-x,1/2+z
-x,y,z
x,-y,z
-y,-x,1/2+z
y,x,1/2+z
loop_
_atom_site_type_symbol
_atom_site_label
_atom_site_fract_x
_atom_site_fract_y
_atom_site_fract_z
Si Si1 0.091132 0.177195 0.911250
Si Si2 0.290010 0.846634 0.646147
Si Si3 0.412316 0.214869 0.424431
Si Si4 0.910298 0.745009 0.426471
Si Si5 0.500000 0.500000 0.190903
Si Si6 0.713683 0.172267 0.202022
Si Si7 0.500000 0.628659 0.440841
O O1 0.160031 0.109098 0.901909
O O2 0.100921 0.238387 0.780838
O O3 0.000000 0.141284 0.908212
O O4 0.104296 0.225457 0.055312
O O5 0.368649 0.824563 0.558339
O O6 0.307267 0.901090 0.783234
O O7 0.253966 0.764272 0.707684
O O8 0.500000 0.174174 0.418214
O O9 0.369652 0.191988 0.278054
O O10 0.421402 0.312336 0.440286
O O11 0.852972 0.701695 0.540113
O O12 0.000000 0.738883 0.482486
O O13 0.500000 0.576796 0.295879
O O14 0.423081 0.500000 0.085698
#
# Coordination Sequence:
#
# PCOD8307143 Si02
#       7
#     8   8   8   8   2   8   4
#     4   9  17  31  51  75 106 142 173 215 270 330
#     4   9  18  33  51  75 104 137 180 222 260 317
#     4   9  20  34  55  77  96 137 187 216 253 307
#     4  10  19  31  51  78 106 140 176 224 282 322
#     4  10  20  42  52  90 132 134 164 194 284 334
#     4   9  18  33  51  75 104 137 180 222 260 317
#     4   9  22  36  58  82 115 150 164 206 263 328
#
# _framework density 17.5472
#
# number of rings (size 3 to 8) (size 9 to 14) (size 15 to 20)
#    0.522    2.261    0.000    2.087    2.435    0.348 
#    0.000    0.870    0.000   26.087    0.000    0.000 
#    0.000    0.000    0.000    0.000    0.000    0.000 
#
# Total GULP energy -569945.535726 kJ/mol
# GULP energy per Si atom -12390.120342 kJ/mol
# Density = 1.750726 g / cm^3
# Si number density = 17.547200 Si / 1000 Ang^3
#
#
#
# Elastic Constant Matrix: (Units=GPa)
#
#
# Indices 1 2 3 4 5 6 
#
# 1 86.0335 27.9074 29.2275 0.0000 0.0000 0.0000
# 2 27.9074 86.0335 29.2275 0.0000 0.0000 0.0000
# 3 29.2275 29.2275 111.3318 0.0000 0.0000 0.0000
# 4 0.0000 0.0000 0.0000 21.6473 0.0000 0.0000
# 5 0.0000 0.0000 0.0000 0.0000 21.6473 0.0000
# 6 0.0000 0.0000 0.0000 0.0000 0.0000 17.5968
#
#
#
# Elastic Compliance Matrix: (Units=1/GPa)
#
#
# Indices 1 2 3 4 5 6 
#
# 1 0.013673 -0.003531 -0.002663 0.000000 0.000000 0.000000
# 2 -0.003531 0.013673 -0.002663 0.000000 0.000000 0.000000
# 3 -0.002663 -0.002663 0.010380 0.000000 0.000000 0.000000
# 4 0.000000 0.000000 0.000000 0.046195 0.000000 0.000000
# 5 0.000000 0.000000 0.000000 0.000000 0.046195 0.000000
# 6 0.000000 0.000000 0.000000 0.000000 0.000000 0.056829
#
#
# Mechanical properties :
#
#
# Convention : Reuss Voigt Hill
#
# Bulk Modulus (GPa) = 49.96370 50.68039 50.32204
# Shear Modulus (GPa) = 23.65976 25.31403 24.48690
#
# Velocity S-wave (km/s) = 3.67597 3.80231 3.73968
# Velocity P-wave (km/s) = 6.82296 6.94419 6.88384
#
# Compressibility (1/GPa) = 0.02001453
#
# Stress axis : x y z
#
# Youngs Moduli (GPa) = 73.13557 73.13557 96.33720
#
# Poissons Ratio (x) = 0.25822 0.25651
# Poissons Ratio (y) = 0.25822 0.25651
# Poissons Ratio (z) = 0.19474 0.19474
#
# Static dielectric constant tensor:
#      x y z
#    x 3.032600 0.000000 0.000000 
#    y 0.000000 3.032600 0.000000 
#    z 0.000000 0.000000 3.469780 
# 
# 
# High freq. dielectric constant tensor:
#      x y z
#    x 1.653920 0.000000 0.000000 
#    y 0.000000 1.653920 0.000000 
#    z 0.000000 0.000000 1.697170 
# 
# From -- ./inp_files/1030.got.cif
#   From: 2010.03.12/outbox.cif.g09.slc.cpg/sg105_1_cif.got.tgz:1030.got - 2010.04.14 01:45:32.
