data_PCOD8307937
_publ_section_title
;
Structure prediction by ZEFSAII (Michael W. Deem and Ramdas Pophale) SiO2 
 PCOD8307937
Probable space group: I 41 M D
;
_chemical_formula_sum "Si O2"
_cell_formula_units_Z 64
_cell_length_a 22.551487
_cell_length_b 22.551487
_cell_length_c 5.328307
_cell_angle_alpha 90.000000
_cell_angle_beta 90.000000
_cell_angle_gamma 90.000000
_cell_volume 2709.814778
_symmetry_space_group_name_H-M "I 41 M D"
_symmetry_group_IT_number 109
_symmetry_cell_setting 'tetragonal'
loop_
_space_group_symop_operation_xyz
x,y,z
-y,1/2+x,1/4+z
-x,-y,z
y,1/2-x,1/4+z
-x,y,z
x,-y,z
-y,1/2-x,1/4+z
y,1/2+x,1/4+z
1/2+x,1/2+y,1/2+z
1/2-y,x,3/4+z
1/2-x,1/2-y,1/2+z
1/2+y,-x,3/4+z
1/2-x,1/2+y,1/2+z
1/2+x,1/2-y,1/2+z
1/2-y,-x,3/4+z
1/2+y,x,3/4+z
loop_
_atom_site_type_symbol
_atom_site_label
_atom_site_fract_x
_atom_site_fract_y
_atom_site_fract_z
Si Si1 0.433556 0.624207 0.229980
Si Si2 0.262229 0.433569 0.960787
Si Si3 0.338719 0.255182 0.601341
Si Si4 0.132647 0.874869 0.251444
O O1 0.500000 0.598147 0.249287
O O2 0.436258 0.693014 0.157242
O O3 0.401733 0.611464 0.493967
O O4 0.400070 0.594857 0.990877
O O5 0.286180 0.500000 0.009962
O O6 0.274469 0.392855 0.202880
O O7 0.300869 0.403659 0.732902
O O8 0.298779 0.200775 0.679558
O O9 0.362614 0.303254 0.804645
#
# Coordination Sequence:
#
# PCOD8307937 Si02
#       4
#    16  16  16  16
#     4  10  22  39  61  86 117 158 204 252 307 375
#     4  10  21  37  58  89 124 160 203 254 316 383
#     4  11  21  36  61  94 131 170 212 265 329 403
#     4  11  21  38  60  88 122 160 203 253 314 375
#
# _framework density 23.617851000000002
#
# number of rings (size 3 to 8) (size 9 to 14) (size 15 to 20)
#    0.000    1.500    0.000    6.750    0.000    3.000 
#    0.000   10.000    0.000    4.500    0.000    0.000 
#    0.000    0.000    0.000    0.000    0.000    0.000 
#
# Total GULP energy -396549.873953 kJ/mol
# GULP energy per Si atom -12392.183561 kJ/mol
# Density = 2.356410 g / cm^3
# Si number density = 23.617851 Si / 1000 Ang^3
#
#
#
# Elastic Constant Matrix: (Units=GPa)
#
#
# Indices 1 2 3 4 5 6 
#
# 1 56.2229 6.7678 25.4602 0.0000 0.0000 0.0000
# 2 6.7678 56.2229 25.4602 0.0000 0.0000 0.0000
# 3 25.4602 25.4602 115.2257 0.0000 0.0000 0.0000
# 4 0.0000 0.0000 0.0000 28.0226 0.0000 0.0000
# 5 0.0000 0.0000 0.0000 0.0000 28.0226 0.0000
# 6 0.0000 0.0000 0.0000 0.0000 0.0000 11.2953
#
#
#
# Elastic Compliance Matrix: (Units=1/GPa)
#
#
# Indices 1 2 3 4 5 6 
#
# 1 0.019774 -0.000446 -0.004271 0.000000 0.000000 0.000000
# 2 -0.000446 0.019774 -0.004271 0.000000 0.000000 0.000000
# 3 -0.004271 -0.004271 0.010566 0.000000 0.000000 0.000000
# 4 0.000000 0.000000 0.000000 0.035685 0.000000 0.000000
# 5 0.000000 0.000000 0.000000 0.000000 0.035685 0.000000
# 6 0.000000 0.000000 0.000000 0.000000 0.000000 0.088533
#
#
# Mechanical properties :
#
#
# Convention : Reuss Voigt Hill
#
# Bulk Modulus (GPa) = 31.11516 38.11644 34.61580
# Shear Modulus (GPa) = 20.94629 24.80030 22.87329
#
# Velocity S-wave (km/s) = 2.98129 3.24399 3.11541
# Velocity P-wave (km/s) = 5.00538 5.49592 5.25637
#
# Compressibility (1/GPa) = 0.03213868
#
# Stress axis : x y z
#
# Youngs Moduli (GPa) = 50.57140 50.57140 94.64413
#
# Poissons Ratio (x) = 0.02257 0.40419
# Poissons Ratio (y) = 0.02257 0.40419
# Poissons Ratio (z) = 0.21597 0.21597
#
# Static dielectric constant tensor:
#      x y z
#    x 4.489290 0.000000 0.000000 
#    y 0.000000 4.489290 0.000000 
#    z 0.000000 0.000000 4.074040 
# 
# 
# High freq. dielectric constant tensor:
#      x y z
#    x 1.924560 0.000000 0.000000 
#    y 0.000000 1.924560 0.000000 
#    z 0.000000 0.000000 1.934110 
# 
# From -- ./inp_files/453.got.cif
#   From: 2010.03.12/outbox.cif.g09.slc.cpg/sg109_1_cif.got.tgz:453.got - 2010.04.14 01:55:16.
