data_PCOD8307831
_publ_section_title
;
Structure prediction by ZEFSAII (Michael W. Deem and Ramdas Pophale) SiO2 
 PCOD8307831
Probable space group: I 41 M D
;
_chemical_formula_sum "Si O2"
_cell_formula_units_Z 112
_cell_length_a 20.861922
_cell_length_b 20.861922
_cell_length_c 17.695734
_cell_angle_alpha 90.000000
_cell_angle_beta 90.000000
_cell_angle_gamma 90.000000
_cell_volume 7701.533627
_symmetry_space_group_name_H-M "I 41 M D"
_symmetry_group_IT_number 109
_symmetry_cell_setting 'tetragonal'
loop_
_space_group_symop_operation_xyz
x,y,z
-y,1/2+x,1/4+z
-x,-y,z
y,1/2-x,1/4+z
-x,y,z
x,-y,z
-y,1/2-x,1/4+z
y,1/2+x,1/4+z
1/2+x,1/2+y,1/2+z
1/2-y,x,3/4+z
1/2-x,1/2-y,1/2+z
1/2+y,-x,3/4+z
1/2-x,1/2+y,1/2+z
1/2+x,1/2-y,1/2+z
1/2-y,-x,3/4+z
1/2+y,x,3/4+z
loop_
_atom_site_type_symbol
_atom_site_label
_atom_site_fract_x
_atom_site_fract_y
_atom_site_fract_z
Si Si1 0.424054 0.500000 0.316020
Si Si2 0.925202 0.868628 0.741858
Si Si3 0.674346 0.691360 0.143324
Si Si4 0.574744 0.637421 0.531910
Si Si5 0.575867 0.500000 0.486434
Si Si6 0.777893 0.246550 0.500114
Si Si7 0.722495 0.829018 0.864572
Si Si8 0.366770 0.310282 0.382643
O O1 0.500000 0.500000 0.321964
O O2 0.400692 0.437982 0.269851
O O3 0.394712 0.500000 0.401060
O O4 0.888741 0.848719 0.664729
O O5 0.907657 0.818131 0.806707
O O6 0.000000 0.867648 0.723316
O O7 0.686455 0.748213 0.203908
O O8 0.735238 0.644309 0.145801
O O9 0.668066 0.720950 0.058535
O O10 0.500000 0.644081 0.548891
O O11 0.597325 0.562935 0.533381
O O12 0.609938 0.678979 0.596008
O O13 0.589477 0.662883 0.448833
O O14 0.500000 0.500000 0.476594
O O15 0.806750 0.297765 0.441141
O O16 0.721208 0.282264 0.545903
O O17 0.797687 0.846438 0.876851
#
# Coordination Sequence:
#
# PCOD8307831 Si02
#       8
#     8  16  16  16   8  16  16  16
#     4   9  18  30  42  60  92 135 157 167 218 286
#     4  11  19  30  45  64  95 127 155 185 225 279
#     4  10  16  31  45  69  84 120 149 195 232 275
#     4  11  19  30  45  68  98 130 163 189 224 281
#     4   9  18  30  44  58  92 137 159 179 224 278
#     4   8  16  28  50  61  89 111 151 189 244 272
#     4  10  16  31  46  67  89 124 154 193 231 281
#     4  10  17  31  43  68  95 117 157 193 232 261
#
# _framework density 14.542557
#
# number of rings (size 3 to 8) (size 9 to 14) (size 15 to 20)
#    0.000    2.429    7.143    0.429    0.000    0.000 
#    7.714    0.000    1.571    0.000    0.000    0.000 
#    0.000    0.000    0.000   20.714    0.000    0.000 
#
# Total GULP energy -693995.799723 kJ/mol
# GULP energy per Si atom -12392.782138 kJ/mol
# Density = 1.450946 g / cm^3
# Si number density = 14.542557 Si / 1000 Ang^3
#
#
#
# Elastic Constant Matrix: (Units=GPa)
#
#
# Indices 1 2 3 4 5 6 
#
# 1 70.6861 35.0030 32.5083 0.0000 0.0000 0.0000
# 2 35.0030 70.6861 32.5083 0.0000 0.0000 0.0000
# 3 32.5083 32.5083 77.3485 0.0000 0.0000 0.0000
# 4 0.0000 0.0000 0.0000 24.5039 0.0000 0.0000
# 5 0.0000 0.0000 0.0000 0.0000 24.5039 0.0000
# 6 0.0000 0.0000 0.0000 0.0000 0.0000 21.8360
#
#
#
# Elastic Compliance Matrix: (Units=1/GPa)
#
#
# Indices 1 2 3 4 5 6 
#
# 1 0.020393 -0.007632 -0.005363 0.000000 0.000000 0.000000
# 2 -0.007632 0.020393 -0.005363 0.000000 0.000000 0.000000
# 3 -0.005363 -0.005363 0.017437 0.000000 0.000000 0.000000
# 4 0.000000 0.000000 0.000000 0.040810 0.000000 0.000000
# 5 0.000000 0.000000 0.000000 0.000000 0.040810 0.000000
# 6 0.000000 0.000000 0.000000 0.000000 0.000000 0.045796
#
#
# Mechanical properties :
#
#
# Convention : Reuss Voigt Hill
#
# Bulk Modulus (GPa) = 46.49928 46.52889 46.51408
# Shear Modulus (GPa) = 21.78433 22.08216 21.93324
#
# Velocity S-wave (km/s) = 3.87456 3.90096 3.88778
# Velocity P-wave (km/s) = 7.21529 7.23563 7.22547
#
# Compressibility (1/GPa) = 0.02150571
#
# Stress axis : x y z
#
# Youngs Moduli (GPa) = 49.03712 49.03712 57.35041
#
# Poissons Ratio (x) = 0.37424 0.30758
# Poissons Ratio (y) = 0.37424 0.30758
# Poissons Ratio (z) = 0.26300 0.26300
#
# Static dielectric constant tensor:
#      x y z
#    x 2.728520 0.000000 0.000000 
#    y 0.000000 2.728520 0.000000 
#    z 0.000000 0.000000 2.868990 
# 
# 
# High freq. dielectric constant tensor:
#      x y z
#    x 1.535040 0.000000 0.000000 
#    y 0.000000 1.535040 0.000000 
#    z 0.000000 0.000000 1.548510 
# 
# From -- ./inp_files/3296.got.cif
#   From: 2010.03.12/outbox.cif.g09.slc.cpg/sg109_2_cif.got.tgz:3296.got - 2010.04.14 01:55:16.
