data_PCOD8307523
_publ_section_title
;
Structure prediction by ZEFSAII (Michael W. Deem and Ramdas Pophale) SiO2 
 PCOD8307523
Probable space group: I 4 M M
;
_chemical_formula_sum "Si O2"
_cell_formula_units_Z 96
_cell_length_a 14.436271
_cell_length_b 14.436271
_cell_length_c 30.479682
_cell_angle_alpha 90.000000
_cell_angle_beta 90.000000
_cell_angle_gamma 90.000000
_cell_volume 6352.146180
_symmetry_space_group_name_H-M "I 4 M M"
_symmetry_group_IT_number 107
_symmetry_cell_setting 'tetragonal'
loop_
_space_group_symop_operation_xyz
x,y,z
-y,x,z
-x,-y,z
y,-x,z
-x,y,z
x,-y,z
-y,-x,z
y,x,z
1/2+x,1/2+y,1/2+z
1/2-y,1/2+x,1/2+z
1/2-x,1/2-y,1/2+z
1/2+y,1/2-x,1/2+z
1/2-x,1/2+y,1/2+z
1/2+x,1/2-y,1/2+z
1/2-y,1/2-x,1/2+z
1/2+y,1/2+x,1/2+z
loop_
_atom_site_type_symbol
_atom_site_label
_atom_site_fract_x
_atom_site_fract_y
_atom_site_fract_z
Si Si1 0.389992 0.897404 0.552770
Si Si2 0.761964 0.390413 0.378789
Si Si3 0.109740 0.603526 0.954893
Si Si4 0.894352 0.606499 0.298381
Si Si5 0.893303 0.745294 0.123366
Si Si6 0.894410 0.255758 0.222344
O O1 0.500000 0.899585 0.556104
O O2 0.359808 0.865588 0.503888
O O3 0.349585 0.828673 0.589523
O O4 0.350536 0.000000 0.562207
O O5 0.738999 0.500000 0.381394
O O6 0.665616 0.334385 0.376307
O O7 0.820058 0.354084 0.420740
O O8 0.824769 0.366132 0.336980
O O9 0.148825 0.500000 0.944397
O O10 0.000000 0.598500 0.951212
O O11 0.883296 0.500000 0.285605
O O12 0.866360 0.662248 0.254971
O O13 0.000000 0.627783 0.313420
O O14 0.842659 0.842659 0.116862
O O15 0.878804 0.707452 0.172774
O O16 0.000000 0.764463 0.112706
O O17 0.833673 0.166328 0.232992
O O18 0.000000 0.224587 0.229248
#
# Coordination Sequence:
#
# PCOD8307523 Si02
#       6
#    16  16  16  16  16  16
#     4   8  14  25  41  59  78 101 130 166 205 237
#     4  10  19  29  42  60  83 111 138 163 194 235
#     4   8  14  26  43  60  77  99 130 168 205 235
#     4   9  17  29  45  63  80 100 131 172 214 250
#     4   9  17  27  39  57  82 112 141 166 195 235
#     4   9  17  28  41  58  81 108 137 168 201 240
#
# _framework density 15.113002
#
# number of rings (size 3 to 8) (size 9 to 14) (size 15 to 20)
#    0.000    3.167    0.000    2.000    0.000    3.833 
#    0.000    5.000    0.000    0.000    0.000    4.667 
#    0.000    3.333    0.000   11.000    0.000    6.333 
#
# Total GULP energy -594931.851784 kJ/mol
# GULP energy per Si atom -12394.413579 kJ/mol
# Density = 1.507860 g / cm^3
# Si number density = 15.113002 Si / 1000 Ang^3
#
#
#
# Elastic Constant Matrix: (Units=GPa)
#
#
# Indices 1 2 3 4 5 6 
#
# 1 66.0749 41.5373 57.2319 0.0000 0.0000 0.0002
# 2 41.5373 66.0749 57.2319 0.0000 0.0000 -0.0002
# 3 57.2319 57.2319 119.0260 0.0000 0.0000 0.0000
# 4 0.0000 0.0000 0.0000 21.5754 0.0000 0.0000
# 5 0.0000 0.0000 0.0000 0.0000 21.5754 0.0000
# 6 0.0002 -0.0002 0.0000 0.0000 0.0000 16.9792
#
#
#
# Elastic Compliance Matrix: (Units=1/GPa)
#
#
# Indices 1 2 3 4 5 6 
#
# 1 0.029887 -0.010867 -0.009146 0.000000 0.000000 0.000000
# 2 -0.010867 0.029887 -0.009146 0.000000 0.000000 0.000000
# 3 -0.009146 -0.009146 0.017197 0.000000 0.000000 0.000000
# 4 0.000000 0.000000 0.000000 0.046349 0.000000 0.000000
# 5 0.000000 0.000000 0.000000 0.000000 0.046349 0.000000
# 6 0.000000 0.000000 0.000000 0.000000 0.000000 0.058895
#
#
# Mechanical properties :
#
#
# Convention : Reuss Voigt Hill
#
# Bulk Modulus (GPa) = 53.60503 62.57535 58.09019
# Shear Modulus (GPa) = 17.05900 18.37096 17.71498
#
# Velocity S-wave (km/s) = 3.36335 3.49029 3.42741
# Velocity P-wave (km/s) = 7.11543 7.59853 7.36094
#
# Compressibility (1/GPa) = 0.01865497
#
# Stress axis : x y z
#
# Youngs Moduli (GPa) = 33.45893 33.45893 58.15007
#
# Poissons Ratio (x) = 0.36358 0.53184
# Poissons Ratio (y) = 0.36358 0.53184
# Poissons Ratio (z) = 0.30601 0.30601
#
# Static dielectric constant tensor:
#      x y z
#    x 2.770900 0.000000 0.000000 
#    y 0.000000 2.770900 0.000000 
#    z 0.000000 0.000000 3.178760 
# 
# 
# High freq. dielectric constant tensor:
#      x y z
#    x 1.554710 0.000000 0.000000 
#    y 0.000000 1.554710 0.000000 
#    z 0.000000 0.000000 1.592970 
# 
# From -- ./inp_files/6084.got.cif
#   From: 2010.03.12/outbox.cif.g09.slc.cpg/sg107_4_cif.got.tgz:6084.got - 2010.04.14 01:49:11.
