data_PCOD8307774
_publ_section_title
;
Structure prediction by ZEFSAII (Michael W. Deem and Ramdas Pophale) SiO2 
 PCOD8307774
Probable space group: I 4 C M
;
_chemical_formula_sum "Si O2"
_cell_formula_units_Z 96
_cell_length_a 23.574178
_cell_length_b 23.574178
_cell_length_c 9.137798
_cell_angle_alpha 90.000000
_cell_angle_beta 90.000000
_cell_angle_gamma 90.000000
_cell_volume 5078.256933
_symmetry_space_group_name_H-M "I 4 C M"
_symmetry_group_IT_number 108
_symmetry_cell_setting 'tetragonal'
loop_
_space_group_symop_operation_xyz
x,y,z
-y,x,z
-x,-y,z
y,-x,z
-x,y,1/2+z
x,-y,1/2+z
-y,-x,1/2+z
y,x,1/2+z
1/2+x,1/2+y,1/2+z
1/2-y,1/2+x,1/2+z
1/2-x,1/2-y,1/2+z
1/2+y,1/2-x,1/2+z
1/2-x,1/2+y,z
1/2+x,1/2-y,z
1/2-y,1/2-x,z
1/2+y,1/2+x,z
loop_
_atom_site_type_symbol
_atom_site_label
_atom_site_fract_x
_atom_site_fract_y
_atom_site_fract_z
Si Si1 0.442003 0.226445 0.720750
Si Si2 0.642191 0.558522 0.563034
Si Si3 0.121745 0.378256 0.119815
Si Si4 0.942578 0.727481 0.561610
Si Si5 0.441247 0.642798 0.218016
Si Si6 0.877833 0.622168 0.605569
Si Si7 0.436876 0.936876 0.360609
Si Si8 0.432988 0.067013 0.364547
O O1 0.391273 0.187196 0.659637
O O2 0.499817 0.209147 0.640796
O O3 0.426327 0.291610 0.689349
O O4 0.451762 0.216004 0.891172
O O5 0.707678 0.573178 0.592908
O O6 0.628601 0.554839 0.390384
O O7 0.608048 0.608170 0.640424
O O8 0.625495 0.499782 0.640311
O O9 0.077283 0.422718 0.192375
O O10 0.109463 0.390538 0.949776
O O11 0.891372 0.688940 0.626778
O O12 0.894277 0.605724 0.440866
O O13 0.918891 0.581110 0.697445
O O14 0.501311 0.920865 0.396595
#
# Coordination Sequence:
#
# PCOD8307774 Si02
#       8
#    16  16   8  16  16   8   8   8
#     4  10  21  37  58  81 113 154 197 240 287 342
#     4  10  21  39  63  92 121 152 187 231 284 344
#     4  12  22  35  53  78 111 152 199 240 293 340
#     4  10  21  37  58  81 113 154 197 240 287 342
#     4  10  21  39  63  92 121 152 187 231 284 344
#     4  12  22  35  53  78 111 152 199 240 293 340
#     4  11  20  36  52  70 109 144 192 248 303 350
#     4  11  24  32  48  78 105 146 192 254 301 348
#
# _framework density 18.904123999999999
#
# number of rings (size 3 to 8) (size 9 to 14) (size 15 to 20)
#    0.000    1.500    1.667    4.000    2.333    3.000 
#    0.000    2.500    0.000    0.000    0.000    0.000 
#    0.000    0.000    0.000    0.000    0.000    0.000 
#
# Total GULP energy -595241.304081 kJ/mol
# GULP energy per Si atom -12400.860502 kJ/mol
# Density = 1.886110 g / cm^3
# Si number density = 18.904124 Si / 1000 Ang^3
#
#
#
# Elastic Constant Matrix: (Units=GPa)
#
#
# Indices 1 2 3 4 5 6 
#
# 1 110.5176 74.0086 47.9512 0.0000 0.0000 -0.0003
# 2 74.0086 110.5176 47.9512 0.0000 0.0000 0.0003
# 3 47.9512 47.9512 86.4678 0.0000 0.0000 0.0000
# 4 0.0000 0.0000 0.0000 30.6037 0.0000 0.0000
# 5 0.0000 0.0000 0.0000 0.0000 30.6037 0.0000
# 6 -0.0003 0.0003 0.0000 0.0000 0.0000 36.8417
#
#
#
# Elastic Compliance Matrix: (Units=1/GPa)
#
#
# Indices 1 2 3 4 5 6 
#
# 1 0.017502 -0.009888 -0.004222 0.000000 0.000000 0.000000
# 2 -0.009888 0.017502 -0.004222 0.000000 0.000000 0.000000
# 3 -0.004222 -0.004222 0.016248 0.000000 0.000000 0.000000
# 4 0.000000 0.000000 0.000000 0.032676 0.000000 0.000000
# 5 0.000000 0.000000 0.000000 0.000000 0.032676 0.000000
# 6 0.000000 0.000000 0.000000 0.000000 0.000000 0.027143
#
#
# Mechanical properties :
#
#
# Convention : Reuss Voigt Hill
#
# Bulk Modulus (GPa) = 68.55694 71.92498 70.24096
# Shear Modulus (GPa) = 26.98698 28.78263 27.88481
#
# Velocity S-wave (km/s) = 3.78242 3.90623 3.84482
# Velocity P-wave (km/s) = 7.44446 7.64687 7.54634
#
# Compressibility (1/GPa) = 0.01458641
#
# Stress axis : x y z
#
# Youngs Moduli (GPa) = 57.13603 57.13603 61.54649
#
# Poissons Ratio (x) = 0.56499 0.25986
# Poissons Ratio (y) = 0.56499 0.25986
# Poissons Ratio (z) = 0.24124 0.24124
#
# Static dielectric constant tensor:
#      x y z
#    x 3.425060 0.000000 0.000000 
#    y 0.000000 3.425060 0.000000 
#    z 0.000000 0.000000 3.585020 
# 
# 
# High freq. dielectric constant tensor:
#      x y z
#    x 1.724930 0.000000 0.000000 
#    y 0.000000 1.724930 0.000000 
#    z 0.000000 0.000000 1.751640 
# 
# From -- ./inp_files/826.got.cif
#   From: 2010.03.12/outbox.cif.g09.slc.cpg/sg108_1_cif.got.tgz:826.got - 2010.04.14 01:53:11.
