data_PCOD8307247
_publ_section_title
;
Structure prediction by ZEFSAII (Michael W. Deem and Ramdas Pophale) SiO2 
 PCOD8307247
Probable space group: P 42 M C
;
_chemical_formula_sum "Si O2"
_cell_formula_units_Z 48
_cell_length_a 9.039142
_cell_length_b 9.039142
_cell_length_c 30.968696
_cell_angle_alpha 90.000000
_cell_angle_beta 90.000000
_cell_angle_gamma 90.000000
_cell_volume 2530.331004
_symmetry_space_group_name_H-M "P 42 M C"
_symmetry_group_IT_number 105
_symmetry_cell_setting 'tetragonal'
loop_
_space_group_symop_operation_xyz
x,y,z
-y,x,1/2+z
-x,-y,z
y,-x,1/2+z
-x,y,z
x,-y,z
-y,-x,1/2+z
y,x,1/2+z
loop_
_atom_site_type_symbol
_atom_site_label
_atom_site_fract_x
_atom_site_fract_y
_atom_site_fract_z
Si Si1 0.830512 0.827933 0.096210
Si Si2 0.823780 0.666544 0.010765
Si Si3 0.673266 0.172025 0.340855
Si Si4 0.674739 0.169743 0.761901
Si Si5 0.823884 0.166551 0.926998
Si Si6 0.827155 0.328518 0.683720
O O1 0.767808 0.741010 0.054873
O O2 0.728935 0.783450 0.136426
O O3 0.000000 0.784080 0.106671
O O4 0.818349 0.000000 0.085195
O O5 0.763273 0.500000 0.008798
O O6 0.000000 0.670401 0.009397
O O7 0.759154 0.754409 0.969614
O O8 0.500000 0.201058 0.344291
O O9 0.737325 0.262476 0.301310
O O10 0.747099 0.231629 0.384734
O O11 0.708924 0.000000 0.333289
O O12 0.500000 0.184652 0.761703
O O13 0.735264 0.234462 0.717537
O O14 0.725710 0.000000 0.766351
O O15 0.000000 0.167805 0.928629
O O16 0.762158 0.000000 0.925243
O O17 0.784107 0.500000 0.687542
O O18 0.000000 0.303317 0.692868
#
# Coordination Sequence:
#
# PCOD8307247 Si02
#       6
#     8   8   8   8   8   8
#     4   9  17  30  49  73 101 133 167 205 253 308
#     4   9  16  26  43  70 103 135 169 213 261 307
#     4  10  20  34  54  80 108 138 174 216 263 315
#     4  11  24  39  55  77 105 137 174 215 260 312
#     4   9  16  27  46  73 104 137 173 215 263 312
#     4  10  21  37  57  80 105 135 173 216 262 312
#
# _framework density 18.969851999999999
#
# number of rings (size 3 to 8) (size 9 to 14) (size 15 to 20)
#    0.000    2.333    0.000    3.000    0.000   10.000 
#    0.000    1.667    0.000    1.000    0.000    2.333 
#    0.000    0.000    0.000    0.000    0.000    0.000 
#
# Total GULP energy -595317.409509 kJ/mol
# GULP energy per Si atom -12402.446031 kJ/mol
# Density = 1.892668 g / cm^3
# Si number density = 18.969852 Si / 1000 Ang^3
#
#
#
# Elastic Constant Matrix: (Units=GPa)
#
#
# Indices 1 2 3 4 5 6 
#
# 1 74.3409 33.2788 50.5657 0.0000 0.0000 0.0000
# 2 33.2788 74.3409 50.5657 0.0000 0.0000 0.0000
# 3 50.5657 50.5657 144.0812 0.0000 0.0000 0.0000
# 4 0.0000 0.0000 0.0000 -3.3489 0.0000 0.0000
# 5 0.0000 0.0000 0.0000 0.0000 -3.3489 0.0000
# 6 0.0000 0.0000 0.0000 0.0000 0.0000 17.1982
#
#
#
# Elastic Compliance Matrix: (Units=1/GPa)
#
#
# Indices 1 2 3 4 5 6 
#
# 1 0.019109 -0.005244 -0.004866 0.000000 0.000000 0.000000
# 2 -0.005244 0.019109 -0.004866 0.000000 0.000000 0.000000
# 3 -0.004866 -0.004866 0.010356 0.000000 0.000000 0.000000
# 4 0.000000 0.000000 0.000000 -0.298602 0.000000 0.000000
# 5 0.000000 0.000000 0.000000 0.000000 -0.298602 0.000000
# 6 0.000000 0.000000 0.000000 0.000000 0.000000 0.058146
#
#
# Mechanical properties :
#
#
# Convention : Reuss Voigt Hill
#
# Bulk Modulus (GPa) = 53.70106 62.39814 58.04960
# Shear Modulus (GPa) = -11.00532 12.65692 0.82580
#
# Velocity S-wave (km/s) = -2.41124 2.58585 0.66051
# Velocity P-wave (km/s) = 4.54070 6.47149 5.59009
#
# Compressibility (1/GPa) = 0.01862161
#
# Stress axis : x y z
#
# Youngs Moduli (GPa) = 52.33175 52.33175 96.56406
#
# Poissons Ratio (x) = 0.27445 0.46986
# Poissons Ratio (y) = 0.27445 0.46986
# Poissons Ratio (z) = 0.25463 0.25463
#
# Static dielectric constant tensor:
#      x y z
#    x 3.366450 0.000000 0.000000 
#    y 0.000000 3.366450 0.000000 
#    z 0.000000 0.000000 3.659840 
# 
# 
# High freq. dielectric constant tensor:
#      x y z
#    x 1.720500 0.000000 0.000000 
#    y 0.000000 1.720500 0.000000 
#    z 0.000000 0.000000 1.756030 
# 
# From -- ./inp_files/4668.got.cif
#   From: 2010.03.12/outbox.cif.g09.slc.cpg/sg105_3_cif.got.tgz:4668.got - 2010.04.14 01:45:32.
