data_PCOD8307727
_publ_section_title
;
Structure prediction by ZEFSAII (Michael W. Deem and Ramdas Pophale) SiO2 
 PCOD8307727
Probable space group: I 4 C M
;
_chemical_formula_sum "Si O2"
_cell_formula_units_Z 112
_cell_length_a 15.675161
_cell_length_b 15.675161
_cell_length_c 24.679343
_cell_angle_alpha 90.000000
_cell_angle_beta 90.000000
_cell_angle_gamma 90.000000
_cell_volume 6063.977962
_symmetry_space_group_name_H-M "I 4 C M"
_symmetry_group_IT_number 108
_symmetry_cell_setting 'tetragonal'
loop_
_space_group_symop_operation_xyz
x,y,z
-y,x,z
-x,-y,z
y,-x,z
-x,y,1/2+z
x,-y,1/2+z
-y,-x,1/2+z
y,x,1/2+z
1/2+x,1/2+y,1/2+z
1/2-y,1/2+x,1/2+z
1/2-x,1/2-y,1/2+z
1/2+y,1/2-x,1/2+z
1/2-x,1/2+y,z
1/2+x,1/2-y,z
1/2-y,1/2-x,z
1/2+y,1/2+x,z
loop_
_atom_site_type_symbol
_atom_site_label
_atom_site_fract_x
_atom_site_fract_y
_atom_site_fract_z
Si Si1 0.407718 0.603290 0.681510
Si Si2 0.265342 0.621345 0.269414
Si Si3 0.307406 0.053905 0.920847
Si Si4 0.684024 0.678776 0.377114
Si Si5 0.390297 0.415443 0.057441
Si Si6 0.259362 0.895976 0.979176
Si Si7 0.504128 0.864433 0.806431
O O1 0.382349 0.507018 0.695412
O O2 0.362663 0.676311 0.716798
O O3 0.378310 0.613106 0.619491
O O4 0.192311 0.692311 0.269966
O O5 0.328133 0.631359 0.321246
O O6 0.219691 0.527209 0.273135
O O7 0.369751 0.130250 0.940595
O O8 0.214749 0.088134 0.900689
O O9 0.291937 0.993573 0.973430
O O10 0.348096 0.002163 0.870891
O O11 0.770287 0.729713 0.364526
O O12 0.625480 0.727385 0.419472
O O13 0.484442 0.383000 0.043502
O O14 0.315725 0.374872 0.021696
O O15 0.338094 0.838094 0.997902
O O16 0.437747 0.937747 0.793469
O O17 0.599254 0.900747 0.789457
#
# Coordination Sequence:
#
# PCOD8307727 Si02
#       7
#    16  16  16  16  16  16  16
#     4   9  20  37  55  74 100 136 175 222 279 336
#     4  10  19  32  51  78 110 140 181 233 274 322
#     4  10  19  31  48  72 109 151 183 217 268 326
#     4   9  19  31  44  72 108 138 169 214 267 314
#     4   9  19  38  58  74  97 134 179 223 277 339
#     4  11  20  32  52  78 108 138 179 230 273 327
#     4   9  17  30  48  71 105 149 187 217 264 331
#
# _framework density 18.469722999999998
#
# number of rings (size 3 to 8) (size 9 to 14) (size 15 to 20)
#    0.000    2.429    1.429    2.143    2.000    1.429 
#    0.000    0.000    0.000    3.429    0.000    0.000 
#    0.000    0.000    0.000    0.000    0.000    0.000 
#
# Total GULP energy -693761.095587 kJ/mol
# GULP energy per Si atom -12388.590993 kJ/mol
# Density = 1.842769 g / cm^3
# Si number density = 18.469723 Si / 1000 Ang^3
#
#
#
# Elastic Constant Matrix: (Units=GPa)
#
#
# Indices 1 2 3 4 5 6 
#
# 1 78.7811 30.9102 37.9585 0.0000 0.0000 0.0001
# 2 30.9102 78.7811 37.9585 0.0000 0.0000 -0.0001
# 3 37.9585 37.9585 70.1370 0.0000 0.0000 0.0000
# 4 0.0000 0.0000 0.0000 28.7698 0.0000 0.0000
# 5 0.0000 0.0000 0.0000 0.0000 28.7698 0.0000
# 6 0.0001 -0.0001 0.0000 0.0000 0.0000 24.7364
#
#
#
# Elastic Compliance Matrix: (Units=1/GPa)
#
#
# Indices 1 2 3 4 5 6 
#
# 1 0.017733 -0.003157 -0.007889 0.000000 0.000000 0.000000
# 2 -0.003157 0.017733 -0.007889 0.000000 0.000000 0.000000
# 3 -0.007889 -0.007889 0.022797 0.000000 0.000000 0.000000
# 4 0.000000 0.000000 0.000000 0.034759 0.000000 0.000000
# 5 0.000000 0.000000 0.000000 0.000000 0.034759 0.000000
# 6 0.000000 0.000000 0.000000 0.000000 0.000000 0.040426
#
#
# Mechanical properties :
#
#
# Convention : Reuss Voigt Hill
#
# Bulk Modulus (GPa) = 49.03350 49.03927 49.03639
# Shear Modulus (GPa) = 23.48824 24.51333 24.00079
#
# Velocity S-wave (km/s) = 3.56998 3.64705 3.60872
# Velocity P-wave (km/s) = 6.60293 6.65909 6.63107
#
# Compressibility (1/GPa) = 0.02039422
#
# Stress axis : x y z
#
# Youngs Moduli (GPa) = 56.39232 56.39232 43.86599
#
# Poissons Ratio (x) = 0.17801 0.34605
# Poissons Ratio (y) = 0.17801 0.34605
# Poissons Ratio (z) = 0.44487 0.44487
#
# Static dielectric constant tensor:
#      x y z
#    x 3.435770 0.000000 0.000000 
#    y 0.000000 3.435770 0.000000 
#    z 0.000000 0.000000 3.095440 
# 
# 
# High freq. dielectric constant tensor:
#      x y z
#    x 1.713390 0.000000 0.000000 
#    y 0.000000 1.713390 0.000000 
#    z 0.000000 0.000000 1.684220 
# 
# From -- ./inp_files/3215.got.cif
#   From: 2010.03.12/outbox.cif.g09.slc.cpg/sg108_2_cif.got.tgz:3215.got - 2010.04.14 01:53:11.
