data_PCOD8307515
_publ_section_title
;
Structure prediction by ZEFSAII (Michael W. Deem and Ramdas Pophale) SiO2 
 PCOD8307515
Probable space group: I 4 M M
;
_chemical_formula_sum "Si O2"
_cell_formula_units_Z 96
_cell_length_a 22.068358
_cell_length_b 22.068358
_cell_length_c 9.864060
_cell_angle_alpha 90.000000
_cell_angle_beta 90.000000
_cell_angle_gamma 90.000000
_cell_volume 4803.919779
_symmetry_space_group_name_H-M "I 4 M M"
_symmetry_group_IT_number 107
_symmetry_cell_setting 'tetragonal'
loop_
_space_group_symop_operation_xyz
x,y,z
-y,x,z
-x,-y,z
y,-x,z
-x,y,z
x,-y,z
-y,-x,z
y,x,z
1/2+x,1/2+y,1/2+z
1/2-y,1/2+x,1/2+z
1/2-x,1/2-y,1/2+z
1/2+y,1/2-x,1/2+z
1/2-x,1/2+y,1/2+z
1/2+x,1/2-y,1/2+z
1/2-y,1/2-x,1/2+z
1/2+y,1/2+x,1/2+z
loop_
_atom_site_type_symbol
_atom_site_label
_atom_site_fract_x
_atom_site_fract_y
_atom_site_fract_z
Si Si1 0.428370 0.670279 0.963880
Si Si2 0.070040 0.250975 0.705774
Si Si3 0.121860 0.571410 0.304181
Si Si4 0.840457 0.569292 0.606989
Si Si5 0.338407 0.567622 0.433825
Si Si6 0.215762 0.119236 0.189551
O O1 0.500000 0.657156 0.976277
O O2 0.394218 0.605783 0.959785
O O3 0.413132 0.710393 0.833487
O O4 0.400852 0.710310 0.087512
O O5 0.093769 0.319263 0.718637
O O6 0.082237 0.222717 0.853038
O O7 0.000000 0.253675 0.670665
O O8 0.108581 0.500000 0.287630
O O9 0.128550 0.587712 0.463496
O O10 0.069808 0.610226 0.229530
O O11 0.815686 0.500000 0.595644
O O12 0.785551 0.615708 0.641250
O O13 0.360939 0.500000 0.410553
O O14 0.391497 0.608503 0.373414
O O15 0.326256 0.579919 0.590534
O O16 0.188693 0.188693 0.192495
#
# Coordination Sequence:
#
# PCOD8307515 Si02
#       6
#    16  16  16  16  16  16
#     4  10  20  33  53  82 115 155 204 255 309 369
#     4   9  18  35  55  77 109 149 195 236 287 353
#     4  10  23  41  64  93 121 157 202 248 297 362
#     4  11  23  42  66  92 127 163 198 246 308 363
#     4  10  18  31  53  78 109 150 195 245 303 361
#     4  10  21  38  59  86 116 157 207 249 296 355
#
# _framework density 19.98368
#
# number of rings (size 3 to 8) (size 9 to 14) (size 15 to 20)
#    0.000    2.000    1.667    2.000    2.333    1.333 
#    0.000    4.167    0.000    6.000    0.000    0.000 
#    0.000    0.000    0.000    0.000    0.000    0.000 
#
# Total GULP energy -594939.269021 kJ/mol
# GULP energy per Si atom -12394.568105 kJ/mol
# Density = 1.993820 g / cm^3
# Si number density = 19.983680 Si / 1000 Ang^3
#
#
#
# Elastic Constant Matrix: (Units=GPa)
#
#
# Indices 1 2 3 4 5 6 
#
# 1 61.9367 26.6822 20.0906 0.0000 0.0000 0.0011
# 2 26.6822 61.9367 20.0906 0.0000 0.0000 -0.0011
# 3 20.0906 20.0906 93.0725 0.0000 0.0000 0.0000
# 4 0.0000 0.0000 0.0000 17.7754 0.0000 0.0000
# 5 0.0000 0.0000 0.0000 0.0000 17.7754 0.0000
# 6 0.0011 -0.0011 0.0000 0.0000 0.0000 23.4340
#
#
#
# Elastic Compliance Matrix: (Units=1/GPa)
#
#
# Indices 1 2 3 4 5 6 
#
# 1 0.020437 -0.007928 -0.002700 0.000000 0.000000 -0.000001
# 2 -0.007928 0.020437 -0.002700 0.000000 0.000000 0.000001
# 3 -0.002700 -0.002700 0.011910 0.000000 0.000000 0.000000
# 4 0.000000 0.000000 0.000000 0.056258 0.000000 0.000000
# 5 0.000000 0.000000 0.000000 0.000000 0.056258 0.000000
# 6 -0.000001 0.000001 0.000000 0.000000 0.000000 0.042673
#
#
# Mechanical properties :
#
#
# Convention : Reuss Voigt Hill
#
# Bulk Modulus (GPa) = 38.27502 38.96365 38.61934
# Shear Modulus (GPa) = 20.54756 21.80245 21.17501
#
# Velocity S-wave (km/s) = 3.21006 3.30663 3.25870
# Velocity P-wave (km/s) = 5.73882 5.84110 5.79019
#
# Compressibility (1/GPa) = 0.02612670
#
# Stress axis : x y z
#
# Youngs Moduli (GPa) = 48.93119 48.93119 83.96313
#
# Poissons Ratio (x) = 0.38794 0.22671
# Poissons Ratio (y) = 0.38794 0.22671
# Poissons Ratio (z) = 0.13212 0.13212
#
# Static dielectric constant tensor:
#      x y z
#    x 3.487990 0.000000 0.000000 
#    y 0.000000 3.487990 0.000000 
#    z 0.000000 0.000000 3.902120 
# 
# 
# High freq. dielectric constant tensor:
#      x y z
#    x 1.763640 0.000000 0.000000 
#    y 0.000000 1.763640 0.000000 
#    z 0.000000 0.000000 1.797000 
# 
# From -- ./inp_files/2433.got.cif
#   From: 2010.03.12/outbox.cif.g09.slc.cpg/sg107_2_cif.got.tgz:2433.got - 2010.04.14 01:49:11.
