data_PCOD8307446
_publ_section_title
;
Structure prediction by ZEFSAII (Michael W. Deem and Ramdas Pophale) SiO2 
 PCOD8307446
Probable space group: P 42 B C
;
_chemical_formula_sum "Si O2"
_cell_formula_units_Z 56
_cell_length_a 15.089107
_cell_length_b 15.089107
_cell_length_c 10.196350
_cell_angle_alpha 90.000000
_cell_angle_beta 90.000000
_cell_angle_gamma 90.000000
_cell_volume 2321.516694
_symmetry_space_group_name_H-M "P 42 B C"
_symmetry_group_IT_number 106
_symmetry_cell_setting 'tetragonal'
loop_
_space_group_symop_operation_xyz
x,y,z
-y,x,1/2+z
-x,-y,z
y,-x,1/2+z
1/2-x,1/2+y,z
1/2+x,1/2-y,z
1/2-y,1/2-x,1/2+z
1/2+y,1/2+x,1/2+z
loop_
_atom_site_type_symbol
_atom_site_label
_atom_site_fract_x
_atom_site_fract_y
_atom_site_fract_z
Si Si1 0.947450 0.813357 0.121740
Si Si2 0.676839 0.481825 0.346425
Si Si3 0.991143 0.689892 0.351153
Si Si4 0.500000 0.000000 0.228509
Si Si5 0.257527 0.227411 0.180293
Si Si6 0.000000 0.000000 0.721898
Si Si7 0.454059 0.183245 0.628631
Si Si8 0.218840 0.821299 0.928044
O O1 0.004065 0.754285 0.225916
O O2 0.842710 0.800053 0.139822
O O3 0.972878 0.916667 0.132138
O O4 0.974892 0.781109 0.976525
O O5 0.583636 0.527772 0.311370
O O6 0.744705 0.498405 0.225943
O O7 0.654159 0.377681 0.369851
O O8 0.895247 0.707259 0.413285
O O9 0.002621 0.587016 0.317959
O O10 0.052525 0.713849 0.476373
O O11 0.588549 0.003389 0.139655
O O12 0.327630 0.147713 0.171819
O O13 0.258553 0.256259 0.333847
O O14 0.290745 0.302541 0.081912
#
# Coordination Sequence:
#
# PCOD8307446 Si02
#       8
#     8   8   8   4   8   4   8   8
#     4  11  26  44  77 110 155 193 244 310 384 458
#     4  11  26  44  77 110 155 193 244 310 384 458
#     4  11  27  48  71 109 141 196 254 305 384 442
#     4  12  30  48  76 102 154 204 256 322 374 460
#     4  10  24  46  71 108 144 188 246 306 373 452
#     4  12  22  48  68 118 162 192 248 300 388 468
#     4  11  27  48  71 109 141 196 254 305 384 442
#     4  10  24  46  71 108 144 188 246 306 373 452
#
# _framework density 24.122161999999999
#
# number of rings (size 3 to 8) (size 9 to 14) (size 15 to 20)
#    0.000    1.143    4.286    0.857   16.000    0.000 
#    0.000    0.000    0.000    0.000    0.000    0.000 
#    0.000    0.000    0.000    0.000    0.000    0.000 
#
# Total GULP energy -694020.088165 kJ/mol
# GULP energy per Si atom -12393.215860 kJ/mol
# Density = 2.406726 g / cm^3
# Si number density = 24.122162 Si / 1000 Ang^3
#
#
#
# Elastic Constant Matrix: (Units=GPa)
#
#
# Indices 1 2 3 4 5 6 
#
# 1 79.5961 7.9449 11.2809 0.0000 0.0000 0.0000
# 2 7.9449 79.5961 11.2809 0.0000 0.0000 0.0000
# 3 11.2809 11.2809 85.6655 0.0000 0.0000 0.0000
# 4 0.0000 0.0000 0.0000 36.8939 0.0000 0.0000
# 5 0.0000 0.0000 0.0000 0.0000 36.8939 0.0000
# 6 0.0000 0.0000 0.0000 0.0000 0.0000 23.0924
#
#
#
# Elastic Compliance Matrix: (Units=1/GPa)
#
#
# Indices 1 2 3 4 5 6 
#
# 1 0.012891 -0.001066 -0.001557 0.000000 0.000000 0.000000
# 2 -0.001066 0.012891 -0.001557 0.000000 0.000000 0.000000
# 3 -0.001557 -0.001557 0.012083 0.000000 0.000000 0.000000
# 4 0.000000 0.000000 0.000000 0.027105 0.000000 0.000000
# 5 0.000000 0.000000 0.000000 0.000000 0.027105 0.000000
# 6 0.000000 0.000000 0.000000 0.000000 0.000000 0.043304
#
#
# Mechanical properties :
#
#
# Convention : Reuss Voigt Hill
#
# Bulk Modulus (GPa) = 33.89372 33.98569 33.93970
# Shear Modulus (GPa) = 32.55775 33.66612 33.11194
#
# Velocity S-wave (km/s) = 3.67782 3.73989 3.70898
# Velocity P-wave (km/s) = 5.66714 5.72439 5.69584
#
# Compressibility (1/GPa) = 0.02950399
#
# Stress axis : x y z
#
# Youngs Moduli (GPa) = 77.57640 77.57640 82.75809
#
# Poissons Ratio (x) = 0.08269 0.12886
# Poissons Ratio (y) = 0.08269 0.12886
# Poissons Ratio (z) = 0.12080 0.12080
#
# Static dielectric constant tensor:
#      x y z
#    x 4.161390 0.000000 0.000000 
#    y 0.000000 4.161390 0.000000 
#    z 0.000000 0.000000 4.892970 
# 
# 
# High freq. dielectric constant tensor:
#      x y z
#    x 1.946820 0.000000 0.000000 
#    y 0.000000 1.946820 0.000000 
#    z 0.000000 0.000000 1.977080 
# 
# From -- ./inp_files/1046.got.cif
#   From: 2010.03.12/outbox.cif.g09.slc.cpg/sg106_cif.got.tgz:1046.got - 2010.04.14 01:48:02.
