data_PCOD8307854
_publ_section_title
;
Structure prediction by ZEFSAII (Michael W. Deem and Ramdas Pophale) SiO2 
 PCOD8307854
Probable space group: I 41 M D
;
_chemical_formula_sum "Si O2"
_cell_formula_units_Z 112
_cell_length_a 13.866467
_cell_length_b 13.866467
_cell_length_c 27.271518
_cell_angle_alpha 90.000000
_cell_angle_beta 90.000000
_cell_angle_gamma 90.000000
_cell_volume 5243.737675
_symmetry_space_group_name_H-M "I 41 M D"
_symmetry_group_IT_number 109
_symmetry_cell_setting 'tetragonal'
loop_
_space_group_symop_operation_xyz
x,y,z
-y,1/2+x,1/4+z
-x,-y,z
y,1/2-x,1/4+z
-x,y,z
x,-y,z
-y,1/2-x,1/4+z
y,1/2+x,1/4+z
1/2+x,1/2+y,1/2+z
1/2-y,x,3/4+z
1/2-x,1/2-y,1/2+z
1/2+y,-x,3/4+z
1/2-x,1/2+y,1/2+z
1/2+x,1/2-y,1/2+z
1/2-y,-x,3/4+z
1/2+y,x,3/4+z
loop_
_atom_site_type_symbol
_atom_site_label
_atom_site_fract_x
_atom_site_fract_y
_atom_site_fract_z
Si Si1 0.692544 0.390365 0.876010
Si Si2 0.797231 0.195598 0.981788
Si Si3 0.887876 0.109557 0.073190
Si Si4 0.794588 0.710248 0.122185
Si Si5 0.207644 0.391512 0.026861
Si Si6 0.889886 0.109258 0.271227
Si Si7 0.610036 0.103192 0.225821
O O1 0.728780 0.500000 0.883428
O O2 0.785232 0.321757 0.868890
O O3 0.620838 0.381384 0.829895
O O4 0.643810 0.345449 0.925098
O O5 0.855570 0.123714 0.016769
O O6 0.832708 0.306354 0.991675
O O7 0.682071 0.183117 0.993288
O O8 0.820514 0.167866 0.925745
O O9 0.833545 0.183403 0.108739
O O10 0.000000 0.131093 0.077651
O O11 0.863320 0.000000 0.088766
O O12 0.826442 0.629959 0.082515
O O13 0.172237 0.500000 0.012108
O O14 0.323580 0.382591 0.021464
O O15 0.000000 0.135942 0.257832
O O16 0.865987 0.000000 0.254338
O O17 0.500000 0.085179 0.211837
O O18 0.658003 0.000000 0.240609
#
# Coordination Sequence:
#
# PCOD8307854 Si02
#       7
#    16  16  16  16  16  16  16
#     4  10  18  31  54  87 123 158 189 223 276 346
#     4  11  22  38  60  87 116 154 201 243 294 354
#     4  10  23  43  64  87 119 156 194 244 301 356
#     4  11  23  38  59  90 115 152 199 249 298 348
#     4  10  21  38  55  78 113 151 192 241 291 338
#     4  10  20  34  55  88 128 160 186 227 287 360
#     4   9  17  29  49  79 114 152 188 220 268 342
#
# _framework density 21.358809999999998
#
# number of rings (size 3 to 8) (size 9 to 14) (size 15 to 20)
#    0.000    1.857    4.286    0.857    0.000    5.714 
#    0.000    1.429    0.000    6.857    0.000    4.000 
#    0.000    0.000    0.000    0.000    0.000    0.000 
#
# Total GULP energy -693919.542784 kJ/mol
# GULP energy per Si atom -12391.420407 kJ/mol
# Density = 2.131020 g / cm^3
# Si number density = 21.358810 Si / 1000 Ang^3
#
#
#
# Elastic Constant Matrix: (Units=GPa)
#
#
# Indices 1 2 3 4 5 6 
#
# 1 61.3630 8.1679 11.9613 0.0000 0.0000 0.0000
# 2 8.1679 61.3630 11.9613 0.0000 0.0000 0.0000
# 3 11.9613 11.9613 133.3993 0.0000 0.0000 0.0000
# 4 0.0000 0.0000 0.0000 17.8531 0.0000 0.0000
# 5 0.0000 0.0000 0.0000 0.0000 17.8531 0.0000
# 6 0.0000 0.0000 0.0000 0.0000 0.0000 15.1914
#
#
#
# Elastic Compliance Matrix: (Units=1/GPa)
#
#
# Indices 1 2 3 4 5 6 
#
# 1 0.016819 -0.001979 -0.001331 0.000000 0.000000 0.000000
# 2 -0.001979 0.016819 -0.001331 0.000000 0.000000 0.000000
# 3 -0.001331 -0.001331 0.007735 0.000000 0.000000 0.000000
# 4 0.000000 0.000000 0.000000 0.056013 0.000000 0.000000
# 5 0.000000 0.000000 0.000000 0.000000 0.056013 0.000000
# 6 0.000000 0.000000 0.000000 0.000000 0.000000 0.065827
#
#
# Mechanical properties :
#
#
# Convention : Reuss Voigt Hill
#
# Bulk Modulus (GPa) = 31.16020 35.58961 33.37491
# Shear Modulus (GPa) = 20.90262 25.11516 23.00889
#
# Velocity S-wave (km/s) = 3.13172 3.43281 3.28572
# Velocity P-wave (km/s) = 5.26284 5.69308 5.48218
#
# Compressibility (1/GPa) = 0.03209222
#
# Stress axis : x y z
#
# Youngs Moduli (GPa) = 59.45542 59.45542 129.28390
#
# Poissons Ratio (x) = 0.11769 0.17203
# Poissons Ratio (y) = 0.11769 0.17203
# Poissons Ratio (z) = 0.07911 0.07911
#
# Static dielectric constant tensor:
#      x y z
#    x 3.793420 0.000000 0.000000 
#    y 0.000000 3.793420 0.000000 
#    z 0.000000 0.000000 3.769270 
# 
# 
# High freq. dielectric constant tensor:
#      x y z
#    x 1.819570 0.000000 0.000000 
#    y 0.000000 1.819570 0.000000 
#    z 0.000000 0.000000 1.831750 
# 
# From -- ./inp_files/5025.got.cif
#   From: 2010.03.12/outbox.cif.g09.slc.cpg/sg109_3_cif.got.tgz:5025.got - 2010.04.14 01:55:16.
