data_PCOD8307209
_publ_section_title
;
Structure prediction by ZEFSAII (Michael W. Deem and Ramdas Pophale) SiO2 
 PCOD8307209
Probable space group: P 42 M C
;
_chemical_formula_sum "Si O2"
_cell_formula_units_Z 48
_cell_length_a 9.164893
_cell_length_b 9.164893
_cell_length_c 31.254894
_cell_angle_alpha 90.000000
_cell_angle_beta 90.000000
_cell_angle_gamma 90.000000
_cell_volume 2625.263063
_symmetry_space_group_name_H-M "P 42 M C"
_symmetry_group_IT_number 105
_symmetry_cell_setting 'tetragonal'
loop_
_space_group_symop_operation_xyz
x,y,z
-y,x,1/2+z
-x,-y,z
y,-x,1/2+z
-x,y,z
x,-y,z
-y,-x,1/2+z
y,x,1/2+z
loop_
_atom_site_type_symbol
_atom_site_label
_atom_site_fract_x
_atom_site_fract_y
_atom_site_fract_z
Si Si1 0.327858 0.831368 0.442620
Si Si2 0.837149 0.326012 0.107405
Si Si3 0.337149 0.173988 0.701192
Si Si4 0.172142 0.331368 0.365977
Si Si5 0.173642 0.163678 0.282053
Si Si6 0.326358 0.663678 0.526544
O O1 0.500000 0.811996 0.437189
O O2 0.250000 0.749999 0.404299
O O3 0.272294 0.760113 0.486755
O O4 0.281841 0.000000 0.442738
O O5 0.842514 0.500000 0.106058
O O6 0.777722 0.277722 0.154299
O O7 0.732235 0.263435 0.070441
O O8 0.000000 0.264262 0.099443
O O9 0.500000 0.235738 0.709155
O O10 0.232236 0.236565 0.738156
O O11 0.342514 0.000000 0.702539
O O12 0.218157 0.500000 0.365859
O O13 0.227706 0.260112 0.321842
O O14 0.000000 0.311995 0.371408
O O15 0.000000 0.162475 0.280410
O O16 0.235334 0.000000 0.286941
O O17 0.500000 0.662474 0.528187
O O18 0.264666 0.500000 0.521656
#
# Coordination Sequence:
#
# PCOD8307209 Si02
#       6
#     8   8   8   8   8   8
#     4  10  20  33  50  72  98 128 162 201 245 292
#     4   8  13  22  38  60  84 110 143 184 228 274
#     4   8  13  22  38  60  84 110 143 184 228 274
#     4  10  20  33  50  72  98 128 162 201 245 292
#     4   9  16  26  42  65  92 121 154 193 235 280
#     4   9  16  26  42  65  92 121 154 193 235 280
#
# _framework density 18.283881999999998
#
# number of rings (size 3 to 8) (size 9 to 14) (size 15 to 20)
#    0.000    3.000    0.000    3.000    0.000    6.000 
#    0.000    0.000    0.000    2.000    0.000    4.667 
#    0.000    0.000    0.000    0.000    0.000    0.000 
#
# Total GULP energy -595016.144078 kJ/mol
# GULP energy per Si atom -12396.169668 kJ/mol
# Density = 1.824227 g / cm^3
# Si number density = 18.283882 Si / 1000 Ang^3
#
#
#
# Elastic Constant Matrix: (Units=GPa)
#
#
# Indices 1 2 3 4 5 6 
#
# 1 79.5898 30.3622 66.7783 0.0000 0.0000 0.0000
# 2 30.3622 79.5898 66.7783 0.0000 0.0000 0.0000
# 3 66.7783 66.7783 202.7902 0.0000 0.0000 0.0000
# 4 0.0000 0.0000 0.0000 27.3321 0.0000 0.0000
# 5 0.0000 0.0000 0.0000 0.0000 27.3321 0.0000
# 6 0.0000 0.0000 0.0000 0.0000 0.0000 15.1850
#
#
#
# Elastic Compliance Matrix: (Units=1/GPa)
#
#
# Indices 1 2 3 4 5 6 
#
# 1 0.017736 -0.002578 -0.004991 0.000000 0.000000 0.000000
# 2 -0.002578 0.017736 -0.004991 0.000000 0.000000 0.000000
# 3 -0.004991 -0.004991 0.008219 0.000000 0.000000 0.000000
# 4 0.000000 0.000000 0.000000 0.036587 0.000000 0.000000
# 5 0.000000 0.000000 0.000000 0.000000 0.036587 0.000000
# 6 0.000000 0.000000 0.000000 0.000000 0.000000 0.065854
#
#
# Mechanical properties :
#
#
# Convention : Reuss Voigt Hill
#
# Bulk Modulus (GPa) = 53.85458 76.64527 65.24992
# Shear Modulus (GPa) = 23.36121 27.17324 25.26723
#
# Velocity S-wave (km/s) = 3.57836 3.85929 3.72148
# Velocity P-wave (km/s) = 6.82580 7.86571 7.36413
#
# Compressibility (1/GPa) = 0.01856852
#
# Stress axis : x y z
#
# Youngs Moduli (GPa) = 56.38300 56.38300 121.67595
#
# Poissons Ratio (x) = 0.14535 0.60734
# Poissons Ratio (y) = 0.14535 0.60734
# Poissons Ratio (z) = 0.28143 0.28143
#
# Static dielectric constant tensor:
#      x y z
#    x 3.159550 0.000000 0.000000 
#    y 0.000000 3.159550 0.000000 
#    z 0.000000 0.000000 3.748310 
# 
# 
# High freq. dielectric constant tensor:
#      x y z
#    x 1.671520 0.000000 0.000000 
#    y 0.000000 1.671520 0.000000 
#    z 0.000000 0.000000 1.731020 
# 
# From -- ./inp_files/4716.got.cif
#   From: 2010.03.12/outbox.cif.g09.slc.cpg/sg105_3_cif.got.tgz:4716.got - 2010.04.14 01:45:32.
