data_PCOD8307594
_publ_section_title
;
Structure prediction by ZEFSAII (Michael W. Deem and Ramdas Pophale) SiO2 
 PCOD8307594
Probable space group: I 4 M M
;
_chemical_formula_sum "Si O2"
_cell_formula_units_Z 88
_cell_length_a 13.156082
_cell_length_b 13.156082
_cell_length_c 28.291375
_cell_angle_alpha 90.000000
_cell_angle_beta 90.000000
_cell_angle_gamma 90.000000
_cell_volume 4896.741732
_symmetry_space_group_name_H-M "I 4 M M"
_symmetry_group_IT_number 107
_symmetry_cell_setting 'tetragonal'
loop_
_space_group_symop_operation_xyz
x,y,z
-y,x,z
-x,-y,z
y,-x,z
-x,y,z
x,-y,z
-y,-x,z
y,x,z
1/2+x,1/2+y,1/2+z
1/2-y,1/2+x,1/2+z
1/2-x,1/2-y,1/2+z
1/2+y,1/2-x,1/2+z
1/2-x,1/2+y,1/2+z
1/2+x,1/2-y,1/2+z
1/2-y,1/2-x,1/2+z
1/2+y,1/2+x,1/2+z
loop_
_atom_site_type_symbol
_atom_site_label
_atom_site_fract_x
_atom_site_fract_y
_atom_site_fract_z
Si Si1 0.619390 0.886919 0.353020
Si Si2 0.109753 0.109753 0.561918
Si Si3 0.384614 0.119133 0.158332
Si Si4 0.229666 0.770335 0.091733
Si Si5 0.267982 0.732019 0.419588
Si Si6 0.609852 0.390149 0.952655
Si Si7 0.218622 0.382930 0.258178
Si Si8 0.379990 0.379990 0.504758
O O1 0.500000 0.889159 0.359664
O O2 0.659057 0.800593 0.387956
O O3 0.649543 0.859581 0.299292
O O4 0.663618 0.000000 0.364055
O O5 0.193243 0.193243 0.568730
O O6 0.094226 0.094226 0.507314
O O7 0.000000 0.142333 0.584200
O O8 0.500000 0.149179 0.142124
O O9 0.297728 0.152165 0.121841
O O10 0.357955 0.168274 0.208332
O O11 0.376970 0.000000 0.164622
O O12 0.168691 0.831310 0.051742
O O13 0.193811 0.806190 0.446694
O O14 0.332506 0.667495 0.457243
O O15 0.642586 0.500000 0.930621
O O16 0.248449 0.500000 0.263053
O O17 0.322865 0.322865 0.263698
O O18 0.500000 0.357456 0.505027
#
# Coordination Sequence:
#
# PCOD8307594 Si02
#       8
#    16   8  16   8   8   8  16   8
#     4  10  21  36  57  85 113 144 184 228 277 332
#     4   9  18  33  53  78 109 143 176 214 271 336
#     4  10  21  36  57  85 113 144 184 230 282 337
#     4  12  20  37  60  81 109 143 189 235 272 327
#     4  12  20  37  60  81 109 143 187 233 272 325
#     4   9  18  33  53  78 107 139 174 214 269 330
#     4  10  19  36  57  82 116 150 183 225 279 339
#     4  11  26  44  58  77 108 148 190 233 286 338
#
# _framework density 17.971133999999999
#
# number of rings (size 3 to 8) (size 9 to 14) (size 15 to 20)
#    0.000    1.727    2.727    3.273    0.000    2.364 
#    0.000    0.000    0.000    4.364    0.000    1.273 
#    0.000    0.000    0.000    0.000    0.000    0.000 
#
# Total GULP energy -545303.333905 kJ/mol
# GULP energy per Si atom -12393.257589 kJ/mol
# Density = 1.793023 g / cm^3
# Si number density = 17.971134 Si / 1000 Ang^3
#
#
#
# Elastic Constant Matrix: (Units=GPa)
#
#
# Indices 1 2 3 4 5 6 
#
# 1 96.3371 75.9733 54.7292 0.0000 0.0000 0.0003
# 2 75.9733 96.3371 54.7292 0.0000 0.0000 -0.0003
# 3 54.7292 54.7292 101.9640 0.0000 0.0000 0.0000
# 4 0.0000 0.0000 0.0000 43.9899 0.0000 0.0000
# 5 0.0000 0.0000 0.0000 0.0000 43.9899 0.0000
# 6 0.0003 -0.0003 0.0000 0.0000 0.0000 33.3408
#
#
#
# Elastic Compliance Matrix: (Units=1/GPa)
#
#
# Indices 1 2 3 4 5 6 
#
# 1 0.028956 -0.020150 -0.004727 0.000000 0.000000 0.000000
# 2 -0.020150 0.028956 -0.004727 0.000000 0.000000 0.000000
# 3 -0.004727 -0.004727 0.014881 0.000000 0.000000 0.000000
# 4 0.000000 0.000000 0.000000 0.022732 0.000000 0.000000
# 5 0.000000 0.000000 0.000000 0.000000 0.022732 0.000000
# 6 0.000000 0.000000 0.000000 0.000000 0.000000 0.029993
#
#
# Mechanical properties :
#
#
# Convention : Reuss Voigt Hill
#
# Bulk Modulus (GPa) = 73.60011 73.94462 73.77236
# Shear Modulus (GPa) = 23.58615 31.54454 27.56534
#
# Velocity S-wave (km/s) = 3.62670 4.19416 3.92071
# Velocity P-wave (km/s) = 7.65381 8.04303 7.85083
#
# Compressibility (1/GPa) = 0.01358694
#
# Stress axis : x y z
#
# Youngs Moduli (GPa) = 34.53469 34.53469 67.19777
#
# Poissons Ratio (x) = 0.69589 0.31762
# Poissons Ratio (y) = 0.69589 0.31762
# Poissons Ratio (z) = 0.16323 0.16323
#
# Static dielectric constant tensor:
#      x y z
#    x 3.562350 0.000000 0.000000 
#    y 0.000000 3.562350 0.000000 
#    z 0.000000 0.000000 3.355800 
# 
# 
# High freq. dielectric constant tensor:
#      x y z
#    x 1.703220 0.000000 0.000000 
#    y 0.000000 1.703220 0.000000 
#    z 0.000000 0.000000 1.694180 
# 
# From -- ./inp_files/6069.got.cif
#   From: 2010.03.12/outbox.cif.g09.slc.cpg/sg107_4_cif.got.tgz:6069.got - 2010.04.14 01:49:11.
