data_PCOD8307450
_publ_section_title
;
Structure prediction by ZEFSAII (Michael W. Deem and Ramdas Pophale) SiO2 
 PCOD8307450
Probable space group: P 42 B C
;
_chemical_formula_sum "Si O2"
_cell_formula_units_Z 60
_cell_length_a 12.406077
_cell_length_b 12.406077
_cell_length_c 17.816800
_cell_angle_alpha 90.000000
_cell_angle_beta 90.000000
_cell_angle_gamma 90.000000
_cell_volume 2742.196989
_symmetry_space_group_name_H-M "P 42 B C"
_symmetry_group_IT_number 106
_symmetry_cell_setting 'tetragonal'
loop_
_space_group_symop_operation_xyz
x,y,z
-y,x,1/2+z
-x,-y,z
y,-x,1/2+z
1/2-x,1/2+y,z
1/2+x,1/2-y,z
1/2-y,1/2-x,1/2+z
1/2+y,1/2+x,1/2+z
loop_
_atom_site_type_symbol
_atom_site_label
_atom_site_fract_x
_atom_site_fract_y
_atom_site_fract_z
Si Si1 0.537931 0.732026 0.054580
Si Si2 0.163826 0.703584 0.185048
Si Si3 0.933210 0.811244 0.483195
Si Si4 0.354511 0.591357 0.113684
Si Si5 0.063616 0.400438 0.951913
Si Si6 0.500000 0.500000 0.871666
Si Si7 0.661320 0.564736 0.245354
Si Si8 0.988534 0.381380 0.783957
O O1 0.573639 0.814533 0.120313
O O2 0.468669 0.632662 0.085160
O O3 0.644684 0.679984 0.016419
O O4 0.460192 0.792548 0.997205
O O5 0.278194 0.688879 0.142676
O O6 0.133188 0.818480 0.217067
O O7 0.157531 0.629187 0.258412
O O8 0.916643 0.692769 0.446263
O O9 0.973212 0.895166 0.420749
O O10 0.021774 0.796504 0.548606
O O11 0.381293 0.518317 0.184579
O O12 0.000000 0.500000 0.990831
O O13 0.005227 0.386443 0.872239
O O14 0.467157 0.604415 0.823211
O O15 0.791782 0.569224 0.251653
O O16 0.000000 0.500000 0.747498
#
# Coordination Sequence:
#
# PCOD8307450 Si02
#       8
#     8   8   8   8   8   4   8   8
#     4  12  23  44  75 107 136 195 242 310 369 443
#     4  11  25  42  74 100 143 191 239 309 369 437
#     4  12  25  47  74 109 148 193 254 312 376 454
#     4  11  24  45  70 107 144 183 252 306 368 446
#     4  11  27  46  70 105 152 192 247 305 374 447
#     4  12  26  42  74 110 148 202 246 314 382 458
#     4  11  25  45  70 108 143 192 246 298 375 442
#     4  10  26  46  64 103 145 188 235 294 365 448
#
# _framework density 21.880265999999999
#
# number of rings (size 3 to 8) (size 9 to 14) (size 15 to 20)
#    0.000    0.800    2.667    3.200    5.600    4.800 
#    0.000    0.000    0.000    0.000    0.000    0.000 
#    0.000    0.000    0.000    0.000    0.000    0.000 
#
# Total GULP energy -743764.938799 kJ/mol
# GULP energy per Si atom -12396.082313 kJ/mol
# Density = 2.183047 g / cm^3
# Si number density = 21.880266 Si / 1000 Ang^3
#
#
#
# Elastic Constant Matrix: (Units=GPa)
#
#
# Indices 1 2 3 4 5 6 
#
# 1 112.4237 43.8575 50.2199 0.0000 0.0000 0.0000
# 2 43.8575 112.4237 50.2199 0.0000 0.0000 0.0000
# 3 50.2199 50.2199 124.5643 0.0000 0.0000 0.0000
# 4 0.0000 0.0000 0.0000 13.5462 0.0000 0.0000
# 5 0.0000 0.0000 0.0000 0.0000 13.5462 0.0000
# 6 0.0000 0.0000 0.0000 0.0000 0.0000 16.1716
#
#
#
# Elastic Compliance Matrix: (Units=1/GPa)
#
#
# Indices 1 2 3 4 5 6 
#
# 1 0.011610 -0.002974 -0.003482 0.000000 0.000000 0.000000
# 2 -0.002974 0.011610 -0.003482 0.000000 0.000000 0.000000
# 3 -0.003482 -0.003482 0.010836 0.000000 0.000000 0.000000
# 4 0.000000 0.000000 0.000000 0.073821 0.000000 0.000000
# 5 0.000000 0.000000 0.000000 0.000000 0.073821 0.000000
# 6 0.000000 0.000000 0.000000 0.000000 0.000000 0.061837
#
#
# Mechanical properties :
#
#
# Convention : Reuss Voigt Hill
#
# Bulk Modulus (GPa) = 70.51760 70.88957 70.70358
# Shear Modulus (GPa) = 18.64707 22.32711 20.48709
#
# Velocity S-wave (km/s) = 2.92247 3.19787 3.06327
# Velocity P-wave (km/s) = 6.60958 6.79002 6.70041
#
# Compressibility (1/GPa) = 0.01418086
#
# Stress axis : x y z
#
# Youngs Moduli (GPa) = 86.12916 86.12916 92.28875
#
# Poissons Ratio (x) = 0.25614 0.32134
# Poissons Ratio (y) = 0.25614 0.32134
# Poissons Ratio (z) = 0.29990 0.29990
#
# Static dielectric constant tensor:
#      x y z
#    x 4.164500 0.000000 0.000000 
#    y 0.000000 4.164500 0.000000 
#    z 0.000000 0.000000 4.046040 
# 
# 
# High freq. dielectric constant tensor:
#      x y z
#    x 1.865480 0.000000 0.000000 
#    y 0.000000 1.865480 0.000000 
#    z 0.000000 0.000000 1.868620 
# 
# From -- ./inp_files/1674.got.cif
#   From: 2010.03.12/outbox.cif.g09.slc.cpg/sg106_cif.got.tgz:1674.got - 2010.04.14 01:48:02.
