data_PCOD8307679
_publ_section_title
;
Structure prediction by ZEFSAII (Michael W. Deem and Ramdas Pophale) SiO2 
 PCOD8307679
Probable space group: I 4 M M
;
_chemical_formula_sum "Si O2"
_cell_formula_units_Z 96
_cell_length_a 23.745720
_cell_length_b 23.745720
_cell_length_c 13.919384
_cell_angle_alpha 90.000000
_cell_angle_beta 90.000000
_cell_angle_gamma 90.000000
_cell_volume 7848.572982
_symmetry_space_group_name_H-M "I 4 M M"
_symmetry_group_IT_number 107
_symmetry_cell_setting 'tetragonal'
loop_
_space_group_symop_operation_xyz
x,y,z
-y,x,z
-x,-y,z
y,-x,z
-x,y,z
x,-y,z
-y,-x,z
y,x,z
1/2+x,1/2+y,1/2+z
1/2-y,1/2+x,1/2+z
1/2-x,1/2-y,1/2+z
1/2+y,1/2-x,1/2+z
1/2-x,1/2+y,1/2+z
1/2+x,1/2-y,1/2+z
1/2-y,1/2-x,1/2+z
1/2+y,1/2+x,1/2+z
loop_
_atom_site_type_symbol
_atom_site_label
_atom_site_fract_x
_atom_site_fract_y
_atom_site_fract_z
Si Si1 0.815631 0.279137 0.076340
Si Si2 0.857781 0.236763 0.262548
Si Si3 0.655458 0.564214 0.082124
Si Si4 0.720862 0.184371 0.864322
Si Si5 0.844543 0.064214 0.358541
Si Si6 0.642221 0.736763 0.178113
O O1 0.766820 0.233181 0.073601
O O2 0.863172 0.258822 0.152432
O O3 0.788621 0.338351 0.110607
O O4 0.842714 0.286556 0.970331
O O5 0.811258 0.188743 0.270353
O O6 0.838351 0.288620 0.330055
O O7 0.916510 0.210643 0.298815
O O8 0.641839 0.500000 0.108906
O O9 0.600563 0.600563 0.110147
O O10 0.710643 0.583491 0.141849
O O11 0.669908 0.571549 0.970332
O O12 0.766817 0.233184 0.867067
O O13 0.741179 0.136831 0.788230
O O14 0.899438 0.100563 0.330518
O O15 0.858162 0.000000 0.331759
O O16 0.688744 0.688744 0.170302
#
# Coordination Sequence:
#
# PCOD8307679 Si02
#       6
#    16  16  16  16  16  16
#     4   8  12  18  30  47  64  79  94 115 147 190
#     4   8  13  20  30  45  63  80  98 123 155 189
#     4   9  16  24  33  44  59  81 109 140 170 195
#     4   8  12  18  30  47  64  79  94 115 147 190
#     4   9  16  24  33  44  59  81 109 140 170 195
#     4   8  13  20  30  45  63  80  98 123 155 189
#
# _framework density 12.231522999999999
#
# number of rings (size 3 to 8) (size 9 to 14) (size 15 to 20)
#    0.000    3.667    0.000    3.000    0.000    4.333 
#    0.000    1.667    0.000    1.000    0.000    0.000 
#    0.000    0.000    0.000   13.000    0.000   13.667 
#
# Total GULP energy -594689.842417 kJ/mol
# GULP energy per Si atom -12389.371717 kJ/mol
# Density = 1.220368 g / cm^3
# Si number density = 12.231523 Si / 1000 Ang^3
#
#
#
# Elastic Constant Matrix: (Units=GPa)
#
#
# Indices 1 2 3 4 5 6 
#
# 1 42.4392 40.7666 32.8181 0.0000 0.0000 0.0000
# 2 40.7666 42.4392 32.8181 0.0000 0.0000 0.0000
# 3 32.8181 32.8181 94.5352 0.0000 0.0000 0.0000
# 4 0.0000 0.0000 0.0000 13.7839 0.0000 0.0000
# 5 0.0000 0.0000 0.0000 0.0000 13.7839 0.0000
# 6 0.0000 0.0000 0.0000 0.0000 0.0000 11.9317
#
#
#
# Elastic Compliance Matrix: (Units=1/GPa)
#
#
# Indices 1 2 3 4 5 6 
#
# 1 0.307217 -0.290666 -0.005746 0.000000 0.000000 0.000002
# 2 -0.290666 0.307217 -0.005746 0.000000 0.000000 -0.000002
# 3 -0.005746 -0.005746 0.014567 0.000000 0.000000 0.000000
# 4 0.000000 0.000000 0.000000 0.072548 0.000000 0.000000
# 5 0.000000 0.000000 0.000000 0.000000 0.072548 0.000000
# 6 0.000002 -0.000002 0.000000 0.000000 0.000000 0.083810
#
#
# Mechanical properties :
#
#
# Convention : Reuss Voigt Hill
#
# Bulk Modulus (GPa) = 40.50826 43.57990 42.04408
# Shear Modulus (GPa) = 3.40031 12.76729 8.08380
#
# Velocity S-wave (km/s) = 1.66913 3.23430 2.57358
# Velocity P-wave (km/s) = 6.07491 7.04657 6.57870
#
# Compressibility (1/GPa) = 0.02468632
#
# Stress axis : x y z
#
# Youngs Moduli (GPa) = 3.25503 3.25503 68.64693
#
# Poissons Ratio (x) = 0.94613 0.39442
# Poissons Ratio (y) = 0.94613 0.39442
# Poissons Ratio (z) = 0.01870 0.01870
#
# Static dielectric constant tensor:
#      x y z
#    x 2.307480 0.000000 0.000000 
#    y 0.000000 2.307480 0.000000 
#    z 0.000000 0.000000 2.805050 
# 
# 
# High freq. dielectric constant tensor:
#      x y z
#    x 1.425230 0.000000 0.000000 
#    y 0.000000 1.425230 0.000000 
#    z 0.000000 0.000000 1.468760 
# 
# From -- ./inp_files/2509.got.cif
#   From: 2010.03.12/outbox.cif.g09.slc.cpg/sg107_2_cif.got.tgz:2509.got - 2010.04.14 01:49:11.
