data_PCOD8307585
_publ_section_title
;
Structure prediction by ZEFSAII (Michael W. Deem and Ramdas Pophale) SiO2 
 PCOD8307585
Probable space group: I 4 M M
;
_chemical_formula_sum "Si O2"
_cell_formula_units_Z 80
_cell_length_a 29.425557
_cell_length_b 29.425557
_cell_length_c 5.001856
_cell_angle_alpha 90.000000
_cell_angle_beta 90.000000
_cell_angle_gamma 90.000000
_cell_volume 4330.924066
_symmetry_space_group_name_H-M "I 4 M M"
_symmetry_group_IT_number 107
_symmetry_cell_setting 'tetragonal'
loop_
_space_group_symop_operation_xyz
x,y,z
-y,x,z
-x,-y,z
y,-x,z
-x,y,z
x,-y,z
-y,-x,z
y,x,z
1/2+x,1/2+y,1/2+z
1/2-y,1/2+x,1/2+z
1/2-x,1/2-y,1/2+z
1/2+y,1/2-x,1/2+z
1/2-x,1/2+y,1/2+z
1/2+x,1/2-y,1/2+z
1/2-y,1/2-x,1/2+z
1/2+y,1/2+x,1/2+z
loop_
_atom_site_type_symbol
_atom_site_label
_atom_site_fract_x
_atom_site_fract_y
_atom_site_fract_z
Si Si1 0.500000 0.269467 0.314070
Si Si2 0.096677 0.446826 0.297172
Si Si3 0.096884 0.764853 0.706583
Si Si4 0.000000 0.173874 0.313739
Si Si5 0.168690 0.372343 0.316125
Si Si6 0.402068 0.327032 0.707268
O O1 0.546152 0.243317 0.239579
O O2 0.500000 0.280445 0.629835
O O3 0.500000 0.315370 0.129414
O O4 0.105646 0.500000 0.256506
O O5 0.072774 0.438012 0.579209
O O6 0.145556 0.421757 0.276693
O O7 0.129480 0.722166 0.750101
O O8 0.104244 0.785705 0.414590
O O9 0.104971 0.805653 0.915505
O O10 0.952260 0.149235 0.238503
O O11 0.163199 0.356048 0.620111
O O12 0.365537 0.365537 0.761528
#
# Coordination Sequence:
#
# PCOD8307585 Si02
#       6
#     8  16  16   8  16  16
#     4   8  16  28  48  76  96 121 163 206 252 298
#     4  10  21  35  51  74 100 132 172 212 260 314
#     4  10  19  33  54  76 100 133 169 210 258 299
#     4   8  16  30  46  75 108 130 156 194 247 286
#     4  10  21  36  52  72 100 134 169 213 263 311
#     4  10  19  33  54  80 107 133 167 207 245 294
#
# _framework density 18.471807999999999
#
# number of rings (size 3 to 8) (size 9 to 14) (size 15 to 20)
#    0.000    2.400    0.000    2.400    1.400    1.200 
#    0.000    0.000    0.000   12.300    0.000    0.000 
#    0.000    9.600    0.000    0.000    0.000    1.600 
#
# Total GULP energy -495712.884780 kJ/mol
# GULP energy per Si atom -12392.822119 kJ/mol
# Density = 1.842976 g / cm^3
# Si number density = 18.471808 Si / 1000 Ang^3
#
#
#
# Elastic Constant Matrix: (Units=GPa)
#
#
# Indices 1 2 3 4 5 6 
#
# 1 74.1074 35.5183 2.3695 0.0000 0.0000 0.0000
# 2 35.5183 74.1074 2.3695 0.0000 0.0000 0.0000
# 3 2.3695 2.3695 69.9100 0.0000 0.0000 0.0000
# 4 0.0000 0.0000 0.0000 19.1615 0.0000 0.0000
# 5 0.0000 0.0000 0.0000 0.0000 19.1615 0.0000
# 6 0.0000 0.0000 0.0000 0.0000 0.0000 15.1347
#
#
#
# Elastic Compliance Matrix: (Units=1/GPa)
#
#
# Indices 1 2 3 4 5 6 
#
# 1 0.017525 -0.008389 -0.000310 0.000000 0.000000 0.000000
# 2 -0.008389 0.017525 -0.000310 0.000000 0.000000 0.000000
# 3 -0.000310 -0.000310 0.014325 0.000000 0.000000 0.000000
# 4 0.000000 0.000000 0.000000 0.052188 0.000000 0.000000
# 5 0.000000 0.000000 0.000000 0.000000 0.052188 0.000000
# 6 0.000000 0.000000 0.000000 0.000000 0.000000 0.066073
#
#
# Mechanical properties :
#
#
# Convention : Reuss Voigt Hill
#
# Bulk Modulus (GPa) = 31.89058 33.18217 32.53638
# Shear Modulus (GPa) = 20.13748 22.54939 21.34343
#
# Velocity S-wave (km/s) = 3.30536 3.49771 3.40289
# Velocity P-wave (km/s) = 5.64528 5.85787 5.75256
#
# Compressibility (1/GPa) = 0.03135722
#
# Stress axis : x y z
#
# Youngs Moduli (GPa) = 57.06239 57.06239 69.80759
#
# Poissons Ratio (x) = 0.47872 0.02161
# Poissons Ratio (y) = 0.47872 0.02161
# Poissons Ratio (z) = 0.01767 0.01767
#
# Static dielectric constant tensor:
#      x y z
#    x 3.156490 0.000000 0.000000 
#    y 0.000000 3.156490 0.000000 
#    z 0.000000 0.000000 3.546290 
# 
# 
# High freq. dielectric constant tensor:
#      x y z
#    x 1.689630 0.000000 0.000000 
#    y 0.000000 1.689630 0.000000 
#    z 0.000000 0.000000 1.740660 
# 
# From -- ./inp_files/469.got.cif
#   From: 2010.03.12/outbox.cif.g09.slc.cpg/sg107_1_cif.got.tgz:469.got - 2010.04.14 01:49:11.
