data_PCOD8307331
_publ_section_title
;
Structure prediction by ZEFSAII (Michael W. Deem and Ramdas Pophale) SiO2 
 PCOD8307331
Probable space group: P 42 M C
;
_chemical_formula_sum "Si O2"
_cell_formula_units_Z 48
_cell_length_a 8.219037
_cell_length_b 8.219037
_cell_length_c 33.413589
_cell_angle_alpha 90.000000
_cell_angle_beta 90.000000
_cell_angle_gamma 90.000000
_cell_volume 2257.173783
_symmetry_space_group_name_H-M "P 42 M C"
_symmetry_group_IT_number 105
_symmetry_cell_setting 'tetragonal'
loop_
_space_group_symop_operation_xyz
x,y,z
-y,x,1/2+z
-x,-y,z
y,-x,1/2+z
-x,y,z
x,-y,z
-y,-x,1/2+z
y,x,1/2+z
loop_
_atom_site_type_symbol
_atom_site_label
_atom_site_fract_x
_atom_site_fract_y
_atom_site_fract_z
Si Si1 0.681541 0.681397 0.032030
Si Si2 0.183485 0.817639 0.109463
Si Si3 0.500000 0.688332 0.737248
Si Si4 0.182663 0.817289 0.954682
Si Si5 0.500000 0.813444 0.824206
Si Si6 0.183096 0.687452 0.693476
Si Si7 0.686703 0.812486 0.370548
O O1 0.500000 0.710337 0.047723
O O2 0.712122 0.500000 0.016372
O O3 0.794961 0.709175 0.070212
O O4 0.708019 0.794731 0.993724
O O5 0.295101 0.767014 0.146895
O O6 0.000000 0.800098 0.124844
O O7 0.225544 0.000000 0.095812
O O8 0.500000 0.500000 0.724908
O O9 0.500000 0.705051 0.784698
O O10 0.331360 0.767000 0.719460
O O11 0.227489 0.700789 0.917728
O O12 0.000000 0.782943 0.969177
O O13 0.205532 0.000000 0.938586
O O14 0.331219 0.780899 0.847720
O O15 0.500000 0.000000 0.811429
O O16 0.169990 0.500000 0.704949
O O17 0.000000 0.765330 0.701156
O O18 0.500000 0.802328 0.357542
O O19 0.751327 0.000000 0.362060
#
# Coordination Sequence:
#
# PCOD8307331 Si02
#       7
#     8   8   4   8   4   8   8
#     4  11  24  37  52  79 115 156 201 248 295 351
#     4  10  21  37  57  82 113 150 194 245 302 362
#     4  10  22  40  62  90 122 158 206 256 304 370
#     4  10  21  38  60  86 117 153 196 247 305 366
#     4  12  26  42  64  96 132 168 208 258 316 384
#     4   9  19  37  61  87 118 157 199 249 308 366
#     4  10  22  42  68  94 124 165 210 260 316 377
#
# _framework density 21.265533000000001
#
# number of rings (size 3 to 8) (size 9 to 14) (size 15 to 20)
#    0.000    1.833    0.000    3.250    2.333    7.667 
#    0.000    1.667    0.000    0.000    0.000    0.000 
#    0.000    0.000    0.000    0.000    0.000    0.000 
#
# Total GULP energy -594931.841474 kJ/mol
# GULP energy per Si atom -12394.413364 kJ/mol
# Density = 2.121713 g / cm^3
# Si number density = 21.265533 Si / 1000 Ang^3
#
#
#
# Elastic Constant Matrix: (Units=GPa)
#
#
# Indices 1 2 3 4 5 6 
#
# 1 80.0168 30.6984 34.1410 0.0000 0.0000 0.0000
# 2 30.6984 80.0168 34.1410 0.0000 0.0000 0.0000
# 3 34.1410 34.1410 106.9604 0.0000 0.0000 0.0000
# 4 0.0000 0.0000 0.0000 26.5868 0.0000 0.0000
# 5 0.0000 0.0000 0.0000 0.0000 26.5868 0.0000
# 6 0.0000 0.0000 0.0000 0.0000 0.0000 21.9662
#
#
#
# Elastic Compliance Matrix: (Units=1/GPa)
#
#
# Indices 1 2 3 4 5 6 
#
# 1 0.015761 -0.004515 -0.003590 0.000000 0.000000 0.000000
# 2 -0.004515 0.015761 -0.003590 0.000000 0.000000 0.000000
# 3 -0.003590 -0.003590 0.011641 0.000000 0.000000 0.000000
# 4 0.000000 0.000000 0.000000 0.037613 0.000000 0.000000
# 5 0.000000 0.000000 0.000000 0.000000 0.037613 0.000000
# 6 0.000000 0.000000 0.000000 0.000000 0.000000 0.045524
#
#
# Mechanical properties :
#
#
# Convention : Reuss Voigt Hill
#
# Bulk Modulus (GPa) = 50.57065 51.66162 51.11613
# Shear Modulus (GPa) = 25.78736 26.22887 26.00811
#
# Velocity S-wave (km/s) = 3.48607 3.51579 3.50096
# Velocity P-wave (km/s) = 6.32738 6.38963 6.35858
#
# Compressibility (1/GPa) = 0.01977432
#
# Stress axis : x y z
#
# Youngs Moduli (GPa) = 63.44681 63.44681 85.90448
#
# Poissons Ratio (x) = 0.28647 0.30837
# Poissons Ratio (y) = 0.28647 0.30837
# Poissons Ratio (z) = 0.22775 0.22775
#
# Static dielectric constant tensor:
#      x y z
#    x 3.934280 0.000000 0.000000 
#    y 0.000000 3.934280 0.000000 
#    z 0.000000 0.000000 3.526040 
# 
# 
# High freq. dielectric constant tensor:
#      x y z
#    x 1.832680 0.000000 0.000000 
#    y 0.000000 1.832680 0.000000 
#    z 0.000000 0.000000 1.823170 
# 
# From -- ./inp_files/4760.got.cif
#   From: 2010.03.12/outbox.cif.g09.slc.cpg/sg105_3_cif.got.tgz:4760.got - 2010.04.14 01:45:32.
