data_PCOD8307102
_publ_section_title
;
Structure prediction by ZEFSAII (Michael W. Deem and Ramdas Pophale) SiO2 
 PCOD8307102
Probable space group: P 42 M C
;
_chemical_formula_sum "Si O2"
_cell_formula_units_Z 40
_cell_length_a 14.379214
_cell_length_b 14.379214
_cell_length_c 15.512948
_cell_angle_alpha 90.000000
_cell_angle_beta 90.000000
_cell_angle_gamma 90.000000
_cell_volume 3207.484978
_symmetry_space_group_name_H-M "P 42 M C"
_symmetry_group_IT_number 105
_symmetry_cell_setting 'tetragonal'
loop_
_space_group_symop_operation_xyz
x,y,z
-y,x,1/2+z
-x,-y,z
y,-x,1/2+z
-x,y,z
x,-y,z
-y,-x,1/2+z
y,x,1/2+z
loop_
_atom_site_type_symbol
_atom_site_label
_atom_site_fract_x
_atom_site_fract_y
_atom_site_fract_z
Si Si1 0.396459 0.389905 0.161260
Si Si2 0.291632 0.389758 0.990032
Si Si3 0.898140 0.389859 0.064903
Si Si4 0.101860 0.610141 0.257617
Si Si5 0.389758 0.708368 0.832488
O O1 0.500000 0.347181 0.161260
O O2 0.400349 0.500000 0.161260
O O3 0.343636 0.356007 0.246379
O O4 0.343636 0.356007 0.076141
O O5 0.303261 0.500000 0.974524
O O6 0.334653 0.334653 0.911260
O O7 0.183610 0.358750 0.999967
O O8 0.894847 0.500000 0.072135
O O9 0.881275 0.349414 0.161260
O O10 0.000000 0.357218 0.030424
O O11 0.105153 0.500000 0.250385
O O12 0.183610 0.641250 0.322553
O O13 0.000000 0.642782 0.292096
O O14 0.500000 0.696739 0.847996
#
# Coordination Sequence:
#
# PCOD8307102 Si02
#       5
#     8   8   8   8   8
#     4   9  16  24  31  43  70 104 131 150 169 201
#     4  10  17  24  34  51  74 101 128 152 180 216
#     4   8  13  23  38  52  67  90 122 161 196 216
#     4   8  13  23  38  52  67  90 122 161 196 216
#     4  10  17  24  34  51  74 101 128 152 180 216
#
# _framework density 12.470829999999999
#
# number of rings (size 3 to 8) (size 9 to 14) (size 15 to 20)
#    0.000    3.000    2.000    2.400    0.000    2.000 
#    0.000    0.000    0.000    0.000    0.000    1.400 
#    0.000    8.800    0.000    4.400    0.000    0.400 
#
# Total GULP energy -495579.947486 kJ/mol
# GULP energy per Si atom -12389.498687 kJ/mol
# Density = 1.244245 g / cm^3
# Si number density = 12.470830 Si / 1000 Ang^3
#
#
#
# Elastic Constant Matrix: (Units=GPa)
#
#
# Indices 1 2 3 4 5 6 
#
# 1 72.9998 29.8708 45.8991 0.0000 0.0000 0.0000
# 2 29.8708 72.9998 45.8991 0.0000 0.0000 0.0000
# 3 45.8991 45.8991 97.7020 0.0000 0.0000 0.0000
# 4 0.0000 0.0000 0.0000 3.2846 0.0000 0.0000
# 5 0.0000 0.0000 0.0000 0.0000 3.2846 0.0000
# 6 0.0000 0.0000 0.0000 0.0000 0.0000 5.1906
#
#
#
# Elastic Compliance Matrix: (Units=1/GPa)
#
#
# Indices 1 2 3 4 5 6 
#
# 1 0.019962 -0.003224 -0.007863 0.000000 0.000000 0.000000
# 2 -0.003224 0.019962 -0.007863 0.000000 0.000000 0.000000
# 3 -0.007863 -0.007863 0.017623 0.000000 0.000000 0.000000
# 4 0.000000 0.000000 0.000000 0.304453 0.000000 0.000000
# 5 0.000000 0.000000 0.000000 0.000000 0.304453 0.000000
# 6 0.000000 0.000000 0.000000 0.000000 0.000000 0.192655
#
#
# Mechanical properties :
#
#
# Convention : Reuss Voigt Hill
#
# Bulk Modulus (GPa) = 50.90078 54.11553 52.50816
# Shear Modulus (GPa) = 5.53367 10.48746 8.01057
#
# Velocity S-wave (km/s) = 2.10877 2.90308 2.53720
# Velocity P-wave (km/s) = 6.84352 7.39764 7.12596
#
# Compressibility (1/GPa) = 0.01964606
#
# Stress axis : x y z
#
# Youngs Moduli (GPa) = 50.09508 50.09508 56.74320
#
# Poissons Ratio (x) = 0.16152 0.44618
# Poissons Ratio (y) = 0.16152 0.44618
# Poissons Ratio (z) = 0.39391 0.39391
#
# Static dielectric constant tensor:
#      x y z
#    x 2.545760 0.000000 0.000000 
#    y 0.000000 2.545760 0.000000 
#    z 0.000000 0.000000 2.523900 
# 
# 
# High freq. dielectric constant tensor:
#      x y z
#    x 1.443170 0.000000 0.000000 
#    y 0.000000 1.443170 0.000000 
#    z 0.000000 0.000000 1.466510 
# 
# From -- ./inp_files/1736.got.cif
#   From: 2010.03.12/outbox.cif.g09.slc.cpg/sg105_1_cif.got.tgz:1736.got - 2010.04.14 01:45:32.
