data_PCOD8307765
_publ_section_title
;
Structure prediction by ZEFSAII (Michael W. Deem and Ramdas Pophale) SiO2 
 PCOD8307765
Probable space group: I 4 C M
;
_chemical_formula_sum "Si O2"
_cell_formula_units_Z 84
_cell_length_a 20.275404
_cell_length_b 20.275404
_cell_length_c 10.409313
_cell_angle_alpha 90.000000
_cell_angle_beta 90.000000
_cell_angle_gamma 90.000000
_cell_volume 4279.185376
_symmetry_space_group_name_H-M "I 4 C M"
_symmetry_group_IT_number 108
_symmetry_cell_setting 'tetragonal'
loop_
_space_group_symop_operation_xyz
x,y,z
-y,x,z
-x,-y,z
y,-x,z
-x,y,1/2+z
x,-y,1/2+z
-y,-x,1/2+z
y,x,1/2+z
1/2+x,1/2+y,1/2+z
1/2-y,1/2+x,1/2+z
1/2-x,1/2-y,1/2+z
1/2+y,1/2-x,1/2+z
1/2-x,1/2+y,z
1/2+x,1/2-y,z
1/2-y,1/2-x,z
1/2+y,1/2+x,z
loop_
_atom_site_type_symbol
_atom_site_label
_atom_site_fract_x
_atom_site_fract_y
_atom_site_fract_z
Si Si1 0.601731 0.898270 0.115991
Si Si2 0.574984 0.244851 0.709964
Si Si3 0.919198 0.820639 0.465562
Si Si4 0.312427 0.423309 0.965562
Si Si5 0.101731 0.601731 0.815133
Si Si6 0.074984 0.255149 0.221160
Si Si7 0.500000 0.000000 0.715562
O O1 0.579195 0.833204 0.190680
O O2 0.545787 0.954214 0.126232
O O3 0.615084 0.884917 0.965562
O O4 0.608352 0.281853 0.589944
O O5 0.604466 0.269997 0.844961
O O6 0.500000 0.266960 0.715562
O O7 0.885892 0.892597 0.465561
O O8 0.891648 0.781852 0.341181
O O9 0.998327 0.824330 0.465562
O O10 0.269997 0.395534 0.086164
O O11 0.079194 0.666796 0.740441
O O12 0.045786 0.545786 0.804892
#
# Coordination Sequence:
#
# PCOD8307765 Si02
#       7
#     8  16  16  16   8  16   4
#     4  12  23  42  61  94 124 161 202 251 303 351
#     4  10  21  38  61  85 124 164 198 247 307 366
#     4  10  20  40  61  89 121 159 205 251 310 360
#     4  10  22  38  63  91 119 161 207 251 304 368
#     4  12  23  42  61  94 124 161 202 251 303 351
#     4  10  21  38  61  85 124 164 198 247 307 366
#     4  12  26  36  68  98 124 150 208 264 282 362
#
# _framework density 19.629904
#
# number of rings (size 3 to 8) (size 9 to 14) (size 15 to 20)
#    0.000    1.524    3.810    1.429    0.000    1.143 
#    3.429    5.714    0.000    6.857    0.000    0.000 
#    0.000    0.000    0.000    0.000    0.000    0.000 
#
# Total GULP energy -520571.569448 kJ/mol
# GULP energy per Si atom -12394.561177 kJ/mol
# Density = 1.958523 g / cm^3
# Si number density = 19.629904 Si / 1000 Ang^3
#
#
#
# Elastic Constant Matrix: (Units=GPa)
#
#
# Indices 1 2 3 4 5 6 
#
# 1 86.6785 44.1617 52.0460 0.0000 0.0000 0.0000
# 2 44.1617 86.6785 52.0460 0.0000 0.0000 0.0000
# 3 52.0460 52.0460 185.5227 0.0000 0.0000 0.0000
# 4 0.0000 0.0000 0.0000 18.6955 0.0000 0.0000
# 5 0.0000 0.0000 0.0000 0.0000 18.6955 0.0000
# 6 0.0000 0.0000 0.0000 0.0000 0.0000 29.8460
#
#
#
# Elastic Compliance Matrix: (Units=1/GPa)
#
#
# Indices 1 2 3 4 5 6 
#
# 1 0.016679 -0.006841 -0.002760 0.000000 0.000000 0.000000
# 2 -0.006841 0.016679 -0.002760 0.000000 0.000000 0.000000
# 3 -0.002760 -0.002760 0.006939 0.000000 0.000000 0.000000
# 4 0.000000 0.000000 0.000000 0.053489 0.000000 0.000000
# 5 0.000000 0.000000 0.000000 0.000000 0.053489 0.000000
# 6 0.000000 0.000000 0.000000 0.000000 0.000000 0.033505
#
#
# Mechanical properties :
#
#
# Convention : Reuss Voigt Hill
#
# Bulk Modulus (GPa) = 64.20209 72.82079 68.51144
# Shear Modulus (GPa) = 23.73105 27.48914 25.61009
#
# Velocity S-wave (km/s) = 3.48073 3.74621 3.61591
# Velocity P-wave (km/s) = 6.99509 7.47593 7.23950
#
# Compressibility (1/GPa) = 0.01557582
#
# Stress axis : x y z
#
# Youngs Moduli (GPa) = 59.95395 59.95395 144.11668
#
# Poissons Ratio (x) = 0.41013 0.39778
# Poissons Ratio (y) = 0.41013 0.39778
# Poissons Ratio (z) = 0.16548 0.16548
#
# Static dielectric constant tensor:
#      x y z
#    x 3.339630 0.000000 0.000000 
#    y 0.000000 3.339630 0.000000 
#    z 0.000000 0.000000 4.104230 
# 
# 
# High freq. dielectric constant tensor:
#      x y z
#    x 1.749670 0.000000 0.000000 
#    y 0.000000 1.749670 0.000000 
#    z 0.000000 0.000000 1.786870 
# 
# From -- ./inp_files/1458.got.cif
#   From: 2010.03.12/outbox.cif.g09.slc.cpg/sg108_1_cif.got.tgz:1458.got - 2010.04.14 01:53:11.
