data_PCOD8307772
_publ_section_title
;
Structure prediction by ZEFSAII (Michael W. Deem and Ramdas Pophale) SiO2 
 PCOD8307772
Probable space group: I 4 C M
;
_chemical_formula_sum "Si O2"
_cell_formula_units_Z 64
_cell_length_a 24.812774
_cell_length_b 24.812774
_cell_length_c 5.111589
_cell_angle_alpha 90.000000
_cell_angle_beta 90.000000
_cell_angle_gamma 90.000000
_cell_volume 3147.071186
_symmetry_space_group_name_H-M "I 4 C M"
_symmetry_group_IT_number 108
_symmetry_cell_setting 'tetragonal'
loop_
_space_group_symop_operation_xyz
x,y,z
-y,x,z
-x,-y,z
y,-x,z
-x,y,1/2+z
x,-y,1/2+z
-y,-x,1/2+z
y,x,1/2+z
1/2+x,1/2+y,1/2+z
1/2-y,1/2+x,1/2+z
1/2-x,1/2-y,1/2+z
1/2+y,1/2-x,1/2+z
1/2-x,1/2+y,z
1/2+x,1/2-y,z
1/2-y,1/2-x,z
1/2+y,1/2+x,z
loop_
_atom_site_type_symbol
_atom_site_label
_atom_site_fract_x
_atom_site_fract_y
_atom_site_fract_z
Si Si1 0.025768 0.785313 0.073780
Si Si2 0.803646 0.696355 0.392492
Si Si3 0.474967 0.162857 0.211808
Si Si4 0.354041 0.854041 0.882816
Si Si5 0.145118 0.190636 0.395687
O O1 0.008629 0.724134 0.141175
O O2 0.013044 0.813346 0.353988
O O3 0.086618 0.787999 0.973695
O O4 0.819163 0.680838 0.685694
O O5 0.813986 0.759632 0.368206
O O6 0.837796 0.662205 0.178162
O O7 0.515121 0.135174 0.428000
O O8 0.415901 0.158523 0.328951
O O9 0.162866 0.146623 0.611688
#
# Coordination Sequence:
#
# PCOD8307772 Si02
#       5
#    16   8  16   8  16
#     4  10  21  37  59  83 113 150 198 247 283 328
#     4  12  24  37  56  86 122 163 196 225 277 351
#     4  10  21  36  57  82 107 144 197 254 301 338
#     4  12  22  37  60  81 114 148 202 245 291 358
#     4  12  24  39  57  85 126 164 193 228 287 352
#
# _framework density 20.336371
#
# number of rings (size 3 to 8) (size 9 to 14) (size 15 to 20)
#    0.000    1.000    2.500    5.250    7.000    0.000 
#    0.000    0.000    0.000    2.250    0.000    0.000 
#    0.000   35.000    0.000    0.000    0.000    0.000 
#
# Total GULP energy -396460.347583 kJ/mol
# GULP energy per Si atom -12389.385862 kJ/mol
# Density = 2.029008 g / cm^3
# Si number density = 20.336371 Si / 1000 Ang^3
#
#
#
# Elastic Constant Matrix: (Units=GPa)
#
#
# Indices 1 2 3 4 5 6 
#
# 1 64.2552 -7.0969 35.2197 0.0000 0.0000 0.0004
# 2 -7.0969 64.2552 35.2197 0.0000 0.0000 -0.0004
# 3 35.2197 35.2197 166.3351 0.0000 0.0000 0.0000
# 4 0.0000 0.0000 0.0000 33.6809 0.0000 0.0000
# 5 0.0000 0.0000 0.0000 0.0000 33.6809 0.0000
# 6 0.0004 -0.0004 0.0000 0.0000 0.0000 14.5663
#
#
#
# Elastic Compliance Matrix: (Units=1/GPa)
#
#
# Indices 1 2 3 4 5 6 
#
# 1 0.018844 0.004829 -0.005012 0.000000 0.000000 0.000000
# 2 0.004829 0.018844 -0.005012 0.000000 0.000000 0.000000
# 3 -0.005012 -0.005012 0.008135 0.000000 0.000000 0.000000
# 4 0.000000 0.000000 0.000000 0.029690 0.000000 0.000000
# 5 0.000000 0.000000 0.000000 0.000000 0.029690 0.000000
# 6 0.000000 0.000000 0.000000 0.000000 0.000000 0.068651
#
#
# Mechanical properties :
#
#
# Convention : Reuss Voigt Hill
#
# Bulk Modulus (GPa) = 28.22489 46.83674 37.53081
# Shear Modulus (GPa) = 25.50290 31.81916 28.66103
#
# Velocity S-wave (km/s) = 3.54510 3.95985 3.75820
# Velocity P-wave (km/s) = 5.53770 6.63236 6.10960
#
# Compressibility (1/GPa) = 0.03542972
#
# Stress axis : x y z
#
# Youngs Moduli (GPa) = 53.06830 53.06830 122.93182
#
# Poissons Ratio (x) = -0.25625 0.61618
# Poissons Ratio (y) = -0.25625 0.61618
# Poissons Ratio (z) = 0.26600 0.26600
#
# Static dielectric constant tensor:
#      x y z
#    x 3.316790 0.000000 0.000000 
#    y 0.000000 3.316790 0.000000 
#    z 0.000000 0.000000 4.790540 
# 
# 
# High freq. dielectric constant tensor:
#      x y z
#    x 1.756400 0.000000 0.000000 
#    y 0.000000 1.756400 0.000000 
#    z 0.000000 0.000000 1.842040 
# 
# From -- ./inp_files/138.got.cif
#   From: 2010.03.12/outbox.cif.g09.slc.cpg/sg108_1_cif.got.tgz:138.got - 2010.04.14 01:53:11.
