data_PCOD8307175
_publ_section_title
;
Structure prediction by ZEFSAII (Michael W. Deem and Ramdas Pophale) SiO2 
 PCOD8307175
Probable space group: P 42 M C
;
_chemical_formula_sum "Si O2"
_cell_formula_units_Z 48
_cell_length_a 7.752987
_cell_length_b 7.752987
_cell_length_c 38.235628
_cell_angle_alpha 90.000000
_cell_angle_beta 90.000000
_cell_angle_gamma 90.000000
_cell_volume 2298.298000
_symmetry_space_group_name_H-M "P 42 M C"
_symmetry_group_IT_number 105
_symmetry_cell_setting 'tetragonal'
loop_
_space_group_symop_operation_xyz
x,y,z
-y,x,1/2+z
-x,-y,z
y,-x,1/2+z
-x,y,z
x,-y,z
-y,-x,1/2+z
y,x,1/2+z
loop_
_atom_site_type_symbol
_atom_site_label
_atom_site_fract_x
_atom_site_fract_y
_atom_site_fract_z
Si Si1 0.191943 0.705549 0.721850
Si Si2 0.704794 0.306577 0.971812
Si Si3 0.500000 0.705534 0.769794
Si Si4 0.000000 0.798987 0.598659
Si Si5 0.309436 0.298894 0.647246
Si Si6 0.293715 0.500000 0.348495
Si Si7 0.190807 0.704586 0.895376
Si Si8 0.700845 0.000000 0.018625
O O1 0.195028 0.500000 0.720842
O O2 0.329022 0.775176 0.750172
O O3 0.241564 0.781481 0.683697
O O4 0.000000 0.771381 0.731828
O O5 0.500000 0.313872 0.971541
O O6 0.777613 0.500000 0.979336
O O7 0.768021 0.233786 0.934567
O O8 0.777717 0.174344 0.001096
O O9 0.500000 0.500000 0.769809
O O10 0.500000 0.778834 0.809088
O O11 0.825774 0.733059 0.616511
O O12 0.000000 0.735282 0.559347
O O13 0.000000 0.000000 0.600301
O O14 0.500000 0.222258 0.637952
O O15 0.328552 0.500000 0.652941
O O16 0.500000 0.500000 0.348515
O O17 0.220395 0.330495 0.368147
O O18 0.201359 0.500000 0.894564
O O19 0.000000 0.769623 0.884455
O O20 0.500000 0.000000 0.010904
#
# Coordination Sequence:
#
# PCOD8307175 Si02
#       8
#     8   8   4   4   8   4   8   4
#     4   9  15  25  45  73 104 137 180 236 292 344
#     4   9  17  33  56  79 107 140 181 234 281 339
#     4   9  16  24  38  70 112 146 178 231 301 351
#     4  12  26  40  54  80 122 152 180 240 298 350
#     4  10  19  35  61  83 104 144 196 240 285 348
#     4   9  16  26  40  65 111 153 184 229 289 352
#     4   9  16  27  46  70 100 144 190 227 276 341
#     4  10  22  38  58  84 112 146 194 232 286 348
#
# _framework density 20.885019
#
# number of rings (size 3 to 8) (size 9 to 14) (size 15 to 20)
#    0.000    2.500    2.500    0.750    0.000    2.333 
#    0.000    5.000    0.000    0.000    0.000    0.000 
#    5.000    0.000    0.000    0.000    0.000    0.000 
#
# Total GULP energy -594955.683837 kJ/mol
# GULP energy per Si atom -12394.910080 kJ/mol
# Density = 2.083748 g / cm^3
# Si number density = 20.885019 Si / 1000 Ang^3
#
#
#
# Elastic Constant Matrix: (Units=GPa)
#
#
# Indices 1 2 3 4 5 6 
#
# 1 103.0449 24.2793 59.8605 0.0000 0.0000 0.0000
# 2 24.2793 103.0449 59.8605 0.0000 0.0000 0.0000
# 3 59.8605 59.8605 195.8832 0.0000 0.0000 0.0000
# 4 0.0000 0.0000 0.0000 -6.5842 0.0000 0.0000
# 5 0.0000 0.0000 0.0000 0.0000 -6.5842 0.0000
# 6 0.0000 0.0000 0.0000 0.0000 0.0000 -1.7972
#
#
#
# Elastic Compliance Matrix: (Units=1/GPa)
#
#
# Indices 1 2 3 4 5 6 
#
# 1 0.011858 -0.000838 -0.003368 0.000000 0.000000 0.000000
# 2 -0.000838 0.011858 -0.003368 0.000000 0.000000 0.000000
# 3 -0.003368 -0.003368 0.007163 0.000000 0.000000 0.000000
# 4 0.000000 0.000000 0.000000 -0.151879 0.000000 0.000000
# 5 0.000000 0.000000 0.000000 0.000000 -0.151879 0.000000
# 6 0.000000 0.000000 0.000000 0.000000 0.000000 -0.556426
#
#
# Mechanical properties :
#
#
# Convention : Reuss Voigt Hill
#
# Bulk Modulus (GPa) = 63.55873 76.66373 70.11123
# Shear Modulus (GPa) = -6.18114 14.20506 4.01196
#
# Velocity S-wave (km/s) = -1.72222 2.61081 1.38750
# Velocity P-wave (km/s) = 5.15209 6.77316 6.01746
#
# Compressibility (1/GPa) = 0.01573348
#
# Stress axis : x y z
#
# Youngs Moduli (GPa) = 84.32911 84.32911 139.59724
#
# Poissons Ratio (x) = 0.07063 0.47014
# Poissons Ratio (y) = 0.07063 0.47014
# Poissons Ratio (z) = 0.28401 0.28401
#
# Static dielectric constant tensor:
#      x y z
#    x 3.736580 0.000000 0.000000 
#    y 0.000000 3.736580 0.000000 
#    z 0.000000 0.000000 3.728420 
# 
# 
# High freq. dielectric constant tensor:
#      x y z
#    x 1.803490 0.000000 0.000000 
#    y 0.000000 1.803490 0.000000 
#    z 0.000000 0.000000 1.808650 
# 
# From -- ./inp_files/4945.got.cif
#   From: 2010.03.12/outbox.cif.g09.slc.cpg/sg105_3_cif.got.tgz:4945.got - 2010.04.14 01:45:32.
