data_PCOD8307265
_publ_section_title
;
Structure prediction by ZEFSAII (Michael W. Deem and Ramdas Pophale) SiO2 
 PCOD8307265
Probable space group: P 42 M C
;
_chemical_formula_sum "Si O2"
_cell_formula_units_Z 48
_cell_length_a 9.066391
_cell_length_b 9.066391
_cell_length_c 30.938787
_cell_angle_alpha 90.000000
_cell_angle_beta 90.000000
_cell_angle_gamma 90.000000
_cell_volume 2543.151144
_symmetry_space_group_name_H-M "P 42 M C"
_symmetry_group_IT_number 105
_symmetry_cell_setting 'tetragonal'
loop_
_space_group_symop_operation_xyz
x,y,z
-y,x,1/2+z
-x,-y,z
y,-x,1/2+z
-x,y,z
x,-y,z
-y,-x,1/2+z
y,x,1/2+z
loop_
_atom_site_type_symbol
_atom_site_label
_atom_site_fract_x
_atom_site_fract_y
_atom_site_fract_z
Si Si1 0.828079 0.168707 0.219440
Si Si2 0.324619 0.665934 0.389729
Si Si3 0.826530 0.671050 0.975720
Si Si4 0.172805 0.328741 0.554312
Si Si5 0.830397 0.673402 0.805531
Si Si6 0.170468 0.673423 0.132283
O O1 0.745311 0.230447 0.261614
O O2 0.780307 0.268175 0.179069
O O3 0.000000 0.182314 0.228776
O O4 0.782018 0.000000 0.209704
O O5 0.500000 0.668957 0.388273
O O6 0.263493 0.500000 0.393010
O O7 0.269589 0.756587 0.431236
O O8 0.262105 0.739871 0.346123
O O9 0.786976 0.500000 0.983884
O O10 0.000000 0.695184 0.973033
O O11 0.762310 0.766737 0.014187
O O12 0.209616 0.500000 0.547341
O O13 0.250118 0.273840 0.597564
O O14 0.000000 0.299801 0.558711
O O15 0.808882 0.500000 0.801297
O O16 0.000000 0.716799 0.812965
O O17 0.196203 0.500000 0.130404
O O18 0.000000 0.714196 0.122886
#
# Coordination Sequence:
#
# PCOD8307265 Si02
#       6
#     8   8   8   8   8   8
#     4   9  18  33  52  74 103 139 175 213 261 313
#     4   9  17  30  50  76 105 137 173 215 263 311
#     4  10  20  35  57  82 106 136 176 218 261 313
#     4  11  24  39  55  78 108 139 172 213 262 314
#     4   9  17  30  49  73 101 134 174 217 258 306
#     4  10  21  37  57  80 105 136 176 218 261 313
#
# _framework density 18.874220999999999
#
# number of rings (size 3 to 8) (size 9 to 14) (size 15 to 20)
#    0.000    2.333    0.000    2.500    0.000    8.667 
#    0.000    2.500    0.000    3.000    0.000    0.000 
#    0.000    0.000    0.000    0.000    0.000    0.000 
#
# Total GULP energy -595335.664572 kJ/mol
# GULP energy per Si atom -12402.826345 kJ/mol
# Density = 1.883126 g / cm^3
# Si number density = 18.874221 Si / 1000 Ang^3
#
#
#
# Elastic Constant Matrix: (Units=GPa)
#
#
# Indices 1 2 3 4 5 6 
#
# 1 70.6555 38.5750 58.0136 0.0000 0.0000 0.0000
# 2 38.5750 70.6555 58.0136 0.0000 0.0000 0.0000
# 3 58.0136 58.0136 161.2509 0.0000 0.0000 0.0000
# 4 0.0000 0.0000 0.0000 40.6385 0.0000 0.0000
# 5 0.0000 0.0000 0.0000 0.0000 40.6385 0.0000
# 6 0.0000 0.0000 0.0000 0.0000 0.0000 22.2246
#
#
#
# Elastic Compliance Matrix: (Units=1/GPa)
#
#
# Indices 1 2 3 4 5 6 
#
# 1 0.022995 -0.008177 -0.005331 0.000000 0.000000 0.000000
# 2 -0.008177 0.022995 -0.005331 0.000000 0.000000 0.000000
# 3 -0.005331 -0.005331 0.010037 0.000000 0.000000 0.000000
# 4 0.000000 0.000000 0.000000 0.024607 0.000000 0.000000
# 5 0.000000 0.000000 0.000000 0.000000 0.024607 0.000000
# 6 0.000000 0.000000 0.000000 0.000000 0.000000 0.044995
#
#
# Mechanical properties :
#
#
# Convention : Reuss Voigt Hill
#
# Bulk Modulus (GPa) = 54.49959 67.97405 61.23682
# Shear Modulus (GPa) = 25.76917 30.56430 28.16674
#
# Velocity S-wave (km/s) = 3.69902 4.02850 3.86727
# Velocity P-wave (km/s) = 6.86888 7.59808 7.24266
#
# Compressibility (1/GPa) = 0.01834876
#
# Stress axis : x y z
#
# Youngs Moduli (GPa) = 43.48847 43.48847 99.62747
#
# Poissons Ratio (x) = 0.35560 0.53111
# Poissons Ratio (y) = 0.35560 0.53111
# Poissons Ratio (z) = 0.23184 0.23184
#
# Static dielectric constant tensor:
#      x y z
#    x 3.381240 0.000000 0.000000 
#    y 0.000000 3.381240 0.000000 
#    z 0.000000 0.000000 3.710020 
# 
# 
# High freq. dielectric constant tensor:
#      x y z
#    x 1.723360 0.000000 0.000000 
#    y 0.000000 1.723360 0.000000 
#    z 0.000000 0.000000 1.750320 
# 
# From -- ./inp_files/4675.got.cif
#   From: 2010.03.12/outbox.cif.g09.slc.cpg/sg105_3_cif.got.tgz:4675.got - 2010.04.14 01:45:32.
