data_PCOD8307035
_publ_section_title
;
Structure prediction by ZEFSAII (Michael W. Deem and Ramdas Pophale) SiO2 
 PCOD8307035
Probable space group: P 4 N C 
;
_chemical_formula_sum "Si O2"
_cell_formula_units_Z 60
_cell_length_a 13.597608
_cell_length_b 13.597608
_cell_length_c 16.840812
_cell_angle_alpha 90.000000
_cell_angle_beta 90.000000
_cell_angle_gamma 90.000000
_cell_volume 3113.780980
_symmetry_space_group_name_H-M "P 4 N C "
_symmetry_group_IT_number 104
_symmetry_cell_setting 'tetragonal'
loop_
_space_group_symop_operation_xyz
x,y,z
-y,x,z
-x,-y,z
y,-x,z
1/2-x,1/2+y,1/2+z
1/2+x,1/2-y,1/2+z
1/2-y,1/2-x,1/2+z
1/2+y,1/2+x,1/2+z
loop_
_atom_site_type_symbol
_atom_site_label
_atom_site_fract_x
_atom_site_fract_y
_atom_site_fract_z
Si Si1 0.674429 0.239433 0.575930
Si Si2 0.316356 0.959049 0.484709
Si Si3 0.836423 0.003966 0.346970
Si Si4 0.467254 0.810287 0.703700
Si Si5 0.500000 0.000000 0.291661
Si Si6 0.988163 0.649676 0.908784
Si Si7 0.052460 0.153736 0.950099
Si Si8 0.615422 0.848172 0.561182
O O1 0.705669 0.139339 0.532851
O O2 0.636114 0.221987 0.664988
O O3 0.584160 0.298800 0.534450
O O4 0.775234 0.296386 0.576663
O O5 0.411194 0.936752 0.430711
O O6 0.228137 0.992428 0.427201
O O7 0.341855 0.042123 0.550090
O O8 0.900023 0.904930 0.347030
O O9 0.771746 0.999643 0.266822
O O10 0.546048 0.836187 0.636367
O O11 0.447733 0.913719 0.744508
O O12 0.546342 0.904309 0.338167
O O13 0.934936 0.754929 0.886937
O O14 0.059557 0.680081 0.980424
O O15 0.939159 0.122260 0.939407
#
# Coordination Sequence:
#
# PCOD8307035 Si02
#       8
#     8   8   8   8   4   8   8   8
#     4  11  22  37  61  89 122 157 203 249 310 365
#     4  11  21  39  61  87 117 157 209 257 294 354
#     4  11  24  42  61  86 124 168 204 245 308 378
#     4  12  23  38  58  90 126 157 192 249 308 376
#     4  12  24  38  60  86 122 160 198 246 310 352
#     4  11  20  37  58  86 113 157 201 248 297 351
#     4  10  19  34  57  87 118 149 190 246 305 355
#     4  12  21  38  62  89 120 156 199 255 310 356
#
# _framework density 19.269178
#
# number of rings (size 3 to 8) (size 9 to 14) (size 15 to 20)
#    0.000    0.800    6.667    2.400    0.000    0.000 
#    0.000    1.333    0.000    0.000    0.000    0.000 
#    0.000    0.000    0.000    0.000    0.000    0.000 
#
# Total GULP energy -743324.322410 kJ/mol
# GULP energy per Si atom -12388.738707 kJ/mol
# Density = 1.922532 g / cm^3
# Si number density = 19.269178 Si / 1000 Ang^3
#
#
#
# Elastic Constant Matrix: (Units=GPa)
#
#
# Indices 1 2 3 4 5 6 
#
# 1 127.6409 51.3341 47.0198 0.0000 0.0000 0.0000
# 2 51.3341 127.6409 47.0198 0.0000 0.0000 0.0000
# 3 47.0198 47.0198 56.8892 0.0000 0.0000 0.0000
# 4 0.0000 0.0000 0.0000 22.4985 0.0000 0.0000
# 5 0.0000 0.0000 0.0000 0.0000 22.4985 0.0000
# 6 0.0000 0.0000 0.0000 0.0000 0.0000 31.3690
#
#
#
# Elastic Compliance Matrix: (Units=1/GPa)
#
#
# Indices 1 2 3 4 5 6 
#
# 1 0.011491 -0.001614 -0.008163 0.000000 0.000000 0.000000
# 2 -0.001614 0.011491 -0.008163 0.000000 0.000000 0.000000
# 3 -0.008163 -0.008163 0.031072 0.000000 0.000000 0.000000
# 4 0.000000 0.000000 0.000000 0.044447 0.000000 0.000000
# 5 0.000000 0.000000 0.000000 0.000000 0.044447 0.000000
# 6 0.000000 0.000000 0.000000 0.000000 0.000000 0.031879
#
#
# Mechanical properties :
#
#
# Convention : Reuss Voigt Hill
#
# Bulk Modulus (GPa) = 55.02808 66.99091 61.00950
# Shear Modulus (GPa) = 23.06643 26.39303 24.72973
#
# Velocity S-wave (km/s) = 3.46361 3.70496 3.58632
# Velocity P-wave (km/s) = 6.67945 7.28997 6.99138
#
# Compressibility (1/GPa) = 0.01817254
#
# Stress axis : x y z
#
# Youngs Moduli (GPa) = 87.02634 87.02634 32.18339
#
# Poissons Ratio (x) = 0.14048 0.26272
# Poissons Ratio (y) = 0.14048 0.26272
# Poissons Ratio (z) = 0.71041 0.71041
#
# Static dielectric constant tensor:
#      x y z
#    x 3.760330 0.000000 0.000000 
#    y 0.000000 3.760330 0.000000 
#    z 0.000000 0.000000 3.720620 
# 
# 
# High freq. dielectric constant tensor:
#      x y z
#    x 1.760950 0.000000 0.000000 
#    y 0.000000 1.760950 0.000000 
#    z 0.000000 0.000000 1.728200 
# 
# From -- ./inp_files/1298.got.cif
#   From: 2010.03.12/outbox.cif.g09.slc.cpg/sg104_cif.got.tgz:1298.got - 2010.04.14 01:44:05.
