data_PCOD8307058
_publ_section_title
;
Structure prediction by ZEFSAII (Michael W. Deem and Ramdas Pophale) SiO2 
 PCOD8307058
Probable space group: P 4 N C 
;
_chemical_formula_sum "Si O2"
_cell_formula_units_Z 32
_cell_length_a 8.057957
_cell_length_b 8.057957
_cell_length_c 22.996010
_cell_angle_alpha 90.000000
_cell_angle_beta 90.000000
_cell_angle_gamma 90.000000
_cell_volume 1493.146360
_symmetry_space_group_name_H-M "P 4 N C "
_symmetry_group_IT_number 104
_symmetry_cell_setting 'tetragonal'
loop_
_space_group_symop_operation_xyz
x,y,z
-y,x,z
-x,-y,z
y,-x,z
1/2-x,1/2+y,1/2+z
1/2+x,1/2-y,1/2+z
1/2-y,1/2-x,1/2+z
1/2+y,1/2+x,1/2+z
loop_
_atom_site_type_symbol
_atom_site_label
_atom_site_fract_x
_atom_site_fract_y
_atom_site_fract_z
Si Si1 0.000000 0.500000 0.705530
Si Si2 0.000000 0.500000 0.901789
Si Si3 0.763968 0.423047 0.500030
Si Si4 0.236535 0.427605 0.803660
Si Si5 0.423047 0.236032 0.107289
O O1 0.128085 0.398434 0.745889
O O2 0.101797 0.630725 0.666116
O O3 0.898203 0.369274 0.941203
O O4 0.871915 0.601566 0.861431
O O5 0.703928 0.612239 0.502261
O O6 0.885777 0.385776 0.553660
O O7 0.383077 0.297047 0.803660
O O8 0.612239 0.296072 0.105059
#
# Coordination Sequence:
#
# PCOD8307058 Si02
#       5
#     4   4   8   8   8
#     4  11  21  38  60  84 117 153 198 246 296 357
#     4  11  21  38  60  84 117 153 198 246 296 357
#     4  11  23  39  61  89 122 159 199 246 300 358
#     4  10  22  38  58  84 114 152 196 245 298 351
#     4  11  23  39  61  89 122 159 199 246 300 358
#
# _framework density 21.431253000000002
#
# number of rings (size 3 to 8) (size 9 to 14) (size 15 to 20)
#    0.000    1.250    0.000    6.750    0.000    0.000 
#    0.000    5.000    0.000   12.000    0.000    0.000 
#    0.000    0.000    0.000    0.000    0.000    0.000 
#
# Total GULP energy -396940.038913 kJ/mol
# GULP energy per Si atom -12404.376216 kJ/mol
# Density = 2.138247 g / cm^3
# Si number density = 21.431253 Si / 1000 Ang^3
#
#
#
# Elastic Constant Matrix: (Units=GPa)
#
#
# Indices 1 2 3 4 5 6 
#
# 1 85.9156 17.6450 49.8040 0.0000 0.0000 0.0000
# 2 17.6450 85.9156 49.8040 0.0000 0.0000 0.0000
# 3 49.8040 49.8040 178.0445 0.0000 0.0000 0.0000
# 4 0.0000 0.0000 0.0000 14.5716 0.0000 0.0000
# 5 0.0000 0.0000 0.0000 0.0000 14.5716 0.0000
# 6 0.0000 0.0000 0.0000 0.0000 0.0000 34.6800
#
#
#
# Elastic Compliance Matrix: (Units=1/GPa)
#
#
# Indices 1 2 3 4 5 6 
#
# 1 0.013929 -0.000719 -0.003695 0.000000 0.000000 0.000000
# 2 -0.000719 0.013929 -0.003695 0.000000 0.000000 0.000000
# 3 -0.003695 -0.003695 0.007684 0.000000 0.000000 0.000000
# 4 0.000000 0.000000 0.000000 0.068626 0.000000 0.000000
# 5 0.000000 0.000000 0.000000 0.000000 0.068626 0.000000
# 6 0.000000 0.000000 0.000000 0.000000 0.000000 0.028835
#
#
# Mechanical properties :
#
#
# Convention : Reuss Voigt Hill
#
# Bulk Modulus (GPa) = 51.75033 64.93133 58.34083
# Shear Modulus (GPa) = 22.29260 28.27284 25.28272
#
# Velocity S-wave (km/s) = 3.22870 3.63607 3.43842
# Velocity P-wave (km/s) = 6.17243 6.92757 6.56087
#
# Compressibility (1/GPa) = 0.01932355
#
# Stress axis : x y z
#
# Youngs Moduli (GPa) = 71.79248 71.79248 130.14125
#
# Poissons Ratio (x) = 0.05159 0.48092
# Poissons Ratio (y) = 0.05159 0.48092
# Poissons Ratio (z) = 0.26530 0.26530
#
# Static dielectric constant tensor:
#      x y z
#    x 3.779650 0.000000 0.000000 
#    y 0.000000 3.779650 0.000000 
#    z 0.000000 0.000000 3.930280 
# 
# 
# High freq. dielectric constant tensor:
#      x y z
#    x 1.842870 0.000000 0.000000 
#    y 0.000000 1.842870 0.000000 
#    z 0.000000 0.000000 1.854550 
# 
# From -- ./inp_files/1531.got.cif
#   From: 2010.03.12/outbox.cif.g09.slc.cpg/sg104_cif.got.tgz:1531.got - 2010.04.14 01:44:05.
