data_PCOD8307699
_publ_section_title
;
Structure prediction by ZEFSAII (Michael W. Deem and Ramdas Pophale) SiO2 
 PCOD8307699
Probable space group: I 4 M M
;
_chemical_formula_sum "Si O2"
_cell_formula_units_Z 80
_cell_length_a 14.141690
_cell_length_b 14.141690
_cell_length_c 24.938026
_cell_angle_alpha 90.000000
_cell_angle_beta 90.000000
_cell_angle_gamma 90.000000
_cell_volume 4987.290883
_symmetry_space_group_name_H-M "I 4 M M"
_symmetry_group_IT_number 107
_symmetry_cell_setting 'tetragonal'
loop_
_space_group_symop_operation_xyz
x,y,z
-y,x,z
-x,-y,z
y,-x,z
-x,y,z
x,-y,z
-y,-x,z
y,x,z
1/2+x,1/2+y,1/2+z
1/2-y,1/2+x,1/2+z
1/2-x,1/2-y,1/2+z
1/2+y,1/2-x,1/2+z
1/2-x,1/2+y,1/2+z
1/2+x,1/2-y,1/2+z
1/2-y,1/2-x,1/2+z
1/2+y,1/2+x,1/2+z
loop_
_atom_site_type_symbol
_atom_site_label
_atom_site_fract_x
_atom_site_fract_y
_atom_site_fract_z
Si Si1 0.887879 0.395670 0.814620
Si Si2 0.236532 0.390673 0.099283
Si Si3 0.239858 0.391985 0.407239
Si Si4 0.890673 0.263468 0.029956
Si Si5 0.108015 0.260142 0.722001
O O1 0.841929 0.500000 0.814620
O O2 0.853294 0.342058 0.868173
O O3 0.853296 0.342059 0.761066
O O4 0.000000 0.403949 0.814621
O O5 0.254320 0.500000 0.084115
O O6 0.333312 0.333312 0.087606
O O7 0.150388 0.349612 0.064620
O O8 0.205190 0.379755 0.161031
O O9 0.264448 0.500000 0.393864
O O10 0.335325 0.335325 0.396120
O O11 0.205189 0.379756 0.468208
O O12 0.833312 0.166689 0.041632
O O13 0.000000 0.245680 0.045124
O O14 0.164676 0.164676 0.733121
O O15 0.000000 0.235551 0.735375
#
# Coordination Sequence:
#
# PCOD8307699 Si02
#       5
#    16  16  16  16  16
#     4   9  17  28  41  59  85 115 145 175 207 248
#     4   9  18  31  46  66  91 118 150 188 229 273
#     4   9  17  29  45  65  89 115 143 178 220 266
#     4   9  18  31  46  66  91 118 150 188 229 273
#     4   9  17  29  45  65  89 115 143 178 220 266
#
# _framework density 16.040773000000002
#
# number of rings (size 3 to 8) (size 9 to 14) (size 15 to 20)
#    0.000    3.000    0.000    0.600    0.000    2.800 
#    0.000    8.000    0.000    3.600    0.000    0.000 
#    0.000    6.400    0.000    0.000    0.000    1.200 
#
# Total GULP energy -495934.931352 kJ/mol
# GULP energy per Si atom -12398.373284 kJ/mol
# Density = 1.600426 g / cm^3
# Si number density = 16.040773 Si / 1000 Ang^3
#
#
#
# Elastic Constant Matrix: (Units=GPa)
#
#
# Indices 1 2 3 4 5 6 
#
# 1 102.6557 49.1348 58.3150 0.0000 0.0000 0.0002
# 2 49.1348 102.6557 58.3150 0.0000 0.0000 -0.0002
# 3 58.3150 58.3150 93.3099 0.0000 0.0000 0.0000
# 4 0.0000 0.0000 0.0000 26.1547 0.0000 0.0000
# 5 0.0000 0.0000 0.0000 0.0000 26.1547 0.0000
# 6 0.0002 -0.0002 0.0000 0.0000 0.0000 16.5493
#
#
#
# Elastic Compliance Matrix: (Units=1/GPa)
#
#
# Indices 1 2 3 4 5 6 
#
# 1 0.015679 -0.003005 -0.007921 0.000000 0.000000 0.000000
# 2 -0.003005 0.015679 -0.007921 0.000000 0.000000 0.000000
# 3 -0.007921 -0.007921 0.020617 0.000000 0.000000 0.000000
# 4 0.000000 0.000000 0.000000 0.038234 0.000000 0.000000
# 5 0.000000 0.000000 0.000000 0.000000 0.038234 0.000000
# 6 0.000000 0.000000 0.000000 0.000000 0.000000 0.060426
#
#
# Mechanical properties :
#
#
# Convention : Reuss Voigt Hill
#
# Bulk Modulus (GPa) = 70.01672 70.01678 70.01675
# Shear Modulus (GPa) = 21.61475 22.62883 22.12179
#
# Velocity S-wave (km/s) = 3.67480 3.76001 3.71765
# Velocity P-wave (km/s) = 7.85808 7.91165 7.88491
#
# Compressibility (1/GPa) = 0.01428230
#
# Stress axis : x y z
#
# Youngs Moduli (GPa) = 63.77894 63.77894 48.50295
#
# Poissons Ratio (x) = 0.19166 0.38418
# Poissons Ratio (y) = 0.19166 0.38418
# Poissons Ratio (z) = 0.50518 0.50518
#
# Static dielectric constant tensor:
#      x y z
#    x 2.997970 0.000000 0.000000 
#    y 0.000000 2.997970 0.000000 
#    z 0.000000 0.000000 3.215030 
# 
# 
# High freq. dielectric constant tensor:
#      x y z
#    x 1.600650 0.000000 0.000000 
#    y 0.000000 1.600650 0.000000 
#    z 0.000000 0.000000 1.627370 
# 
# From -- ./inp_files/4591.got.cif
#   From: 2010.03.12/outbox.cif.g09.slc.cpg/sg107_3_cif.got.tgz:4591.got - 2010.04.14 01:49:11.
