data_PCOD8307132
_publ_section_title
;
Structure prediction by ZEFSAII (Michael W. Deem and Ramdas Pophale) SiO2 
 PCOD8307132
Probable space group: P 42 M C
;
_chemical_formula_sum "Si O2"
_cell_formula_units_Z 40
_cell_length_a 8.011080
_cell_length_b 8.011080
_cell_length_c 29.181988
_cell_angle_alpha 90.000000
_cell_angle_beta 90.000000
_cell_angle_gamma 90.000000
_cell_volume 1872.824197
_symmetry_space_group_name_H-M "P 42 M C"
_symmetry_group_IT_number 105
_symmetry_cell_setting 'tetragonal'
loop_
_space_group_symop_operation_xyz
x,y,z
-y,x,1/2+z
-x,-y,z
y,-x,1/2+z
-x,y,z
x,-y,z
-y,-x,1/2+z
y,x,1/2+z
loop_
_atom_site_type_symbol
_atom_site_label
_atom_site_fract_x
_atom_site_fract_y
_atom_site_fract_z
Si Si1 0.184688 0.698714 0.682070
Si Si2 0.301582 0.688635 0.278114
Si Si3 0.307633 0.818445 0.967873
Si Si4 0.193472 0.690896 0.875054
Si Si5 0.500000 0.698909 0.625074
Si Si6 0.500000 0.300214 0.521047
O O1 0.193735 0.500000 0.681619
O O2 0.211983 0.765819 0.733830
O O3 0.332051 0.769195 0.649461
O O4 0.000000 0.758329 0.665420
O O5 0.500000 0.697895 0.278560
O O6 0.237659 0.500000 0.274384
O O7 0.231531 0.769101 0.324966
O O8 0.500000 0.824395 0.981241
O O9 0.291849 0.792524 0.913467
O O10 0.227733 0.000000 0.980771
O O11 0.224867 0.665187 0.996093
O O12 0.255751 0.500000 0.876799
O O13 0.000000 0.705622 0.886119
O O14 0.500000 0.500000 0.627195
O O15 0.500000 0.763462 0.573092
O O16 0.500000 0.500000 0.517753
#
# Coordination Sequence:
#
# PCOD8307132 Si02
#       6
#     8   8   8   8   4   4
#     4   9  15  23  36  58  93 133 176 224 273 332
#     4   9  15  24  40  63  95 136 177 214 261 323
#     4  10  20  34  52  72  98 135 178 223 276 338
#     4  10  19  30  47  72 100 132 171 214 267 327
#     4   9  16  26  40  61  91 131 175 225 283 334
#     4   9  18  32  49  67  95 133 181 233 281 338
#
# _framework density 21.358118999999999
#
# number of rings (size 3 to 8) (size 9 to 14) (size 15 to 20)
#    0.000    2.600    2.000    1.200    0.000    4.400 
#    0.000    4.000    0.000    0.000    0.000    0.000 
#    0.000    3.200    0.000    4.600    0.000    4.200 
#
# Total GULP energy -495753.338568 kJ/mol
# GULP energy per Si atom -12393.833464 kJ/mol
# Density = 2.130951 g / cm^3
# Si number density = 21.358119 Si / 1000 Ang^3
#
#
#
# Elastic Constant Matrix: (Units=GPa)
#
#
# Indices 1 2 3 4 5 6 
#
# 1 90.9543 19.6839 46.4736 0.0000 0.0000 0.0000
# 2 19.6839 90.9543 46.4736 0.0000 0.0000 0.0000
# 3 46.4736 46.4736 168.3493 0.0000 0.0000 0.0000
# 4 0.0000 0.0000 0.0000 4.2493 0.0000 0.0000
# 5 0.0000 0.0000 0.0000 0.0000 4.2493 0.0000
# 6 0.0000 0.0000 0.0000 0.0000 0.0000 3.4709
#
#
#
# Elastic Compliance Matrix: (Units=1/GPa)
#
#
# Indices 1 2 3 4 5 6 
#
# 1 0.012899 -0.001132 -0.003248 0.000000 0.000000 0.000000
# 2 -0.001132 0.012899 -0.003248 0.000000 0.000000 0.000000
# 3 -0.003248 -0.003248 0.007734 0.000000 0.000000 0.000000
# 4 0.000000 0.000000 0.000000 0.235330 0.000000 0.000000
# 5 0.000000 0.000000 0.000000 0.000000 0.235330 0.000000
# 6 0.000000 0.000000 0.000000 0.000000 0.000000 0.288109
#
#
# Mechanical properties :
#
#
# Convention : Reuss Voigt Hill
#
# Bulk Modulus (GPa) = 54.72055 63.94668 59.33362
# Shear Modulus (GPa) = 6.14514 18.23571 12.19042
#
# Velocity S-wave (km/s) = 1.69807 2.92517 2.39166
# Velocity P-wave (km/s) = 5.43330 6.43537 5.95545
#
# Compressibility (1/GPa) = 0.01827467
#
# Stress axis : x y z
#
# Youngs Moduli (GPa) = 77.52364 77.52364 129.30686
#
# Poissons Ratio (x) = 0.08774 0.42005
# Poissons Ratio (y) = 0.08774 0.42005
# Poissons Ratio (z) = 0.25183 0.25183
#
# Static dielectric constant tensor:
#      x y z
#    x 3.647610 0.000000 0.000000 
#    y 0.000000 3.647610 0.000000 
#    z 0.000000 0.000000 3.949180 
# 
# 
# High freq. dielectric constant tensor:
#      x y z
#    x 1.806990 0.000000 0.000000 
#    y 0.000000 1.806990 0.000000 
#    z 0.000000 0.000000 1.835860 
# 
# From -- ./inp_files/4246.got.cif
#   From: 2010.03.12/outbox.cif.g09.slc.cpg/sg105_3_cif.got.tgz:4246.got - 2010.04.14 01:45:32.
