data_PCOD8307700
_publ_section_title
;
Structure prediction by ZEFSAII (Michael W. Deem and Ramdas Pophale) SiO2 
 PCOD8307700
Probable space group: I 4 M M
;
_chemical_formula_sum "Si O2"
_cell_formula_units_Z 96
_cell_length_a 18.387871
_cell_length_b 18.387871
_cell_length_c 17.241233
_cell_angle_alpha 90.000000
_cell_angle_beta 90.000000
_cell_angle_gamma 90.000000
_cell_volume 5829.498805
_symmetry_space_group_name_H-M "I 4 M M"
_symmetry_group_IT_number 107
_symmetry_cell_setting 'tetragonal'
loop_
_space_group_symop_operation_xyz
x,y,z
-y,x,z
-x,-y,z
y,-x,z
-x,y,z
x,-y,z
-y,-x,z
y,x,z
1/2+x,1/2+y,1/2+z
1/2-y,1/2+x,1/2+z
1/2-x,1/2-y,1/2+z
1/2+y,1/2-x,1/2+z
1/2-x,1/2+y,1/2+z
1/2+x,1/2-y,1/2+z
1/2-y,1/2-x,1/2+z
1/2+y,1/2+x,1/2+z
loop_
_atom_site_type_symbol
_atom_site_label
_atom_site_fract_x
_atom_site_fract_y
_atom_site_fract_z
Si Si1 0.582884 0.846531 0.613730
Si Si2 0.916146 0.703371 0.705097
Si Si3 0.653470 0.082883 0.471639
Si Si4 0.798665 0.083146 0.561365
Si Si5 0.083146 0.798665 0.024006
Si Si6 0.296629 0.916146 0.880274
O O1 0.500000 0.856604 0.640112
O O2 0.633917 0.865739 0.686411
O O3 0.599211 0.900791 0.542685
O O4 0.598286 0.764173 0.586719
O O5 0.897718 0.769514 0.647425
O O6 0.900434 0.729158 0.792685
O O7 0.000000 0.679868 0.693544
O O8 0.735829 0.098286 0.498651
O O9 0.634262 0.133918 0.398959
O O10 0.643399 0.000000 0.445256
O O11 0.866756 0.133245 0.540836
O O12 0.825049 0.000000 0.557451
O O13 0.133246 0.866755 0.044536
O O14 0.000000 0.825049 0.027921
O O15 0.102281 0.769515 0.937945
O O16 0.320132 0.000000 0.891827
#
# Coordination Sequence:
#
# PCOD8307700 Si02
#       6
#    16  16  16  16  16  16
#     4   9  17  28  43  64  89 117 148 180 213 252
#     4   9  18  30  43  64  94 123 148 175 209 250
#     4   9  17  28  43  64  89 117 148 180 213 252
#     4   9  18  32  48  65  86 112 144 184 225 263
#     4   9  18  32  48  65  86 112 144 184 225 263
#     4   9  18  30  43  64  94 123 148 175 209 250
#
# _framework density 16.467967999999999
#
# number of rings (size 3 to 8) (size 9 to 14) (size 15 to 20)
#    0.000    3.000    0.000    3.000    0.000   10.000 
#    0.000    1.667    0.000    0.000    0.000    4.667 
#    0.000    0.000    0.000    7.333    0.000    0.000 
#
# Total GULP energy -595156.148017 kJ/mol
# GULP energy per Si atom -12399.086417 kJ/mol
# Density = 1.643049 g / cm^3
# Si number density = 16.467968 Si / 1000 Ang^3
#
#
#
# Elastic Constant Matrix: (Units=GPa)
#
#
# Indices 1 2 3 4 5 6 
#
# 1 78.9896 58.3484 12.2273 0.0000 0.0000 0.0000
# 2 58.3484 78.9896 12.2273 0.0000 0.0000 0.0000
# 3 12.2273 12.2273 35.9340 0.0000 0.0000 0.0000
# 4 0.0000 0.0000 0.0000 15.4963 0.0000 0.0000
# 5 0.0000 0.0000 0.0000 0.0000 15.4963 0.0000
# 6 0.0000 0.0000 0.0000 0.0000 0.0000 30.9480
#
#
#
# Elastic Compliance Matrix: (Units=1/GPa)
#
#
# Indices 1 2 3 4 5 6 
#
# 1 0.028099 -0.020348 -0.002637 0.000000 0.000000 0.000000
# 2 -0.020348 0.028099 -0.002637 0.000000 0.000000 0.000000
# 3 -0.002637 -0.002637 0.029624 0.000000 0.000000 0.000000
# 4 0.000000 0.000000 0.000000 0.064532 0.000000 0.000000
# 5 0.000000 0.000000 0.000000 0.000000 0.064532 0.000000
# 6 0.000000 0.000000 0.000000 0.000000 0.000000 0.032312
#
#
# Mechanical properties :
#
#
# Convention : Reuss Voigt Hill
#
# Bulk Modulus (GPa) = 28.92191 39.94660 34.43426
# Shear Modulus (GPa) = 16.13072 19.79546 17.96309
#
# Velocity S-wave (km/s) = 3.13313 3.47083 3.30629
# Velocity P-wave (km/s) = 5.53979 6.35390 5.96076
#
# Compressibility (1/GPa) = 0.03457586
#
# Stress axis : x y z
#
# Youngs Moduli (GPa) = 35.58871 35.58871 33.75675
#
# Poissons Ratio (x) = 0.72415 0.08903
# Poissons Ratio (y) = 0.72415 0.08903
# Poissons Ratio (z) = 0.09386 0.09386
#
# Static dielectric constant tensor:
#      x y z
#    x 2.968670 0.000000 0.000000 
#    y 0.000000 2.968670 0.000000 
#    z 0.000000 0.000000 2.993730 
# 
# 
# High freq. dielectric constant tensor:
#      x y z
#    x 1.624160 0.000000 0.000000 
#    y 0.000000 1.624160 0.000000 
#    z 0.000000 0.000000 1.614550 
# 
# From -- ./inp_files/4032.got.cif
#   From: 2010.03.12/outbox.cif.g09.slc.cpg/sg107_3_cif.got.tgz:4032.got - 2010.04.14 01:49:11.
