data_PCOD8307979
_publ_section_title
;
Structure prediction by ZEFSAII (Michael W. Deem and Ramdas Pophale) SiO2 
 PCOD8307979
Probable space group: I 41 M D
;
_chemical_formula_sum "Si O2"
_cell_formula_units_Z 48
_cell_length_a 9.813430
_cell_length_b 9.813430
_cell_length_c 24.959521
_cell_angle_alpha 90.000000
_cell_angle_beta 90.000000
_cell_angle_gamma 90.000000
_cell_volume 2403.686943
_symmetry_space_group_name_H-M "I 41 M D"
_symmetry_group_IT_number 109
_symmetry_cell_setting 'tetragonal'
loop_
_space_group_symop_operation_xyz
x,y,z
-y,1/2+x,1/4+z
-x,-y,z
y,1/2-x,1/4+z
-x,y,z
x,-y,z
-y,1/2-x,1/4+z
y,1/2+x,1/4+z
1/2+x,1/2+y,1/2+z
1/2-y,x,3/4+z
1/2-x,1/2-y,1/2+z
1/2+y,-x,3/4+z
1/2-x,1/2+y,1/2+z
1/2+x,1/2-y,1/2+z
1/2-y,-x,3/4+z
1/2+y,x,3/4+z
loop_
_atom_site_type_symbol
_atom_site_label
_atom_site_fract_x
_atom_site_fract_y
_atom_site_fract_z
Si Si1 0.832241 0.500000 0.476591
Si Si2 0.000000 0.342667 0.328170
Si Si3 0.000000 0.664341 0.844123
Si Si4 0.344527 0.500000 0.973225
Si Si5 0.735424 0.241046 0.905654
O O1 0.782712 0.500000 0.537211
O O2 0.756058 0.371212 0.451545
O O3 0.000000 0.500000 0.472342
O O4 0.867948 0.319952 0.363295
O O5 0.000000 0.500000 0.306070
O O6 0.000000 0.722617 0.782808
O O7 0.873144 0.728203 0.874750
O O8 0.000000 0.500000 0.848139
O O9 0.500000 0.500000 0.988440
O O10 0.311007 0.626568 0.936695
#
# Coordination Sequence:
#
# PCOD8307979 Si02
#       5
#     8   8   8   8  16
#     4  12  26  46  73 103 133 183 234 284 353 430
#     4  12  26  46  71 106 136 178 231 290 357 420
#     4  11  26  43  66 102 137 179 235 279 340 405
#     4  11  22  41  70  99 128 182 234 279 332 395
#     4  12  23  46  68 100 142 174 227 291 339 415
#
# _framework density 19.969321999999998
#
# number of rings (size 3 to 8) (size 9 to 14) (size 15 to 20)
#    0.000    0.333    6.667    2.000    4.667    2.667 
#    0.000    1.667    0.000    0.000    0.000    0.000 
#    0.000    0.000    0.000    0.000    0.000    0.000 
#
# Total GULP energy -297389.046928 kJ/mol
# GULP energy per Si atom -12391.210289 kJ/mol
# Density = 1.992387 g / cm^3
# Si number density = 19.969322 Si / 1000 Ang^3
#
#
#
# Elastic Constant Matrix: (Units=GPa)
#
#
# Indices 1 2 3 4 5 6 
#
# 1 122.2803 23.8570 25.0254 0.0000 0.0000 0.0000
# 2 23.8570 122.2802 25.0254 0.0000 0.0000 0.0000
# 3 25.0254 25.0254 85.1820 0.0000 0.0000 0.0000
# 4 0.0000 0.0000 0.0000 59.0156 0.0000 0.0000
# 5 0.0000 0.0000 0.0000 0.0000 59.0156 0.0000
# 6 0.0000 0.0000 0.0000 0.0000 0.0000 38.2344
#
#
#
# Elastic Compliance Matrix: (Units=1/GPa)
#
#
# Indices 1 2 3 4 5 6 
#
# 1 0.008884 -0.001276 -0.002235 0.000000 0.000000 0.000000
# 2 -0.001276 0.008884 -0.002235 0.000000 0.000000 0.000000
# 3 -0.002235 -0.002235 0.013053 0.000000 0.000000 0.000000
# 4 0.000000 0.000000 0.000000 0.016945 0.000000 0.000000
# 5 0.000000 0.000000 0.000000 0.000000 0.016945 0.000000
# 6 0.000000 0.000000 0.000000 0.000000 0.000000 0.026154
#
#
# Mechanical properties :
#
#
# Convention : Reuss Voigt Hill
#
# Bulk Modulus (GPa) = 51.73632 53.06201 52.39917
# Shear Modulus (GPa) = 45.95540 48.30877 47.13209
#
# Velocity S-wave (km/s) = 4.80239 4.92382 4.86348
# Velocity P-wave (km/s) = 7.53092 7.67820 7.60492
#
# Compressibility (1/GPa) = 0.01932878
#
# Stress axis : x y z
#
# Youngs Moduli (GPa) = 112.55785 112.55784 76.61107
#
# Poissons Ratio (x) = 0.14361 0.17125
# Poissons Ratio (y) = 0.14361 0.17125
# Poissons Ratio (z) = 0.25160 0.25160
#
# Static dielectric constant tensor:
#      x y z
#    x 3.361280 0.000000 0.000000 
#    y 0.000000 3.361280 0.000000 
#    z 0.000000 0.000000 3.921580 
# 
# 
# High freq. dielectric constant tensor:
#      x y z
#    x 1.787230 0.000000 0.000000 
#    y 0.000000 1.787230 0.000000 
#    z 0.000000 0.000000 1.801500 
# 
# From -- ./inp_files/2936.got.cif
#   From: 2010.03.12/outbox.cif.g09.slc.cpg/sg109_2_cif.got.tgz:2936.got - 2010.04.14 01:55:16.
