data_PCOD8307204
_publ_section_title
;
Structure prediction by ZEFSAII (Michael W. Deem and Ramdas Pophale) SiO2 
 PCOD8307204
Probable space group: P 42 M C
;
_chemical_formula_sum "Si O2"
_cell_formula_units_Z 48
_cell_length_a 9.693946
_cell_length_b 9.693946
_cell_length_c 27.773652
_cell_angle_alpha 90.000000
_cell_angle_beta 90.000000
_cell_angle_gamma 90.000000
_cell_volume 2609.961986
_symmetry_space_group_name_H-M "P 42 M C"
_symmetry_group_IT_number 105
_symmetry_cell_setting 'tetragonal'
loop_
_space_group_symop_operation_xyz
x,y,z
-y,x,1/2+z
-x,-y,z
y,-x,1/2+z
-x,y,z
x,-y,z
-y,-x,1/2+z
y,x,1/2+z
loop_
_atom_site_type_symbol
_atom_site_label
_atom_site_fract_x
_atom_site_fract_y
_atom_site_fract_z
Si Si1 0.662546 0.345877 0.015140
Si Si2 0.158155 0.658266 0.603253
Si Si3 0.661246 0.000000 0.358060
Si Si4 0.500000 0.668043 0.730752
Si Si5 0.000000 0.153501 0.765752
Si Si6 0.663839 0.500000 0.341090
Si Si7 0.662834 0.730482 0.411022
Si Si8 0.162684 0.244719 0.192070
O O1 0.500000 0.355774 0.013419
O O2 0.725252 0.500000 0.022522
O O3 0.710958 0.249887 0.058704
O O4 0.711107 0.277164 0.964677
O O5 0.197667 0.500000 0.618748
O O6 0.179794 0.770652 0.644601
O O7 0.000000 0.661814 0.586789
O O8 0.735770 0.000000 0.307496
O O9 0.707095 0.123066 0.391824
O O10 0.500000 0.000000 0.345615
O O11 0.500000 0.500000 0.724330
O O12 0.500000 0.716108 0.786358
O O13 0.370954 0.738733 0.705316
O O14 0.135137 0.176513 0.734332
O O15 0.000000 0.000000 0.787881
O O16 0.500000 0.500000 0.339416
O O17 0.723919 0.628799 0.370643
O O18 0.500000 0.706409 0.414834
O O19 0.000000 0.283934 0.183956
#
# Coordination Sequence:
#
# PCOD8307204 Si02
#       8
#     8   8   4   4   4   4   8   8
#     4   9  17  32  56  81 108 145 184 229 291 351
#     4  10  21  37  58  83 109 142 191 248 295 342
#     4  10  20  32  54  84 114 142 188 242 281 332
#     4  11  23  37  59  93 123 149 191 247 288 339
#     4  10  22  40  60  80 114 162 202 234 289 352
#     4   9  16  29  53  81 111 145 181 219 276 341
#     4   9  16  30  51  79 113 144 178 228 285 338
#     4  11  23  41  60  81 117 159 195 239 296 357
#
# _framework density 18.391072000000001
#
# number of rings (size 3 to 8) (size 9 to 14) (size 15 to 20)
#    0.000    2.167    1.667    1.750    1.167    2.667 
#    1.500    0.833    0.000    2.000    0.000    0.000 
#    0.000    0.000    0.000    0.000    0.000    0.000 
#
# Total GULP energy -594910.548544 kJ/mol
# GULP energy per Si atom -12393.969761 kJ/mol
# Density = 1.834921 g / cm^3
# Si number density = 18.391072 Si / 1000 Ang^3
#
#
#
# Elastic Constant Matrix: (Units=GPa)
#
#
# Indices 1 2 3 4 5 6 
#
# 1 83.0354 24.6970 29.8193 0.0000 0.0000 0.0000
# 2 24.6970 83.0354 29.8193 0.0000 0.0000 0.0000
# 3 29.8193 29.8193 104.1124 0.0000 0.0000 0.0000
# 4 0.0000 0.0000 0.0000 23.6588 0.0000 0.0000
# 5 0.0000 0.0000 0.0000 0.0000 23.6588 0.0000
# 6 0.0000 0.0000 0.0000 0.0000 0.0000 74.0577
#
#
#
# Elastic Compliance Matrix: (Units=1/GPa)
#
#
# Indices 1 2 3 4 5 6 
#
# 1 0.014086 -0.003055 -0.003160 0.000000 0.000000 0.000000
# 2 -0.003055 0.014086 -0.003160 0.000000 0.000000 0.000000
# 3 -0.003160 -0.003160 0.011415 0.000000 0.000000 0.000000
# 4 0.000000 0.000000 0.000000 0.042268 0.000000 0.000000
# 5 0.000000 0.000000 0.000000 0.000000 0.042268 0.000000
# 6 0.000000 0.000000 0.000000 0.000000 0.000000 0.013503
#
#
# Mechanical properties :
#
#
# Convention : Reuss Voigt Hill
#
# Bulk Modulus (GPa) = 47.98607 48.76161 48.37384
# Shear Modulus (GPa) = 30.61471 36.66491 33.63981
#
# Velocity S-wave (km/s) = 4.08444 4.46985 4.28148
# Velocity P-wave (km/s) = 6.95645 7.29457 7.12751
#
# Compressibility (1/GPa) = 0.02083938
#
# Stress axis : x y z
#
# Youngs Moduli (GPa) = 70.99074 70.99074 87.60504
#
# Poissons Ratio (x) = 0.21688 0.27679
# Poissons Ratio (y) = 0.21688 0.27679
# Poissons Ratio (z) = 0.22430 0.22430
#
# Static dielectric constant tensor:
#      x y z
#    x 3.378220 0.000000 0.000000 
#    y 0.000000 3.378220 0.000000 
#    z 0.000000 0.000000 3.584550 
# 
# 
# High freq. dielectric constant tensor:
#      x y z
#    x 1.701300 0.000000 0.000000 
#    y 0.000000 1.701300 0.000000 
#    z 0.000000 0.000000 1.723720 
# 
# From -- ./inp_files/4924.got.cif
#   From: 2010.03.12/outbox.cif.g09.slc.cpg/sg105_3_cif.got.tgz:4924.got - 2010.04.14 01:45:32.
