data_PCOD8307391
_publ_section_title
;
Structure prediction by ZEFSAII (Michael W. Deem and Ramdas Pophale) SiO2 
 PCOD8307391
Probable space group: P 42 M C
;
_chemical_formula_sum "Si O2"
_cell_formula_units_Z 48
_cell_length_a 9.447027
_cell_length_b 9.447027
_cell_length_c 30.748247
_cell_angle_alpha 90.000000
_cell_angle_beta 90.000000
_cell_angle_gamma 90.000000
_cell_volume 2744.167865
_symmetry_space_group_name_H-M "P 42 M C"
_symmetry_group_IT_number 105
_symmetry_cell_setting 'tetragonal'
loop_
_space_group_symop_operation_xyz
x,y,z
-y,x,1/2+z
-x,-y,z
y,-x,1/2+z
-x,y,z
x,-y,z
-y,-x,1/2+z
y,x,1/2+z
loop_
_atom_site_type_symbol
_atom_site_label
_atom_site_fract_x
_atom_site_fract_y
_atom_site_fract_z
Si Si1 0.331694 0.160248 0.586470
Si Si2 0.336362 0.665359 0.004140
Si Si3 0.335921 0.836452 0.919867
Si Si4 0.664079 0.836452 0.253073
Si Si5 0.663638 0.334641 0.168800
Si Si6 0.164064 0.164064 0.836470
O O1 0.500000 0.161558 0.586470
O O2 0.276525 0.242219 0.543889
O O3 0.276525 0.242219 0.629051
O O4 0.272639 0.000000 0.586470
O O5 0.500000 0.697321 0.015064
O O6 0.311270 0.500000 0.995978
O O7 0.285700 0.747223 0.961321
O O8 0.500000 0.810568 0.909860
O O9 0.249462 0.781679 0.878302
O O10 0.302870 0.000000 0.929615
O O11 0.500000 0.810568 0.263081
O O12 0.714300 0.747223 0.211619
O O13 0.750538 0.781680 0.294638
O O14 0.697130 0.000000 0.243325
O O15 0.500000 0.302680 0.157876
O O16 0.688731 0.500000 0.176963
O O17 0.000000 0.194429 0.845503
O O18 0.194429 0.000000 0.827437
#
# Coordination Sequence:
#
# PCOD8307391 Si02
#       6
#     8   8   8   8   8   8
#     4   9  17  29  46  69  94 118 148 187 226 264
#     4   9  17  30  48  68  90 118 150 183 222 267
#     4   9  18  32  48  67  92 120 150 185 224 266
#     4   9  18  32  48  67  92 120 150 185 224 266
#     4   9  17  30  48  68  90 118 150 183 222 267
#     4   9  18  32  48  65  88 120 152 181 220 268
#
# _framework density 17.491641000000001
#
# number of rings (size 3 to 8) (size 9 to 14) (size 15 to 20)
#    0.000    3.000    0.000    0.500    0.000    4.667 
#    0.000    0.833    0.000    5.000    0.000    0.000 
#    0.000    0.000    0.000    0.000    0.000    0.000 
#
# Total GULP energy -595277.940108 kJ/mol
# GULP energy per Si atom -12401.623752 kJ/mol
# Density = 1.745183 g / cm^3
# Si number density = 17.491641 Si / 1000 Ang^3
#
#
#
# Elastic Constant Matrix: (Units=GPa)
#
#
# Indices 1 2 3 4 5 6 
#
# 1 63.9795 35.7754 78.4007 0.0000 0.0000 0.0000
# 2 35.7754 63.9795 78.4007 0.0000 0.0000 0.0000
# 3 78.4007 78.4007 200.6375 0.0000 0.0000 0.0000
# 4 0.0000 0.0000 0.0000 20.0791 0.0000 0.0000
# 5 0.0000 0.0000 0.0000 0.0000 20.0791 0.0000
# 6 0.0000 0.0000 0.0000 0.0000 0.0000 17.0039
#
#
#
# Elastic Compliance Matrix: (Units=1/GPa)
#
#
# Indices 1 2 3 4 5 6 
#
# 1 0.030720 -0.004735 -0.010154 0.000000 0.000000 0.000000
# 2 -0.004735 0.030720 -0.010154 0.000000 0.000000 0.000000
# 3 -0.010154 -0.010154 0.012920 0.000000 0.000000 0.000000
# 4 0.000000 0.000000 0.000000 0.049803 0.000000 0.000000
# 5 0.000000 0.000000 0.000000 0.000000 0.049803 0.000000
# 6 0.000000 0.000000 0.000000 0.000000 0.000000 0.058810
#
#
# Mechanical properties :
#
#
# Convention : Reuss Voigt Hill
#
# Bulk Modulus (GPa) = 41.19602 79.30557 60.25080
# Shear Modulus (GPa) = 17.18484 20.50041 18.84263
#
# Velocity S-wave (km/s) = 3.13782 3.42718 3.28569
# Velocity P-wave (km/s) = 6.06060 7.81654 6.99390
#
# Compressibility (1/GPa) = 0.02427419
#
# Stress axis : x y z
#
# Youngs Moduli (GPa) = 32.55159 32.55159 77.40228
#
# Poissons Ratio (x) = 0.15414 0.78593
# Poissons Ratio (y) = 0.15414 0.78593
# Poissons Ratio (z) = 0.33052 0.33052
#
# Static dielectric constant tensor:
#      x y z
#    x 3.161160 0.000000 0.000000 
#    y 0.000000 3.161160 0.000000 
#    z 0.000000 0.000000 3.400620 
# 
# 
# High freq. dielectric constant tensor:
#      x y z
#    x 1.662260 0.000000 0.000000 
#    y 0.000000 1.662260 0.000000 
#    z 0.000000 0.000000 1.684990 
# 
# From -- ./inp_files/4669.got.cif
#   From: 2010.03.12/outbox.cif.g09.slc.cpg/sg105_3_cif.got.tgz:4669.got - 2010.04.14 01:45:32.
