data_PCOD8307496
_publ_section_title
;
Structure prediction by ZEFSAII (Michael W. Deem and Ramdas Pophale) SiO2 
 PCOD8307496
Probable space group: I 4 M M
;
_chemical_formula_sum "Si O2"
_cell_formula_units_Z 80
_cell_length_a 18.973619
_cell_length_b 18.973619
_cell_length_c 15.427933
_cell_angle_alpha 90.000000
_cell_angle_beta 90.000000
_cell_angle_gamma 90.000000
_cell_volume 5554.028387
_symmetry_space_group_name_H-M "I 4 M M"
_symmetry_group_IT_number 107
_symmetry_cell_setting 'tetragonal'
loop_
_space_group_symop_operation_xyz
x,y,z
-y,x,z
-x,-y,z
y,-x,z
-x,y,z
x,-y,z
-y,-x,z
y,x,z
1/2+x,1/2+y,1/2+z
1/2-y,1/2+x,1/2+z
1/2-x,1/2-y,1/2+z
1/2+y,1/2-x,1/2+z
1/2-x,1/2+y,1/2+z
1/2+x,1/2-y,1/2+z
1/2-y,1/2-x,1/2+z
1/2+y,1/2+x,1/2+z
loop_
_atom_site_type_symbol
_atom_site_label
_atom_site_fract_x
_atom_site_fract_y
_atom_site_fract_z
Si Si1 0.420916 0.083695 0.367140
Si Si2 0.806422 0.920384 0.267195
Si Si3 0.306422 0.420384 0.967085
Si Si4 0.917886 0.655895 0.195713
Si Si5 0.917886 0.344105 0.538567
O O1 0.500000 0.113364 0.367140
O O2 0.382192 0.111404 0.281533
O O3 0.382192 0.111404 0.452747
O O4 0.418834 0.000000 0.367140
O O5 0.868604 0.868604 0.237867
O O6 0.784345 0.908194 0.367140
O O7 0.739241 0.906484 0.206566
O O8 0.833971 0.000000 0.254541
O O9 0.333970 0.500000 0.979739
O O10 0.368604 0.368604 0.996413
O O11 0.239241 0.406484 0.027713
O O12 0.870858 0.629142 0.117140
O O13 0.000000 0.637675 0.179064
O O14 0.000000 0.362325 0.555216
#
# Coordination Sequence:
#
# PCOD8307496 Si02
#       5
#    16  16  16  16  16
#     4   9  16  26  39  56  81 113 147 178 205 236
#     4   9  17  30  46  63  85 111 141 180 222 262
#     4   9  17  30  46  63  85 111 141 180 222 262
#     4  10  18  28  42  62  87 116 147 178 210 250
#     4  10  18  28  42  62  87 116 147 178 210 250
#
# _framework density 14.403959
#
# number of rings (size 3 to 8) (size 9 to 14) (size 15 to 20)
#    0.000    2.600    2.000    1.200    0.000    3.200 
#    0.000    2.000    0.000    0.000    0.000    0.000 
#    0.000    0.000    0.000    0.000    0.000   18.400 
#
# Total GULP energy -495970.063561 kJ/mol
# GULP energy per Si atom -12399.251589 kJ/mol
# Density = 1.437117 g / cm^3
# Si number density = 14.403959 Si / 1000 Ang^3
#
#
#
# Elastic Constant Matrix: (Units=GPa)
#
#
# Indices 1 2 3 4 5 6 
#
# 1 82.4255 56.3580 47.9425 0.0000 0.0000 0.0000
# 2 56.3580 82.4255 47.9425 0.0000 0.0000 0.0000
# 3 47.9425 47.9425 93.7375 0.0000 0.0000 0.0000
# 4 0.0000 0.0000 0.0000 18.2094 0.0000 0.0000
# 5 0.0000 0.0000 0.0000 0.0000 18.2094 0.0000
# 6 0.0000 0.0000 0.0000 0.0000 0.0000 22.9808
#
#
#
# Elastic Compliance Matrix: (Units=1/GPa)
#
#
# Indices 1 2 3 4 5 6 
#
# 1 0.024752 -0.013610 -0.005699 0.000000 0.000000 0.000000
# 2 -0.013610 0.024752 -0.005699 0.000000 0.000000 0.000000
# 3 -0.005699 -0.005699 0.016498 0.000000 0.000000 0.000000
# 4 0.000000 0.000000 0.000000 0.054917 0.000000 0.000000
# 5 0.000000 0.000000 0.000000 0.000000 0.054917 0.000000
# 6 0.000000 0.000000 0.000000 0.000000 0.000000 0.043515
#
#
# Mechanical properties :
#
#
# Convention : Reuss Voigt Hill
#
# Bulk Modulus (GPa) = 62.54995 62.56381 62.55688
# Shear Modulus (GPa) = 18.20197 18.96960 18.58579
#
# Velocity S-wave (km/s) = 3.55868 3.63295 3.59601
# Velocity P-wave (km/s) = 7.77209 7.81839 7.79527
#
# Compressibility (1/GPa) = 0.01598722
#
# Stress axis : x y z
#
# Youngs Moduli (GPa) = 40.39997 40.39997 60.61421
#
# Poissons Ratio (x) = 0.54982 0.34545
# Poissons Ratio (y) = 0.54982 0.34545
# Poissons Ratio (z) = 0.23024 0.23024
#
# Static dielectric constant tensor:
#      x y z
#    x 2.710290 0.000000 0.000000 
#    y 0.000000 2.710290 0.000000 
#    z 0.000000 0.000000 2.707340 
# 
# 
# High freq. dielectric constant tensor:
#      x y z
#    x 1.537800 0.000000 0.000000 
#    y 0.000000 1.537800 0.000000 
#    z 0.000000 0.000000 1.537510 
# 
# From -- ./inp_files/3055.got.cif
#   From: 2010.03.12/outbox.cif.g09.slc.cpg/sg107_2_cif.got.tgz:3055.got - 2010.04.14 01:49:11.
