data_PCOD8307113
_publ_section_title
;
Structure prediction by ZEFSAII (Michael W. Deem and Ramdas Pophale) SiO2 
 PCOD8307113
Probable space group: P 42 M C
;
_chemical_formula_sum "Si O2"
_cell_formula_units_Z 56
_cell_length_a 14.769145
_cell_length_b 14.769145
_cell_length_c 13.910455
_cell_angle_alpha 90.000000
_cell_angle_beta 90.000000
_cell_angle_gamma 90.000000
_cell_volume 3034.254777
_symmetry_space_group_name_H-M "P 42 M C"
_symmetry_group_IT_number 105
_symmetry_cell_setting 'tetragonal'
loop_
_space_group_symop_operation_xyz
x,y,z
-y,x,1/2+z
-x,-y,z
y,-x,1/2+z
-x,y,z
x,-y,z
-y,-x,1/2+z
y,x,1/2+z
loop_
_atom_site_type_symbol
_atom_site_label
_atom_site_fract_x
_atom_site_fract_y
_atom_site_fract_z
Si Si1 0.287387 0.323535 0.639520
Si Si2 0.397023 0.899376 0.793530
Si Si3 0.710796 0.267973 0.851861
Si Si4 0.156917 0.396615 0.082100
Si Si5 0.396297 0.399857 0.488512
Si Si6 0.899553 0.396671 0.679692
Si Si7 0.675439 0.098807 0.385780
O O1 0.310086 0.315374 0.750873
O O2 0.321153 0.235274 0.581926
O O3 0.348679 0.403731 0.594109
O O4 0.178895 0.338478 0.626316
O O5 0.500000 0.871152 0.816139
O O6 0.333332 0.831256 0.852795
O O7 0.380436 0.901036 0.678612
O O8 0.376200 0.000000 0.832002
O O9 0.668723 0.337227 0.926661
O O10 0.817645 0.254157 0.875527
O O11 0.194321 0.500000 0.081518
O O12 0.099794 0.380569 0.985326
O O13 0.500000 0.365321 0.495178
O O14 0.393605 0.500000 0.443613
O O15 0.885629 0.500000 0.648537
O O16 0.891115 0.392358 0.795423
O O17 0.000000 0.362423 0.647350
O O18 0.724874 0.000000 0.380491
#
# Coordination Sequence:
#
# PCOD8307113 Si02
#       7
#     8   8   8   8   8   8   8
#     4  10  20  34  52  73 104 143 178 216 269 324
#     4   9  18  33  54  80 108 140 179 223 272 325
#     4  10  21  36  54  77 109 143 178 223 274 322
#     4  10  18  30  51  79 109 137 171 220 276 329
#     4  11  23  36  51  73 103 143 190 226 257 314
#     4   9  18  32  50  74 102 134 177 226 272 319
#     4  10  19  31  52  79 105 136 175 223 279 331
#
# _framework density 18.455932000000001
#
# number of rings (size 3 to 8) (size 9 to 14) (size 15 to 20)
#    0.000    2.143    1.429    2.143    0.000    6.000 
#    0.000    2.143    0.000    3.000    0.000    0.000 
#    0.000    3.429    0.000    0.000    0.000    0.000 
#
# Total GULP energy -693779.747555 kJ/mol
# GULP energy per Si atom -12388.924063 kJ/mol
# Density = 1.841393 g / cm^3
# Si number density = 18.455932 Si / 1000 Ang^3
#
#
#
# Elastic Constant Matrix: (Units=GPa)
#
#
# Indices 1 2 3 4 5 6 
#
# 1 137.1678 69.8588 34.6110 0.0000 0.0000 0.0000
# 2 69.8588 137.1678 34.6110 0.0000 0.0000 0.0000
# 3 34.6110 34.6110 64.6597 0.0000 0.0000 0.0000
# 4 0.0000 0.0000 0.0000 20.4489 0.0000 0.0000
# 5 0.0000 0.0000 0.0000 0.0000 20.4489 0.0000
# 6 0.0000 0.0000 0.0000 0.0000 0.0000 22.4593
#
#
#
# Elastic Compliance Matrix: (Units=1/GPa)
#
#
# Indices 1 2 3 4 5 6 
#
# 1 0.010370 -0.004487 -0.003149 0.000000 0.000000 0.000000
# 2 -0.004487 0.010370 -0.003149 0.000000 0.000000 0.000000
# 3 -0.003149 -0.003149 0.018837 0.000000 0.000000 0.000000
# 4 0.000000 0.000000 0.000000 0.048902 0.000000 0.000000
# 5 0.000000 0.000000 0.000000 0.000000 0.048902 0.000000
# 6 0.000000 0.000000 0.000000 0.000000 0.000000 0.044525
#
#
# Mechanical properties :
#
#
# Convention : Reuss Voigt Hill
#
# Bulk Modulus (GPa) = 55.53472 68.57298 62.05385
# Shear Modulus (GPa) = 23.86869 25.99905 24.93387
#
# Velocity S-wave (km/s) = 3.60012 3.75735 3.67958
# Velocity P-wave (km/s) = 6.88745 7.48727 7.19361
#
# Compressibility (1/GPa) = 0.01800675
#
# Stress axis : x y z
#
# Youngs Moduli (GPa) = 96.43135 96.43135 53.08707
#
# Poissons Ratio (x) = 0.43267 0.16718
# Poissons Ratio (y) = 0.43267 0.16718
# Poissons Ratio (z) = 0.30368 0.30368
#
# Static dielectric constant tensor:
#      x y z
#    x 3.442980 0.000000 0.000000 
#    y 0.000000 3.442980 0.000000 
#    z 0.000000 0.000000 3.544440 
# 
# 
# High freq. dielectric constant tensor:
#      x y z
#    x 1.701070 0.000000 0.000000 
#    y 0.000000 1.701070 0.000000 
#    z 0.000000 0.000000 1.718520 
# 
# From -- ./inp_files/2633.got.cif
#   From: 2010.03.12/outbox.cif.g09.slc.cpg/sg105_2_cif.got.tgz:2633.got - 2010.04.14 01:45:32.
