data_PCOD8307565
_publ_section_title
;
Structure prediction by ZEFSAII (Michael W. Deem and Ramdas Pophale) SiO2 
 PCOD8307565
Probable space group: I 4 M M
;
_chemical_formula_sum "Si O2"
_cell_formula_units_Z 96
_cell_length_a 18.285278
_cell_length_b 18.285278
_cell_length_c 17.160292
_cell_angle_alpha 90.000000
_cell_angle_beta 90.000000
_cell_angle_gamma 90.000000
_cell_volume 5737.567509
_symmetry_space_group_name_H-M "I 4 M M"
_symmetry_group_IT_number 107
_symmetry_cell_setting 'tetragonal'
loop_
_space_group_symop_operation_xyz
x,y,z
-y,x,z
-x,-y,z
y,-x,z
-x,y,z
x,-y,z
-y,-x,z
y,x,z
1/2+x,1/2+y,1/2+z
1/2-y,1/2+x,1/2+z
1/2-x,1/2-y,1/2+z
1/2+y,1/2-x,1/2+z
1/2-x,1/2+y,1/2+z
1/2+x,1/2-y,1/2+z
1/2-y,1/2-x,1/2+z
1/2+y,1/2+x,1/2+z
loop_
_atom_site_type_symbol
_atom_site_label
_atom_site_fract_x
_atom_site_fract_y
_atom_site_fract_z
Si Si1 0.914042 0.297587 0.101240
Si Si2 0.801727 0.919216 0.244197
Si Si3 0.415774 0.850543 0.206021
Si Si4 0.415616 0.702914 0.290467
Si Si5 0.226321 0.344938 0.437565
Si Si6 0.081796 0.337139 0.347562
O O1 0.896552 0.234051 0.162575
O O2 0.872368 0.370703 0.129131
O O3 0.000000 0.314831 0.095970
O O4 0.883757 0.268174 0.020269
O O5 0.866317 0.866317 0.267228
O O6 0.743346 0.914490 0.312609
O O7 0.834942 0.000000 0.237764
O O8 0.500000 0.863177 0.186166
O O9 0.399549 0.766079 0.227284
O O10 0.395306 0.901121 0.279662
O O11 0.500000 0.678981 0.289569
O O12 0.366989 0.633012 0.267618
O O13 0.396142 0.732211 0.376083
O O14 0.265181 0.265181 0.439690
O O15 0.140504 0.339473 0.416909
O O16 0.000000 0.353641 0.379986
#
# Coordination Sequence:
#
# PCOD8307565 Si02
#       6
#    16  16  16  16  16  16
#     4  10  20  31  45  67  93 121 152 187 225 265
#     4   9  17  30  47  66  89 115 145 182 222 265
#     4   9  18  32  48  67  92 121 153 186 225 276
#     4   9  18  32  50  71  94 121 154 193 233 275
#     4  10  19  31  48  67  91 124 158 190 227 275
#     4   9  18  31  47  67  90 117 150 188 228 269
#
# _framework density 16.731829999999999
#
# number of rings (size 3 to 8) (size 9 to 14) (size 15 to 20)
#    0.000    2.667    0.000    3.000    0.000    7.667 
#    0.000    0.000    0.000    0.000    0.000    2.333 
#    0.000    0.000    0.000    8.667    0.000    0.000 
#
# Total GULP energy -595167.301441 kJ/mol
# GULP energy per Si atom -12399.318780 kJ/mol
# Density = 1.669375 g / cm^3
# Si number density = 16.731830 Si / 1000 Ang^3
#
#
#
# Elastic Constant Matrix: (Units=GPa)
#
#
# Indices 1 2 3 4 5 6 
#
# 1 88.9307 53.7162 7.5347 0.0000 0.0000 0.0003
# 2 53.7162 88.9307 7.5347 0.0000 0.0000 -0.0003
# 3 7.5347 7.5347 32.4012 0.0000 0.0000 0.0000
# 4 0.0000 0.0000 0.0000 17.8853 0.0000 0.0000
# 5 0.0000 0.0000 0.0000 0.0000 17.8853 0.0000
# 6 0.0003 -0.0003 0.0000 0.0000 0.0000 22.4336
#
#
#
# Elastic Compliance Matrix: (Units=1/GPa)
#
#
# Indices 1 2 3 4 5 6 
#
# 1 0.017792 -0.010605 -0.001671 0.000000 0.000000 0.000000
# 2 -0.010605 0.017792 -0.001671 0.000000 0.000000 0.000000
# 3 -0.001671 -0.001671 0.031640 0.000000 0.000000 0.000000
# 4 0.000000 0.000000 0.000000 0.055912 0.000000 0.000000
# 5 0.000000 0.000000 0.000000 0.000000 0.055912 0.000000
# 6 0.000000 0.000000 0.000000 0.000000 0.000000 0.044576
#
#
# Mechanical properties :
#
#
# Convention : Reuss Voigt Hill
#
# Bulk Modulus (GPa) = 25.42650 38.64818 32.03734
# Shear Modulus (GPa) = 18.89435 21.07265 19.98350
#
# Velocity S-wave (km/s) = 3.36407 3.55270 3.45967
# Velocity P-wave (km/s) = 5.50625 6.32279 5.92859
#
# Compressibility (1/GPa) = 0.03932905
#
# Stress axis : x y z
#
# Youngs Moduli (GPa) = 56.20457 56.20457 31.60524
#
# Poissons Ratio (x) = 0.59607 0.05282
# Poissons Ratio (y) = 0.59607 0.05282
# Poissons Ratio (z) = 0.09393 0.09393
#
# Static dielectric constant tensor:
#      x y z
#    x 3.176300 0.000000 0.000000 
#    y 0.000000 3.176300 0.000000 
#    z 0.000000 0.000000 2.933270 
# 
# 
# High freq. dielectric constant tensor:
#      x y z
#    x 1.645840 0.000000 0.000000 
#    y 0.000000 1.645840 0.000000 
#    z 0.000000 0.000000 1.624890 
# 
# From -- ./inp_files/4027.got.cif
#   From: 2010.03.12/outbox.cif.g09.slc.cpg/sg107_3_cif.got.tgz:4027.got - 2010.04.14 01:49:11.
