data_PCOD8307020
_publ_section_title
;
Structure prediction by ZEFSAII (Michael W. Deem and Ramdas Pophale) SiO2 
 PCOD8307020
Probable space group: P 4 C C
;
_chemical_formula_sum "Si O2"
_cell_formula_units_Z 44
_cell_length_a 8.081034
_cell_length_b 8.081034
_cell_length_c 30.139181
_cell_angle_alpha 90.000000
_cell_angle_beta 90.000000
_cell_angle_gamma 90.000000
_cell_volume 1968.182267
_symmetry_space_group_name_H-M "P 4 C C"
_symmetry_group_IT_number 103
_symmetry_cell_setting 'tetragonal'
loop_
_space_group_symop_operation_xyz
x,y,z
-y,x,z
-x,-y,z
y,-x,z
-x,y,1/2+z
x,-y,1/2+z
-y,-x,1/2+z
y,x,1/2+z
loop_
_atom_site_type_symbol
_atom_site_label
_atom_site_fract_x
_atom_site_fract_y
_atom_site_fract_z
Si Si1 0.246491 0.598426 0.407850
Si Si2 0.500000 0.000000 0.072891
Si Si3 0.238623 0.581770 0.145426
Si Si4 0.257260 0.090089 0.228110
Si Si5 0.759313 0.592684 0.003451
Si Si6 0.244453 0.398025 0.812191
O O1 0.291454 0.407894 0.407941
O O2 0.153710 0.629215 0.454962
O O3 0.156070 0.634764 0.360707
O O4 0.386392 0.117960 0.103747
O O5 0.625412 0.105837 0.041680
O O6 0.295000 0.392097 0.142964
O O7 0.138362 0.610346 0.190677
O O8 0.344385 0.112070 0.275654
O O9 0.099543 0.208266 0.223044
O O10 0.599631 0.707226 0.008982
O O11 0.409959 0.289753 0.806620
#
# Coordination Sequence:
#
# PCOD8307020 Si02
#       6
#     8   4   8   8   8   8
#     4   7  12  27  52  81 113 147 187 234 277 324
#     4  12  22  34  58  88 112 138 186 240 294 346
#     4  11  24  42  63  85 111 148 194 242 291 350
#     4  11  24  40  57  83 120 156 191 238 297 355
#     4   9  18  35  58  84 116 152 190 235 285 339
#     4   9  17  32  57  87 116 151 195 239 283 337
#
# _framework density 22.355653
#
# number of rings (size 3 to 8) (size 9 to 14) (size 15 to 20)
#    0.000    2.364    0.000    5.455    0.000    5.091 
#    0.000    5.455    0.000    4.909    0.000    0.000 
#    0.000    0.000    0.000    0.000    0.000    0.000 
#
# Total GULP energy -545146.774138 kJ/mol
# GULP energy per Si atom -12389.699412 kJ/mol
# Density = 2.230477 g / cm^3
# Si number density = 22.355653 Si / 1000 Ang^3
#
#
#
# Elastic Constant Matrix: (Units=GPa)
#
#
# Indices 1 2 3 4 5 6 
#
# 1 71.9942 17.2512 50.6366 0.0000 0.0000 0.0000
# 2 17.2512 71.9942 50.6366 0.0000 0.0000 0.0000
# 3 50.6366 50.6366 229.4244 0.0000 0.0000 0.0000
# 4 0.0000 0.0000 0.0000 25.1671 0.0000 0.0000
# 5 0.0000 0.0000 0.0000 0.0000 25.1671 0.0000
# 6 0.0000 0.0000 0.0000 0.0000 0.0000 22.8797
#
#
#
# Elastic Compliance Matrix: (Units=1/GPa)
#
#
# Indices 1 2 3 4 5 6 
#
# 1 0.016608 -0.001659 -0.003299 0.000000 0.000000 0.000000
# 2 -0.001659 0.016608 -0.003299 0.000000 0.000000 0.000000
# 3 -0.003299 -0.003299 0.005815 0.000000 0.000000 0.000000
# 4 0.000000 0.000000 0.000000 0.039734 0.000000 0.000000
# 5 0.000000 0.000000 0.000000 0.000000 0.039734 0.000000
# 6 0.000000 0.000000 0.000000 0.000000 0.000000 0.043707
#
#
# Mechanical properties :
#
#
# Convention : Reuss Voigt Hill
#
# Bulk Modulus (GPa) = 44.41338 67.82906 56.12122
# Shear Modulus (GPa) = 26.84879 31.63536 29.24207
#
# Velocity S-wave (km/s) = 3.46928 3.76586 3.62061
# Velocity P-wave (km/s) = 5.99648 7.02251 6.52968
#
# Compressibility (1/GPa) = 0.02251574
#
# Stress axis : x y z
#
# Youngs Moduli (GPa) = 60.21128 60.21128 171.96340
#
# Poissons Ratio (x) = 0.09989 0.56739
# Poissons Ratio (y) = 0.09989 0.56739
# Poissons Ratio (z) = 0.19866 0.19866
#
# Static dielectric constant tensor:
#      x y z
#    x 3.727900 0.000000 0.000000 
#    y 0.000000 3.727900 0.000000 
#    z 0.000000 0.000000 4.717270 
# 
# 
# High freq. dielectric constant tensor:
#      x y z
#    x 1.850030 0.000000 0.000000 
#    y 0.000000 1.850030 0.000000 
#    z 0.000000 0.000000 1.913450 
# 
# From -- ./inp_files/1518.got.cif
#   From: 2010.03.12/outbox.cif.g09.slc.cpg/sg103_cif.got.tgz:1518.got - 2010.04.14 01:42:52.
