data_PCOD8307919
_publ_section_title
;
Structure prediction by ZEFSAII (Michael W. Deem and Ramdas Pophale) SiO2 
 PCOD8307919
Probable space group: I 41 M D
;
_chemical_formula_sum "Si O2"
_cell_formula_units_Z 112
_cell_length_a 13.935251
_cell_length_b 13.935251
_cell_length_c 27.298647
_cell_angle_alpha 90.000000
_cell_angle_beta 90.000000
_cell_angle_gamma 90.000000
_cell_volume 5301.157577
_symmetry_space_group_name_H-M "I 41 M D"
_symmetry_group_IT_number 109
_symmetry_cell_setting 'tetragonal'
loop_
_space_group_symop_operation_xyz
x,y,z
-y,1/2+x,1/4+z
-x,-y,z
y,1/2-x,1/4+z
-x,y,z
x,-y,z
-y,1/2-x,1/4+z
y,1/2+x,1/4+z
1/2+x,1/2+y,1/2+z
1/2-y,x,3/4+z
1/2-x,1/2-y,1/2+z
1/2+y,-x,3/4+z
1/2-x,1/2+y,1/2+z
1/2+x,1/2-y,1/2+z
1/2-y,-x,3/4+z
1/2+y,x,3/4+z
loop_
_atom_site_type_symbol
_atom_site_label
_atom_site_fract_x
_atom_site_fract_y
_atom_site_fract_z
Si Si1 0.388263 0.395880 0.433850
Si Si2 0.113006 0.297278 0.983030
Si Si3 0.222080 0.886899 0.253105
Si Si4 0.793073 0.888111 0.450042
Si Si5 0.111548 0.274419 0.090729
Si Si6 0.609524 0.386024 0.848266
Si Si7 0.393212 0.113732 0.905714
O O1 0.500000 0.408339 0.433172
O O2 0.341501 0.500000 0.448257
O O3 0.359433 0.312860 0.471261
O O4 0.357922 0.366451 0.379204
O O5 0.151524 0.308196 0.038520
O O6 0.000000 0.320739 0.974559
O O7 0.177644 0.368260 0.949709
O O8 0.326407 0.839607 0.244166
O O9 0.172785 0.846434 0.302730
O O10 0.153572 0.858510 0.207883
O O11 0.236990 0.000000 0.257033
O O12 0.839889 0.853536 0.398851
O O13 0.813115 0.000000 0.459585
O O14 0.154749 0.174886 0.112482
O O15 0.000000 0.256075 0.081825
O O16 0.500000 0.346319 0.846630
O O17 0.606844 0.500000 0.845065
O O18 0.500000 0.148402 0.892760
O O19 0.386115 0.000000 0.909868
#
# Coordination Sequence:
#
# PCOD8307919 Si02
#       7
#    16  16  16  16  16  16  16
#     4   9  18  34  57  82 107 139 182 234 291 349
#     4  10  22  39  58  80 110 150 196 245 294 346
#     4  10  20  35  58  88 119 151 190 234 284 348
#     4  11  24  40  58  82 114 154 200 247 293 343
#     4   9  18  33  52  77 111 148 184 224 273 332
#     4   9  19  39  65  89 117 153 189 232 294 363
#     4   9  17  30  52  85 122 154 183 221 273 336
#
# _framework density 21.127459000000002
#
# number of rings (size 3 to 8) (size 9 to 14) (size 15 to 20)
#    0.000    2.429    0.000    1.714    0.000    6.286 
#    0.000    7.143    0.000    2.571    0.000    0.000 
#    0.000    0.000    0.000    0.000    0.000    0.000 
#
# Total GULP energy -694088.573012 kJ/mol
# GULP energy per Si atom -12394.438804 kJ/mol
# Density = 2.107937 g / cm^3
# Si number density = 21.127459 Si / 1000 Ang^3
#
#
#
# Elastic Constant Matrix: (Units=GPa)
#
#
# Indices 1 2 3 4 5 6 
#
# 1 29.4631 41.5576 28.1177 0.0000 0.0000 0.0000
# 2 41.5576 29.4631 28.1177 0.0000 0.0000 0.0000
# 3 28.1177 28.1177 99.5094 0.0000 0.0000 0.0000
# 4 0.0000 0.0000 0.0000 34.3062 0.0000 0.0000
# 5 0.0000 0.0000 0.0000 0.0000 34.3062 0.0000
# 6 0.0000 0.0000 0.0000 0.0000 0.0000 28.1977
#
#
#
# Elastic Compliance Matrix: (Units=1/GPa)
#
#
# Indices 1 2 3 4 5 6 
#
# 1 -0.032272 0.050411 -0.005125 0.000000 0.000000 0.000000
# 2 0.050411 -0.032272 -0.005125 0.000000 0.000000 0.000000
# 3 -0.005125 -0.005125 0.012946 0.000000 0.000000 0.000000
# 4 0.000000 0.000000 0.000000 0.029149 0.000000 0.000000
# 5 0.000000 0.000000 0.000000 0.000000 0.029149 0.000000
# 6 0.000000 0.000000 0.000000 0.000000 0.000000 0.035464
#
#
# Mechanical properties :
#
#
# Convention : Reuss Voigt Hill
#
# Bulk Modulus (GPa) = 34.81666 39.33574 37.07620
# Shear Modulus (GPa) = -174.93871 23.40487 -75.76692
#
# Velocity S-wave (km/s) = -9.10941 3.33196 -5.99497
# Velocity P-wave (km/s) = 9.70189 5.78458 5.50751
#
# Compressibility (1/GPa) = 0.02872188
#
# Stress axis : x y z
#
# Youngs Moduli (GPa) = -30.98675 -30.98675 77.24525
#
# Poissons Ratio (x) = 1.56206 0.39591
# Poissons Ratio (y) = 1.56206 0.39591
# Poissons Ratio (z) = -0.15882 -0.15882
#
# Static dielectric constant tensor:
#      x y z
#    x 3.867200 0.000000 0.000000 
#    y 0.000000 3.867200 0.000000 
#    z 0.000000 0.000000 3.942820 
# 
# 
# High freq. dielectric constant tensor:
#      x y z
#    x 1.826800 0.000000 0.000000 
#    y 0.000000 1.826800 0.000000 
#    z 0.000000 0.000000 1.819030 
# 
# From -- ./inp_files/4461.got.cif
#   From: 2010.03.12/outbox.cif.g09.slc.cpg/sg109_3_cif.got.tgz:4461.got - 2010.04.14 01:55:16.
