data_PCOD8307499
_publ_section_title
;
Structure prediction by ZEFSAII (Michael W. Deem and Ramdas Pophale) SiO2 
 PCOD8307499
Probable space group: I 4 M M
;
_chemical_formula_sum "Si O2"
_cell_formula_units_Z 128
_cell_length_a 17.888291
_cell_length_b 17.888291
_cell_length_c 22.739603
_cell_angle_alpha 90.000000
_cell_angle_beta 90.000000
_cell_angle_gamma 90.000000
_cell_volume 7276.467278
_symmetry_space_group_name_H-M "I 4 M M"
_symmetry_group_IT_number 107
_symmetry_cell_setting 'tetragonal'
loop_
_space_group_symop_operation_xyz
x,y,z
-y,x,z
-x,-y,z
y,-x,z
-x,y,z
x,-y,z
-y,-x,z
y,x,z
1/2+x,1/2+y,1/2+z
1/2-y,1/2+x,1/2+z
1/2-x,1/2-y,1/2+z
1/2+y,1/2-x,1/2+z
1/2-x,1/2+y,1/2+z
1/2+x,1/2-y,1/2+z
1/2-y,1/2-x,1/2+z
1/2+y,1/2+x,1/2+z
loop_
_atom_site_type_symbol
_atom_site_label
_atom_site_fract_x
_atom_site_fract_y
_atom_site_fract_z
Si Si1 0.853029 0.414720 0.101120
Si Si2 0.695051 0.418540 0.850756
Si Si3 0.806450 0.685481 0.391578
Si Si4 0.802346 0.081746 0.213620
Si Si5 0.864447 0.584358 0.715876
Si Si6 0.781440 0.415342 0.286301
Si Si7 0.706660 0.412335 0.164229
Si Si8 0.911263 0.411384 0.476318
O O1 0.837282 0.500000 0.089013
O O2 0.912886 0.406231 0.153436
O O3 0.773154 0.380933 0.122151
O O4 0.887055 0.382600 0.041062
O O5 0.702401 0.500000 0.880718
O O6 0.624397 0.375604 0.879782
O O7 0.769515 0.371650 0.859472
O O8 0.680875 0.426519 0.782081
O O9 0.743100 0.743100 0.418543
O O10 0.764187 0.636543 0.342211
O O11 0.851014 0.632574 0.436633
O O12 0.860983 0.139018 0.183991
O O13 0.719495 0.114132 0.204469
O O14 0.810992 0.000000 0.183500
O O15 0.862913 0.500000 0.740294
O O16 0.906231 0.632964 0.764874
O O17 0.769161 0.500000 0.306930
O O18 0.727566 0.395351 0.231969
O O19 0.692369 0.500000 0.154621
O O20 0.631343 0.368658 0.147780
O O21 0.900034 0.500000 0.467784
O O22 0.000000 0.391683 0.464835
#
# Coordination Sequence:
#
# PCOD8307499 Si02
#       8
#    16  16  16  16  16  16  16  16
#     4   9  19  34  50  71  98 128 161 198 245 300
#     4   9  17  29  44  63  90 123 160 201 243 290
#     4  11  21  33  50  71 100 133 169 211 254 300
#     4   9  17  28  42  63  91 124 161 198 239 286
#     4  10  18  28  46  71  97 124 158 201 247 299
#     4  10  20  32  47  70  99 132 167 202 247 298
#     4   9  18  32  51  75 102 132 165 201 242 290
#     4  10  21  37  56  76 102 135 170 212 259 307
#
# _framework density 17.590952999999999
#
# number of rings (size 3 to 8) (size 9 to 14) (size 15 to 20)
#    0.000    2.375    1.250    2.625    0.000    4.875 
#    0.000    1.250    0.000    0.000    0.000    0.000 
#    0.000    5.250    0.000    0.000    0.000    1.750 
#
# Total GULP energy -792958.185517 kJ/mol
# GULP energy per Si atom -12389.971649 kJ/mol
# Density = 1.755092 g / cm^3
# Si number density = 17.590953 Si / 1000 Ang^3
#
#
#
# Elastic Constant Matrix: (Units=GPa)
#
#
# Indices 1 2 3 4 5 6 
#
# 1 75.9521 45.1210 19.4597 0.0000 0.0000 0.0000
# 2 45.1210 75.9521 19.4597 0.0000 0.0000 0.0000
# 3 19.4597 19.4597 56.0257 0.0000 0.0000 0.0000
# 4 0.0000 0.0000 0.0000 17.8853 0.0000 0.0000
# 5 0.0000 0.0000 0.0000 0.0000 17.8853 0.0000
# 6 0.0000 0.0000 0.0000 0.0000 0.0000 29.9086
#
#
#
# Elastic Compliance Matrix: (Units=1/GPa)
#
#
# Indices 1 2 3 4 5 6 
#
# 1 0.020866 -0.011569 -0.003229 0.000000 0.000000 0.000000
# 2 -0.011569 0.020866 -0.003229 0.000000 0.000000 0.000000
# 3 -0.003229 -0.003229 0.020092 0.000000 0.000000 0.000000
# 4 0.000000 0.000000 0.000000 0.055912 0.000000 0.000000
# 5 0.000000 0.000000 0.000000 0.000000 0.055912 0.000000
# 6 0.000000 0.000000 0.000000 0.000000 0.000000 0.033435
#
#
# Mechanical properties :
#
#
# Convention : Reuss Voigt Hill
#
# Bulk Modulus (GPa) = 38.80493 41.77901 40.29197
# Shear Modulus (GPa) = 19.86270 21.39515 20.62893
#
# Velocity S-wave (km/s) = 3.36392 3.49127 3.42819
# Velocity P-wave (km/s) = 6.09880 6.32881 6.21487
#
# Compressibility (1/GPa) = 0.02576992
#
# Stress axis : x y z
#
# Youngs Moduli (GPa) = 47.92445 47.92445 49.77029
#
# Poissons Ratio (x) = 0.55442 0.16073
# Poissons Ratio (y) = 0.55442 0.16073
# Poissons Ratio (z) = 0.15477 0.15477
#
# Static dielectric constant tensor:
#      x y z
#    x 3.350130 0.000000 0.000000 
#    y 0.000000 3.350130 0.000000 
#    z 0.000000 0.000000 3.092530 
# 
# 
# High freq. dielectric constant tensor:
#      x y z
#    x 1.678760 0.000000 0.000000 
#    y 0.000000 1.678760 0.000000 
#    z 0.000000 0.000000 1.641850 
# 
# From -- ./inp_files/5487.got.cif
#   From: 2010.03.12/outbox.cif.g09.slc.cpg/sg107_3_cif.got.tgz:5487.got - 2010.04.14 01:49:11.
