data_PCOD8307206
_publ_section_title
;
Structure prediction by ZEFSAII (Michael W. Deem and Ramdas Pophale) SiO2 
 PCOD8307206
Probable space group: P 42 M C
;
_chemical_formula_sum "Si O2"
_cell_formula_units_Z 56
_cell_length_a 21.269445
_cell_length_b 21.269445
_cell_length_c 9.450804
_cell_angle_alpha 90.000000
_cell_angle_beta 90.000000
_cell_angle_gamma 90.000000
_cell_volume 4275.442517
_symmetry_space_group_name_H-M "P 42 M C"
_symmetry_group_IT_number 105
_symmetry_cell_setting 'tetragonal'
loop_
_space_group_symop_operation_xyz
x,y,z
-y,x,1/2+z
-x,-y,z
y,-x,1/2+z
-x,y,z
x,-y,z
-y,-x,1/2+z
y,x,1/2+z
loop_
_atom_site_type_symbol
_atom_site_label
_atom_site_fract_x
_atom_site_fract_y
_atom_site_fract_z
Si Si1 0.740042 0.072723 0.039380
Si Si2 0.072723 0.259958 0.868737
Si Si3 0.925545 0.618339 0.364609
Si Si4 0.867359 0.867359 0.454059
Si Si5 0.924973 0.500000 0.865755
Si Si6 0.500000 0.075027 0.042362
Si Si7 0.071444 0.068713 0.204059
Si Si8 0.381661 0.925545 0.543509
O O1 0.722385 0.080919 0.204059
O O2 0.758319 0.000000 0.008403
O O3 0.681989 0.094674 0.943285
O O4 0.795822 0.120244 0.999115
O O5 0.120244 0.204178 0.909003
O O6 0.000000 0.241681 0.899715
O O7 0.094674 0.318011 0.964833
O O8 0.899023 0.560495 0.457281
O O9 0.898176 0.616960 0.204059
O O10 0.000000 0.613199 0.357808
O O11 0.914048 0.886339 0.331994
O O12 0.886339 0.914048 0.576123
O O13 0.899208 0.500000 0.704059
O O14 0.000000 0.500000 0.861880
O O15 0.899023 0.560495 0.950836
O O16 0.500000 0.000000 0.046238
O O17 0.000000 0.050551 0.204058
O O18 0.107873 0.000000 0.204059
O O19 0.386800 0.000000 0.550310
#
# Coordination Sequence:
#
# PCOD8307206 Si02
#       8
#     8   8   8   8   4   4   8   8
#     4  10  20  33  44  56  74  97 124 155 196 243
#     4  10  20  33  44  56  74  97 124 155 196 243
#     4   9  17  27  42  61  79  97 119 146 176 218
#     4  12  22  33  46  58  74  96 124 162 206 251
#     4   9  15  25  41  61  83 103 117 135 169 214
#     4   9  15  25  41  61  83 103 117 135 169 214
#     4  11  22  34  46  58  70  88 120 164 212 256
#     4   9  17  27  42  61  79  97 119 146 176 218
#
# _framework density 13.098058999999999
#
# number of rings (size 3 to 8) (size 9 to 14) (size 15 to 20)
#    0.000    2.000    1.429    3.857    2.000    6.286 
#    0.000    0.000    0.000    0.000    0.000    0.000 
#    0.000    0.000    0.000    0.000    0.000    0.000 
#
# Total GULP energy -694063.042287 kJ/mol
# GULP energy per Si atom -12393.982898 kJ/mol
# Density = 1.306825 g / cm^3
# Si number density = 13.098059 Si / 1000 Ang^3
#
#
#
# Elastic Constant Matrix: (Units=GPa)
#
#
# Indices 1 2 3 4 5 6 
#
# 1 61.9224 20.8731 35.3380 0.0000 0.0000 0.0000
# 2 20.8731 61.9224 35.3380 0.0000 0.0000 0.0000
# 3 35.3380 35.3380 124.3311 0.0000 0.0000 0.0000
# 4 0.0000 0.0000 0.0000 25.7745 0.0000 0.0000
# 5 0.0000 0.0000 0.0000 0.0000 25.7745 0.0000
# 6 0.0000 0.0000 0.0000 0.0000 0.0000 2.9878
#
#
#
# Elastic Compliance Matrix: (Units=1/GPa)
#
#
# Indices 1 2 3 4 5 6 
#
# 1 0.020154 -0.004207 -0.004533 0.000000 0.000000 0.000000
# 2 -0.004207 0.020154 -0.004533 0.000000 0.000000 0.000000
# 3 -0.004533 -0.004533 0.010620 0.000000 0.000000 0.000000
# 4 0.000000 0.000000 0.000000 0.038798 0.000000 0.000000
# 5 0.000000 0.000000 0.000000 0.000000 0.038798 0.000000
# 6 0.000000 0.000000 0.000000 0.000000 0.000000 0.334697
#
#
# Mechanical properties :
#
#
# Convention : Reuss Voigt Hill
#
# Bulk Modulus (GPa) = 41.01144 47.91935 44.46539
# Shear Modulus (GPa) = 10.04233 21.34912 15.69572
#
# Velocity S-wave (km/s) = 2.77195 4.04164 3.46544
# Velocity P-wave (km/s) = 6.45166 7.64489 7.07348
#
# Compressibility (1/GPa) = 0.02438344
#
# Stress axis : x y z
#
# Youngs Moduli (GPa) = 49.61792 49.61792 94.16583
#
# Poissons Ratio (x) = 0.20874 0.42681
# Poissons Ratio (y) = 0.20874 0.42681
# Poissons Ratio (z) = 0.22490 0.22490
#
# Static dielectric constant tensor:
#      x y z
#    x 2.355140 0.000000 0.000000 
#    y 0.000000 2.355140 0.000000 
#    z 0.000000 0.000000 2.949850 
# 
# 
# High freq. dielectric constant tensor:
#      x y z
#    x 1.458860 0.000000 0.000000 
#    y 0.000000 1.458860 0.000000 
#    z 0.000000 0.000000 1.525940 
# 
# From -- ./inp_files/1190.got.cif
#   From: 2010.03.12/outbox.cif.g09.slc.cpg/sg105_1_cif.got.tgz:1190.got - 2010.04.14 01:45:32.
