data_PCOD8307131
_publ_section_title
;
Structure prediction by ZEFSAII (Michael W. Deem and Ramdas Pophale) SiO2 
 PCOD8307131
Probable space group: P 42 M C
;
_chemical_formula_sum "Si O2"
_cell_formula_units_Z 64
_cell_length_a 13.838739
_cell_length_b 13.838739
_cell_length_c 20.549176
_cell_angle_alpha 90.000000
_cell_angle_beta 90.000000
_cell_angle_gamma 90.000000
_cell_volume 3935.387021
_symmetry_space_group_name_H-M "P 42 M C"
_symmetry_group_IT_number 105
_symmetry_cell_setting 'tetragonal'
loop_
_space_group_symop_operation_xyz
x,y,z
-y,x,1/2+z
-x,-y,z
y,-x,1/2+z
-x,y,z
x,-y,z
-y,-x,1/2+z
y,x,1/2+z
loop_
_atom_site_type_symbol
_atom_site_label
_atom_site_fract_x
_atom_site_fract_y
_atom_site_fract_z
Si Si1 0.885405 0.108002 0.539760
Si Si2 0.389237 0.389237 0.789760
Si Si3 0.385405 0.608002 0.039760
Si Si4 0.769440 0.113322 0.916688
Si Si5 0.613322 0.730560 0.916688
Si Si6 0.230560 0.113322 0.162832
Si Si7 0.730560 0.613322 0.662832
Si Si8 0.110763 0.110763 0.289760
O O1 0.849727 0.164085 0.475812
O O2 0.849727 0.164085 0.603708
O O3 0.000000 0.100699 0.539760
O O4 0.840807 0.000000 0.539760
O O5 0.500000 0.372418 0.769240
O O6 0.372418 0.500000 0.810280
O O7 0.359811 0.323720 0.850399
O O8 0.323720 0.359811 0.729121
O O9 0.500000 0.600699 0.039760
O O10 0.340807 0.500000 0.039760
O O11 0.349727 0.664085 0.103708
O O12 0.349727 0.664085 0.975812
O O13 0.667265 0.167265 0.918931
O O14 0.823720 0.140189 0.850399
O O15 0.747515 0.000000 0.922298
O O16 0.500000 0.752485 0.922298
O O17 0.332735 0.167265 0.160589
O O18 0.176280 0.140189 0.229121
O O19 0.252485 0.000000 0.157222
O O20 0.752485 0.500000 0.657222
O O21 0.000000 0.127582 0.269240
O O22 0.127582 0.000000 0.310280
#
# Coordination Sequence:
#
# PCOD8307131 Si02
#       8
#     8   8   8   8   8   8   8   8
#     4   9  17  30  47  65  85 111 145 185 225 260
#     4   9  17  30  48  68  89 115 150 194 236 263
#     4   9  17  30  47  65  85 111 145 185 225 260
#     4  10  19  30  45  66  93 122 150 181 219 268
#     4  10  19  30  45  66  93 122 150 181 219 268
#     4  10  19  30  45  66  93 122 150 181 219 268
#     4  10  19  30  45  66  93 122 150 181 219 268
#     4   9  17  30  48  68  89 115 150 194 236 263
#
# _framework density 16.262695000000001
#
# number of rings (size 3 to 8) (size 9 to 14) (size 15 to 20)
#    0.000    2.500    0.000    3.000    0.000    6.500 
#    0.000    0.000    0.000    4.500    0.000    0.000 
#    0.000   38.000    0.000    0.000    0.000    0.000 
#
# Total GULP energy -793665.301184 kJ/mol
# GULP energy per Si atom -12401.020331 kJ/mol
# Density = 1.622568 g / cm^3
# Si number density = 16.262695 Si / 1000 Ang^3
#
#
#
# Elastic Constant Matrix: (Units=GPa)
#
#
# Indices 1 2 3 4 5 6 
#
# 1 79.5824 53.9296 57.2231 0.0000 0.0000 0.0000
# 2 53.9296 79.5824 57.2231 0.0000 0.0000 0.0000
# 3 57.2231 57.2231 136.4948 0.0000 0.0000 0.0000
# 4 0.0000 0.0000 0.0000 17.1710 0.0000 0.0000
# 5 0.0000 0.0000 0.0000 0.0000 17.1710 0.0000
# 6 0.0000 0.0000 0.0000 0.0000 0.0000 26.4288
#
#
#
# Elastic Compliance Matrix: (Units=1/GPa)
#
#
# Indices 1 2 3 4 5 6 
#
# 1 0.025337 -0.013645 -0.004901 0.000000 0.000000 0.000000
# 2 -0.013645 0.025337 -0.004901 0.000000 0.000000 0.000000
# 3 -0.004901 -0.004901 0.011436 0.000000 0.000000 0.000000
# 4 0.000000 0.000000 0.000000 0.058238 0.000000 0.000000
# 5 0.000000 0.000000 0.000000 0.000000 0.058238 0.000000
# 6 0.000000 0.000000 0.000000 0.000000 0.000000 0.037837
#
#
# Mechanical properties :
#
#
# Convention : Reuss Voigt Hill
#
# Bulk Modulus (GPa) = 65.73264 70.26789 68.00026
# Shear Modulus (GPa) = 18.62958 20.63973 19.63465
#
# Velocity S-wave (km/s) = 3.38826 3.56637 3.47845
# Velocity P-wave (km/s) = 7.47088 7.76276 7.61822
#
# Compressibility (1/GPa) = 0.01521314
#
# Stress axis : x y z
#
# Youngs Moduli (GPa) = 39.46830 39.46830 87.44322
#
# Poissons Ratio (x) = 0.53856 0.42860
# Poissons Ratio (y) = 0.53856 0.42860
# Poissons Ratio (z) = 0.19345 0.19345
#
# Static dielectric constant tensor:
#      x y z
#    x 2.903630 0.000000 0.000000 
#    y 0.000000 2.903630 0.000000 
#    z 0.000000 0.000000 3.264090 
# 
# 
# High freq. dielectric constant tensor:
#      x y z
#    x 1.607410 0.000000 0.000000 
#    y 0.000000 1.607410 0.000000 
#    z 0.000000 0.000000 1.645730 
# 
# From -- ./inp_files/4172.got.cif
#   From: 2010.03.12/outbox.cif.g09.slc.cpg/sg105_3_cif.got.tgz:4172.got - 2010.04.14 01:45:32.
