data_PCOD8307842
_publ_section_title
;
Structure prediction by ZEFSAII (Michael W. Deem and Ramdas Pophale) SiO2 
 PCOD8307842
Probable space group: I 41 M D
;
_chemical_formula_sum "Si O2"
_cell_formula_units_Z 84
_cell_length_a 24.141386
_cell_length_b 24.141386
_cell_length_c 7.390886
_cell_angle_alpha 90.000000
_cell_angle_beta 90.000000
_cell_angle_gamma 90.000000
_cell_volume 4307.456535
_symmetry_space_group_name_H-M "I 41 M D"
_symmetry_group_IT_number 109
_symmetry_cell_setting 'tetragonal'
loop_
_space_group_symop_operation_xyz
x,y,z
-y,1/2+x,1/4+z
-x,-y,z
y,1/2-x,1/4+z
-x,y,z
x,-y,z
-y,1/2-x,1/4+z
y,1/2+x,1/4+z
1/2+x,1/2+y,1/2+z
1/2-y,x,3/4+z
1/2-x,1/2-y,1/2+z
1/2+y,-x,3/4+z
1/2-x,1/2+y,1/2+z
1/2+x,1/2-y,1/2+z
1/2-y,-x,3/4+z
1/2+y,x,3/4+z
loop_
_atom_site_type_symbol
_atom_site_label
_atom_site_fract_x
_atom_site_fract_y
_atom_site_fract_z
Si Si1 0.379703 0.379498 0.981240
Si Si2 0.500000 0.880479 0.060737
Si Si3 0.000000 0.696886 0.215144
Si Si4 0.682435 0.120338 0.855225
Si Si5 0.819509 0.500000 0.404387
Si Si6 0.500000 0.000000 0.105187
Si Si7 0.000000 0.113517 0.498423
Si Si8 0.618291 0.808814 0.569858
O O1 0.372304 0.444042 0.927178
O O2 0.372975 0.338617 0.811054
O O3 0.440327 0.366612 0.076888
O O4 0.332774 0.363511 0.125639
O O5 0.500000 0.943969 0.983577
O O6 0.500000 0.837904 0.897541
O O7 0.000000 0.761914 0.269708
O O8 0.947404 0.683660 0.090859
O O9 0.645608 0.158056 0.731279
O O10 0.745986 0.139010 0.838060
O O11 0.677334 0.056242 0.786609
O O12 0.871551 0.500000 0.536078
O O13 0.548002 0.000000 0.253138
#
# Coordination Sequence:
#
# PCOD8307842 Si02
#       8
#    16   8   8  16   8   4   8  16
#     4  10  20  37  62  86 119 153 194 241 304 356
#     4  10  17  35  61  87 117 157 182 246 308 357
#     4  10  19  37  61  84 118 148 203 247 289 348
#     4  10  22  41  59  85 120 153 195 248 300 343
#     4   8  18  36  60  81 114 149 189 247 291 345
#     4   8  16  26  54  86 118 144 184 218 310 368
#     4   8  16  33  53  86 114 148 181 237 293 355
#     4  11  23  40  60  90 115 158 204 246 291 365
#
# _framework density 19.501068
#
# number of rings (size 3 to 8) (size 9 to 14) (size 15 to 20)
#    0.000    2.286    1.905    0.571    0.000    2.286 
#    6.857    0.952    0.000    0.000    0.000    0.000 
#    0.000    0.000    0.000    0.000    0.000    0.000 
#
# Total GULP energy -520348.643147 kJ/mol
# GULP energy per Si atom -12389.253408 kJ/mol
# Density = 1.945668 g / cm^3
# Si number density = 19.501068 Si / 1000 Ang^3
#
#
#
# Elastic Constant Matrix: (Units=GPa)
#
#
# Indices 1 2 3 4 5 6 
#
# 1 108.5934 37.1634 40.2370 0.0000 0.0000 0.0000
# 2 37.1634 108.5934 40.2370 0.0000 0.0000 0.0000
# 3 40.2370 40.2370 80.2710 0.0000 0.0000 0.0000
# 4 0.0000 0.0000 0.0000 17.6115 0.0000 0.0000
# 5 0.0000 0.0000 0.0000 0.0000 17.6115 0.0000
# 6 0.0000 0.0000 0.0000 0.0000 0.0000 16.5095
#
#
#
# Elastic Compliance Matrix: (Units=1/GPa)
#
#
# Indices 1 2 3 4 5 6 
#
# 1 0.011743 -0.002257 -0.004755 0.000000 0.000000 0.000000
# 2 -0.002257 0.011743 -0.004755 0.000000 0.000000 0.000000
# 3 -0.004755 -0.004755 0.017225 0.000000 0.000000 0.000000
# 4 0.000000 0.000000 0.000000 0.056781 0.000000 0.000000
# 5 0.000000 0.000000 0.000000 0.000000 0.056781 0.000000
# 6 0.000000 0.000000 0.000000 0.000000 0.000000 0.060571
#
#
# Mechanical properties :
#
#
# Convention : Reuss Voigt Hill
#
# Bulk Modulus (GPa) = 58.21788 59.19253 58.70521
# Shear Modulus (GPa) = 20.48312 22.33451 21.40881
#
# Velocity S-wave (km/s) = 3.24444 3.38789 3.31694
# Velocity P-wave (km/s) = 6.62976 6.76189 6.69615
#
# Compressibility (1/GPa) = 0.01717685
#
# Stress axis : x y z
#
# Youngs Moduli (GPa) = 85.15789 85.15789 58.05568
#
# Poissons Ratio (x) = 0.19219 0.27606
# Poissons Ratio (y) = 0.19219 0.27606
# Poissons Ratio (z) = 0.40493 0.40493
#
# Static dielectric constant tensor:
#      x y z
#    x 3.822020 0.000000 0.000000 
#    y 0.000000 3.822020 0.000000 
#    z 0.000000 0.000000 3.060320 
# 
# 
# High freq. dielectric constant tensor:
#      x y z
#    x 1.771610 0.000000 0.000000 
#    y 0.000000 1.771610 0.000000 
#    z 0.000000 0.000000 1.715830 
# 
# From -- ./inp_files/1398.got.cif
#   From: 2010.03.12/outbox.cif.g09.slc.cpg/sg109_1_cif.got.tgz:1398.got - 2010.04.14 01:55:16.
