data_PCOD8307018
_publ_section_title
;
Structure prediction by ZEFSAII (Michael W. Deem and Ramdas Pophale) SiO2 
 PCOD8307018
Probable space group: P 4 C C
;
_chemical_formula_sum "Si O2"
_cell_formula_units_Z 48
_cell_length_a 8.102242
_cell_length_b 8.102242
_cell_length_c 30.037170
_cell_angle_alpha 90.000000
_cell_angle_beta 90.000000
_cell_angle_gamma 90.000000
_cell_volume 1971.829837
_symmetry_space_group_name_H-M "P 4 C C"
_symmetry_group_IT_number 103
_symmetry_cell_setting 'tetragonal'
loop_
_space_group_symop_operation_xyz
x,y,z
-y,x,z
-x,-y,z
y,-x,z
-x,y,1/2+z
x,-y,1/2+z
-y,-x,1/2+z
y,x,1/2+z
loop_
_atom_site_type_symbol
_atom_site_label
_atom_site_fract_x
_atom_site_fract_y
_atom_site_fract_z
Si Si1 0.264745 0.071656 0.561190
Si Si2 0.909616 0.745559 0.223481
Si Si3 0.415210 0.240895 0.642893
Si Si4 0.767377 0.462541 0.489494
Si Si5 0.261094 0.927090 0.324521
Si Si6 0.481525 0.232077 0.889512
O O1 0.365058 0.104879 0.606444
O O2 0.398522 0.085386 0.520987
O O3 0.113829 0.199836 0.558608
O O4 0.846080 0.601667 0.191050
O O5 0.896587 0.680242 0.273925
O O6 0.097416 0.794137 0.213967
O O7 0.603044 0.294908 0.637088
O O8 0.681341 0.634956 0.499693
O O9 0.834738 0.488493 0.439434
O O10 0.422517 0.912533 0.356281
O O11 0.111812 0.800749 0.333955
O O12 0.647169 0.328219 0.879743
#
# Coordination Sequence:
#
# PCOD8307018 Si02
#       6
#     8   8   8   8   8   8
#     4  11  24  41  63  92 123 157 202 254 307 367
#     4   9  19  37  60  88 125 167 210 256 303 355
#     4  11  24  39  58  90 129 166 206 252 301 359
#     4   9  19  39  61  84 115 152 197 248 302 361
#     4   9  19  37  61  90 125 164 207 255 306 362
#     4   9  19  37  57  82 115 152 198 251 305 362
#
# _framework density 24.342869
#
# number of rings (size 3 to 8) (size 9 to 14) (size 15 to 20)
#    0.000    2.333    0.000    4.000    0.000    9.333 
#    0.000   21.667    0.000    8.000    0.000    0.000 
#    0.000    0.000    0.000    0.000    0.000    0.000 
#
# Total GULP energy -594688.430189 kJ/mol
# GULP energy per Si atom -12389.342296 kJ/mol
# Density = 2.428746 g / cm^3
# Si number density = 24.342869 Si / 1000 Ang^3
#
#
#
# Elastic Constant Matrix: (Units=GPa)
#
#
# Indices 1 2 3 4 5 6 
#
# 1 61.6099 48.3517 51.7037 0.0000 0.0000 0.0000
# 2 48.3517 61.6099 51.7037 0.0000 0.0000 0.0000
# 3 51.7037 51.7037 176.7263 0.0000 0.0000 0.0000
# 4 0.0000 0.0000 0.0000 66.5945 0.0000 0.0000
# 5 0.0000 0.0000 0.0000 0.0000 66.5945 0.0000
# 6 0.0000 0.0000 0.0000 0.0000 0.0000 55.2403
#
#
#
# Elastic Compliance Matrix: (Units=1/GPa)
#
#
# Indices 1 2 3 4 5 6 
#
# 1 0.043985 -0.031440 -0.003670 0.000000 0.000000 0.000000
# 2 -0.031440 0.043985 -0.003670 0.000000 0.000000 0.000000
# 3 -0.003670 -0.003670 0.007806 0.000000 0.000000 0.000000
# 4 0.000000 0.000000 0.000000 0.015016 0.000000 0.000000
# 5 0.000000 0.000000 0.000000 0.000000 0.015016 0.000000
# 6 0.000000 0.000000 0.000000 0.000000 0.000000 0.018103
#
#
# Mechanical properties :
#
#
# Convention : Reuss Voigt Hill
#
# Bulk Modulus (GPa) = 54.89710 67.05159 60.97435
# Shear Modulus (GPa) = 21.97364 47.56502 34.76933
#
# Velocity S-wave (km/s) = 3.00771 4.42516 3.78341
# Velocity P-wave (km/s) = 5.88747 7.32897 6.64741
#
# Compressibility (1/GPa) = 0.01821590
#
# Stress axis : x y z
#
# Youngs Moduli (GPa) = 22.73479 22.73479 128.10443
#
# Poissons Ratio (x) = 0.71478 0.47020
# Poissons Ratio (y) = 0.71478 0.47020
# Poissons Ratio (z) = 0.08345 0.08345
#
# Static dielectric constant tensor:
#      x y z
#    x 4.342760 0.000000 0.000000 
#    y 0.000000 4.342760 0.000000 
#    z 0.000000 0.000000 4.251030 
# 
# 
# High freq. dielectric constant tensor:
#      x y z
#    x 1.982720 0.000000 0.000000 
#    y 0.000000 1.982720 0.000000 
#    z 0.000000 0.000000 1.959010 
# 
# From -- ./inp_files/1557.got.cif
#   From: 2010.03.12/outbox.cif.g09.slc.cpg/sg103_cif.got.tgz:1557.got - 2010.04.14 01:42:52.
