data_PCOD8307419
_publ_section_title
;
Structure prediction by ZEFSAII (Michael W. Deem and Ramdas Pophale) SiO2 
 PCOD8307419
Probable space group: P 42 B C
;
_chemical_formula_sum "Si O2"
_cell_formula_units_Z 36
_cell_length_a 8.556428
_cell_length_b 8.556428
_cell_length_c 19.605865
_cell_angle_alpha 90.000000
_cell_angle_beta 90.000000
_cell_angle_gamma 90.000000
_cell_volume 1435.393609
_symmetry_space_group_name_H-M "P 42 B C"
_symmetry_group_IT_number 106
_symmetry_cell_setting 'tetragonal'
loop_
_space_group_symop_operation_xyz
x,y,z
-y,x,1/2+z
-x,-y,z
y,-x,1/2+z
1/2-x,1/2+y,z
1/2+x,1/2-y,z
1/2-y,1/2-x,1/2+z
1/2+y,1/2+x,1/2+z
loop_
_atom_site_type_symbol
_atom_site_label
_atom_site_fract_x
_atom_site_fract_y
_atom_site_fract_z
Si Si1 0.000000 0.500000 0.436211
Si Si2 0.292810 0.039009 0.557925
Si Si3 0.207190 0.460991 0.814496
Si Si4 0.250931 0.047632 0.262065
Si Si5 0.250931 0.952368 0.110356
O O1 0.158786 0.484251 0.481633
O O2 0.984251 0.341214 0.390788
O O3 0.116815 0.098104 0.571005
O O4 0.394950 0.196103 0.569786
O O5 0.332727 0.899872 0.611262
O O6 0.167273 0.600128 0.761159
O O7 0.383185 0.401897 0.801416
O O8 0.105050 0.303897 0.802635
O O9 0.203078 0.000000 0.186211
#
# Coordination Sequence:
#
# PCOD8307419 Si02
#       5
#     4   8   8   8   8
#     4   8  20  40  62  92 124 164 216 262 328 376
#     4  10  21  37  61  87 126 165 205 265 311 384
#     4  10  21  37  61  87 126 165 205 265 311 384
#     4  10  21  38  58  89 124 164 206 254 320 375
#     4  10  21  38  58  89 124 164 206 254 320 375
#
# _framework density 25.080228000000002
#
# number of rings (size 3 to 8) (size 9 to 14) (size 15 to 20)
#    0.000    2.667    0.000    4.000    0.000    8.889 
#    0.000    4.444    0.000   21.333    0.000    0.000 
#    0.000    0.000    0.000    0.000    0.000    0.000 
#
# Total GULP energy -445994.857961 kJ/mol
# GULP energy per Si atom -12388.746054 kJ/mol
# Density = 2.502314 g / cm^3
# Si number density = 25.080228 Si / 1000 Ang^3
#
#
#
# Elastic Constant Matrix: (Units=GPa)
#
#
# Indices 1 2 3 4 5 6 
#
# 1 52.5573 59.0661 39.6999 0.0000 0.0000 0.0000
# 2 59.0661 52.5573 39.6999 0.0000 0.0000 0.0000
# 3 39.6999 39.6999 141.9222 0.0000 0.0000 0.0000
# 4 0.0000 0.0000 0.0000 20.9237 0.0000 0.0000
# 5 0.0000 0.0000 0.0000 0.0000 20.9237 0.0000
# 6 0.0000 0.0000 0.0000 0.0000 0.0000 65.6026
#
#
#
# Elastic Compliance Matrix: (Units=1/GPa)
#
#
# Indices 1 2 3 4 5 6 
#
# 1 -0.071227 0.082411 -0.003129 0.000000 0.000000 0.000000
# 2 0.082411 -0.071227 -0.003129 0.000000 0.000000 0.000000
# 3 -0.003129 -0.003129 0.008796 0.000000 0.000000 0.000000
# 4 0.000000 0.000000 0.000000 0.047793 0.000000 0.000000
# 5 0.000000 0.000000 0.000000 0.000000 0.047793 0.000000
# 6 0.000000 0.000000 0.000000 0.000000 0.000000 0.015243
#
#
# Mechanical properties :
#
#
# Convention : Reuss Voigt Hill
#
# Bulk Modulus (GPa) = 53.61803 58.21876 55.91840
# Shear Modulus (GPa) = -29.59970 28.72807 -0.43582
#
# Velocity S-wave (km/s) = -3.43913 3.38812 -0.41731
# Velocity P-wave (km/s) = 2.37799 6.21041 4.70234
#
# Compressibility (1/GPa) = 0.01865044
#
# Stress axis : x y z
#
# Youngs Moduli (GPa) = -14.03960 -14.03960 113.68298
#
# Poissons Ratio (x) = 1.15702 0.35566
# Poissons Ratio (y) = 1.15702 0.35566
# Poissons Ratio (z) = -0.04392 -0.04392
#
# Static dielectric constant tensor:
#      x y z
#    x 4.798460 0.000000 0.000000 
#    y 0.000000 4.798460 0.000000 
#    z 0.000000 0.000000 4.422250 
# 
# 
# High freq. dielectric constant tensor:
#      x y z
#    x 1.999520 0.000000 0.000000 
#    y 0.000000 1.999520 0.000000 
#    z 0.000000 0.000000 1.970420 
# 
# From -- ./inp_files/1552.got.cif
#   From: 2010.03.12/outbox.cif.g09.slc.cpg/sg106_cif.got.tgz:1552.got - 2010.04.14 01:48:02.
