data_PCOD8307897
_publ_section_title
;
Structure prediction by ZEFSAII (Michael W. Deem and Ramdas Pophale) SiO2 
 PCOD8307897
Probable space group: I 41 M D
;
_chemical_formula_sum "Si O2"
_cell_formula_units_Z 64
_cell_length_a 15.079529
_cell_length_b 15.079529
_cell_length_c 16.302128
_cell_angle_alpha 90.000000
_cell_angle_beta 90.000000
_cell_angle_gamma 90.000000
_cell_volume 3706.976667
_symmetry_space_group_name_H-M "I 41 M D"
_symmetry_group_IT_number 109
_symmetry_cell_setting 'tetragonal'
loop_
_space_group_symop_operation_xyz
x,y,z
-y,1/2+x,1/4+z
-x,-y,z
y,1/2-x,1/4+z
-x,y,z
x,-y,z
-y,1/2-x,1/4+z
y,1/2+x,1/4+z
1/2+x,1/2+y,1/2+z
1/2-y,x,3/4+z
1/2-x,1/2-y,1/2+z
1/2+y,-x,3/4+z
1/2-x,1/2+y,1/2+z
1/2+x,1/2-y,1/2+z
1/2-y,-x,3/4+z
1/2+y,x,3/4+z
loop_
_atom_site_type_symbol
_atom_site_label
_atom_site_fract_x
_atom_site_fract_y
_atom_site_fract_z
Si Si1 0.500000 0.105517 0.981971
Si Si2 0.500000 0.898603 0.165926
Si Si3 0.310669 0.103403 0.211562
Si Si4 0.762156 0.322499 0.540191
Si Si5 0.899646 0.822267 0.139118
O O1 0.413155 0.138978 0.931845
O O2 0.500000 0.000000 0.979357
O O3 0.500000 0.146521 0.074357
O O4 0.584504 0.878355 0.223800
O O5 0.500000 0.000000 0.140048
O O6 0.300671 0.121731 0.114924
O O7 0.261539 0.175239 0.269129
O O8 0.283453 0.000000 0.231461
O O9 0.751180 0.388142 0.462090
O O10 0.661598 0.293014 0.562927
O O11 0.000000 0.830393 0.108162
#
# Coordination Sequence:
#
# PCOD8307897 Si02
#       5
#     8   8  16  16  16
#     4   9  16  28  50  78 101 130 165 202 255 312
#     4   9  16  30  50  76 107 140 163 202 259 310
#     4  10  20  32  51  78 108 135 169 210 258 313
#     4  10  21  29  50  79 104 134 165 206 263 302
#     4  10  20  33  50  74 106 134 168 208 252 305
#
# _framework density 17.264742999999999
#
# number of rings (size 3 to 8) (size 9 to 14) (size 15 to 20)
#    0.000    2.250    2.500    0.750   10.500    0.000 
#    0.000    0.000   11.000    0.000    0.000    0.000 
#    0.000    0.000    0.000    0.000    0.000    0.000 
#
# Total GULP energy -396428.172092 kJ/mol
# GULP energy per Si atom -12388.380378 kJ/mol
# Density = 1.722545 g / cm^3
# Si number density = 17.264743 Si / 1000 Ang^3
#
#
#
# Elastic Constant Matrix: (Units=GPa)
#
#
# Indices 1 2 3 4 5 6 
#
# 1 103.9677 51.0829 42.5299 0.0000 0.0000 0.0000
# 2 51.0829 103.9677 42.5299 0.0000 0.0000 0.0000
# 3 42.5299 42.5299 60.7074 0.0000 0.0000 0.0000
# 4 0.0000 0.0000 0.0000 25.7567 0.0000 0.0000
# 5 0.0000 0.0000 0.0000 0.0000 25.7567 0.0000
# 6 0.0000 0.0000 0.0000 0.0000 0.0000 24.7755
#
#
#
# Elastic Compliance Matrix: (Units=1/GPa)
#
#
# Indices 1 2 3 4 5 6 
#
# 1 0.014692 -0.004217 -0.007339 0.000000 0.000000 0.000000
# 2 -0.004217 0.014692 -0.007339 0.000000 0.000000 0.000000
# 3 -0.007339 -0.007339 0.026755 0.000000 0.000000 0.000000
# 4 0.000000 0.000000 0.000000 0.038825 0.000000 0.000000
# 5 0.000000 0.000000 0.000000 0.000000 0.038825 0.000000
# 6 0.000000 0.000000 0.000000 0.000000 0.000000 0.040362
#
#
# Mechanical properties :
#
#
# Convention : Reuss Voigt Hill
#
# Bulk Modulus (GPa) = 54.49333 60.10315 57.29824
# Shear Modulus (GPa) = 22.92968 24.09113 23.51040
#
# Velocity S-wave (km/s) = 3.64829 3.73955 3.69420
# Velocity P-wave (km/s) = 7.02699 7.31669 7.17330
#
# Compressibility (1/GPa) = 0.01835087
#
# Stress axis : x y z
#
# Youngs Moduli (GPa) = 68.06283 68.06283 37.37574
#
# Poissons Ratio (x) = 0.28700 0.27430
# Poissons Ratio (y) = 0.28700 0.27430
# Poissons Ratio (z) = 0.49951 0.49951
#
# Static dielectric constant tensor:
#      x y z
#    x 3.461490 0.000000 0.000000 
#    y 0.000000 3.461490 0.000000 
#    z 0.000000 0.000000 2.992400 
# 
# 
# High freq. dielectric constant tensor:
#      x y z
#    x 1.665000 0.000000 0.000000 
#    y 0.000000 1.665000 0.000000 
#    z 0.000000 0.000000 1.631530 
# 
# From -- ./inp_files/3019.got.cif
#   From: 2010.03.12/outbox.cif.g09.slc.cpg/sg109_2_cif.got.tgz:3019.got - 2010.04.14 01:55:16.
