data_PCOD8307648
_publ_section_title
;
Structure prediction by ZEFSAII (Michael W. Deem and Ramdas Pophale) SiO2 
 PCOD8307648
Probable space group: I 4 M M
;
_chemical_formula_sum "Si O2"
_cell_formula_units_Z 96
_cell_length_a 22.925518
_cell_length_b 22.925518
_cell_length_c 9.882271
_cell_angle_alpha 90.000000
_cell_angle_beta 90.000000
_cell_angle_gamma 90.000000
_cell_volume 5193.917821
_symmetry_space_group_name_H-M "I 4 M M"
_symmetry_group_IT_number 107
_symmetry_cell_setting 'tetragonal'
loop_
_space_group_symop_operation_xyz
x,y,z
-y,x,z
-x,-y,z
y,-x,z
-x,y,z
x,-y,z
-y,-x,z
y,x,z
1/2+x,1/2+y,1/2+z
1/2-y,1/2+x,1/2+z
1/2-x,1/2-y,1/2+z
1/2+y,1/2-x,1/2+z
1/2-x,1/2+y,1/2+z
1/2+x,1/2-y,1/2+z
1/2-y,1/2-x,1/2+z
1/2+y,1/2+x,1/2+z
loop_
_atom_site_type_symbol
_atom_site_label
_atom_site_fract_x
_atom_site_fract_y
_atom_site_fract_z
Si Si1 0.658335 0.568035 0.113960
Si Si2 0.135930 0.633237 0.014777
Si Si3 0.861268 0.763785 0.418171
Si Si4 0.569169 0.760430 0.648626
Si Si5 0.067128 0.774899 0.865337
Si Si6 0.848664 0.567675 0.274440
O O1 0.651878 0.500000 0.088928
O O2 0.597118 0.597118 0.073392
O O3 0.671642 0.586526 0.270151
O O4 0.710102 0.592522 0.022694
O O5 0.097131 0.679958 0.095605
O O6 0.140230 0.578764 0.116708
O O7 0.199937 0.657056 0.971666
O O8 0.102863 0.609630 0.879761
O O9 0.802960 0.802960 0.406000
O O10 0.894850 0.762416 0.275661
O O11 0.500000 0.768568 0.681512
O O12 0.577674 0.713501 0.525184
O O13 0.095792 0.714268 0.815515
O O14 0.000000 0.763866 0.833908
O O15 0.856163 0.500000 0.304937
#
# Coordination Sequence:
#
# PCOD8307648 Si02
#       6
#    16  16  16  16  16  16
#     4  10  20  35  56  83 114 150 193 239 291 352
#     4  11  20  38  56  85 112 151 192 238 289 342
#     4  11  23  36  56  88 120 152 190 238 298 354
#     4  10  21  38  60  83 112 154 198 234 283 351
#     4   8  16  32  54  78 104 139 186 231 271 333
#     4  10  20  36  59  82 108 147 195 237 284 343
#
# _framework density 18.483156999999999
#
# number of rings (size 3 to 8) (size 9 to 14) (size 15 to 20)
#    0.000    2.000    3.333    2.000    0.000    2.167 
#    0.000    2.500    0.000    4.000    0.000    0.000 
#    0.000    4.000    0.000    0.000    0.000    0.000 
#
# Total GULP energy -594671.196614 kJ/mol
# GULP energy per Si atom -12388.983263 kJ/mol
# Density = 1.844109 g / cm^3
# Si number density = 18.483157 Si / 1000 Ang^3
#
#
#
# Elastic Constant Matrix: (Units=GPa)
#
#
# Indices 1 2 3 4 5 6 
#
# 1 90.3110 38.7765 42.9661 0.0000 0.0000 0.0000
# 2 38.7765 90.3110 42.9661 0.0000 0.0000 0.0000
# 3 42.9661 42.9661 125.3899 0.0000 0.0000 0.0000
# 4 0.0000 0.0000 0.0000 27.4480 0.0000 0.0000
# 5 0.0000 0.0000 0.0000 0.0000 27.4480 0.0000
# 6 0.0000 0.0000 0.0000 0.0000 0.0000 10.7691
#
#
#
# Elastic Compliance Matrix: (Units=1/GPa)
#
#
# Indices 1 2 3 4 5 6 
#
# 1 0.014720 -0.004684 -0.003439 0.000000 0.000000 0.000000
# 2 -0.004684 0.014720 -0.003439 0.000000 0.000000 0.000000
# 3 -0.003439 -0.003439 0.010332 0.000000 0.000000 0.000000
# 4 0.000000 0.000000 0.000000 0.036433 0.000000 0.000000
# 5 0.000000 0.000000 0.000000 0.000000 0.036433 0.000000
# 6 0.000000 0.000000 0.000000 0.000000 0.000000 0.092858
#
#
# Mechanical properties :
#
#
# Convention : Reuss Voigt Hill
#
# Bulk Modulus (GPa) = 60.06696 61.71439 60.89067
# Shear Modulus (GPa) = 21.35208 25.21990 23.28599
#
# Velocity S-wave (km/s) = 3.40254 3.69789 3.55329
# Velocity P-wave (km/s) = 6.92857 7.18989 7.06044
#
# Compressibility (1/GPa) = 0.01664809
#
# Stress axis : x y z
#
# Youngs Moduli (GPa) = 67.93387 67.93387 96.78776
#
# Poissons Ratio (x) = 0.31822 0.33284
# Poissons Ratio (y) = 0.31822 0.33284
# Poissons Ratio (z) = 0.23362 0.23362
#
# Static dielectric constant tensor:
#      x y z
#    x 3.287530 0.000000 0.000000 
#    y 0.000000 3.287530 0.000000 
#    z 0.000000 0.000000 3.887280 
# 
# 
# High freq. dielectric constant tensor:
#      x y z
#    x 1.697330 0.000000 0.000000 
#    y 0.000000 1.697330 0.000000 
#    z 0.000000 0.000000 1.739940 
# 
# From -- ./inp_files/1493.got.cif
#   From: 2010.03.12/outbox.cif.g09.slc.cpg/sg107_1_cif.got.tgz:1493.got - 2010.04.14 01:49:11.
