data_PCOD8307077
_publ_section_title
;
Structure prediction by ZEFSAII (Michael W. Deem and Ramdas Pophale) SiO2 
 PCOD8307077
Probable space group: P 4 N C 
;
_chemical_formula_sum "Si O2"
_cell_formula_units_Z 56
_cell_length_a 12.146608
_cell_length_b 12.146608
_cell_length_c 19.675074
_cell_angle_alpha 90.000000
_cell_angle_beta 90.000000
_cell_angle_gamma 90.000000
_cell_volume 2902.862108
_symmetry_space_group_name_H-M "P 4 N C "
_symmetry_group_IT_number 104
_symmetry_cell_setting 'tetragonal'
loop_
_space_group_symop_operation_xyz
x,y,z
-y,x,z
-x,-y,z
y,-x,z
1/2-x,1/2+y,1/2+z
1/2+x,1/2-y,1/2+z
1/2-y,1/2-x,1/2+z
1/2+y,1/2+x,1/2+z
loop_
_atom_site_type_symbol
_atom_site_label
_atom_site_fract_x
_atom_site_fract_y
_atom_site_fract_z
Si Si1 0.630540 0.007069 0.368970
Si Si2 0.840778 0.920544 0.942243
Si Si3 0.374431 0.812032 0.626712
Si Si4 0.876523 0.282728 0.812984
Si Si5 0.622417 0.196131 0.270088
Si Si6 0.270491 0.118165 0.082508
Si Si7 0.499365 0.869793 0.021929
O O1 0.665521 0.118509 0.331146
O O2 0.681802 0.006433 0.445529
O O3 0.500000 0.000000 0.375100
O O4 0.668731 0.907577 0.318868
O O5 0.749155 0.876146 0.892125
O O6 0.951076 0.854256 0.927436
O O7 0.805834 0.901754 0.018352
O O8 0.364597 0.874532 0.697955
O O9 0.294229 0.706178 0.628575
O O10 0.502757 0.780299 0.621697
O O11 0.334822 0.892313 0.565427
O O12 0.800280 0.203611 0.768320
O O13 0.996477 0.269031 0.780293
O O14 0.389369 0.167178 0.060734
O O15 0.500000 0.000000 0.015293
#
# Coordination Sequence:
#
# PCOD8307077 Si02
#       7
#     8   8   8   8   8   8   8
#     4   9  20  36  60  89 118 153 198 247 296 358
#     4  11  20  34  59 101 131 152 197 268 323 361
#     4  11  26  39  60  88 123 163 201 248 309 370
#     4  11  22  39  64  89 124 159 206 250 306 366
#     4  11  26  39  60  88 123 163 201 248 309 370
#     4  11  22  39  64  89 124 159 206 250 306 366
#     4   9  20  36  60  89 118 153 198 247 296 358
#
# _framework density 19.291304
#
# number of rings (size 3 to 8) (size 9 to 14) (size 15 to 20)
#    0.000    1.571    4.286    0.000    8.000    4.571 
#    0.000    0.000    0.000    0.857    0.000    2.000 
#    0.000    0.000    0.000    0.000    0.000    0.000 
#
# Total GULP energy -694351.798078 kJ/mol
# GULP energy per Si atom -12399.139251 kJ/mol
# Density = 1.924740 g / cm^3
# Si number density = 19.291304 Si / 1000 Ang^3
#
#
#
# Elastic Constant Matrix: (Units=GPa)
#
#
# Indices 1 2 3 4 5 6 
#
# 1 88.0910 33.7342 23.8494 0.0000 0.0000 0.0000
# 2 33.7342 88.0910 23.8494 0.0000 0.0000 0.0000
# 3 23.8494 23.8494 95.8190 0.0000 0.0000 0.0000
# 4 0.0000 0.0000 0.0000 0.8108 0.0000 0.0000
# 5 0.0000 0.0000 0.0000 0.0000 0.8108 0.0000
# 6 0.0000 0.0000 0.0000 0.0000 0.0000 23.5876
#
#
#
# Elastic Compliance Matrix: (Units=1/GPa)
#
#
# Indices 1 2 3 4 5 6 
#
# 1 0.013746 -0.004651 -0.002264 0.000000 0.000000 0.000000
# 2 -0.004651 0.013746 -0.002264 0.000000 0.000000 0.000000
# 3 -0.002264 -0.002264 0.011563 0.000000 0.000000 0.000000
# 4 0.000000 0.000000 0.000000 1.233414 0.000000 0.000000
# 5 0.000000 0.000000 0.000000 0.000000 1.233414 0.000000
# 6 0.000000 0.000000 0.000000 0.000000 0.000000 0.042395
#
#
# Mechanical properties :
#
#
# Convention : Reuss Voigt Hill
#
# Bulk Modulus (GPa) = 48.31382 48.31856 48.31619
# Shear Modulus (GPa) = 1.94285 17.74637 9.84461
#
# Velocity S-wave (km/s) = 1.00464 3.03630 2.26146
# Velocity P-wave (km/s) = 5.14242 6.11501 5.64968
#
# Compressibility (1/GPa) = 0.02069801
#
# Stress axis : x y z
#
# Youngs Moduli (GPa) = 72.74907 72.74907 86.48118
#
# Poissons Ratio (x) = 0.33836 0.19577
# Poissons Ratio (y) = 0.33836 0.19577
# Poissons Ratio (z) = 0.16468 0.16468
#
# Static dielectric constant tensor:
#      x y z
#    x 3.556480 0.000000 0.000000 
#    y 0.000000 3.556480 0.000000 
#    z 0.000000 0.000000 3.513390 
# 
# 
# High freq. dielectric constant tensor:
#      x y z
#    x 1.737610 0.000000 0.000000 
#    y 0.000000 1.737610 0.000000 
#    z 0.000000 0.000000 1.756700 
# 
# From -- ./inp_files/1643.got.cif
#   From: 2010.03.12/outbox.cif.g09.slc.cpg/sg104_cif.got.tgz:1643.got - 2010.04.14 01:44:05.
