data_PCOD8307411
_publ_section_title
;
Structure prediction by ZEFSAII (Michael W. Deem and Ramdas Pophale) SiO2 
 PCOD8307411
Probable space group: P 42 B C
;
_chemical_formula_sum "Si O2"
_cell_formula_units_Z 52
_cell_length_a 16.501592
_cell_length_b 16.501592
_cell_length_c 9.577377
_cell_angle_alpha 90.000000
_cell_angle_beta 90.000000
_cell_angle_gamma 90.000000
_cell_volume 2607.944070
_symmetry_space_group_name_H-M "P 42 B C"
_symmetry_group_IT_number 106
_symmetry_cell_setting 'tetragonal'
loop_
_space_group_symop_operation_xyz
x,y,z
-y,x,1/2+z
-x,-y,z
y,-x,1/2+z
1/2-x,1/2+y,z
1/2+x,1/2-y,z
1/2-y,1/2-x,1/2+z
1/2+y,1/2+x,1/2+z
loop_
_atom_site_type_symbol
_atom_site_label
_atom_site_fract_x
_atom_site_fract_y
_atom_site_fract_z
Si Si1 0.078166 0.692203 0.339910
Si Si2 0.875352 0.874523 0.823249
Si Si3 0.099240 0.285253 0.308690
Si Si4 0.850916 0.293133 0.628547
Si Si5 0.243008 0.332955 0.116336
Si Si6 0.384206 0.632464 0.132994
Si Si7 0.000000 0.000000 0.224931
O O1 0.086262 0.787202 0.308819
O O2 0.100927 0.671311 0.497915
O O3 0.139356 0.639767 0.246672
O O4 0.985569 0.666045 0.309777
O O5 0.886836 0.809513 0.698851
O O6 0.942579 0.944383 0.819359
O O7 0.882417 0.831413 0.975043
O O8 0.163346 0.333129 0.213877
O O9 0.128595 0.275331 0.467286
O O10 0.081942 0.197363 0.242044
O O11 0.757285 0.275868 0.590522
O O12 0.890752 0.208004 0.678400
O O13 0.440743 0.553660 0.129675
#
# Coordination Sequence:
#
# PCOD8307411 Si02
#       7
#     8   8   8   8   8   8   4
#     4  10  20  39  61  88 115 156 219 253 302 359
#     4  10  22  37  57  93 132 173 200 240 306 387
#     4  11  21  40  63  90 116 159 216 265 304 369
#     4   9  19  38  60  86 120 166 205 247 300 380
#     4  10  21  38  65  87 123 168 210 250 315 376
#     4  10  21  37  57  88 135 168 201 239 306 377
#     4  12  22  34  58 102 146 160 188 246 316 376
#
# _framework density 19.939077999999999
#
# number of rings (size 3 to 8) (size 9 to 14) (size 15 to 20)
#    0.000    1.846    1.538    5.077    4.308    1.231 
#    2.769    1.538    0.000    2.769    0.000    0.000 
#    0.000    0.000    0.000    0.000    0.000    0.000 
#
# Total GULP energy -644646.244802 kJ/mol
# GULP energy per Si atom -12397.043169 kJ/mol
# Density = 1.989370 g / cm^3
# Si number density = 19.939078 Si / 1000 Ang^3
#
#
#
# Elastic Constant Matrix: (Units=GPa)
#
#
# Indices 1 2 3 4 5 6 
#
# 1 90.3804 30.9202 41.3905 0.0000 0.0000 0.0000
# 2 30.9202 90.3804 41.3905 0.0000 0.0000 0.0000
# 3 41.3905 41.3905 123.3942 0.0000 0.0000 0.0000
# 4 0.0000 0.0000 0.0000 12.4892 0.0000 0.0000
# 5 0.0000 0.0000 0.0000 0.0000 12.4892 0.0000
# 6 0.0000 0.0000 0.0000 0.0000 0.0000 37.3950
#
#
#
# Elastic Compliance Matrix: (Units=1/GPa)
#
#
# Indices 1 2 3 4 5 6 
#
# 1 0.013755 -0.003063 -0.003586 0.000000 0.000000 0.000000
# 2 -0.003063 0.013755 -0.003586 0.000000 0.000000 0.000000
# 3 -0.003586 -0.003586 0.010510 0.000000 0.000000 0.000000
# 4 0.000000 0.000000 0.000000 0.080069 0.000000 0.000000
# 5 0.000000 0.000000 0.000000 0.000000 0.080069 0.000000
# 6 0.000000 0.000000 0.000000 0.000000 0.000000 0.026742
#
#
# Mechanical properties :
#
#
# Convention : Reuss Voigt Hill
#
# Bulk Modulus (GPa) = 56.98718 59.06193 58.02456
# Shear Modulus (GPa) = 19.90285 25.17161 22.53723
#
# Velocity S-wave (km/s) = 3.16283 3.55692 3.36565
# Velocity P-wave (km/s) = 6.47925 6.82308 6.65339
#
# Compressibility (1/GPa) = 0.01754781
#
# Stress axis : x y z
#
# Youngs Moduli (GPa) = 72.70254 72.70254 95.14746
#
# Poissons Ratio (x) = 0.22271 0.34122
# Poissons Ratio (y) = 0.22271 0.34122
# Poissons Ratio (z) = 0.26073 0.26073
#
# Static dielectric constant tensor:
#      x y z
#    x 3.546170 0.000000 0.000000 
#    y 0.000000 3.546170 0.000000 
#    z 0.000000 0.000000 3.608120 
# 
# 
# High freq. dielectric constant tensor:
#      x y z
#    x 1.760870 0.000000 0.000000 
#    y 0.000000 1.760870 0.000000 
#    z 0.000000 0.000000 1.786120 
# 
# From -- ./inp_files/500.got.cif
#   From: 2010.03.12/outbox.cif.g09.slc.cpg/sg106_cif.got.tgz:500.got - 2010.04.14 01:48:02.
