data_PCOD8307466
_publ_section_title
;
Structure prediction by ZEFSAII (Michael W. Deem and Ramdas Pophale) SiO2 
 PCOD8307466
Probable space group: P 42 B C
;
_chemical_formula_sum "Si O2"
_cell_formula_units_Z 36
_cell_length_a 9.952448
_cell_length_b 9.952448
_cell_length_c 17.411471
_cell_angle_alpha 90.000000
_cell_angle_beta 90.000000
_cell_angle_gamma 90.000000
_cell_volume 1724.627465
_symmetry_space_group_name_H-M "P 42 B C"
_symmetry_group_IT_number 106
_symmetry_cell_setting 'tetragonal'
loop_
_space_group_symop_operation_xyz
x,y,z
-y,x,1/2+z
-x,-y,z
y,-x,1/2+z
1/2-x,1/2+y,z
1/2+x,1/2-y,z
1/2-y,1/2-x,1/2+z
1/2+y,1/2+x,1/2+z
loop_
_atom_site_type_symbol
_atom_site_label
_atom_site_fract_x
_atom_site_fract_y
_atom_site_fract_z
Si Si1 0.185794 0.800470 0.170220
Si Si2 0.041205 0.347204 0.433225
Si Si3 0.000000 0.000000 0.596482
Si Si4 0.541206 0.152796 0.259740
Si Si5 0.185795 0.800470 0.522744
O O1 0.124265 0.945229 0.147021
O O2 0.330757 0.821835 0.207047
O O3 0.204036 0.704034 0.096483
O O4 0.085129 0.736922 0.230967
O O5 0.074956 0.302377 0.346482
O O6 0.169241 0.321834 0.485918
O O7 0.000000 0.500000 0.437040
O O8 0.914869 0.263079 0.461997
O O9 0.124265 0.945229 0.545942
O O10 0.500000 0.000000 0.255924
#
# Coordination Sequence:
#
# PCOD8307466 Si02
#       5
#     8   8   4   8   8
#     4  12  24  44  71 102 140 181 238 288 348 425
#     4  11  26  45  67 100 139 185 231 290 356 418
#     4  12  24  40  70 108 128 180 234 288 352 408
#     4  11  26  45  67 100 139 185 231 290 356 418
#     4  12  24  44  71 102 140 181 238 288 348 425
#
# _framework density 20.874075000000001
#
# number of rings (size 3 to 8) (size 9 to 14) (size 15 to 20)
#    0.000    0.444    4.444    4.000    0.000    0.000 
#    0.000    2.222    0.000    0.000    0.000    0.000 
#    0.000    0.000    0.000    0.000    0.000    0.000 
#
# Total GULP energy -446576.661263 kJ/mol
# GULP energy per Si atom -12404.907257 kJ/mol
# Density = 2.082656 g / cm^3
# Si number density = 20.874075 Si / 1000 Ang^3
#
#
#
# Elastic Constant Matrix: (Units=GPa)
#
#
# Indices 1 2 3 4 5 6 
#
# 1 92.5768 28.0349 36.8817 0.0000 0.0000 0.0000
# 2 28.0349 92.5768 36.8817 0.0000 0.0000 0.0000
# 3 36.8817 36.8817 103.7661 0.0000 0.0000 0.0000
# 4 0.0000 0.0000 0.0000 32.2465 0.0000 0.0000
# 5 0.0000 0.0000 0.0000 0.0000 32.2465 0.0000
# 6 0.0000 0.0000 0.0000 0.0000 0.0000 40.1589
#
#
#
# Elastic Compliance Matrix: (Units=1/GPa)
#
#
# Indices 1 2 3 4 5 6 
#
# 1 0.013044 -0.002450 -0.003765 0.000000 0.000000 0.000000
# 2 -0.002450 0.013044 -0.003765 0.000000 0.000000 0.000000
# 3 -0.003765 -0.003765 0.012314 0.000000 0.000000 0.000000
# 4 0.000000 0.000000 0.000000 0.031011 0.000000 0.000000
# 5 0.000000 0.000000 0.000000 0.000000 0.031011 0.000000
# 6 0.000000 0.000000 0.000000 0.000000 0.000000 0.024901
#
#
# Mechanical properties :
#
#
# Convention : Reuss Voigt Hill
#
# Bulk Modulus (GPa) = 54.23011 54.72404 54.47708
# Shear Modulus (GPa) = 33.01793 33.40516 33.21155
#
# Velocity S-wave (km/s) = 3.98146 4.00474 3.99312
# Velocity P-wave (km/s) = 6.86819 6.90341 6.88582
#
# Compressibility (1/GPa) = 0.01843994
#
# Stress axis : x y z
#
# Youngs Moduli (GPa) = 76.66441 76.66441 81.21009
#
# Poissons Ratio (x) = 0.18782 0.30579
# Poissons Ratio (y) = 0.18782 0.30579
# Poissons Ratio (z) = 0.28867 0.28867
#
# Static dielectric constant tensor:
#      x y z
#    x 4.525110 0.000000 0.000000 
#    y 0.000000 4.525110 0.000000 
#    z 0.000000 0.000000 4.117400 
# 
# 
# High freq. dielectric constant tensor:
#      x y z
#    x 1.830230 0.000000 0.000000 
#    y 0.000000 1.830230 0.000000 
#    z 0.000000 0.000000 1.825780 
# 
# From -- ./inp_files/1544.got.cif
#   From: 2010.03.12/outbox.cif.g09.slc.cpg/sg106_cif.got.tgz:1544.got - 2010.04.14 01:48:02.
