data_PCOD8307467
_publ_section_title
;
Structure prediction by ZEFSAII (Michael W. Deem and Ramdas Pophale) SiO2 
 PCOD8307467
Probable space group: P 42 B C
;
_chemical_formula_sum "Si O2"
_cell_formula_units_Z 36
_cell_length_a 9.817122
_cell_length_b 9.817122
_cell_length_c 17.195612
_cell_angle_alpha 90.000000
_cell_angle_beta 90.000000
_cell_angle_gamma 90.000000
_cell_volume 1657.242314
_symmetry_space_group_name_H-M "P 42 B C"
_symmetry_group_IT_number 106
_symmetry_cell_setting 'tetragonal'
loop_
_space_group_symop_operation_xyz
x,y,z
-y,x,1/2+z
-x,-y,z
y,-x,1/2+z
1/2-x,1/2+y,z
1/2+x,1/2-y,z
1/2-y,1/2-x,1/2+z
1/2+y,1/2+x,1/2+z
loop_
_atom_site_type_symbol
_atom_site_label
_atom_site_fract_x
_atom_site_fract_y
_atom_site_fract_z
Si Si1 0.192696 0.316186 0.287210
Si Si2 0.656939 0.467006 0.875036
Si Si3 0.500000 0.000000 0.210353
Si Si4 0.183814 0.692696 0.133497
Si Si5 0.343061 0.467006 0.045670
O O1 0.307708 0.324174 0.353787
O O2 0.130845 0.464782 0.264923
O O3 0.252919 0.252919 0.210353
O O4 0.063087 0.229434 0.313481
O O5 0.500000 0.500000 0.872771
O O6 0.717827 0.500000 0.960353
O O7 0.464782 0.130845 0.155784
O O8 0.270566 0.563087 0.107225
O O9 0.175826 0.807708 0.066920
O O10 0.500000 0.500000 0.047936
#
# Coordination Sequence:
#
# PCOD8307467 Si02
#       5
#     8   8   4   8   8
#     4  12  24  44  72 102 140 185 240 292 357 431
#     4  11  26  45  68 100 141 184 234 295 363 428
#     4  12  24  40  70 112 132 184 242 292 356 424
#     4  12  24  44  72 102 140 185 240 292 357 431
#     4  11  26  45  68 100 141 184 234 295 363 428
#
# _framework density 21.722835
#
# number of rings (size 3 to 8) (size 9 to 14) (size 15 to 20)
#    0.000    0.444    4.444    4.000    0.000    0.000 
#    0.000    0.000    0.000    0.000    0.000    0.000 
#    0.000    0.000    0.000    0.000    0.000    0.000 
#
# Total GULP energy -446425.251879 kJ/mol
# GULP energy per Si atom -12400.701441 kJ/mol
# Density = 2.167339 g / cm^3
# Si number density = 21.722835 Si / 1000 Ang^3
#
#
#
# Elastic Constant Matrix: (Units=GPa)
#
#
# Indices 1 2 3 4 5 6 
#
# 1 106.0137 42.6095 43.5746 0.0000 0.0000 0.0000
# 2 42.6095 106.0137 43.5746 0.0000 0.0000 0.0000
# 3 43.5746 43.5746 119.4985 0.0000 0.0000 0.0000
# 4 0.0000 0.0000 0.0000 32.0636 0.0000 0.0000
# 5 0.0000 0.0000 0.0000 0.0000 32.0636 0.0000
# 6 0.0000 0.0000 0.0000 0.0000 0.0000 35.5565
#
#
#
# Elastic Compliance Matrix: (Units=1/GPa)
#
#
# Indices 1 2 3 4 5 6 
#
# 1 0.012165 -0.003607 -0.003121 0.000000 0.000000 0.000000
# 2 -0.003607 0.012165 -0.003121 0.000000 0.000000 0.000000
# 3 -0.003121 -0.003121 0.010644 0.000000 0.000000 0.000000
# 4 0.000000 0.000000 0.000000 0.031188 0.000000 0.000000
# 5 0.000000 0.000000 0.000000 0.000000 0.031188 0.000000
# 6 0.000000 0.000000 0.000000 0.000000 0.000000 0.028124
#
#
# Mechanical properties :
#
#
# Convention : Reuss Voigt Hill
#
# Bulk Modulus (GPa) = 65.45399 65.67150 65.56274
# Shear Modulus (GPa) = 33.27480 33.38790 33.33135
#
# Velocity S-wave (km/s) = 3.91805 3.92471 3.92138
# Velocity P-wave (km/s) = 7.11794 7.12986 7.12390
#
# Compressibility (1/GPa) = 0.01527791
#
# Stress axis : x y z
#
# Youngs Moduli (GPa) = 82.20243 82.20243 93.94738
#
# Poissons Ratio (x) = 0.29648 0.29319
# Poissons Ratio (y) = 0.29648 0.29319
# Poissons Ratio (z) = 0.25654 0.25654
#
# Static dielectric constant tensor:
#      x y z
#    x 4.097990 0.000000 0.000000 
#    y 0.000000 4.097990 0.000000 
#    z 0.000000 0.000000 4.458340 
# 
# 
# High freq. dielectric constant tensor:
#      x y z
#    x 1.862980 0.000000 0.000000 
#    y 0.000000 1.862980 0.000000 
#    z 0.000000 0.000000 1.857710 
# 
# From -- ./inp_files/1545.got.cif
#   From: 2010.03.12/outbox.cif.g09.slc.cpg/sg106_cif.got.tgz:1545.got - 2010.04.14 01:48:02.
