data_PCOD8307264
_publ_section_title
;
Structure prediction by ZEFSAII (Michael W. Deem and Ramdas Pophale) SiO2 
 PCOD8307264
Probable space group: P 42 M C
;
_chemical_formula_sum "Si O2"
_cell_formula_units_Z 40
_cell_length_a 8.059199
_cell_length_b 8.059199
_cell_length_c 29.155801
_cell_angle_alpha 90.000000
_cell_angle_beta 90.000000
_cell_angle_gamma 90.000000
_cell_volume 1893.689349
_symmetry_space_group_name_H-M "P 42 M C"
_symmetry_group_IT_number 105
_symmetry_cell_setting 'tetragonal'
loop_
_space_group_symop_operation_xyz
x,y,z
-y,x,1/2+z
-x,-y,z
y,-x,1/2+z
-x,y,z
x,-y,z
-y,-x,1/2+z
y,x,1/2+z
loop_
_atom_site_type_symbol
_atom_site_label
_atom_site_fract_x
_atom_site_fract_y
_atom_site_fract_z
Si Si1 0.303785 0.817293 0.655230
Si Si2 0.684511 0.697511 0.060599
Si Si3 0.687538 0.302666 0.460578
Si Si4 0.819156 0.193121 0.367633
Si Si5 0.199083 0.500000 0.814631
Si Si6 0.500000 0.192956 0.212070
O O1 0.500000 0.809127 0.655464
O O2 0.238258 0.795813 0.602941
O O3 0.241786 0.668894 0.686841
O O4 0.242845 0.000000 0.672491
O O5 0.500000 0.769322 0.068578
O O6 0.676106 0.500000 0.059709
O O7 0.754489 0.755123 0.010900
O O8 0.500000 0.238604 0.452901
O O9 0.694123 0.500000 0.457734
O O10 0.801643 0.223180 0.421845
O O11 0.665163 0.272838 0.339547
O O12 0.000000 0.266714 0.352408
O O13 0.819867 0.000000 0.357375
O O14 0.270657 0.500000 0.763001
O O15 0.000000 0.500000 0.817015
O O16 0.500000 0.000000 0.218102
#
# Coordination Sequence:
#
# PCOD8307264 Si02
#       6
#     8   8   8   8   4   4
#     4  10  20  36  60  88 117 151 194 244 299 359
#     4   8  14  28  52  79 109 148 191 229 272 339
#     4   9  17  30  52  82 112 146 184 223 276 340
#     4  10  20  35  56  80 106 140 186 240 291 343
#     4   9  20  39  59  79 105 147 195 241 295 352
#     4  11  23  39  61  85 113 153 199 249 307 358
#
# _framework density 21.122789999999998
#
# number of rings (size 3 to 8) (size 9 to 14) (size 15 to 20)
#    0.000    2.600    2.000    1.500    0.000    2.400 
#    0.000    7.000    0.000    0.000    0.000    0.000 
#    0.000    0.000    0.000    0.000    0.000    0.000 
#
# Total GULP energy -495609.438311 kJ/mol
# GULP energy per Si atom -12390.235958 kJ/mol
# Density = 2.107471 g / cm^3
# Si number density = 21.122790 Si / 1000 Ang^3
#
#
#
# Elastic Constant Matrix: (Units=GPa)
#
#
# Indices 1 2 3 4 5 6 
#
# 1 89.3296 24.6629 50.7151 0.0000 0.0000 0.0000
# 2 24.6629 89.3296 50.7151 0.0000 0.0000 0.0000
# 3 50.7151 50.7151 163.9596 0.0000 0.0000 0.0000
# 4 0.0000 0.0000 0.0000 11.1682 0.0000 0.0000
# 5 0.0000 0.0000 0.0000 0.0000 11.1682 0.0000
# 6 0.0000 0.0000 0.0000 0.0000 0.0000 11.8545
#
#
#
# Elastic Compliance Matrix: (Units=1/GPa)
#
#
# Indices 1 2 3 4 5 6 
#
# 1 0.013784 -0.001680 -0.003744 0.000000 0.000000 0.000000
# 2 -0.001680 0.013784 -0.003744 0.000000 0.000000 0.000000
# 3 -0.003744 -0.003744 0.008415 0.000000 0.000000 0.000000
# 4 0.000000 0.000000 0.000000 0.089540 0.000000 0.000000
# 5 0.000000 0.000000 0.000000 0.000000 0.089540 0.000000
# 6 0.000000 0.000000 0.000000 0.000000 0.000000 0.084356
#
#
# Mechanical properties :
#
#
# Convention : Reuss Voigt Hill
#
# Bulk Modulus (GPa) = 56.66617 66.08946 61.37781
# Shear Modulus (GPa) = 15.44938 21.27321 18.36129
#
# Velocity S-wave (km/s) = 2.70739 3.17696 2.95153
# Velocity P-wave (km/s) = 6.05463 6.69429 6.38248
#
# Compressibility (1/GPa) = 0.01764721
#
# Stress axis : x y z
#
# Youngs Moduli (GPa) = 72.54865 72.54865 118.83339
#
# Poissons Ratio (x) = 0.12188 0.44490
# Poissons Ratio (y) = 0.12188 0.44490
# Poissons Ratio (z) = 0.27161 0.27161
#
# Static dielectric constant tensor:
#      x y z
#    x 3.689780 0.000000 0.000000 
#    y 0.000000 3.689780 0.000000 
#    z 0.000000 0.000000 4.160200 
# 
# 
# High freq. dielectric constant tensor:
#      x y z
#    x 1.804930 0.000000 0.000000 
#    y 0.000000 1.804930 0.000000 
#    z 0.000000 0.000000 1.829840 
# 
# From -- ./inp_files/4331.got.cif
#   From: 2010.03.12/outbox.cif.g09.slc.cpg/sg105_3_cif.got.tgz:4331.got - 2010.04.14 01:45:32.
