data_PCOD8307318
_publ_section_title
;
Structure prediction by ZEFSAII (Michael W. Deem and Ramdas Pophale) SiO2 
 PCOD8307318
Probable space group: P 42 M C
;
_chemical_formula_sum "Si O2"
_cell_formula_units_Z 56
_cell_length_a 14.434233
_cell_length_b 14.434233
_cell_length_c 14.614983
_cell_angle_alpha 90.000000
_cell_angle_beta 90.000000
_cell_angle_gamma 90.000000
_cell_volume 3044.989066
_symmetry_space_group_name_H-M "P 42 M C"
_symmetry_group_IT_number 105
_symmetry_cell_setting 'tetragonal'
loop_
_space_group_symop_operation_xyz
x,y,z
-y,x,1/2+z
-x,-y,z
y,-x,1/2+z
-x,y,z
x,-y,z
-y,-x,1/2+z
y,x,1/2+z
loop_
_atom_site_type_symbol
_atom_site_label
_atom_site_fract_x
_atom_site_fract_y
_atom_site_fract_z
Si Si1 0.105257 0.894789 0.699300
Si Si2 0.393179 0.892027 0.129314
Si Si3 0.744441 0.604966 0.981581
Si Si4 0.393776 0.747623 0.274848
Si Si5 0.778447 0.205675 0.054833
Si Si6 0.397214 0.395446 0.632428
Si Si7 0.102943 0.894100 0.909907
O O1 0.176400 0.830135 0.646758
O O2 0.131119 0.885513 0.804711
O O3 0.000000 0.862007 0.681135
O O4 0.116976 0.000000 0.665267
O O5 0.500000 0.881271 0.096755
O O6 0.382194 0.850947 0.232738
O O7 0.328420 0.830270 0.062061
O O8 0.363308 0.000000 0.130661
O O9 0.789270 0.500000 0.985927
O O10 0.741110 0.645439 0.878061
O O11 0.795398 0.683799 0.042203
O O12 0.644382 0.602260 0.029460
O O13 0.500000 0.718099 0.284709
O O14 0.345980 0.674148 0.204024
O O15 0.820635 0.158711 0.966177
O O16 0.500000 0.387257 0.675333
O O17 0.364284 0.500000 0.619259
O O18 0.000000 0.852585 0.926180
O O19 0.102885 0.000000 0.941717
#
# Coordination Sequence:
#
# PCOD8307318 Si02
#       7
#     8   8   8   8   8   8   8
#     4   9  19  36  57  83 112 137 170 223 282 335
#     4  10  21  36  54  78 109 144 184 230 275 327
#     4  10  22  35  50  75 110 145 183 228 267 315
#     4   9  18  35  52  72 103 140 178 220 272 321
#     4  12  21  32  57  80 106 143 188 220 273 328
#     4   9  17  32  54  77 103 135 175 226 276 319
#     4   9  19  35  55  83 113 136 168 220 279 335
#
# _framework density 18.390871000000001
#
# number of rings (size 3 to 8) (size 9 to 14) (size 15 to 20)
#    0.000    2.286    1.429    2.571    2.000    1.714 
#    0.000    3.571    0.000    3.429    0.000    2.000 
#    0.000    0.000    0.000    0.000    0.000    0.000 
#
# Total GULP energy -693789.488075 kJ/mol
# GULP energy per Si atom -12389.098001 kJ/mol
# Density = 1.834901 g / cm^3
# Si number density = 18.390871 Si / 1000 Ang^3
#
#
#
# Elastic Constant Matrix: (Units=GPa)
#
#
# Indices 1 2 3 4 5 6 
#
# 1 91.9464 37.1688 43.2402 0.0000 0.0000 0.0000
# 2 37.1688 91.9464 43.2402 0.0000 0.0000 0.0000
# 3 43.2402 43.2402 82.4493 0.0000 0.0000 0.0000
# 4 0.0000 0.0000 0.0000 29.7950 0.0000 0.0000
# 5 0.0000 0.0000 0.0000 0.0000 29.7950 0.0000
# 6 0.0000 0.0000 0.0000 0.0000 0.0000 21.0744
#
#
#
# Elastic Compliance Matrix: (Units=1/GPa)
#
#
# Indices 1 2 3 4 5 6 
#
# 1 0.015097 -0.003158 -0.006261 0.000000 0.000000 0.000000
# 2 -0.003158 0.015097 -0.006261 0.000000 0.000000 0.000000
# 3 -0.006261 -0.006261 0.018696 0.000000 0.000000 0.000000
# 4 0.000000 0.000000 0.000000 0.033563 0.000000 0.000000
# 5 0.000000 0.000000 0.000000 0.000000 0.033563 0.000000
# 6 0.000000 0.000000 0.000000 0.000000 0.000000 0.047451
#
#
# Mechanical properties :
#
#
# Convention : Reuss Voigt Hill
#
# Bulk Modulus (GPa) = 57.04961 57.07116 57.06038
# Shear Modulus (GPa) = 24.91638 25.64575 25.28106
#
# Velocity S-wave (km/s) = 3.68479 3.73833 3.71165
# Velocity P-wave (km/s) = 7.01366 7.05217 7.03295
#
# Compressibility (1/GPa) = 0.01752860
#
# Stress axis : x y z
#
# Youngs Moduli (GPa) = 66.23756 66.23756 53.48737
#
# Poissons Ratio (x) = 0.20921 0.33490
# Poissons Ratio (y) = 0.20921 0.33490
# Poissons Ratio (z) = 0.41473 0.41473
#
# Static dielectric constant tensor:
#      x y z
#    x 3.465690 0.000000 0.000000 
#    y 0.000000 3.465690 0.000000 
#    z 0.000000 0.000000 3.460200 
# 
# 
# High freq. dielectric constant tensor:
#      x y z
#    x 1.703490 0.000000 0.000000 
#    y 0.000000 1.703490 0.000000 
#    z 0.000000 0.000000 1.709970 
# 
# From -- ./inp_files/2616.got.cif
#   From: 2010.03.12/outbox.cif.g09.slc.cpg/sg105_2_cif.got.tgz:2616.got - 2010.04.14 01:45:32.
