data_PCOD8307784
_publ_section_title
;
Structure prediction by ZEFSAII (Michael W. Deem and Ramdas Pophale) SiO2 
 PCOD8307784
Probable space group: I 4 C M
;
_chemical_formula_sum "Si O2"
_cell_formula_units_Z 112
_cell_length_a 13.754681
_cell_length_b 13.754681
_cell_length_c 31.738726
_cell_angle_alpha 90.000000
_cell_angle_beta 90.000000
_cell_angle_gamma 90.000000
_cell_volume 6004.689227
_symmetry_space_group_name_H-M "I 4 C M"
_symmetry_group_IT_number 108
_symmetry_cell_setting 'tetragonal'
loop_
_space_group_symop_operation_xyz
x,y,z
-y,x,z
-x,-y,z
y,-x,z
-x,y,1/2+z
x,-y,1/2+z
-y,-x,1/2+z
y,x,1/2+z
1/2+x,1/2+y,1/2+z
1/2-y,1/2+x,1/2+z
1/2-x,1/2-y,1/2+z
1/2+y,1/2-x,1/2+z
1/2-x,1/2+y,z
1/2+x,1/2-y,z
1/2-y,1/2-x,z
1/2+y,1/2+x,z
loop_
_atom_site_type_symbol
_atom_site_label
_atom_site_fract_x
_atom_site_fract_y
_atom_site_fract_z
Si Si1 0.118654 0.228530 0.789250
Si Si2 0.904808 0.128908 0.112568
Si Si3 0.771471 0.881346 0.028731
Si Si4 0.258970 0.916300 0.326226
Si Si5 0.156385 0.500000 0.408991
Si Si6 0.916300 0.258970 0.491756
Si Si7 0.095192 0.128908 0.705414
O O1 0.167185 0.332816 0.796316
O O2 0.163678 0.152297 0.823282
O O3 0.143304 0.193249 0.741964
O O4 0.004190 0.241778 0.794273
O O5 0.856696 0.193248 0.076018
O O6 0.875334 0.168905 0.158991
O O7 0.020172 0.133044 0.107381
O O8 0.667187 0.832814 0.021665
O O9 0.847704 0.836323 0.994700
O O10 0.758221 0.995810 0.023708
O O11 0.354480 0.854480 0.312890
O O12 0.272896 0.959964 0.372793
O O13 0.087695 0.587695 0.391935
O O14 0.227104 0.540037 0.445188
O O15 0.087695 0.412306 0.426046
O O16 0.854480 0.354480 0.505091
O O17 0.979827 0.133044 0.710601
#
# Coordination Sequence:
#
# PCOD8307784 Si02
#       7
#    16  16  16  16  16  16  16
#     4  11  21  34  57  82 110 147 180 228 280 319
#     4   9  17  32  55  79 106 143 182 225 274 325
#     4  11  21  34  57  82 110 147 180 228 280 319
#     4  10  22  37  55  83 110 141 188 227 271 330
#     4   9  18  36  58  77 110 154 184 219 270 325
#     4  10  22  37  55  83 110 141 188 227 271 330
#     4   9  17  32  55  79 106 143 182 225 274 325
#
# _framework density 18.652089
#
# number of rings (size 3 to 8) (size 9 to 14) (size 15 to 20)
#    0.000    2.143    2.857    1.714    0.000    4.000 
#    0.000    4.286    0.000    2.571    0.000    2.000 
#    0.000    0.000    0.000    0.000    0.000    0.000 
#
# Total GULP energy -694173.577542 kJ/mol
# GULP energy per Si atom -12395.956742 kJ/mol
# Density = 1.860964 g / cm^3
# Si number density = 18.652089 Si / 1000 Ang^3
#
#
#
# Elastic Constant Matrix: (Units=GPa)
#
#
# Indices 1 2 3 4 5 6 
#
# 1 80.1847 32.1083 29.9233 0.0000 0.0000 0.0001
# 2 32.1083 80.1847 29.9233 0.0000 0.0000 -0.0001
# 3 29.9233 29.9233 102.3073 0.0000 0.0000 0.0000
# 4 0.0000 0.0000 0.0000 24.6940 0.0000 0.0000
# 5 0.0000 0.0000 0.0000 0.0000 24.6940 0.0000
# 6 0.0001 -0.0001 0.0000 0.0000 0.0000 17.9530
#
#
#
# Elastic Compliance Matrix: (Units=1/GPa)
#
#
# Indices 1 2 3 4 5 6 
#
# 1 0.015675 -0.005125 -0.003086 0.000000 0.000000 0.000000
# 2 -0.005125 0.015675 -0.003086 0.000000 0.000000 0.000000
# 3 -0.003086 -0.003086 0.011579 0.000000 0.000000 0.000000
# 4 0.000000 0.000000 0.000000 0.040496 0.000000 0.000000
# 5 0.000000 0.000000 0.000000 0.000000 0.040496 0.000000
# 6 0.000000 0.000000 0.000000 0.000000 0.000000 0.055701
#
#
# Mechanical properties :
#
#
# Convention : Reuss Voigt Hill
#
# Bulk Modulus (GPa) = 49.17282 49.62073 49.39678
# Shear Modulus (GPa) = 23.92416 24.84965 24.38690
#
# Velocity S-wave (km/s) = 3.58530 3.65399 3.61981
# Velocity P-wave (km/s) = 6.59997 6.66808 6.63411
#
# Compressibility (1/GPa) = 0.02033644
#
# Stress axis : x y z
#
# Youngs Moduli (GPa) = 63.79590 63.79590 86.35964
#
# Poissons Ratio (x) = 0.32697 0.26648
# Poissons Ratio (y) = 0.32697 0.26648
# Poissons Ratio (z) = 0.19685 0.19685
#
# Static dielectric constant tensor:
#      x y z
#    x 3.319700 0.000000 0.000000 
#    y 0.000000 3.319700 0.000000 
#    z 0.000000 0.000000 3.429110 
# 
# 
# High freq. dielectric constant tensor:
#      x y z
#    x 1.715050 0.000000 0.000000 
#    y 0.000000 1.715050 0.000000 
#    z 0.000000 0.000000 1.722710 
# 
# From -- ./inp_files/3538.got.cif
#   From: 2010.03.12/outbox.cif.g09.slc.cpg/sg108_2_cif.got.tgz:3538.got - 2010.04.14 01:53:11.
