data_PCOD8307613
_publ_section_title
;
Structure prediction by ZEFSAII (Michael W. Deem and Ramdas Pophale) SiO2 
 PCOD8307613
Probable space group: I 4 M M
;
_chemical_formula_sum "Si O2"
_cell_formula_units_Z 112
_cell_length_a 18.044159
_cell_length_b 18.044159
_cell_length_c 21.894071
_cell_angle_alpha 90.000000
_cell_angle_beta 90.000000
_cell_angle_gamma 90.000000
_cell_volume 7128.527228
_symmetry_space_group_name_H-M "I 4 M M"
_symmetry_group_IT_number 107
_symmetry_cell_setting 'tetragonal'
loop_
_space_group_symop_operation_xyz
x,y,z
-y,x,z
-x,-y,z
y,-x,z
-x,y,z
x,-y,z
-y,-x,z
y,x,z
1/2+x,1/2+y,1/2+z
1/2-y,1/2+x,1/2+z
1/2-x,1/2-y,1/2+z
1/2+y,1/2-x,1/2+z
1/2-x,1/2+y,1/2+z
1/2+x,1/2-y,1/2+z
1/2-y,1/2-x,1/2+z
1/2+y,1/2+x,1/2+z
loop_
_atom_site_type_symbol
_atom_site_label
_atom_site_fract_x
_atom_site_fract_y
_atom_site_fract_z
Si Si1 0.583178 0.846000 0.606450
Si Si2 0.729706 0.847956 0.535219
Si Si3 0.198078 0.918068 0.177191
Si Si4 0.081932 0.801923 0.651546
Si Si5 0.790701 0.087224 0.414368
Si Si6 0.916822 0.345999 0.722284
Si Si7 0.652044 0.770294 0.793516
O O1 0.500000 0.866836 0.583475
O O2 0.642179 0.851221 0.551213
O O3 0.586054 0.761702 0.627293
O O4 0.602156 0.897848 0.664366
O O5 0.764081 0.764081 0.531775
O O6 0.773825 0.892477 0.586110
O O7 0.740914 0.890699 0.472141
O O8 0.132725 0.867276 0.152109
O O9 0.226174 0.892486 0.242631
O O10 0.166060 0.000000 0.184396
O O11 0.132720 0.867281 0.676630
O O12 0.086052 0.738301 0.701446
O O13 0.000000 0.833938 0.644335
O O14 0.868840 0.131161 0.414369
O O15 0.740912 0.109309 0.356598
O O16 0.808397 0.000000 0.414364
O O17 0.857821 0.351223 0.777520
O O18 0.000000 0.366836 0.745260
O O19 0.735919 0.735919 0.796953
#
# Coordination Sequence:
#
# PCOD8307613 Si02
#       7
#    16  16  16  16  16  16  16
#     4   9  17  29  45  64  85 110 142 178 213 251
#     4   9  17  30  46  62  83 113 146 176 208 249
#     4   9  16  26  42  64  88 113 140 172 211 253
#     4   9  16  26  42  64  88 113 140 172 211 253
#     4  10  20  33  49  67  87 113 142 172 206 244
#     4   9  17  29  45  64  85 110 142 178 213 251
#     4   9  17  30  46  62  83 113 146 176 208 249
#
# _framework density 15.71152
#
# number of rings (size 3 to 8) (size 9 to 14) (size 15 to 20)
#    0.000    2.857    0.000    1.714    0.000    5.286 
#    0.000    0.714    0.000    6.000    0.000    0.000 
#    0.000    0.000    0.000    0.000    0.000   85.714 
#
# Total GULP energy -694084.789555 kJ/mol
# GULP energy per Si atom -12394.371242 kJ/mol
# Density = 1.567576 g / cm^3
# Si number density = 15.711520 Si / 1000 Ang^3
#
#
#
# Elastic Constant Matrix: (Units=GPa)
#
#
# Indices 1 2 3 4 5 6 
#
# 1 115.3204 59.2560 34.5928 0.0000 0.0000 -0.0007
# 2 59.2560 115.3204 34.5928 0.0000 0.0000 0.0007
# 3 34.5928 34.5928 69.6037 0.0000 0.0000 0.0000
# 4 0.0000 0.0000 0.0000 12.2459 0.0000 0.0000
# 5 0.0000 0.0000 0.0000 0.0000 12.2459 0.0000
# 6 -0.0007 0.0007 0.0000 0.0000 0.0000 16.3077
#
#
#
# Elastic Compliance Matrix: (Units=1/GPa)
#
#
# Indices 1 2 3 4 5 6 
#
# 1 0.012485 -0.005352 -0.003545 0.000000 0.000000 0.000001
# 2 -0.005352 0.012485 -0.003545 0.000000 0.000000 -0.000001
# 3 -0.003545 -0.003545 0.017891 0.000000 0.000000 0.000000
# 4 0.000000 0.000000 0.000000 0.081660 0.000000 0.000000
# 5 0.000000 0.000000 0.000000 0.000000 0.081660 0.000000
# 6 0.000001 -0.000001 0.000000 0.000000 0.000000 0.061321
#
#
# Mechanical properties :
#
#
# Convention : Reuss Voigt Hill
#
# Bulk Modulus (GPa) = 55.62796 61.90309 58.76552
# Shear Modulus (GPa) = 16.75728 19.61342 18.18535
#
# Velocity S-wave (km/s) = 3.26937 3.53703 3.40583
# Velocity P-wave (km/s) = 7.05226 7.49440 7.27669
#
# Compressibility (1/GPa) = 0.01797657
#
# Stress axis : x y z
#
# Youngs Moduli (GPa) = 80.09693 80.09693 55.89440
#
# Poissons Ratio (x) = 0.42866 0.19815
# Poissons Ratio (y) = 0.42866 0.19815
# Poissons Ratio (z) = 0.28395 0.28395
#
# Static dielectric constant tensor:
#      x y z
#    x 3.138490 0.000000 0.000000 
#    y 0.000000 3.138490 0.000000 
#    z 0.000000 0.000000 2.796510 
# 
# 
# High freq. dielectric constant tensor:
#      x y z
#    x 1.602820 0.000000 0.000000 
#    y 0.000000 1.602820 0.000000 
#    z 0.000000 0.000000 1.576970 
# 
# From -- ./inp_files/4912.got.cif
#   From: 2010.03.12/outbox.cif.g09.slc.cpg/sg107_3_cif.got.tgz:4912.got - 2010.04.14 01:49:11.
