data_PCOD8307373
_publ_section_title
;
Structure prediction by ZEFSAII (Michael W. Deem and Ramdas Pophale) SiO2 
 PCOD8307373
Probable space group: P 42 M C
;
_chemical_formula_sum "Si O2"
_cell_formula_units_Z 48
_cell_length_a 9.669662
_cell_length_b 9.669662
_cell_length_c 31.281426
_cell_angle_alpha 90.000000
_cell_angle_beta 90.000000
_cell_angle_gamma 90.000000
_cell_volume 2924.887255
_symmetry_space_group_name_H-M "P 42 M C"
_symmetry_group_IT_number 105
_symmetry_cell_setting 'tetragonal'
loop_
_space_group_symop_operation_xyz
x,y,z
-y,x,1/2+z
-x,-y,z
y,-x,1/2+z
-x,y,z
x,-y,z
-y,-x,1/2+z
y,x,1/2+z
loop_
_atom_site_type_symbol
_atom_site_label
_atom_site_fract_x
_atom_site_fract_y
_atom_site_fract_z
Si Si1 0.660162 0.839589 0.010650
Si Si2 0.335906 0.348659 0.341336
Si Si3 0.159827 0.840173 0.591336
Si Si4 0.334734 0.344851 0.749752
Si Si5 0.655149 0.334734 0.432919
Si Si6 0.839589 0.339838 0.172022
O O1 0.500000 0.804898 0.019774
O O2 0.748050 0.792549 0.051460
O O3 0.682319 0.000000 0.000551
O O4 0.718459 0.756630 0.969872
O O5 0.500000 0.365848 0.341336
O O6 0.265725 0.500000 0.341336
O O7 0.294896 0.273728 0.296347
O O8 0.294896 0.273728 0.386325
O O9 0.251950 0.792549 0.631212
O O10 0.000000 0.813460 0.602864
O O11 0.186541 0.000000 0.579807
O O12 0.500000 0.341742 0.752791
O O13 0.283661 0.500000 0.738948
O O14 0.281541 0.243370 0.712800
O O15 0.500000 0.283662 0.443724
O O16 0.658258 0.500000 0.429881
O O17 0.804898 0.500000 0.162897
O O18 0.000000 0.317681 0.182121
#
# Coordination Sequence:
#
# PCOD8307373 Si02
#       6
#     8   8   8   8   8   8
#     4   9  17  28  41  59  82 102 124 163 206 232
#     4   7  10  18  33  53  78 107 134 156 182 225
#     4   9  18  32  46  57  74 106 140 161 188 240
#     4   8  13  22  37  57  81 108 134 158 189 232
#     4   8  13  22  37  57  81 108 134 158 189 232
#     4   9  17  28  41  59  82 102 124 163 206 232
#
# _framework density 16.410888
#
# number of rings (size 3 to 8) (size 9 to 14) (size 15 to 20)
#    0.000    3.667    0.000    2.000    0.000    1.333 
#    0.000    0.833    0.000    5.000    0.000    1.167 
#    0.000    9.333    0.000    0.000    0.000    0.000 
#
# Total GULP energy -594631.695867 kJ/mol
# GULP energy per Si atom -12388.160331 kJ/mol
# Density = 1.637354 g / cm^3
# Si number density = 16.410888 Si / 1000 Ang^3
#
#
#
# Elastic Constant Matrix: (Units=GPa)
#
#
# Indices 1 2 3 4 5 6 
#
# 1 41.5100 22.4943 62.5295 0.0000 0.0000 0.0000
# 2 22.4943 41.5100 62.5295 0.0000 0.0000 0.0000
# 3 62.5295 62.5295 202.6707 0.0000 0.0000 0.0000
# 4 0.0000 0.0000 0.0000 4.4551 0.0000 0.0000
# 5 0.0000 0.0000 0.0000 0.0000 4.4551 0.0000
# 6 0.0000 0.0000 0.0000 0.0000 0.0000 11.0354
#
#
#
# Elastic Compliance Matrix: (Units=1/GPa)
#
#
# Indices 1 2 3 4 5 6 
#
# 1 0.045964 -0.006625 -0.012137 0.000000 0.000000 0.000000
# 2 -0.006625 0.045964 -0.012137 0.000000 0.000000 0.000000
# 3 -0.012137 -0.012137 0.012423 0.000000 0.000000 0.000000
# 4 0.000000 0.000000 0.000000 0.224461 0.000000 0.000000
# 5 0.000000 0.000000 0.000000 0.000000 0.224461 0.000000
# 6 0.000000 0.000000 0.000000 0.000000 0.000000 0.090618
#
#
# Mechanical properties :
#
#
# Convention : Reuss Voigt Hill
#
# Bulk Modulus (GPa) = 23.50033 64.53303 44.01668
# Shear Modulus (GPa) = 6.94567 13.19828 10.07198
#
# Velocity S-wave (km/s) = 2.05950 2.83899 2.48006
# Velocity P-wave (km/s) = 4.47286 7.08203 5.92290
#
# Compressibility (1/GPa) = 0.04255260
#
# Stress axis : x y z
#
# Youngs Moduli (GPa) = 21.75638 21.75638 80.49338
#
# Poissons Ratio (x) = 0.14413 0.97696
# Poissons Ratio (y) = 0.14413 0.97696
# Poissons Ratio (z) = 0.26406 0.26406
#
# Static dielectric constant tensor:
#      x y z
#    x 2.793500 0.000000 0.000000 
#    y 0.000000 2.793500 0.000000 
#    z 0.000000 0.000000 3.589260 
# 
# 
# High freq. dielectric constant tensor:
#      x y z
#    x 1.590710 0.000000 0.000000 
#    y 0.000000 1.590710 0.000000 
#    z 0.000000 0.000000 1.652700 
# 
# From -- ./inp_files/3631.got.cif
#   From: 2010.03.12/outbox.cif.g09.slc.cpg/sg105_2_cif.got.tgz:3631.got - 2010.04.14 01:45:32.
