data_PCOD8307420
_publ_section_title
;
Structure prediction by ZEFSAII (Michael W. Deem and Ramdas Pophale) SiO2 
 PCOD8307420
Probable space group: P 42 B C
;
_chemical_formula_sum "Si O2"
_cell_formula_units_Z 60
_cell_length_a 13.462137
_cell_length_b 13.462137
_cell_length_c 16.852482
_cell_angle_alpha 90.000000
_cell_angle_beta 90.000000
_cell_angle_gamma 90.000000
_cell_volume 3054.160695
_symmetry_space_group_name_H-M "P 42 B C"
_symmetry_group_IT_number 106
_symmetry_cell_setting 'tetragonal'
loop_
_space_group_symop_operation_xyz
x,y,z
-y,x,1/2+z
-x,-y,z
y,-x,1/2+z
1/2-x,1/2+y,z
1/2+x,1/2-y,z
1/2-y,1/2-x,1/2+z
1/2+y,1/2+x,1/2+z
loop_
_atom_site_type_symbol
_atom_site_label
_atom_site_fract_x
_atom_site_fract_y
_atom_site_fract_z
Si Si1 0.428227 0.178908 0.906190
Si Si2 0.630944 0.751677 0.657835
Si Si3 0.000000 0.500000 0.507886
Si Si4 0.678908 0.071772 0.109583
Si Si5 0.389349 0.773361 0.237927
Si Si6 0.241402 0.758599 0.007887
Si Si7 0.630943 0.248324 0.857938
Si Si8 0.389350 0.226640 0.277846
O O1 0.364550 0.251811 0.962874
O O2 0.510663 0.242989 0.858089
O O3 0.355424 0.122605 0.846186
O O4 0.489112 0.097656 0.955057
O O5 0.510664 0.757013 0.657684
O O6 0.669073 0.659729 0.711302
O O7 0.667047 0.745212 0.567542
O O8 0.682662 0.847715 0.696136
O O9 0.989112 0.597656 0.560715
O O10 0.622605 0.144576 0.169587
O O11 0.751811 0.135449 0.052899
O O12 0.347713 0.817341 0.319636
O O13 0.499999 0.745495 0.257887
O O14 0.332954 0.745213 0.948232
O O15 0.669072 0.340273 0.804473
#
# Coordination Sequence:
#
# PCOD8307420 Si02
#       8
#     8   8   4   8   8   8   8   8
#     4  11  21  36  60  92 124 160 206 266 309 372
#     4  10  21  38  59  89 124 159 203 254 314 366
#     4  12  20  32  66  96 116 156 226 260 312 376
#     4  11  21  36  60  92 124 160 206 266 309 372
#     4  10  22  38  62  90 121 162 206 254 314 375
#     4  10  22  36  58  86 126 160 196 256 318 362
#     4  10  21  38  59  89 124 159 203 254 314 366
#     4  10  22  38  62  90 121 162 206 254 314 375
#
# _framework density 19.645333000000001
#
# number of rings (size 3 to 8) (size 9 to 14) (size 15 to 20)
#    0.000    1.600    2.667    2.400    0.000    1.067 
#    0.000    0.000    0.000   44.000    0.000    0.000 
#    0.000    0.000    0.000    0.000    0.000    0.000 
#
# Total GULP energy -744031.905667 kJ/mol
# GULP energy per Si atom -12400.531761 kJ/mol
# Density = 1.960062 g / cm^3
# Si number density = 19.645333 Si / 1000 Ang^3
#
#
#
# Elastic Constant Matrix: (Units=GPa)
#
#
# Indices 1 2 3 4 5 6 
#
# 1 99.3997 50.4019 6.3781 0.0000 0.0000 0.0000
# 2 50.4019 99.3997 6.3781 0.0000 0.0000 0.0000
# 3 6.3781 6.3781 55.1286 0.0000 0.0000 0.0000
# 4 0.0000 0.0000 0.0000 21.0433 0.0000 0.0000
# 5 0.0000 0.0000 0.0000 0.0000 21.0433 0.0000
# 6 0.0000 0.0000 0.0000 0.0000 0.0000 18.2036
#
#
#
# Elastic Compliance Matrix: (Units=1/GPa)
#
#
# Indices 1 2 3 4 5 6 
#
# 1 0.013575 -0.006834 -0.000780 0.000000 0.000000 0.000000
# 2 -0.006834 0.013575 -0.000780 0.000000 0.000000 0.000000
# 3 -0.000780 -0.000780 0.018320 0.000000 0.000000 0.000000
# 4 0.000000 0.000000 0.000000 0.047521 0.000000 0.000000
# 5 0.000000 0.000000 0.000000 0.000000 0.047521 0.000000
# 6 0.000000 0.000000 0.000000 0.000000 0.000000 0.054934
#
#
# Mechanical properties :
#
#
# Convention : Reuss Voigt Hill
#
# Bulk Modulus (GPa) = 34.86302 42.24937 38.55620
# Shear Modulus (GPa) = 22.54327 24.77603 23.65965
#
# Velocity S-wave (km/s) = 3.39117 3.55514 3.47412
# Velocity P-wave (km/s) = 5.75483 6.19716 5.98009
#
# Compressibility (1/GPa) = 0.02868369
#
# Stress axis : x y z
#
# Youngs Moduli (GPa) = 73.66215 73.66215 54.58550
#
# Poissons Ratio (x) = 0.50338 0.04258
# Poissons Ratio (y) = 0.50338 0.04258
# Poissons Ratio (z) = 0.05746 0.05746
#
# Static dielectric constant tensor:
#      x y z
#    x 3.496200 0.000000 0.000000 
#    y 0.000000 3.496200 0.000000 
#    z 0.000000 0.000000 3.814100 
# 
# 
# High freq. dielectric constant tensor:
#      x y z
#    x 1.754180 0.000000 0.000000 
#    y 0.000000 1.754180 0.000000 
#    z 0.000000 0.000000 1.787080 
# 
# From -- ./inp_files/1372.got.cif
#   From: 2010.03.12/outbox.cif.g09.slc.cpg/sg106_cif.got.tgz:1372.got - 2010.04.14 01:48:02.
