data_PCOD8307276
_publ_section_title
;
Structure prediction by ZEFSAII (Michael W. Deem and Ramdas Pophale) SiO2 
 PCOD8307276
Probable space group: P 42 M C
;
_chemical_formula_sum "Si O2"
_cell_formula_units_Z 48
_cell_length_a 8.183673
_cell_length_b 8.183673
_cell_length_c 33.834423
_cell_angle_alpha 90.000000
_cell_angle_beta 90.000000
_cell_angle_gamma 90.000000
_cell_volume 2265.976022
_symmetry_space_group_name_H-M "P 42 M C"
_symmetry_group_IT_number 105
_symmetry_cell_setting 'tetragonal'
loop_
_space_group_symop_operation_xyz
x,y,z
-y,x,1/2+z
-x,-y,z
y,-x,1/2+z
-x,y,z
x,-y,z
-y,-x,1/2+z
y,x,1/2+z
loop_
_atom_site_type_symbol
_atom_site_label
_atom_site_fract_x
_atom_site_fract_y
_atom_site_fract_z
Si Si1 0.315313 0.310581 0.064470
Si Si2 0.805378 0.000000 0.194160
Si Si3 0.000000 0.194755 0.784538
Si Si4 0.683005 0.811132 0.648879
Si Si5 0.678761 0.189131 0.827720
Si Si6 0.813788 0.311110 0.482639
Si Si7 0.312428 0.817618 0.403713
O O1 0.500000 0.250637 0.072884
O O2 0.310760 0.500000 0.054216
O O3 0.209270 0.269717 0.103000
O O4 0.238261 0.219356 0.026373
O O5 0.733838 0.167765 0.174492
O O6 0.748369 0.000000 0.239341
O O7 0.000000 0.000000 0.189484
O O8 0.834521 0.268353 0.804773
O O9 0.000000 0.000000 0.788751
O O10 0.500000 0.732849 0.657258
O O11 0.670601 0.000000 0.659396
O O12 0.500000 0.263748 0.815315
O O13 0.698826 0.211824 0.874889
O O14 0.674338 0.000000 0.817263
O O15 0.764449 0.500000 0.483849
O O16 0.704944 0.225675 0.449632
O O17 0.000000 0.282168 0.470764
O O18 0.500000 0.802893 0.391715
O O19 0.246087 0.000000 0.396862
#
# Coordination Sequence:
#
# PCOD8307276 Si02
#       7
#     8   4   4   8   8   8   8
#     4   9  18  33  52  74 104 141 180 224 274 328
#     4   9  18  32  53  81 111 143 179 225 283 337
#     4   9  18  34  55  83 115 141 177 233 283 337
#     4   9  18  32  51  76 106 141 182 227 273 332
#     4  10  20  35  58  84 109 143 183 226 281 340
#     4  10  21  35  52  77 106 138 180 227 273 325
#     4  11  23  37  54  77 107 144 184 224 272 331
#
# _framework density 21.182926999999999
#
# number of rings (size 3 to 8) (size 9 to 14) (size 15 to 20)
#    0.000    2.333    0.833    1.500    1.167    5.667 
#    0.000    5.000    0.000    2.000    0.000    2.333 
#    0.000    0.000    0.000    0.000    0.000    0.000 
#
# Total GULP energy -594926.470674 kJ/mol
# GULP energy per Si atom -12394.301472 kJ/mol
# Density = 2.113471 g / cm^3
# Si number density = 21.182927 Si / 1000 Ang^3
#
#
#
# Elastic Constant Matrix: (Units=GPa)
#
#
# Indices 1 2 3 4 5 6 
#
# 1 79.7543 28.8447 42.5107 0.0000 0.0000 0.0000
# 2 28.8447 79.7543 42.5107 0.0000 0.0000 0.0000
# 3 42.5107 42.5107 133.4344 0.0000 0.0000 0.0000
# 4 0.0000 0.0000 0.0000 16.5746 0.0000 0.0000
# 5 0.0000 0.0000 0.0000 0.0000 16.5746 0.0000
# 6 0.0000 0.0000 0.0000 0.0000 0.0000 15.9499
#
#
#
# Elastic Compliance Matrix: (Units=1/GPa)
#
#
# Indices 1 2 3 4 5 6 
#
# 1 0.015955 -0.003687 -0.003908 0.000000 0.000000 0.000000
# 2 -0.003687 0.015955 -0.003908 0.000000 0.000000 0.000000
# 3 -0.003908 -0.003908 0.009985 0.000000 0.000000 0.000000
# 4 0.000000 0.000000 0.000000 0.060333 0.000000 0.000000
# 5 0.000000 0.000000 0.000000 0.000000 0.060333 0.000000
# 6 0.000000 0.000000 0.000000 0.000000 0.000000 0.062696
#
#
# Mechanical properties :
#
#
# Convention : Reuss Voigt Hill
#
# Bulk Modulus (GPa) = 52.94647 57.85280 55.39963
# Shear Modulus (GPa) = 19.64154 21.75828 20.69991
#
# Velocity S-wave (km/s) = 3.04836 3.20841 3.12941
# Velocity P-wave (km/s) = 6.11875 6.41058 6.26637
#
# Compressibility (1/GPa) = 0.01888700
#
# Stress axis : x y z
#
# Youngs Moduli (GPa) = 62.67480 62.67480 100.15309
#
# Poissons Ratio (x) = 0.23110 0.39145
# Poissons Ratio (y) = 0.23110 0.39145
# Poissons Ratio (z) = 0.24496 0.24496
#
# Static dielectric constant tensor:
#      x y z
#    x 3.797770 0.000000 0.000000 
#    y 0.000000 3.797770 0.000000 
#    z 0.000000 0.000000 3.757010 
# 
# 
# High freq. dielectric constant tensor:
#      x y z
#    x 1.814630 0.000000 0.000000 
#    y 0.000000 1.814630 0.000000 
#    z 0.000000 0.000000 1.825920 
# 
# From -- ./inp_files/4786.got.cif
#   From: 2010.03.12/outbox.cif.g09.slc.cpg/sg105_3_cif.got.tgz:4786.got - 2010.04.14 01:45:32.
