data_PCOD8307122
_publ_section_title
;
Structure prediction by ZEFSAII (Michael W. Deem and Ramdas Pophale) SiO2 
 PCOD8307122
Probable space group: P 42 M C
;
_chemical_formula_sum "Si O2"
_cell_formula_units_Z 48
_cell_length_a 9.833145
_cell_length_b 9.833145
_cell_length_c 28.182032
_cell_angle_alpha 90.000000
_cell_angle_beta 90.000000
_cell_angle_gamma 90.000000
_cell_volume 2724.941545
_symmetry_space_group_name_H-M "P 42 M C"
_symmetry_group_IT_number 105
_symmetry_cell_setting 'tetragonal'
loop_
_space_group_symop_operation_xyz
x,y,z
-y,x,1/2+z
-x,-y,z
y,-x,1/2+z
-x,y,z
x,-y,z
-y,-x,1/2+z
y,x,1/2+z
loop_
_atom_site_type_symbol
_atom_site_label
_atom_site_fract_x
_atom_site_fract_y
_atom_site_fract_z
Si Si1 0.841264 0.342319 0.997430
Si Si2 0.350475 0.839609 0.602333
Si Si3 0.843866 0.000000 0.342877
Si Si4 0.500000 0.841973 0.752470
Si Si5 0.000000 0.332369 0.749014
Si Si6 0.838333 0.500000 0.356720
Si Si7 0.842459 0.756217 0.413708
Si Si8 0.839192 0.227402 0.198943
O O1 0.809010 0.500000 0.986760
O O2 0.764795 0.245857 0.960967
O O3 0.000000 0.312738 0.992240
O O4 0.788725 0.302528 0.050383
O O5 0.500000 0.777922 0.614372
O O6 0.240729 0.804065 0.642951
O O7 0.368467 0.000000 0.599844
O O8 0.730890 0.000000 0.301714
O O9 0.817553 0.125984 0.376382
O O10 0.000000 0.000000 0.322412
O O11 0.500000 0.770933 0.804239
O O12 0.631034 0.801598 0.722928
O O13 0.500000 0.000000 0.762109
O O14 0.126622 0.270051 0.720994
O O15 0.000000 0.500000 0.749850
O O16 0.786365 0.627535 0.385889
O O17 0.000000 0.500000 0.352784
O O18 0.000000 0.746770 0.428954
O O19 0.000000 0.187126 0.206799
#
# Coordination Sequence:
#
# PCOD8307122 Si02
#       8
#     8   8   4   4   4   4   8   8
#     4   9  17  30  51  78 108 139 172 217 270 321
#     4   8  14  28  53  84 106 128 172 228 274 316
#     4  10  20  36  58  78 102 142 188 230 269 322
#     4   9  16  30  59  87 101 131 177 231 278 319
#     4  12  26  38  50  76 118 154 182 218 273 342
#     4   9  18  30  47  75 109 135 165 211 268 313
#     4  10  19  33  53  77 108 138 176 222 265 315
#     4  10  18  34  60  84 108 135 179 231 280 327
#
# _framework density 17.615057
#
# number of rings (size 3 to 8) (size 9 to 14) (size 15 to 20)
#    0.000    2.500    1.667    2.750    0.000    3.333 
#    1.500    0.833    1.833    1.000    0.000    0.000 
#    0.000    0.000    0.000    0.000    0.000    0.000 
#
# Total GULP energy -594711.818760 kJ/mol
# GULP energy per Si atom -12389.829558 kJ/mol
# Density = 1.757496 g / cm^3
# Si number density = 17.615057 Si / 1000 Ang^3
#
#
#
# Elastic Constant Matrix: (Units=GPa)
#
#
# Indices 1 2 3 4 5 6 
#
# 1 87.4740 35.3605 55.2492 0.0000 0.0000 0.0000
# 2 35.3605 87.4740 55.2492 0.0000 0.0000 0.0000
# 3 55.2492 55.2492 153.4436 0.0000 0.0000 0.0000
# 4 0.0000 0.0000 0.0000 43.4449 0.0000 0.0000
# 5 0.0000 0.0000 0.0000 0.0000 43.4449 0.0000
# 6 0.0000 0.0000 0.0000 0.0000 0.0000 5.6427
#
#
#
# Elastic Compliance Matrix: (Units=1/GPa)
#
#
# Indices 1 2 3 4 5 6 
#
# 1 0.015615 -0.003574 -0.004336 0.000000 0.000000 0.000000
# 2 -0.003574 0.015615 -0.004336 0.000000 0.000000 0.000000
# 3 -0.004336 -0.004336 0.009639 0.000000 0.000000 0.000000
# 4 0.000000 0.000000 0.000000 0.023018 0.000000 0.000000
# 5 0.000000 0.000000 0.000000 0.000000 0.023018 0.000000
# 6 0.000000 0.000000 0.000000 0.000000 0.000000 0.177219
#
#
# Mechanical properties :
#
#
# Convention : Reuss Voigt Hill
#
# Bulk Modulus (GPa) = 61.05270 68.90102 64.97686
# Shear Modulus (GPa) = 17.00256 30.67536 23.83896
#
# Velocity S-wave (km/s) = 3.11018 4.17757 3.68275
# Velocity P-wave (km/s) = 6.90161 7.90375 7.41962
#
# Compressibility (1/GPa) = 0.01637929
#
# Stress axis : x y z
#
# Youngs Moduli (GPa) = 64.04080 64.04080 103.74305
#
# Poissons Ratio (x) = 0.22887 0.44979
# Poissons Ratio (y) = 0.22887 0.44979
# Poissons Ratio (z) = 0.27765 0.27765
#
# Static dielectric constant tensor:
#      x y z
#    x 3.085970 0.000000 0.000000 
#    y 0.000000 3.085970 0.000000 
#    z 0.000000 0.000000 3.676680 
# 
# 
# High freq. dielectric constant tensor:
#      x y z
#    x 1.653530 0.000000 0.000000 
#    y 0.000000 1.653530 0.000000 
#    z 0.000000 0.000000 1.701300 
# 
# From -- ./inp_files/4925.got.cif
#   From: 2010.03.12/outbox.cif.g09.slc.cpg/sg105_3_cif.got.tgz:4925.got - 2010.04.14 01:45:32.
