data_PCOD8307946
_publ_section_title
;
Structure prediction by ZEFSAII (Michael W. Deem and Ramdas Pophale) SiO2 
 PCOD8307946
Probable space group: I 41 M D
;
_chemical_formula_sum "Si O2"
_cell_formula_units_Z 68
_cell_length_a 16.242749
_cell_length_b 16.242749
_cell_length_c 13.358598
_cell_angle_alpha 90.000000
_cell_angle_beta 90.000000
_cell_angle_gamma 90.000000
_cell_volume 3524.357433
_symmetry_space_group_name_H-M "I 41 M D"
_symmetry_group_IT_number 109
_symmetry_cell_setting 'tetragonal'
loop_
_space_group_symop_operation_xyz
x,y,z
-y,1/2+x,1/4+z
-x,-y,z
y,1/2-x,1/4+z
-x,y,z
x,-y,z
-y,1/2-x,1/4+z
y,1/2+x,1/4+z
1/2+x,1/2+y,1/2+z
1/2-y,x,3/4+z
1/2-x,1/2-y,1/2+z
1/2+y,-x,3/4+z
1/2-x,1/2+y,1/2+z
1/2+x,1/2-y,1/2+z
1/2-y,-x,3/4+z
1/2+y,x,3/4+z
loop_
_atom_site_type_symbol
_atom_site_label
_atom_site_fract_x
_atom_site_fract_y
_atom_site_fract_z
Si Si1 0.000000 0.500000 0.373160
Si Si2 0.591020 0.409572 0.943448
Si Si3 0.325102 0.405064 0.136600
Si Si4 0.652072 0.500000 0.469005
Si Si5 0.500000 0.343699 0.772618
Si Si6 0.094020 0.857468 0.833474
O O1 0.000000 0.584632 0.308359
O O2 0.914108 0.500000 0.435891
O O3 0.500000 0.418638 0.990891
O O4 0.627255 0.500000 0.916649
O O5 0.582948 0.357843 0.840060
O O6 0.647120 0.367667 0.028890
O O7 0.354910 0.500000 0.146036
O O8 0.227512 0.399090 0.142585
O O9 0.364247 0.351257 0.224686
O O10 0.748519 0.500000 0.495230
O O11 0.642106 0.420596 0.401617
O O12 0.000000 0.885316 0.819874
#
# Coordination Sequence:
#
# PCOD8307946 Si02
#       6
#     4  16  16   8   8  16
#     4  12  24  48  68  86 128 180 204 272 316 362
#     4   8  15  37  62  94 114 155 197 244 313 364
#     4  10  21  38  66  90 125 157 203 260 309 376
#     4  12  26  40  65  92 120 172 221 242 317 381
#     4  10  22  44  69  90 124 166 213 260 305 391
#     4  11  23  42  61  91 122 164 208 255 309 372
#
# _framework density 19.294298000000001
#
# number of rings (size 3 to 8) (size 9 to 14) (size 15 to 20)
#    0.706    1.176    3.529    0.706    3.294    0.941 
#    8.471    0.000    0.000    0.000    0.000    0.000 
#    0.000    0.000    0.000    0.000    0.000    0.000 
#
# Total GULP energy -421205.490661 kJ/mol
# GULP energy per Si atom -12388.396784 kJ/mol
# Density = 1.925038 g / cm^3
# Si number density = 19.294298 Si / 1000 Ang^3
#
#
#
# Elastic Constant Matrix: (Units=GPa)
#
#
# Indices 1 2 3 4 5 6 
#
# 1 101.2609 33.5230 53.3533 0.0000 0.0000 0.0000
# 2 33.5230 101.2609 53.3533 0.0000 0.0000 0.0000
# 3 53.3533 53.3533 126.2690 0.0000 0.0000 0.0000
# 4 0.0000 0.0000 0.0000 23.0419 0.0000 0.0000
# 5 0.0000 0.0000 0.0000 0.0000 23.0419 0.0000
# 6 0.0000 0.0000 0.0000 0.0000 0.0000 56.9869
#
#
#
# Elastic Compliance Matrix: (Units=1/GPa)
#
#
# Indices 1 2 3 4 5 6 
#
# 1 0.012956 -0.001807 -0.004711 0.000000 0.000000 0.000000
# 2 -0.001807 0.012956 -0.004711 0.000000 0.000000 0.000000
# 3 -0.004711 -0.004711 0.011901 0.000000 0.000000 0.000000
# 4 0.000000 0.000000 0.000000 0.043399 0.000000 0.000000
# 5 0.000000 0.000000 0.000000 0.000000 0.043399 0.000000
# 6 0.000000 0.000000 0.000000 0.000000 0.000000 0.017548
#
#
# Mechanical properties :
#
#
# Convention : Reuss Voigt Hill
#
# Bulk Modulus (GPa) = 65.12540 67.69442 66.40991
# Shear Modulus (GPa) = 29.45792 33.18489 31.32140
#
# Velocity S-wave (km/s) = 3.91163 4.15171 4.03345
# Velocity P-wave (km/s) = 7.36397 7.62519 7.49572
#
# Compressibility (1/GPa) = 0.01535499
#
# Stress axis : x y z
#
# Youngs Moduli (GPa) = 77.18582 77.18582 84.02996
#
# Poissons Ratio (x) = 0.13948 0.39584
# Poissons Ratio (y) = 0.13948 0.39584
# Poissons Ratio (z) = 0.36360 0.36360
#
# Static dielectric constant tensor:
#      x y z
#    x 3.358380 0.000000 0.000000 
#    y 0.000000 3.358380 0.000000 
#    z 0.000000 0.000000 3.613480 
# 
# 
# High freq. dielectric constant tensor:
#      x y z
#    x 1.736770 0.000000 0.000000 
#    y 0.000000 1.736770 0.000000 
#    z 0.000000 0.000000 1.756250 
# 
# From -- ./inp_files/1928.got.cif
#   From: 2010.03.12/outbox.cif.g09.slc.cpg/sg109_1_cif.got.tgz:1928.got - 2010.04.14 01:55:16.
