data_PCOD8307927
_publ_section_title
;
Structure prediction by ZEFSAII (Michael W. Deem and Ramdas Pophale) SiO2 
 PCOD8307927
Probable space group: I 41 M D
;
_chemical_formula_sum "Si O2"
_cell_formula_units_Z 48
_cell_length_a 7.819294
_cell_length_b 7.819294
_cell_length_c 37.456796
_cell_angle_alpha 90.000000
_cell_angle_beta 90.000000
_cell_angle_gamma 90.000000
_cell_volume 2290.159398
_symmetry_space_group_name_H-M "I 41 M D"
_symmetry_group_IT_number 109
_symmetry_cell_setting 'tetragonal'
loop_
_space_group_symop_operation_xyz
x,y,z
-y,1/2+x,1/4+z
-x,-y,z
y,1/2-x,1/4+z
-x,y,z
x,-y,z
-y,1/2-x,1/4+z
y,1/2+x,1/4+z
1/2+x,1/2+y,1/2+z
1/2-y,x,3/4+z
1/2-x,1/2-y,1/2+z
1/2+y,-x,3/4+z
1/2-x,1/2+y,1/2+z
1/2+x,1/2-y,1/2+z
1/2-y,-x,3/4+z
1/2+y,x,3/4+z
loop_
_atom_site_type_symbol
_atom_site_label
_atom_site_fract_x
_atom_site_fract_y
_atom_site_fract_z
Si Si1 0.308149 0.196761 0.814590
Si Si2 0.194841 0.000000 0.611032
Si Si3 0.704314 0.000000 0.691719
Si Si4 0.202360 0.812253 0.238618
O O1 0.500000 0.262820 0.825495
O O2 0.235113 0.290701 0.779413
O O3 0.174171 0.220388 0.846567
O O4 0.321344 0.000000 0.804297
O O5 0.212161 0.000000 0.653233
O O6 0.000000 0.000000 0.599174
O O7 0.775634 0.167261 0.712387
O O8 0.500000 0.000000 0.688441
O O9 0.000000 0.794489 0.238980
O O10 0.261055 0.000000 0.224972
#
# Coordination Sequence:
#
# PCOD8307927 Si02
#       4
#    16   8   8  16
#     4  10  20  39  66  93 120 159 213 267 318 379
#     4  12  26  40  56  90 132 170 210 259 325 386
#     4  10  20  38  58  82 120 162 212 264 320 379
#     4   9  17  33  60  89 117 156 208 262 315 378
#
# _framework density 20.959239
#
# number of rings (size 3 to 8) (size 9 to 14) (size 15 to 20)
#    0.000    2.000    1.667    2.500    0.000    3.333 
#    3.000    3.333    0.000    0.000    0.000    0.000 
#    0.000    0.000    0.000    0.000    0.000    0.000 
#
# Total GULP energy -297546.143001 kJ/mol
# GULP energy per Si atom -12397.755958 kJ/mol
# Density = 2.091153 g / cm^3
# Si number density = 20.959239 Si / 1000 Ang^3
#
#
#
# Elastic Constant Matrix: (Units=GPa)
#
#
# Indices 1 2 3 4 5 6 
#
# 1 111.8250 18.7052 46.1180 0.0000 0.0000 0.0000
# 2 18.7052 111.8250 46.1180 0.0000 0.0000 0.0000
# 3 46.1180 46.1180 138.0119 0.0000 0.0000 0.0000
# 4 0.0000 0.0000 0.0000 19.8613 0.0000 0.0000
# 5 0.0000 0.0000 0.0000 0.0000 19.8613 0.0000
# 6 0.0000 0.0000 0.0000 0.0000 0.0000 15.0101
#
#
#
# Elastic Compliance Matrix: (Units=1/GPa)
#
#
# Indices 1 2 3 4 5 6 
#
# 1 0.010384 -0.000355 -0.003351 0.000000 0.000000 0.000000
# 2 -0.000355 0.010384 -0.003351 0.000000 0.000000 0.000000
# 3 -0.003351 -0.003351 0.009486 0.000000 0.000000 0.000000
# 4 0.000000 0.000000 0.000000 0.050349 0.000000 0.000000
# 5 0.000000 0.000000 0.000000 0.000000 0.050349 0.000000
# 6 0.000000 0.000000 0.000000 0.000000 0.000000 0.066622
#
#
# Mechanical properties :
#
#
# Convention : Reuss Voigt Hill
#
# Bulk Modulus (GPa) = 61.96353 64.83826 63.40089
# Shear Modulus (GPa) = 23.03420 27.66124 25.34772
#
# Velocity S-wave (km/s) = 3.31871 3.63680 3.48139
# Velocity P-wave (km/s) = 6.65681 6.97407 6.81729
#
# Compressibility (1/GPa) = 0.01613853
#
# Stress axis : x y z
#
# Youngs Moduli (GPa) = 96.30170 96.30168 105.42373
#
# Poissons Ratio (x) = 0.03417 0.35331
# Poissons Ratio (y) = 0.03417 0.35331
# Poissons Ratio (z) = 0.32274 0.32274
#
# Static dielectric constant tensor:
#      x y z
#    x 3.869820 0.000000 0.000000 
#    y 0.000000 3.869820 0.000000 
#    z 0.000000 0.000000 3.583020 
# 
# 
# High freq. dielectric constant tensor:
#      x y z
#    x 1.817590 0.000000 0.000000 
#    y 0.000000 1.817590 0.000000 
#    z 0.000000 0.000000 1.806420 
# 
# From -- ./inp_files/5253.got.cif
#   From: 2010.03.12/outbox.cif.g09.slc.cpg/sg109_3_cif.got.tgz:5253.got - 2010.04.14 01:55:16.
