data_PCOD8307500
_publ_section_title
;
Structure prediction by ZEFSAII (Michael W. Deem and Ramdas Pophale) SiO2 
 PCOD8307500
Probable space group: I 4 M M
;
_chemical_formula_sum "Si O2"
_cell_formula_units_Z 128
_cell_length_a 17.629810
_cell_length_b 17.629810
_cell_length_c 23.135685
_cell_angle_alpha 90.000000
_cell_angle_beta 90.000000
_cell_angle_gamma 90.000000
_cell_volume 7190.806897
_symmetry_space_group_name_H-M "I 4 M M"
_symmetry_group_IT_number 107
_symmetry_cell_setting 'tetragonal'
loop_
_space_group_symop_operation_xyz
x,y,z
-y,x,z
-x,-y,z
y,-x,z
-x,y,z
x,-y,z
-y,-x,z
y,x,z
1/2+x,1/2+y,1/2+z
1/2-y,1/2+x,1/2+z
1/2-x,1/2-y,1/2+z
1/2+y,1/2-x,1/2+z
1/2-x,1/2+y,1/2+z
1/2+x,1/2-y,1/2+z
1/2-y,1/2-x,1/2+z
1/2+y,1/2+x,1/2+z
loop_
_atom_site_type_symbol
_atom_site_label
_atom_site_fract_x
_atom_site_fract_y
_atom_site_fract_z
Si Si1 0.712464 0.413000 0.568500
Si Si2 0.583377 0.170178 0.897897
Si Si3 0.134153 0.256104 0.942449
Si Si4 0.701879 0.826534 0.288949
Si Si5 0.288322 0.588589 0.116315
Si Si6 0.414635 0.704167 0.324731
Si Si7 0.800270 0.674073 0.659362
Si Si8 0.802309 0.080436 0.486557
O O1 0.689342 0.500000 0.578481
O O2 0.637424 0.362577 0.578193
O O3 0.745295 0.403141 0.504383
O O4 0.779169 0.391564 0.613724
O O5 0.500000 0.127298 0.895617
O O6 0.655009 0.125857 0.925245
O O7 0.603393 0.198226 0.833210
O O8 0.571049 0.239389 0.939468
O O9 0.221408 0.221408 0.942371
O O10 0.086813 0.210342 0.894499
O O11 0.775929 0.775929 0.302707
O O12 0.626967 0.775474 0.295874
O O13 0.703682 0.859755 0.224092
O O14 0.300943 0.500000 0.131032
O O15 0.364154 0.635847 0.134438
O O16 0.212367 0.617550 0.148792
O O17 0.269819 0.604711 0.048909
O O18 0.500000 0.701344 0.301523
O O19 0.373087 0.626914 0.305130
O O20 0.740944 0.740944 0.650597
O O21 0.860682 0.139319 0.460809
O O22 0.844438 0.000000 0.495293
#
# Coordination Sequence:
#
# PCOD8307500 Si02
#       8
#    16  16  16  16  16  16  16  16
#     4  10  20  34  55  80 103 129 159 195 242 294
#     4  10  18  28  47  71  91 117 157 204 245 275
#     4   9  17  31  50  71  99 132 162 193 236 295
#     4   9  18  32  48  66  92 127 165 202 240 286
#     4   9  17  29  47  72 101 132 167 208 251 296
#     4   9  17  29  47  71  97 126 158 195 243 295
#     4   9  18  32  49  69  94 129 171 206 240 290
#     4   9  16  25  39  62  91 120 149 183 226 275
#
# _framework density 17.800505999999999
#
# number of rings (size 3 to 8) (size 9 to 14) (size 15 to 20)
#    0.000    2.750    0.000    3.000    0.000    3.500 
#    0.000    1.250    0.000   12.750    0.000    7.000 
#    0.000    3.000    0.000    0.000    0.000    0.000 
#
# Total GULP energy -792920.886491 kJ/mol
# GULP energy per Si atom -12389.388851 kJ/mol
# Density = 1.775999 g / cm^3
# Si number density = 17.800506 Si / 1000 Ang^3
#
#
#
# Elastic Constant Matrix: (Units=GPa)
#
#
# Indices 1 2 3 4 5 6 
#
# 1 80.8942 15.9651 11.2901 0.0000 0.0000 0.0014
# 2 15.9651 80.8942 11.2901 0.0000 0.0000 -0.0014
# 3 11.2901 11.2901 75.5705 0.0000 0.0000 0.0000
# 4 0.0000 0.0000 0.0000 11.5646 0.0000 0.0000
# 5 0.0000 0.0000 0.0000 0.0000 11.5646 0.0000
# 6 0.0014 -0.0014 0.0000 0.0000 0.0000 11.9532
#
#
#
# Elastic Compliance Matrix: (Units=1/GPa)
#
#
# Indices 1 2 3 4 5 6 
#
# 1 0.013049 -0.002352 -0.001598 0.000000 0.000000 -0.000002
# 2 -0.002352 0.013049 -0.001598 0.000000 0.000000 0.000002
# 3 -0.001598 -0.001598 0.013710 0.000000 0.000000 0.000000
# 4 0.000000 0.000000 0.000000 0.086471 0.000000 0.000000
# 5 0.000000 0.000000 0.000000 0.000000 0.086471 0.000000
# 6 -0.000002 0.000002 0.000000 0.000000 0.000000 0.083660
#
#
# Mechanical properties :
#
#
# Convention : Reuss Voigt Hill
#
# Bulk Modulus (GPa) = 34.82931 34.93884 34.88408
# Shear Modulus (GPa) = 15.76907 20.27074 18.01990
#
# Velocity S-wave (km/s) = 2.97960 3.37823 3.18516
# Velocity P-wave (km/s) = 5.60770 5.90654 5.75906
#
# Compressibility (1/GPa) = 0.02871145
#
# Stress axis : x y z
#
# Youngs Moduli (GPa) = 76.63361 76.63361 72.93857
#
# Poissons Ratio (x) = 0.18027 0.11656
# Poissons Ratio (y) = 0.18027 0.11656
# Poissons Ratio (z) = 0.12247 0.12247
#
# Static dielectric constant tensor:
#      x y z
#    x 3.338660 0.000000 0.000000 
#    y 0.000000 3.338660 0.000000 
#    z 0.000000 0.000000 3.429090 
# 
# 
# High freq. dielectric constant tensor:
#      x y z
#    x 1.665960 0.000000 0.000000 
#    y 0.000000 1.665960 0.000000 
#    z 0.000000 0.000000 1.698170 
# 
# From -- ./inp_files/5457.got.cif
#   From: 2010.03.12/outbox.cif.g09.slc.cpg/sg107_3_cif.got.tgz:5457.got - 2010.04.14 01:49:11.
