data_PCOD8307087
_publ_section_title
;
Structure prediction by ZEFSAII (Michael W. Deem and Ramdas Pophale) SiO2 
 PCOD8307087
Probable space group: P 4 N C 
;
_chemical_formula_sum "Si O2"
_cell_formula_units_Z 36
_cell_length_a 8.237424
_cell_length_b 8.237424
_cell_length_c 23.661123
_cell_angle_alpha 90.000000
_cell_angle_beta 90.000000
_cell_angle_gamma 90.000000
_cell_volume 1605.529149
_symmetry_space_group_name_H-M "P 4 N C "
_symmetry_group_IT_number 104
_symmetry_cell_setting 'tetragonal'
loop_
_space_group_symop_operation_xyz
x,y,z
-y,x,z
-x,-y,z
y,-x,z
1/2-x,1/2+y,1/2+z
1/2+x,1/2-y,1/2+z
1/2-y,1/2-x,1/2+z
1/2+y,1/2+x,1/2+z
loop_
_atom_site_type_symbol
_atom_site_label
_atom_site_fract_x
_atom_site_fract_y
_atom_site_fract_z
Si Si1 0.763224 0.534695 0.987610
Si Si2 0.256980 0.930369 0.772785
Si Si3 0.500000 0.000000 0.587423
Si Si4 0.236776 0.465307 0.687237
Si Si5 0.430369 0.756980 0.402061
O O1 0.636070 0.679060 0.978668
O O2 0.898933 0.585680 0.941475
O O3 0.839719 0.515760 0.049519
O O4 0.414321 0.898934 0.733371
O O5 0.313610 0.911853 0.837423
O O6 0.111486 0.804597 0.759949
O O7 0.515752 0.160281 0.625327
O O8 0.363928 0.320942 0.696179
O O9 0.304597 0.611486 0.414897
#
# Coordination Sequence:
#
# PCOD8307087 Si02
#       5
#     8   8   4   8   8
#     4  11  24  40  61  90 121 159 211 267 320 375
#     4   9  19  38  65  97 133 171 206 243 301 382
#     4  12  24  44  62  80 116 164 208 262 328 392
#     4  11  24  40  61  90 121 159 211 267 320 375
#     4   9  19  38  65  97 133 171 206 243 301 382
#
# _framework density 22.422514
#
# number of rings (size 3 to 8) (size 9 to 14) (size 15 to 20)
#    0.000    1.778    0.000    5.333    0.000    1.778 
#    0.000   12.222    0.000    0.000    0.000    0.000 
#    0.000    0.000    0.000    0.000    0.000    0.000 
#
# Total GULP energy -446078.571963 kJ/mol
# GULP energy per Si atom -12391.071443 kJ/mol
# Density = 2.237148 g / cm^3
# Si number density = 22.422514 Si / 1000 Ang^3
#
#
#
# Elastic Constant Matrix: (Units=GPa)
#
#
# Indices 1 2 3 4 5 6 
#
# 1 95.9951 54.9335 60.2801 0.0000 0.0000 0.0000
# 2 54.9335 95.9951 60.2801 0.0000 0.0000 0.0000
# 3 60.2801 60.2801 150.5402 0.0000 0.0000 0.0000
# 4 0.0000 0.0000 0.0000 9.1096 0.0000 0.0000
# 5 0.0000 0.0000 0.0000 0.0000 9.1096 0.0000
# 6 0.0000 0.0000 0.0000 0.0000 0.0000 48.4964
#
#
#
# Elastic Compliance Matrix: (Units=1/GPa)
#
#
# Indices 1 2 3 4 5 6 
#
# 1 0.017048 -0.007306 -0.003901 0.000000 0.000000 0.000000
# 2 -0.007306 0.017048 -0.003901 0.000000 0.000000 0.000000
# 3 -0.003901 -0.003901 0.009767 0.000000 0.000000 0.000000
# 4 0.000000 0.000000 0.000000 0.109774 0.000000 0.000000
# 5 0.000000 0.000000 0.000000 0.000000 0.109774 0.000000
# 6 0.000000 0.000000 0.000000 0.000000 0.000000 0.020620
#
#
# Mechanical properties :
#
#
# Convention : Reuss Voigt Hill
#
# Bulk Modulus (GPa) = 73.27771 77.05751 75.16761
# Shear Modulus (GPa) = 15.68410 24.47891 20.08150
#
# Velocity S-wave (km/s) = 2.64764 3.30769 2.99590
# Velocity P-wave (km/s) = 6.48830 7.00203 6.75006
#
# Compressibility (1/GPa) = 0.01364671
#
# Stress axis : x y z
#
# Youngs Moduli (GPa) = 58.65930 58.65930 102.38909
#
# Poissons Ratio (x) = 0.42857 0.39939
# Poissons Ratio (y) = 0.42857 0.39939
# Poissons Ratio (z) = 0.22882 0.22882
#
# Static dielectric constant tensor:
#      x y z
#    x 4.047710 0.000000 0.000000 
#    y 0.000000 4.047710 0.000000 
#    z 0.000000 0.000000 3.848280 
# 
# 
# High freq. dielectric constant tensor:
#      x y z
#    x 1.900960 0.000000 0.000000 
#    y 0.000000 1.900960 0.000000 
#    z 0.000000 0.000000 1.874320 
# 
# From -- ./inp_files/1558.got.cif
#   From: 2010.03.12/outbox.cif.g09.slc.cpg/sg104_cif.got.tgz:1558.got - 2010.04.14 01:44:05.
