data_PCOD8307643
_publ_section_title
;
Structure prediction by ZEFSAII (Michael W. Deem and Ramdas Pophale) SiO2 
 PCOD8307643
Probable space group: I 4 M M
;
_chemical_formula_sum "Si O2"
_cell_formula_units_Z 112
_cell_length_a 18.426830
_cell_length_b 18.426830
_cell_length_c 18.065854
_cell_angle_alpha 90.000000
_cell_angle_beta 90.000000
_cell_angle_gamma 90.000000
_cell_volume 6134.225747
_symmetry_space_group_name_H-M "I 4 M M"
_symmetry_group_IT_number 107
_symmetry_cell_setting 'tetragonal'
loop_
_space_group_symop_operation_xyz
x,y,z
-y,x,z
-x,-y,z
y,-x,z
-x,y,z
x,-y,z
-y,-x,z
y,x,z
1/2+x,1/2+y,1/2+z
1/2-y,1/2+x,1/2+z
1/2-x,1/2-y,1/2+z
1/2+y,1/2-x,1/2+z
1/2-x,1/2+y,1/2+z
1/2+x,1/2-y,1/2+z
1/2-y,1/2-x,1/2+z
1/2+y,1/2+x,1/2+z
loop_
_atom_site_type_symbol
_atom_site_label
_atom_site_fract_x
_atom_site_fract_y
_atom_site_fract_z
Si Si1 0.418190 0.300160 0.480320
Si Si2 0.191021 0.079776 0.286837
Si Si3 0.417997 0.830364 0.589084
Si Si4 0.303454 0.085061 0.847230
Si Si5 0.695238 0.419614 0.961070
Si Si6 0.359021 0.915168 0.458935
Si Si7 0.314975 0.804713 0.721717
O O1 0.500000 0.328461 0.475322
O O2 0.368852 0.368852 0.494631
O O3 0.408262 0.246573 0.549210
O O4 0.396405 0.260922 0.404101
O O5 0.119935 0.119935 0.253947
O O6 0.183818 0.074232 0.374067
O O7 0.261858 0.125435 0.268646
O O8 0.196173 0.000000 0.250451
O O9 0.500000 0.837606 0.621605
O O10 0.407743 0.894314 0.529368
O O11 0.355507 0.837126 0.650382
O O12 0.378403 0.110533 0.884662
O O13 0.287730 0.128194 0.771493
O O14 0.307532 0.000000 0.828776
O O15 0.682834 0.500000 0.996198
O O16 0.637389 0.362612 0.995596
O O17 0.776326 0.390853 0.976740
O O18 0.362601 0.000000 0.443333
O O19 0.246519 0.753482 0.700313
#
# Coordination Sequence:
#
# PCOD8307643 Si02
#       7
#    16  16  16  16  16  16  16
#     4   9  18  34  54  77 104 132 164 205 252 303
#     4   9  17  29  46  70  99 130 165 206 251 300
#     4  10  22  36  51  74 105 138 173 215 260 303
#     4  10  21  35  53  77 103 132 169 215 263 309
#     4   9  17  29  48  74 102 134 171 214 261 311
#     4  10  20  35  54  75 102 137 179 220 259 311
#     4  11  21  34  54  77 101 137 177 213 256 312
#
# _framework density 18.258213000000001
#
# number of rings (size 3 to 8) (size 9 to 14) (size 15 to 20)
#    0.000    2.286    1.429    2.571    0.000    5.571 
#    0.000    1.429    0.000    0.000    0.000    2.000 
#    0.000    0.000    0.000    7.429    0.000    0.143 
#
# Total GULP energy -694286.069941 kJ/mol
# GULP energy per Si atom -12397.965535 kJ/mol
# Density = 1.821666 g / cm^3
# Si number density = 18.258213 Si / 1000 Ang^3
#
#
#
# Elastic Constant Matrix: (Units=GPa)
#
#
# Indices 1 2 3 4 5 6 
#
# 1 63.8247 26.2956 4.1127 0.0000 0.0000 -0.0001
# 2 26.2956 63.8247 4.1127 0.0000 0.0000 0.0002
# 3 4.1127 4.1127 53.2054 0.0000 0.0000 0.0000
# 4 0.0000 0.0000 0.0000 18.1486 0.0000 0.0000
# 5 0.0000 0.0000 0.0000 0.0000 18.1486 0.0000
# 6 -0.0001 0.0002 0.0000 0.0000 0.0000 25.2785
#
#
#
# Elastic Compliance Matrix: (Units=1/GPa)
#
#
# Indices 1 2 3 4 5 6 
#
# 1 0.018911 -0.007735 -0.000864 0.000000 0.000000 0.000000
# 2 -0.007735 0.018911 -0.000864 0.000000 0.000000 0.000000
# 3 -0.000864 -0.000864 0.018929 0.000000 0.000000 0.000000
# 4 0.000000 0.000000 0.000000 0.055101 0.000000 0.000000
# 5 0.000000 0.000000 0.000000 0.000000 0.055101 0.000000
# 6 0.000000 0.000000 0.000000 0.000000 0.000000 0.039559
#
#
# Mechanical properties :
#
#
# Convention : Reuss Voigt Hill
#
# Bulk Modulus (GPa) = 26.43855 27.76633 27.10244
# Shear Modulus (GPa) = 21.00446 22.07071 21.53759
#
# Velocity S-wave (km/s) = 3.39545 3.48057 3.43827
# Velocity P-wave (km/s) = 5.46662 5.60295 5.53520
#
# Compressibility (1/GPa) = 0.03782356
#
# Stress axis : x y z
#
# Youngs Moduli (GPa) = 52.88051 52.88051 52.83005
#
# Poissons Ratio (x) = 0.40905 0.04564
# Poissons Ratio (y) = 0.40905 0.04564
# Poissons Ratio (z) = 0.04568 0.04568
#
# Static dielectric constant tensor:
#      x y z
#    x 3.464290 0.000000 0.000000 
#    y 0.000000 3.464290 0.000000 
#    z 0.000000 0.000000 3.089240 
# 
# 
# High freq. dielectric constant tensor:
#      x y z
#    x 1.708560 0.000000 0.000000 
#    y 0.000000 1.708560 0.000000 
#    z 0.000000 0.000000 1.678230 
# 
# From -- ./inp_files/4916.got.cif
#   From: 2010.03.12/outbox.cif.g09.slc.cpg/sg107_3_cif.got.tgz:4916.got - 2010.04.14 01:49:11.
