data_PCOD8307378
_publ_section_title
;
Structure prediction by ZEFSAII (Michael W. Deem and Ramdas Pophale) SiO2 
 PCOD8307378
Probable space group: P 42 M C
;
_chemical_formula_sum "Si O2"
_cell_formula_units_Z 40
_cell_length_a 9.356289
_cell_length_b 9.356289
_cell_length_c 26.086893
_cell_angle_alpha 90.000000
_cell_angle_beta 90.000000
_cell_angle_gamma 90.000000
_cell_volume 2283.650366
_symmetry_space_group_name_H-M "P 42 M C"
_symmetry_group_IT_number 105
_symmetry_cell_setting 'tetragonal'
loop_
_space_group_symop_operation_xyz
x,y,z
-y,x,1/2+z
-x,-y,z
y,-x,1/2+z
-x,y,z
x,-y,z
-y,-x,1/2+z
y,x,1/2+z
loop_
_atom_site_type_symbol
_atom_site_label
_atom_site_fract_x
_atom_site_fract_y
_atom_site_fract_z
Si Si1 0.161420 0.829363 0.189650
Si Si2 0.829776 0.661923 0.592521
Si Si3 0.170074 0.660984 0.784893
Si Si4 0.167772 0.165038 0.494376
Si Si5 0.339807 0.830289 0.397858
O O1 0.253063 0.770812 0.141825
O O2 0.232098 0.768746 0.241877
O O3 0.000000 0.770684 0.185647
O O4 0.161306 0.000000 0.189558
O O5 0.770585 0.500000 0.593363
O O6 0.773903 0.742398 0.541833
O O7 0.000000 0.661741 0.593294
O O8 0.224118 0.500000 0.773492
O O9 0.223364 0.710812 0.841458
O O10 0.000000 0.662442 0.783118
O O11 0.237639 0.228335 0.442562
O O12 0.000000 0.182270 0.487734
O O13 0.209921 0.000000 0.504129
O O14 0.500000 0.775454 0.408605
O O15 0.335640 0.000000 0.398109
#
# Coordination Sequence:
#
# PCOD8307378 Si02
#       5
#     8   8   8   8   8
#     4   9  15  21  31  49  74 104 137 171 205 243
#     4   9  16  25  36  50  72 104 138 170 207 250
#     4   8  13  21  32  47  70 101 134 164 197 243
#     4   9  16  25  38  56  77 101 132 171 209 243
#     4   8  14  24  37  53  75 104 135 166 204 250
#
# _framework density 17.515816000000001
#
# number of rings (size 3 to 8) (size 9 to 14) (size 15 to 20)
#    0.000    3.400    0.000    2.400    0.000    5.600 
#    0.000    4.000    0.000    0.600    0.000    0.000 
#    0.000    1.600    0.000   15.600    0.000   18.800 
#
# Total GULP energy -495718.254195 kJ/mol
# GULP energy per Si atom -12392.956355 kJ/mol
# Density = 1.747595 g / cm^3
# Si number density = 17.515816 Si / 1000 Ang^3
#
#
#
# Elastic Constant Matrix: (Units=GPa)
#
#
# Indices 1 2 3 4 5 6 
#
# 1 58.3973 21.3624 59.5521 0.0000 0.0000 0.0000
# 2 21.3624 58.3973 59.5521 0.0000 0.0000 0.0000
# 3 59.5521 59.5521 197.2461 0.0000 0.0000 0.0000
# 4 0.0000 0.0000 0.0000 6.8473 0.0000 0.0000
# 5 0.0000 0.0000 0.0000 0.0000 6.8473 0.0000
# 6 0.0000 0.0000 0.0000 0.0000 0.0000 3.9063
#
#
#
# Elastic Compliance Matrix: (Units=1/GPa)
#
#
# Indices 1 2 3 4 5 6 
#
# 1 0.024916 -0.002085 -0.006893 0.000000 0.000000 0.000000
# 2 -0.002085 0.024916 -0.006893 0.000000 0.000000 0.000000
# 3 -0.006893 -0.006893 0.009232 0.000000 0.000000 0.000000
# 4 0.000000 0.000000 0.000000 0.146043 0.000000 0.000000
# 5 0.000000 0.000000 0.000000 0.000000 0.146043 0.000000
# 6 0.000000 0.000000 0.000000 0.000000 0.000000 0.255994
#
#
# Mechanical properties :
#
#
# Convention : Reuss Voigt Hill
#
# Bulk Modulus (GPa) = 36.60087 66.10824 51.35456
# Shear Modulus (GPa) = 7.71611 15.09179 11.40395
#
# Velocity S-wave (km/s) = 2.10114 2.93850 2.55437
# Velocity P-wave (km/s) = 5.17954 7.02403 6.17109
#
# Compressibility (1/GPa) = 0.02732176
#
# Stress axis : x y z
#
# Youngs Moduli (GPa) = 40.13441 40.13441 108.31776
#
# Poissons Ratio (x) = 0.08369 0.74664
# Poissons Ratio (y) = 0.08369 0.74664
# Poissons Ratio (z) = 0.27665 0.27665
#
# Static dielectric constant tensor:
#      x y z
#    x 2.911600 0.000000 0.000000 
#    y 0.000000 2.911600 0.000000 
#    z 0.000000 0.000000 3.738170 
# 
# 
# High freq. dielectric constant tensor:
#      x y z
#    x 1.627720 0.000000 0.000000 
#    y 0.000000 1.627720 0.000000 
#    z 0.000000 0.000000 1.699190 
# 
# From -- ./inp_files/4229.got.cif
#   From: 2010.03.12/outbox.cif.g09.slc.cpg/sg105_3_cif.got.tgz:4229.got - 2010.04.14 01:45:32.
