data_PCOD8307017
_publ_section_title
;
Structure prediction by ZEFSAII (Michael W. Deem and Ramdas Pophale) SiO2 
 PCOD8307017
Probable space group: P 4 C C
;
_chemical_formula_sum "Si O2"
_cell_formula_units_Z 28
_cell_length_a 8.259277
_cell_length_b 8.259277
_cell_length_c 19.095365
_cell_angle_alpha 90.000000
_cell_angle_beta 90.000000
_cell_angle_gamma 90.000000
_cell_volume 1302.602861
_symmetry_space_group_name_H-M "P 4 C C"
_symmetry_group_IT_number 103
_symmetry_cell_setting 'tetragonal'
loop_
_space_group_symop_operation_xyz
x,y,z
-y,x,z
-x,-y,z
y,-x,z
-x,y,1/2+z
x,-y,1/2+z
-y,-x,1/2+z
y,x,1/2+z
loop_
_atom_site_type_symbol
_atom_site_label
_atom_site_fract_x
_atom_site_fract_y
_atom_site_fract_z
Si Si1 0.575448 0.242697 0.480920
Si Si2 0.000000 0.500000 0.093393
Si Si3 0.251979 0.919055 0.200242
Si Si4 0.911323 0.251393 0.857976
O O1 0.699431 0.390788 0.484557
O O2 0.607000 0.120258 0.545279
O O3 0.604930 0.143826 0.409226
O O4 0.885441 0.610330 0.142906
O O5 0.318204 0.892696 0.278900
O O6 0.104024 0.799648 0.188208
O O7 0.096329 0.202227 0.871516
#
# Coordination Sequence:
#
# PCOD8307017 Si02
#       4
#     8   4   8   8
#     4  11  24  39  56  84 119 153 192 237 287 345
#     4  12  22  36  58  82 116 160 190 228 286 346
#     4   9  20  38  60  87 114 145 192 242 284 334
#     4   9  19  38  63  87 111 144 191 242 288 340
#
# _framework density 21.495424
#
# number of rings (size 3 to 8) (size 9 to 14) (size 15 to 20)
#    0.000    2.000    0.000    5.143    0.000    5.714 
#    0.000    2.857    0.000    3.429    0.000    0.000 
#    0.000    0.000    0.000    0.000    0.000    0.000 
#
# Total GULP energy -347206.431622 kJ/mol
# GULP energy per Si atom -12400.229701 kJ/mol
# Density = 2.144650 g / cm^3
# Si number density = 21.495424 Si / 1000 Ang^3
#
#
#
# Elastic Constant Matrix: (Units=GPa)
#
#
# Indices 1 2 3 4 5 6 
#
# 1 72.4472 29.0072 57.4133 0.0000 0.0000 0.0000
# 2 29.0072 72.4472 57.4133 0.0000 0.0000 0.0000
# 3 57.4133 57.4133 171.3885 0.0000 0.0000 0.0000
# 4 0.0000 0.0000 0.0000 35.6113 0.0000 0.0000
# 5 0.0000 0.0000 0.0000 0.0000 35.6113 0.0000
# 6 0.0000 0.0000 0.0000 0.0000 0.0000 31.8331
#
#
#
# Elastic Compliance Matrix: (Units=1/GPa)
#
#
# Indices 1 2 3 4 5 6 
#
# 1 0.019448 -0.003572 -0.005318 0.000000 0.000000 0.000000
# 2 -0.003572 0.019448 -0.005318 0.000000 0.000000 0.000000
# 3 -0.005318 -0.005318 0.009398 0.000000 0.000000 0.000000
# 4 0.000000 0.000000 0.000000 0.028081 0.000000 0.000000
# 5 0.000000 0.000000 0.000000 0.000000 0.028081 0.000000
# 6 0.000000 0.000000 0.000000 0.000000 0.000000 0.031414
#
#
# Mechanical properties :
#
#
# Convention : Reuss Voigt Hill
#
# Bulk Modulus (GPa) = 50.31050 67.10559 58.70805
# Shear Modulus (GPa) = 29.25472 32.10775 30.68124
#
# Velocity S-wave (km/s) = 3.69314 3.86904 3.78211
# Velocity P-wave (km/s) = 6.45304 7.15860 6.81496
#
# Compressibility (1/GPa) = 0.01987657
#
# Stress axis : x y z
#
# Youngs Moduli (GPa) = 51.41898 51.41898 106.40777
#
# Poissons Ratio (x) = 0.18368 0.56590
# Poissons Ratio (y) = 0.18368 0.56590
# Poissons Ratio (z) = 0.27346 0.27346
#
# Static dielectric constant tensor:
#      x y z
#    x 3.675540 0.000000 0.000000 
#    y 0.000000 3.675540 0.000000 
#    z 0.000000 0.000000 3.971750 
# 
# 
# High freq. dielectric constant tensor:
#      x y z
#    x 1.833290 0.000000 0.000000 
#    y 0.000000 1.833290 0.000000 
#    z 0.000000 0.000000 1.856970 
# 
# From -- ./inp_files/954.got.cif
#   From: 2010.03.12/outbox.cif.g09.slc.cpg/sg103_cif.got.tgz:954.got - 2010.04.14 01:42:52.
