data_PCOD8307374
_publ_section_title
;
Structure prediction by ZEFSAII (Michael W. Deem and Ramdas Pophale) SiO2 
 PCOD8307374
Probable space group: P 42 M C
;
_chemical_formula_sum "Si O2"
_cell_formula_units_Z 48
_cell_length_a 9.635861
_cell_length_b 9.635861
_cell_length_c 31.174001
_cell_angle_alpha 90.000000
_cell_angle_beta 90.000000
_cell_angle_gamma 90.000000
_cell_volume 2894.500295
_symmetry_space_group_name_H-M "P 42 M C"
_symmetry_group_IT_number 105
_symmetry_cell_setting 'tetragonal'
loop_
_space_group_symop_operation_xyz
x,y,z
-y,x,1/2+z
-x,-y,z
y,-x,1/2+z
-x,y,z
x,-y,z
-y,-x,1/2+z
y,x,1/2+z
loop_
_atom_site_type_symbol
_atom_site_label
_atom_site_fract_x
_atom_site_fract_y
_atom_site_fract_z
Si Si1 0.161133 0.837827 0.241160
Si Si2 0.834908 0.156288 0.584087
Si Si3 0.657247 0.165156 0.160816
Si Si4 0.655333 0.164747 0.819610
Si Si5 0.844859 0.834912 0.989004
Si Si6 0.344171 0.165109 0.914156
O O1 0.254942 0.785021 0.201859
O O2 0.218743 0.759846 0.283274
O O3 0.000000 0.802841 0.231251
O O4 0.180676 0.000000 0.249624
O O5 0.774684 0.265232 0.618641
O O6 0.786848 0.204342 0.536477
O O7 0.000000 0.154407 0.586744
O O8 0.780533 0.000000 0.593856
O O9 0.500000 0.223974 0.162792
O O10 0.654176 0.000000 0.159153
O O11 0.500000 0.220516 0.810177
O O12 0.705457 0.215690 0.866850
O O13 0.653726 0.000000 0.819412
O O14 0.749632 0.768704 0.951763
O O15 0.000000 0.781258 0.980648
O O16 0.840028 0.000000 0.986808
O O17 0.500000 0.216767 0.922344
O O18 0.337004 0.000000 0.916218
#
# Coordination Sequence:
#
# PCOD8307374 Si02
#       6
#     8   8   8   8   8   8
#     4   9  16  25  38  55  72  93 124 159 193 230
#     4   8  13  21  31  43  63  93 127 159 190 228
#     4   9  16  24  34  49  69  93 122 158 198 235
#     4   8  14  24  36  50  69  94 124 157 193 232
#     4   8  13  19  27  41  62  90 123 156 189 224
#     4   8  13  20  29  42  62  88 118 152 187 223
#
# _framework density 16.583172000000001
#
# number of rings (size 3 to 8) (size 9 to 14) (size 15 to 20)
#    0.000    3.667    0.000    2.500    0.000    3.333 
#    0.000    6.667    0.000    0.500    0.000    0.000 
#    0.000    0.000    0.000    1.500    0.000   30.667 
#
# Total GULP energy -594710.997926 kJ/mol
# GULP energy per Si atom -12389.812457 kJ/mol
# Density = 1.654543 g / cm^3
# Si number density = 16.583172 Si / 1000 Ang^3
#
#
#
# Elastic Constant Matrix: (Units=GPa)
#
#
# Indices 1 2 3 4 5 6 
#
# 1 48.9082 20.6689 59.9677 0.0000 0.0000 0.0000
# 2 20.6689 48.9082 59.9677 0.0000 0.0000 0.0000
# 3 59.9677 59.9677 189.5880 0.0000 0.0000 0.0000
# 4 0.0000 0.0000 0.0000 4.3135 0.0000 0.0000
# 5 0.0000 0.0000 0.0000 0.0000 4.3135 0.0000
# 6 0.0000 0.0000 0.0000 0.0000 0.0000 3.3764
#
#
#
# Elastic Compliance Matrix: (Units=1/GPa)
#
#
# Indices 1 2 3 4 5 6 
#
# 1 0.033508 -0.001903 -0.009997 0.000000 0.000000 0.000000
# 2 -0.001903 0.033508 -0.009997 0.000000 0.000000 0.000000
# 3 -0.009997 -0.009997 0.011599 0.000000 0.000000 0.000000
# 4 0.000000 0.000000 0.000000 0.231828 0.000000 0.000000
# 5 0.000000 0.000000 0.000000 0.000000 0.231828 0.000000
# 6 0.000000 0.000000 0.000000 0.000000 0.000000 0.296171
#
#
# Mechanical properties :
#
#
# Convention : Reuss Voigt Hill
#
# Bulk Modulus (GPa) = 28.71825 63.17923 45.94874
# Shear Modulus (GPa) = 5.59382 12.18737 8.89060
#
# Velocity S-wave (km/s) = 1.83862 2.71389 2.31794
# Velocity P-wave (km/s) = 4.67575 6.92830 5.91033
#
# Compressibility (1/GPa) = 0.03482106
#
# Stress axis : x y z
#
# Youngs Moduli (GPa) = 29.84348 29.84348 86.21711
#
# Poissons Ratio (x) = 0.05681 0.86189
# Poissons Ratio (y) = 0.05681 0.86189
# Poissons Ratio (z) = 0.29834 0.29834
#
# Static dielectric constant tensor:
#      x y z
#    x 2.807080 0.000000 0.000000 
#    y 0.000000 2.807080 0.000000 
#    z 0.000000 0.000000 3.616350 
# 
# 
# High freq. dielectric constant tensor:
#      x y z
#    x 1.587560 0.000000 0.000000 
#    y 0.000000 1.587560 0.000000 
#    z 0.000000 0.000000 1.658900 
# 
# From -- ./inp_files/4011.got.cif
#   From: 2010.03.12/outbox.cif.g09.slc.cpg/sg105_3_cif.got.tgz:4011.got - 2010.04.14 01:45:32.
