data_PCOD8307974
_publ_section_title
;
Structure prediction by ZEFSAII (Michael W. Deem and Ramdas Pophale) SiO2 
 PCOD8307974
Probable space group: I 41 M D
;
_chemical_formula_sum "Si O2"
_cell_formula_units_Z 96
_cell_length_a 23.320715
_cell_length_b 23.320715
_cell_length_c 7.942324
_cell_angle_alpha 90.000000
_cell_angle_beta 90.000000
_cell_angle_gamma 90.000000
_cell_volume 4319.478561
_symmetry_space_group_name_H-M "I 41 M D"
_symmetry_group_IT_number 109
_symmetry_cell_setting 'tetragonal'
loop_
_space_group_symop_operation_xyz
x,y,z
-y,1/2+x,1/4+z
-x,-y,z
y,1/2-x,1/4+z
-x,y,z
x,-y,z
-y,1/2-x,1/4+z
y,1/2+x,1/4+z
1/2+x,1/2+y,1/2+z
1/2-y,x,3/4+z
1/2-x,1/2-y,1/2+z
1/2+y,-x,3/4+z
1/2-x,1/2+y,1/2+z
1/2+x,1/2-y,1/2+z
1/2-y,-x,3/4+z
1/2+y,x,3/4+z
loop_
_atom_site_type_symbol
_atom_site_label
_atom_site_fract_x
_atom_site_fract_y
_atom_site_fract_z
Si Si1 0.063850 0.879401 0.253250
Si Si2 0.325782 0.742764 0.965106
Si Si3 0.756930 0.937119 0.035704
Si Si4 0.871827 0.432042 0.133470
Si Si5 0.123946 0.363267 0.813633
Si Si6 0.935814 0.742925 0.910274
O O1 0.063610 0.811121 0.261983
O O2 0.105236 0.901731 0.399377
O O3 0.000000 0.903068 0.287319
O O4 0.083382 0.900282 0.065233
O O5 0.286260 0.713477 0.820411
O O6 0.380365 0.777800 0.887169
O O7 0.356475 0.692850 0.073297
O O8 0.782646 0.932295 0.848935
O O9 0.774335 0.000000 0.115002
O O10 0.876628 0.500000 0.099853
O O11 0.806326 0.410913 0.144506
O O12 0.899463 0.397623 0.977523
O O13 0.100840 0.299080 0.794715
O O14 0.000000 0.742666 0.841029
#
# Coordination Sequence:
#
# PCOD8307974 Si02
#       6
#    16  16  16  16  16  16
#     4   8  16  32  53  80 107 136 186 247 297 346
#     4  11  25  38  54  88 128 169 198 245 319 390
#     4   8  17  36  58  78 108 156 209 253 290 350
#     4   9  18  35  58  79 105 145 190 239 291 348
#     4  11  20  33  56  83 110 149 199 236 287 361
#     4   9  19  34  54  80 112 149 192 243 294 345
#
# _framework density 22.224903999999999
#
# number of rings (size 3 to 8) (size 9 to 14) (size 15 to 20)
#    0.000    2.667    0.000    3.500    2.333    4.667 
#    0.000    2.500    0.000    5.000    0.000    2.333 
#    0.000    4.667    0.000    0.000    0.000    0.000 
#
# Total GULP energy -594686.705776 kJ/mol
# GULP energy per Si atom -12389.306370 kJ/mol
# Density = 2.217432 g / cm^3
# Si number density = 22.224904 Si / 1000 Ang^3
#
#
#
# Elastic Constant Matrix: (Units=GPa)
#
#
# Indices 1 2 3 4 5 6 
#
# 1 44.7664 2.9365 22.0080 0.0000 0.0000 0.0000
# 2 2.9365 44.7664 22.0080 0.0000 0.0000 0.0000
# 3 22.0080 22.0080 101.0067 0.0000 0.0000 0.0000
# 4 0.0000 0.0000 0.0000 25.6603 0.0000 0.0000
# 5 0.0000 0.0000 0.0000 0.0000 25.6603 0.0000
# 6 0.0000 0.0000 0.0000 0.0000 0.0000 14.5047
#
#
#
# Elastic Compliance Matrix: (Units=1/GPa)
#
#
# Indices 1 2 3 4 5 6 
#
# 1 0.025072 0.001166 -0.005717 0.000000 0.000000 0.000000
# 2 0.001166 0.025072 -0.005717 0.000000 0.000000 0.000000
# 3 -0.005717 -0.005717 0.012392 0.000000 0.000000 0.000000
# 4 0.000000 0.000000 0.000000 0.038971 0.000000 0.000000
# 5 0.000000 0.000000 0.000000 0.000000 0.038971 0.000000
# 6 0.000000 0.000000 0.000000 0.000000 0.000000 0.068943
#
#
# Mechanical properties :
#
#
# Convention : Reuss Voigt Hill
#
# Bulk Modulus (GPa) = 23.80941 31.60495 27.70718
# Shear Modulus (GPa) = 20.49544 22.73753 21.61649
#
# Velocity S-wave (km/s) = 3.04004 3.20201 3.12208
# Velocity P-wave (km/s) = 4.80194 5.28411 5.04879
#
# Compressibility (1/GPa) = 0.04200020
#
# Stress axis : x y z
#
# Youngs Moduli (GPa) = 39.88469 39.88469 80.69966
#
# Poissons Ratio (x) = -0.04650 0.46136
# Poissons Ratio (y) = -0.04650 0.46136
# Poissons Ratio (z) = 0.22802 0.22802
#
# Static dielectric constant tensor:
#      x y z
#    x 3.779710 0.000000 0.000000 
#    y 0.000000 3.779710 0.000000 
#    z 0.000000 0.000000 4.242510 
# 
# 
# High freq. dielectric constant tensor:
#      x y z
#    x 1.847120 0.000000 0.000000 
#    y 0.000000 1.847120 0.000000 
#    z 0.000000 0.000000 1.880750 
# 
# From -- ./inp_files/1441.got.cif
#   From: 2010.03.12/outbox.cif.g09.slc.cpg/sg109_1_cif.got.tgz:1441.got - 2010.04.14 01:55:16.
