data_PCOD8307968
_publ_section_title
;
Structure prediction by ZEFSAII (Michael W. Deem and Ramdas Pophale) SiO2 
 PCOD8307968
Probable space group: I 41 M D
;
_chemical_formula_sum "Si O2"
_cell_formula_units_Z 64
_cell_length_a 21.630866
_cell_length_b 21.630866
_cell_length_c 7.036178
_cell_angle_alpha 90.000000
_cell_angle_beta 90.000000
_cell_angle_gamma 90.000000
_cell_volume 3292.188030
_symmetry_space_group_name_H-M "I 41 M D"
_symmetry_group_IT_number 109
_symmetry_cell_setting 'tetragonal'
loop_
_space_group_symop_operation_xyz
x,y,z
-y,1/2+x,1/4+z
-x,-y,z
y,1/2-x,1/4+z
-x,y,z
x,-y,z
-y,1/2-x,1/4+z
y,1/2+x,1/4+z
1/2+x,1/2+y,1/2+z
1/2-y,x,3/4+z
1/2-x,1/2-y,1/2+z
1/2+y,-x,3/4+z
1/2-x,1/2+y,1/2+z
1/2+x,1/2-y,1/2+z
1/2-y,-x,3/4+z
1/2+y,x,3/4+z
loop_
_atom_site_type_symbol
_atom_site_label
_atom_site_fract_x
_atom_site_fract_y
_atom_site_fract_z
Si Si1 0.433582 0.570348 0.375000
Si Si2 0.661637 0.570778 0.073950
Si Si3 0.380129 0.850523 0.914785
Si Si4 0.244690 0.573078 0.398320
O O1 0.500000 0.604951 0.382434
O O2 0.443822 0.500000 0.320493
O O3 0.391775 0.599911 0.208830
O O4 0.400244 0.571735 0.579818
O O5 0.647847 0.500000 0.017987
O O6 0.725469 0.575017 0.189012
O O7 0.663495 0.611546 0.885807
O O8 0.391766 0.786780 0.803439
O O9 0.314935 0.883934 0.880801
O O10 0.233111 0.500000 0.454697
#
# Coordination Sequence:
#
# PCOD8307968 Si02
#       4
#    16  16  16  16
#     4   9  18  32  53  85 119 146 185 243 301 361
#     4   9  19  37  59  83 117 156 195 245 305 361
#     4  11  21  38  59  85 112 160 200 247 302 363
#     4  10  23  41  59  87 121 155 204 258 304 364
#
# _framework density 19.439959000000002
#
# number of rings (size 3 to 8) (size 9 to 14) (size 15 to 20)
#    0.000    2.250    0.000    4.500    0.000    6.000 
#    4.500    2.500    0.000    0.000    0.000    0.000 
#    0.000    0.000    0.000    0.000    0.000    0.000 
#
# Total GULP energy -396421.237242 kJ/mol
# GULP energy per Si atom -12388.163664 kJ/mol
# Density = 1.939571 g / cm^3
# Si number density = 19.439959 Si / 1000 Ang^3
#
#
#
# Elastic Constant Matrix: (Units=GPa)
#
#
# Indices 1 2 3 4 5 6 
#
# 1 88.1523 35.8044 34.2933 0.0000 0.0000 0.0000
# 2 35.8044 88.1523 34.2933 0.0000 0.0000 0.0000
# 3 34.2933 34.2933 130.4601 0.0000 0.0000 0.0000
# 4 0.0000 0.0000 0.0000 18.4788 0.0000 0.0000
# 5 0.0000 0.0000 0.0000 0.0000 18.4788 0.0000
# 6 0.0000 0.0000 0.0000 0.0000 0.0000 31.5174
#
#
#
# Elastic Compliance Matrix: (Units=1/GPa)
#
#
# Indices 1 2 3 4 5 6 
#
# 1 0.014272 -0.004831 -0.002482 0.000000 0.000000 0.000000
# 2 -0.004831 0.014272 -0.002482 0.000000 0.000000 0.000000
# 3 -0.002482 -0.002482 0.008970 0.000000 0.000000 0.000000
# 4 0.000000 0.000000 0.000000 0.054116 0.000000 0.000000
# 5 0.000000 0.000000 0.000000 0.000000 0.054116 0.000000
# 6 0.000000 0.000000 0.000000 0.000000 0.000000 0.031729
#
#
# Mechanical properties :
#
#
# Convention : Reuss Voigt Hill
#
# Bulk Modulus (GPa) = 55.78982 57.28298 56.53640
# Shear Modulus (GPa) = 24.62604 27.18659 25.90632
#
# Velocity S-wave (km/s) = 3.56304 3.74370 3.65448
# Velocity P-wave (km/s) = 6.75928 6.94389 6.85220
#
# Compressibility (1/GPa) = 0.01792442
#
# Stress axis : x y z
#
# Youngs Moduli (GPa) = 70.06882 70.06882 111.48525
#
# Poissons Ratio (x) = 0.33852 0.27666
# Poissons Ratio (y) = 0.33852 0.27666
# Poissons Ratio (z) = 0.17388 0.17388
#
# Static dielectric constant tensor:
#      x y z
#    x 3.660330 0.000000 0.000000 
#    y 0.000000 3.660330 0.000000 
#    z 0.000000 0.000000 3.509980 
# 
# 
# High freq. dielectric constant tensor:
#      x y z
#    x 1.750460 0.000000 0.000000 
#    y 0.000000 1.750460 0.000000 
#    z 0.000000 0.000000 1.756420 
# 
# From -- ./inp_files/465.got.cif
#   From: 2010.03.12/outbox.cif.g09.slc.cpg/sg109_1_cif.got.tgz:465.got - 2010.04.14 01:55:16.
