data_PCOD8307226
_publ_section_title
;
Structure prediction by ZEFSAII (Michael W. Deem and Ramdas Pophale) SiO2 
 PCOD8307226
Probable space group: P 42 M C
;
_chemical_formula_sum "Si O2"
_cell_formula_units_Z 40
_cell_length_a 9.220315
_cell_length_b 9.220315
_cell_length_c 25.627051
_cell_angle_alpha 90.000000
_cell_angle_beta 90.000000
_cell_angle_gamma 90.000000
_cell_volume 2178.663462
_symmetry_space_group_name_H-M "P 42 M C"
_symmetry_group_IT_number 105
_symmetry_cell_setting 'tetragonal'
loop_
_space_group_symop_operation_xyz
x,y,z
-y,x,1/2+z
-x,-y,z
y,-x,1/2+z
-x,y,z
x,-y,z
-y,-x,1/2+z
y,x,1/2+z
loop_
_atom_site_type_symbol
_atom_site_label
_atom_site_fract_x
_atom_site_fract_y
_atom_site_fract_z
Si Si1 0.330463 0.331153 0.436650
Si Si2 0.339894 0.171857 0.745523
Si Si3 0.169898 0.831622 0.845371
Si Si4 0.667478 0.169687 0.629380
Si Si5 0.330292 0.832835 0.040064
O O1 0.500000 0.298223 0.441145
O O2 0.298312 0.500000 0.427018
O O3 0.264691 0.242572 0.389268
O O4 0.255086 0.276371 0.489571
O O5 0.500000 0.232762 0.759597
O O6 0.226839 0.224420 0.789216
O O7 0.293399 0.225061 0.687856
O O8 0.347065 0.000000 0.743610
O O9 0.000000 0.805868 0.846922
O O10 0.210660 0.000000 0.854334
O O11 0.500000 0.205537 0.616681
O O12 0.773062 0.252460 0.590873
O O13 0.697480 0.000000 0.623394
O O14 0.500000 0.810970 0.048437
O O15 0.288475 0.000000 0.031843
#
# Coordination Sequence:
#
# PCOD8307226 Si02
#       5
#     8   8   8   8   8
#     4  10  21  37  56  75  97 131 174 215 257 307
#     4   8  15  30  52  76 103 137 175 211 248 296
#     4  10  20  33  52  79 107 134 167 209 257 306
#     4   9  18  33  54  80 107 136 172 212 254 301
#     4  10  21  36  54  77 104 135 172 213 258 307
#
# _framework density 18.359881999999999
#
# number of rings (size 3 to 8) (size 9 to 14) (size 15 to 20)
#    0.000    2.600    0.000    3.000    0.000    5.600 
#    0.000    3.000    0.000    1.200    0.000    0.000 
#    0.000    0.000    0.000    0.000    0.000    0.000 
#
# Total GULP energy -495990.196140 kJ/mol
# GULP energy per Si atom -12399.754903 kJ/mol
# Density = 1.831809 g / cm^3
# Si number density = 18.359882 Si / 1000 Ang^3
#
#
#
# Elastic Constant Matrix: (Units=GPa)
#
#
# Indices 1 2 3 4 5 6 
#
# 1 78.5518 54.2602 71.4321 0.0000 0.0000 0.0000
# 2 54.2602 78.5518 71.4321 0.0000 0.0000 0.0000
# 3 71.4321 71.4321 163.3649 0.0000 0.0000 0.0000
# 4 0.0000 0.0000 0.0000 36.3066 0.0000 0.0000
# 5 0.0000 0.0000 0.0000 0.0000 36.3066 0.0000
# 6 0.0000 0.0000 0.0000 0.0000 0.0000 28.0326
#
#
#
# Elastic Compliance Matrix: (Units=1/GPa)
#
#
# Indices 1 2 3 4 5 6 
#
# 1 0.027691 -0.013475 -0.006216 0.000000 0.000000 0.000000
# 2 -0.013475 0.027691 -0.006216 0.000000 0.000000 0.000000
# 3 -0.006216 -0.006216 0.011557 0.000000 0.000000 0.000000
# 4 0.000000 0.000000 0.000000 0.027543 0.000000 0.000000
# 5 0.000000 0.000000 0.000000 0.000000 0.027543 0.000000
# 6 0.000000 0.000000 0.000000 0.000000 0.000000 0.035673
#
#
# Mechanical properties :
#
#
# Convention : Reuss Voigt Hill
#
# Bulk Modulus (GPa) = 66.11530 79.41303 72.76417
# Shear Modulus (GPa) = 23.30405 28.35209 25.82807
#
# Velocity S-wave (km/s) = 3.56658 3.93395 3.75476
# Velocity P-wave (km/s) = 7.28351 7.99888 7.64956
#
# Compressibility (1/GPa) = 0.01512509
#
# Stress axis : x y z
#
# Youngs Moduli (GPa) = 36.11255 36.11255 86.52619
#
# Poissons Ratio (x) = 0.48663 0.53784
# Poissons Ratio (y) = 0.48663 0.53784
# Poissons Ratio (z) = 0.22447 0.22447
#
# Static dielectric constant tensor:
#      x y z
#    x 3.166860 0.000000 0.000000 
#    y 0.000000 3.166860 0.000000 
#    z 0.000000 0.000000 3.644050 
# 
# 
# High freq. dielectric constant tensor:
#      x y z
#    x 1.699010 0.000000 0.000000 
#    y 0.000000 1.699010 0.000000 
#    z 0.000000 0.000000 1.727520 
# 
# From -- ./inp_files/3893.got.cif
#   From: 2010.03.12/outbox.cif.g09.slc.cpg/sg105_2_cif.got.tgz:3893.got - 2010.04.14 01:45:32.
