data_PCOD8307379
_publ_section_title
;
Structure prediction by ZEFSAII (Michael W. Deem and Ramdas Pophale) SiO2 
 PCOD8307379
Probable space group: P 42 M C
;
_chemical_formula_sum "Si O2"
_cell_formula_units_Z 40
_cell_length_a 9.409231
_cell_length_b 9.409231
_cell_length_c 25.972471
_cell_angle_alpha 90.000000
_cell_angle_beta 90.000000
_cell_angle_gamma 90.000000
_cell_volume 2299.437086
_symmetry_space_group_name_H-M "P 42 M C"
_symmetry_group_IT_number 105
_symmetry_cell_setting 'tetragonal'
loop_
_space_group_symop_operation_xyz
x,y,z
-y,x,1/2+z
-x,-y,z
y,-x,1/2+z
-x,y,z
x,-y,z
-y,-x,1/2+z
y,x,1/2+z
loop_
_atom_site_type_symbol
_atom_site_label
_atom_site_fract_x
_atom_site_fract_y
_atom_site_fract_z
Si Si1 0.665304 0.334695 0.864140
Si Si2 0.330770 0.159832 0.765490
Si Si3 0.340491 0.669054 0.171171
Si Si4 0.330770 0.159832 0.462790
Si Si5 0.330946 0.340490 0.557109
O O1 0.500000 0.306647 0.875644
O O2 0.693352 0.500000 0.852637
O O3 0.720826 0.246692 0.815228
O O4 0.753308 0.279174 0.913052
O O5 0.500000 0.159477 0.763387
O O6 0.268069 0.234503 0.714174
O O7 0.270577 0.000000 0.768270
O O8 0.500000 0.724719 0.182185
O O9 0.340359 0.500000 0.173937
O O10 0.290563 0.718587 0.114140
O O11 0.500000 0.159476 0.464893
O O12 0.268069 0.234503 0.514106
O O13 0.270577 0.000000 0.460010
O O14 0.500000 0.340359 0.554343
O O15 0.275281 0.500000 0.546096
#
# Coordination Sequence:
#
# PCOD8307379 Si02
#       5
#     8   8   8   8   8
#     4   9  16  26  40  55  74 104 138 169 204 248
#     4   9  16  24  35  53  76 102 135 174 210 243
#     4   8  13  21  33  50  75 107 138 166 201 248
#     4   9  16  24  35  53  76 102 135 174 210 243
#     4   8  13  21  33  50  75 107 138 166 201 248
#
# _framework density 17.39556
#
# number of rings (size 3 to 8) (size 9 to 14) (size 15 to 20)
#    0.000    3.400    0.000    2.400    0.000    5.600 
#    0.000    4.000    0.000    0.600    0.000    0.000 
#    0.000    1.600    0.000   18.400    0.000   23.600 
#
# Total GULP energy -495755.189879 kJ/mol
# GULP energy per Si atom -12393.879747 kJ/mol
# Density = 1.735597 g / cm^3
# Si number density = 17.395560 Si / 1000 Ang^3
#
#
#
# Elastic Constant Matrix: (Units=GPa)
#
#
# Indices 1 2 3 4 5 6 
#
# 1 61.4241 23.0585 63.2768 0.0000 0.0000 0.0000
# 2 23.0585 61.4241 63.2768 0.0000 0.0000 0.0000
# 3 63.2768 63.2768 194.2974 0.0000 0.0000 0.0000
# 4 0.0000 0.0000 0.0000 3.9318 0.0000 0.0000
# 5 0.0000 0.0000 0.0000 0.0000 3.9318 0.0000
# 6 0.0000 0.0000 0.0000 0.0000 0.0000 3.9431
#
#
#
# Elastic Compliance Matrix: (Units=1/GPa)
#
#
# Indices 1 2 3 4 5 6 
#
# 1 0.024588 -0.001477 -0.007527 0.000000 0.000000 0.000000
# 2 -0.001477 0.024588 -0.007527 0.000000 0.000000 0.000000
# 3 -0.007527 -0.007527 0.010049 0.000000 0.000000 0.000000
# 4 0.000000 0.000000 0.000000 0.254334 0.000000 0.000000
# 5 0.000000 0.000000 0.000000 0.000000 0.254334 0.000000
# 6 0.000000 0.000000 0.000000 0.000000 0.000000 0.253611
#
#
# Mechanical properties :
#
#
# Convention : Reuss Voigt Hill
#
# Bulk Modulus (GPa) = 38.21814 68.48556 53.35185
# Shear Modulus (GPa) = 5.79182 13.53025 9.66104
#
# Velocity S-wave (km/s) = 1.82667 2.79193 2.35919
# Velocity P-wave (km/s) = 5.14458 7.06033 6.17717
#
# Compressibility (1/GPa) = 0.02616559
#
# Stress axis : x y z
#
# Youngs Moduli (GPa) = 40.66959 40.66959 99.50980
#
# Poissons Ratio (x) = 0.06005 0.74899
# Poissons Ratio (y) = 0.06005 0.74899
# Poissons Ratio (z) = 0.30611 0.30611
#
# Static dielectric constant tensor:
#      x y z
#    x 2.907990 0.000000 0.000000 
#    y 0.000000 2.907990 0.000000 
#    z 0.000000 0.000000 3.603530 
# 
# 
# High freq. dielectric constant tensor:
#      x y z
#    x 1.621760 0.000000 0.000000 
#    y 0.000000 1.621760 0.000000 
#    z 0.000000 0.000000 1.692850 
# 
# From -- ./inp_files/4222.got.cif
#   From: 2010.03.12/outbox.cif.g09.slc.cpg/sg105_3_cif.got.tgz:4222.got - 2010.04.14 01:45:32.
