data_PCOD8307789
_publ_section_title
;
Structure prediction by ZEFSAII (Michael W. Deem and Ramdas Pophale) SiO2 
 PCOD8307789
Probable space group: I 4 C M
;
_chemical_formula_sum "Si O2"
_cell_formula_units_Z 96
_cell_length_a 21.974968
_cell_length_b 21.974968
_cell_length_c 10.017991
_cell_angle_alpha 90.000000
_cell_angle_beta 90.000000
_cell_angle_gamma 90.000000
_cell_volume 4837.680026
_symmetry_space_group_name_H-M "I 4 C M"
_symmetry_group_IT_number 108
_symmetry_cell_setting 'tetragonal'
loop_
_space_group_symop_operation_xyz
x,y,z
-y,x,z
-x,-y,z
y,-x,z
-x,y,1/2+z
x,-y,1/2+z
-y,-x,1/2+z
y,x,1/2+z
1/2+x,1/2+y,1/2+z
1/2-y,1/2+x,1/2+z
1/2-x,1/2-y,1/2+z
1/2+y,1/2-x,1/2+z
1/2-x,1/2+y,z
1/2+x,1/2-y,z
1/2-y,1/2-x,z
1/2+y,1/2+x,z
loop_
_atom_site_type_symbol
_atom_site_label
_atom_site_fract_x
_atom_site_fract_y
_atom_site_fract_z
Si Si1 0.620914 0.218489 0.582610
Si Si2 0.671164 0.454882 0.780098
Si Si3 0.505631 0.739731 0.514596
Si Si4 0.082885 0.947592 0.067986
Si Si5 0.345550 0.336777 0.950509
Si Si6 0.784361 0.621207 0.890049
O O1 0.666405 0.166405 0.523366
O O2 0.555005 0.218750 0.511324
O O3 0.649606 0.286050 0.566533
O O4 0.608247 0.204802 0.735818
O O5 0.712405 0.480181 0.659513
O O6 0.683562 0.498736 0.907775
O O7 0.600860 0.452424 0.726819
O O8 0.686469 0.385928 0.825012
O O9 0.559031 0.784582 0.471918
O O10 0.018920 0.917276 0.028270
O O11 0.133638 0.904056 0.000863
O O12 0.276882 0.340338 0.905190
O O13 0.839158 0.660843 0.949844
#
# Coordination Sequence:
#
# PCOD8307789 Si02
#       6
#    16  16  16  16  16  16
#     4  10  22  41  65  92 124 164 208 262 322 382
#     4  11  23  39  64  86 122 171 214 263 308 369
#     4  11  22  42  65  93 124 169 211 256 323 385
#     4  11  24  37  54  83 120 171 222 264 304 354
#     4  11  23  38  62  90 127 165 218 262 317 371
#     4  11  23  39  63  94 129 163 207 263 322 378
#
# _framework density 19.844221999999998
#
# number of rings (size 3 to 8) (size 9 to 14) (size 15 to 20)
#    0.000    1.167    3.333    3.500    2.333    0.000 
#    0.000    6.667    0.000    0.500    0.000    2.333 
#    0.000    0.000    0.000    0.000    0.000    0.000 
#
# Total GULP energy -594697.869359 kJ/mol
# GULP energy per Si atom -12389.538945 kJ/mol
# Density = 1.979906 g / cm^3
# Si number density = 19.844222 Si / 1000 Ang^3
#
#
#
# Elastic Constant Matrix: (Units=GPa)
#
#
# Indices 1 2 3 4 5 6 
#
# 1 106.3194 70.2125 30.5347 0.0000 0.0000 0.0001
# 2 70.2125 106.3194 30.5347 0.0000 0.0000 -0.0001
# 3 30.5347 30.5347 71.4556 0.0000 0.0000 0.0000
# 4 0.0000 0.0000 0.0000 24.7167 0.0000 0.0000
# 5 0.0000 0.0000 0.0000 0.0000 24.7167 0.0000
# 6 0.0001 -0.0001 0.0000 0.0000 0.0000 35.5602
#
#
#
# Elastic Compliance Matrix: (Units=1/GPa)
#
#
# Indices 1 2 3 4 5 6 
#
# 1 0.017171 -0.010524 -0.002841 0.000000 0.000000 0.000000
# 2 -0.010524 0.017171 -0.002841 0.000000 0.000000 0.000000
# 3 -0.002841 -0.002841 0.016422 0.000000 0.000000 0.000000
# 4 0.000000 0.000000 0.000000 0.040458 0.000000 0.000000
# 5 0.000000 0.000000 0.000000 0.000000 0.040458 0.000000
# 6 0.000000 0.000000 0.000000 0.000000 0.000000 0.028121
#
#
# Mechanical properties :
#
#
# Convention : Reuss Voigt Hill
#
# Bulk Modulus (GPa) = 54.48162 60.73979 57.61070
# Shear Modulus (GPa) = 25.21022 27.18623 26.19823
#
# Velocity S-wave (km/s) = 3.56814 3.70534 3.63739
# Velocity P-wave (km/s) = 6.67007 6.99863 6.83632
#
# Compressibility (1/GPa) = 0.01835482
#
# Stress axis : x y z
#
# Youngs Moduli (GPa) = 58.23623 58.23623 60.89250
#
# Poissons Ratio (x) = 0.61288 0.17297
# Poissons Ratio (y) = 0.61288 0.17297
# Poissons Ratio (z) = 0.16542 0.16542
#
# Static dielectric constant tensor:
#      x y z
#    x 3.688520 0.000000 0.000000 
#    y 0.000000 3.688520 0.000000 
#    z 0.000000 0.000000 3.665310 
# 
# 
# High freq. dielectric constant tensor:
#      x y z
#    x 1.759760 0.000000 0.000000 
#    y 0.000000 1.759760 0.000000 
#    z 0.000000 0.000000 1.776600 
# 
# From -- ./inp_files/784.got.cif
#   From: 2010.03.12/outbox.cif.g09.slc.cpg/sg108_1_cif.got.tgz:784.got - 2010.04.14 01:53:11.
