data_PCOD8307116
_publ_section_title
;
Structure prediction by ZEFSAII (Michael W. Deem and Ramdas Pophale) SiO2 
 PCOD8307116
Probable space group: P 42 M C
;
_chemical_formula_sum "Si O2"
_cell_formula_units_Z 48
_cell_length_a 7.830442
_cell_length_b 7.830442
_cell_length_c 37.417012
_cell_angle_alpha 90.000000
_cell_angle_beta 90.000000
_cell_angle_gamma 90.000000
_cell_volume 2294.254844
_symmetry_space_group_name_H-M "P 42 M C"
_symmetry_group_IT_number 105
_symmetry_cell_setting 'tetragonal'
loop_
_space_group_symop_operation_xyz
x,y,z
-y,x,1/2+z
-x,-y,z
y,-x,1/2+z
-x,y,z
x,-y,z
-y,-x,1/2+z
y,x,1/2+z
loop_
_atom_site_type_symbol
_atom_site_label
_atom_site_fract_x
_atom_site_fract_y
_atom_site_fract_z
Si Si1 0.700281 0.311450 0.748610
Si Si2 0.186299 0.799406 0.323724
Si Si3 0.204231 0.500000 0.869797
Si Si4 0.696120 0.500000 0.950464
Si Si5 0.500000 0.694733 0.128533
Si Si6 0.806310 0.804466 0.997373
Si Si7 0.802403 0.500000 0.549262
Si Si8 0.812720 0.703824 0.172896
O O1 0.500000 0.327141 0.744260
O O2 0.781318 0.500000 0.753412
O O3 0.743118 0.198809 0.782812
O O4 0.774375 0.226019 0.712698
O O5 0.334854 0.722907 0.348692
O O6 0.000000 0.739118 0.337893
O O7 0.203059 0.000000 0.325483
O O8 0.289605 0.500000 0.908191
O O9 0.000000 0.500000 0.873360
O O10 0.500000 0.500000 0.962496
O O11 0.785663 0.672594 0.964779
O O12 0.500000 0.500000 0.141015
O O13 0.500000 0.700939 0.085963
O O14 0.671184 0.778968 0.145354
O O15 0.671417 0.751887 0.027865
O O16 0.000000 0.789598 0.012366
O O17 0.770726 0.000000 0.984323
O O18 0.000000 0.500000 0.558796
O O19 0.812393 0.500000 0.172528
O O20 0.000000 0.771569 0.161244
#
# Coordination Sequence:
#
# PCOD8307116 Si02
#       8
#     8   8   4   4   4   8   4   8
#     4  10  18  31  55  80 107 147 196 247 296 348
#     4  10  21  37  56  79 112 154 197 242 294 349
#     4  10  22  39  55  81 118 153 191 240 293 355
#     4  12  24  40  67  96 127 157 199 253 306 370
#     4  10  20  33  53  79 112 148 190 240 292 351
#     4  10  22  42  67  93 125 163 202 249 304 367
#     4  10  22  40  61  89 122 155 196 243 299 363
#     4   9  17  31  50  76 110 148 191 242 298 351
#
# _framework density 20.921824000000001
#
# number of rings (size 3 to 8) (size 9 to 14) (size 15 to 20)
#    0.000    2.000    2.500    1.250    1.167    3.000 
#    0.000    2.500    0.000    1.000    0.000    0.000 
#    0.000    0.000    0.000    0.000    0.000    0.000 
#
# Total GULP energy -595047.288923 kJ/mol
# GULP energy per Si atom -12396.818519 kJ/mol
# Density = 2.087421 g / cm^3
# Si number density = 20.921824 Si / 1000 Ang^3
#
#
#
# Elastic Constant Matrix: (Units=GPa)
#
#
# Indices 1 2 3 4 5 6 
#
# 1 135.3170 17.4626 52.2855 0.0000 0.0000 0.0000
# 2 17.4626 135.3170 52.2855 0.0000 0.0000 0.0000
# 3 52.2855 52.2855 143.3821 0.0000 0.0000 0.0000
# 4 0.0000 0.0000 0.0000 7.5960 0.0000 0.0000
# 5 0.0000 0.0000 0.0000 0.0000 7.5960 0.0000
# 6 0.0000 0.0000 0.0000 0.0000 0.0000 15.8915
#
#
#
# Elastic Compliance Matrix: (Units=1/GPa)
#
#
# Indices 1 2 3 4 5 6 
#
# 1 0.008604 0.000119 -0.003181 0.000000 0.000000 0.000000
# 2 0.000119 0.008604 -0.003181 0.000000 0.000000 0.000000
# 3 -0.003181 -0.003181 0.009294 0.000000 0.000000 0.000000
# 4 0.000000 0.000000 0.000000 0.131649 0.000000 0.000000
# 5 0.000000 0.000000 0.000000 0.000000 0.131649 0.000000
# 6 0.000000 0.000000 0.000000 0.000000 0.000000 0.062927
#
#
# Mechanical properties :
#
#
# Convention : Reuss Voigt Hill
#
# Bulk Modulus (GPa) = 71.34630 73.12038 72.23334
# Shear Modulus (GPa) = 13.51777 25.68219 19.59998
#
# Velocity S-wave (km/s) = 2.54462 3.50742 3.06407
# Velocity P-wave (km/s) = 6.54285 7.17132 6.86428
#
# Compressibility (1/GPa) = 0.01401614
#
# Stress axis : x y z
#
# Youngs Moduli (GPa) = 116.22857 116.22857 107.59500
#
# Poissons Ratio (x) = -0.01380 0.34223
# Poissons Ratio (y) = -0.01380 0.34223
# Poissons Ratio (z) = 0.36969 0.36969
#
# Static dielectric constant tensor:
#      x y z
#    x 3.892260 0.000000 0.000000 
#    y 0.000000 3.892260 0.000000 
#    z 0.000000 0.000000 3.506880 
# 
# 
# High freq. dielectric constant tensor:
#      x y z
#    x 1.818720 0.000000 0.000000 
#    y 0.000000 1.818720 0.000000 
#    z 0.000000 0.000000 1.801130 
# 
# From -- ./inp_files/4957.got.cif
#   From: 2010.03.12/outbox.cif.g09.slc.cpg/sg105_3_cif.got.tgz:4957.got - 2010.04.14 01:45:32.
