data_PCOD8307250
_publ_section_title
;
Structure prediction by ZEFSAII (Michael W. Deem and Ramdas Pophale) SiO2 
 PCOD8307250
Probable space group: P 42 M C
;
_chemical_formula_sum "Si O2"
_cell_formula_units_Z 48
_cell_length_a 9.099219
_cell_length_b 9.099219
_cell_length_c 30.814580
_cell_angle_alpha 90.000000
_cell_angle_beta 90.000000
_cell_angle_gamma 90.000000
_cell_volume 2551.317384
_symmetry_space_group_name_H-M "P 42 M C"
_symmetry_group_IT_number 105
_symmetry_cell_setting 'tetragonal'
loop_
_space_group_symop_operation_xyz
x,y,z
-y,x,1/2+z
-x,-y,z
y,-x,1/2+z
-x,y,z
x,-y,z
-y,-x,1/2+z
y,x,1/2+z
loop_
_atom_site_type_symbol
_atom_site_label
_atom_site_fract_x
_atom_site_fract_y
_atom_site_fract_z
Si Si1 0.831697 0.172982 0.504090
Si Si2 0.328419 0.330764 0.580698
Si Si3 0.674730 0.665666 0.831922
Si Si4 0.669681 0.172645 0.746169
Si Si5 0.669050 0.827553 0.169047
Si Si6 0.670251 0.829213 0.916725
O O1 0.728492 0.231346 0.541855
O O2 0.777078 0.241685 0.458939
O O3 0.000000 0.219697 0.513465
O O4 0.814436 0.000000 0.500813
O O5 0.500000 0.302902 0.587461
O O6 0.293636 0.500000 0.569743
O O7 0.246668 0.281312 0.624293
O O8 0.500000 0.670736 0.832775
O O9 0.734948 0.500000 0.829706
O O10 0.731723 0.752512 0.789821
O O11 0.734867 0.741502 0.875575
O O12 0.500000 0.215552 0.737999
O O13 0.765902 0.228238 0.706467
O O14 0.689558 0.000000 0.751426
O O15 0.500000 0.788871 0.179765
O O16 0.694333 0.000000 0.164493
O O17 0.500000 0.792518 0.924802
O O18 0.694737 0.000000 0.906972
#
# Coordination Sequence:
#
# PCOD8307250 Si02
#       6
#     8   8   8   8   8   8
#     4  10  21  36  54  78 109 144 179 216 262 315
#     4  10  21  37  58  82 106 136 176 220 265 314
#     4   9  17  30  51  78 105 135 175 223 269 311
#     4  10  20  34  54  80 109 141 177 216 260 312
#     4  10  21  37  57  80 106 137 174 216 263 315
#     4   9  17  31  52  76 103 137 177 219 263 314
#
# _framework density 18.813811000000001
#
# number of rings (size 3 to 8) (size 9 to 14) (size 15 to 20)
#    0.000    2.333    0.000    2.500    0.000    7.333 
#    0.000    2.500    0.000    3.000    0.000    0.000 
#    0.000    0.000    0.000    0.000    0.000    0.000 
#
# Total GULP energy -595386.809840 kJ/mol
# GULP energy per Si atom -12403.891872 kJ/mol
# Density = 1.877099 g / cm^3
# Si number density = 18.813811 Si / 1000 Ang^3
#
#
#
# Elastic Constant Matrix: (Units=GPa)
#
#
# Indices 1 2 3 4 5 6 
#
# 1 78.9642 39.5339 66.8524 0.0000 0.0000 0.0000
# 2 39.5339 78.9642 66.8524 0.0000 0.0000 0.0000
# 3 66.8524 66.8524 169.8765 0.0000 0.0000 0.0000
# 4 0.0000 0.0000 0.0000 -1.1209 0.0000 0.0000
# 5 0.0000 0.0000 0.0000 0.0000 -1.1209 0.0000
# 6 0.0000 0.0000 0.0000 0.0000 0.0000 24.1090
#
#
#
# Elastic Compliance Matrix: (Units=1/GPa)
#
#
# Indices 1 2 3 4 5 6 
#
# 1 0.020270 -0.005091 -0.005973 0.000000 0.000000 0.000000
# 2 -0.005091 0.020270 -0.005973 0.000000 0.000000 0.000000
# 3 -0.005973 -0.005973 0.010588 0.000000 0.000000 0.000000
# 4 0.000000 0.000000 0.000000 -0.892125 0.000000 0.000000
# 5 0.000000 0.000000 0.000000 0.000000 -0.892125 0.000000
# 6 0.000000 0.000000 0.000000 0.000000 0.000000 0.041478
#
#
# Mechanical properties :
#
#
# Convention : Reuss Voigt Hill
#
# Bulk Modulus (GPa) = 58.64318 74.92024 66.78171
# Shear Modulus (GPa) = -3.02685 14.67784 5.82550
#
# Velocity S-wave (km/s) = -1.26978 2.79617 1.76157
# Velocity P-wave (km/s) = 5.39334 7.09459 6.30164
#
# Compressibility (1/GPa) = 0.01705228
#
# Stress axis : x y z
#
# Youngs Moduli (GPa) = 49.33376 49.33376 94.44499
#
# Poissons Ratio (x) = 0.25116 0.56416
# Poissons Ratio (y) = 0.25116 0.56416
# Poissons Ratio (z) = 0.29469 0.29469
#
# Static dielectric constant tensor:
#      x y z
#    x 3.363200 0.000000 0.000000 
#    y 0.000000 3.363200 0.000000 
#    z 0.000000 0.000000 3.611830 
# 
# 
# High freq. dielectric constant tensor:
#      x y z
#    x 1.720400 0.000000 0.000000 
#    y 0.000000 1.720400 0.000000 
#    z 0.000000 0.000000 1.745400 
# 
# From -- ./inp_files/4666.got.cif
#   From: 2010.03.12/outbox.cif.g09.slc.cpg/sg105_3_cif.got.tgz:4666.got - 2010.04.14 01:45:32.
