data_PCOD8307527
_publ_section_title
;
Structure prediction by ZEFSAII (Michael W. Deem and Ramdas Pophale) SiO2 
 PCOD8307527
Probable space group: I 4 M M
;
_chemical_formula_sum "Si O2"
_cell_formula_units_Z 80
_cell_length_a 14.102523
_cell_length_b 14.102523
_cell_length_c 25.604086
_cell_angle_alpha 90.000000
_cell_angle_beta 90.000000
_cell_angle_gamma 90.000000
_cell_volume 5092.170196
_symmetry_space_group_name_H-M "I 4 M M"
_symmetry_group_IT_number 107
_symmetry_cell_setting 'tetragonal'
loop_
_space_group_symop_operation_xyz
x,y,z
-y,x,z
-x,-y,z
y,-x,z
-x,y,z
x,-y,z
-y,-x,z
y,x,z
1/2+x,1/2+y,1/2+z
1/2-y,1/2+x,1/2+z
1/2-x,1/2-y,1/2+z
1/2+y,1/2-x,1/2+z
1/2-x,1/2+y,1/2+z
1/2+x,1/2-y,1/2+z
1/2-y,1/2-x,1/2+z
1/2+y,1/2+x,1/2+z
loop_
_atom_site_type_symbol
_atom_site_label
_atom_site_fract_x
_atom_site_fract_y
_atom_site_fract_z
Si Si1 0.388722 0.235804 0.555940
Si Si2 0.387539 0.894292 0.462930
Si Si3 0.388722 0.764197 0.253668
Si Si4 0.891566 0.391566 0.654804
Si Si5 0.605708 0.112461 0.846679
O O1 0.500000 0.257271 0.551480
O O2 0.335998 0.335998 0.559632
O O3 0.348775 0.179263 0.505614
O O4 0.364022 0.173910 0.606435
O O5 0.500000 0.898465 0.467337
O O6 0.356866 0.860796 0.404804
O O7 0.347161 0.000000 0.473984
O O8 0.500000 0.742730 0.258128
O O9 0.335998 0.664003 0.249976
O O10 0.364023 0.826091 0.203174
O O11 0.348775 0.820738 0.303995
O O12 0.875502 0.500000 0.672234
O O13 0.000000 0.375501 0.637374
O O14 0.500000 0.152839 0.835625
O O15 0.601535 0.000000 0.842272
#
# Coordination Sequence:
#
# PCOD8307527 Si02
#       5
#    16  16  16  16  16
#     4  10  19  29  42  61  87 117 144 170 203 249
#     4   8  14  26  44  63  81 103 135 176 216 245
#     4  10  19  29  42  61  87 117 144 170 203 249
#     4   9  17  30  48  66  81 101 136 184 232 263
#     4   8  14  26  44  63  81 103 135 176 216 245
#
# _framework density 15.710394000000001
#
# number of rings (size 3 to 8) (size 9 to 14) (size 15 to 20)
#    0.000    3.000    0.000    3.000    0.000    6.000 
#    0.000    0.000    0.000    0.000    0.000    5.600 
#    0.000    7.200    0.000   17.600    0.000    1.600 
#
# Total GULP energy -495835.228008 kJ/mol
# GULP energy per Si atom -12395.880700 kJ/mol
# Density = 1.567464 g / cm^3
# Si number density = 15.710394 Si / 1000 Ang^3
#
#
#
# Elastic Constant Matrix: (Units=GPa)
#
#
# Indices 1 2 3 4 5 6 
#
# 1 65.3127 44.6570 54.1987 0.0000 0.0000 -0.0003
# 2 44.6570 65.3127 54.1987 0.0000 0.0000 0.0003
# 3 54.1987 54.1987 126.9382 0.0000 0.0000 0.0000
# 4 0.0000 0.0000 0.0000 14.4297 0.0000 0.0000
# 5 0.0000 0.0000 0.0000 0.0000 14.4297 0.0000
# 6 -0.0003 0.0003 0.0000 0.0000 0.0000 21.1119
#
#
#
# Elastic Compliance Matrix: (Units=1/GPa)
#
#
# Indices 1 2 3 4 5 6 
#
# 1 0.032057 -0.016355 -0.006704 0.000000 0.000000 0.000001
# 2 -0.016355 0.032057 -0.006704 0.000000 0.000000 -0.000001
# 3 -0.006704 -0.006704 0.013603 0.000000 0.000000 0.000000
# 4 0.000000 0.000000 0.000000 0.069301 0.000000 0.000000
# 5 0.000000 0.000000 0.000000 0.000000 0.069301 0.000000
# 6 0.000001 -0.000001 0.000000 0.000000 0.000000 0.047367
#
#
# Mechanical properties :
#
#
# Convention : Reuss Voigt Hill
#
# Bulk Modulus (GPa) = 54.97643 62.63028 58.80335
# Shear Modulus (GPa) = 15.18476 16.96155 16.07316
#
# Velocity S-wave (km/s) = 3.11230 3.28935 3.20205
# Velocity P-wave (km/s) = 6.92711 7.37418 7.15414
#
# Compressibility (1/GPa) = 0.01818961
#
# Stress axis : x y z
#
# Youngs Moduli (GPa) = 31.19422 31.19422 73.51437
#
# Poissons Ratio (x) = 0.51020 0.49285
# Poissons Ratio (y) = 0.51020 0.49285
# Poissons Ratio (z) = 0.20913 0.20913
#
# Static dielectric constant tensor:
#      x y z
#    x 2.753750 0.000000 0.000000 
#    y 0.000000 2.753750 0.000000 
#    z 0.000000 0.000000 3.284950 
# 
# 
# High freq. dielectric constant tensor:
#      x y z
#    x 1.574680 0.000000 0.000000 
#    y 0.000000 1.574680 0.000000 
#    z 0.000000 0.000000 1.622060 
# 
# From -- ./inp_files/4599.got.cif
#   From: 2010.03.12/outbox.cif.g09.slc.cpg/sg107_3_cif.got.tgz:4599.got - 2010.04.14 01:49:11.
