data_PCOD8307868
_publ_section_title
;
Structure prediction by ZEFSAII (Michael W. Deem and Ramdas Pophale) SiO2 
 PCOD8307868
Probable space group: I 41 M D
;
_chemical_formula_sum "Si O2"
_cell_formula_units_Z 128
_cell_length_a 22.490721
_cell_length_b 22.490721
_cell_length_c 16.131620
_cell_angle_alpha 90.000000
_cell_angle_beta 90.000000
_cell_angle_gamma 90.000000
_cell_volume 8159.898175
_symmetry_space_group_name_H-M "I 41 M D"
_symmetry_group_IT_number 109
_symmetry_cell_setting 'tetragonal'
loop_
_space_group_symop_operation_xyz
x,y,z
-y,1/2+x,1/4+z
-x,-y,z
y,1/2-x,1/4+z
-x,y,z
x,-y,z
-y,1/2-x,1/4+z
y,1/2+x,1/4+z
1/2+x,1/2+y,1/2+z
1/2-y,x,3/4+z
1/2-x,1/2-y,1/2+z
1/2+y,-x,3/4+z
1/2-x,1/2+y,1/2+z
1/2+x,1/2-y,1/2+z
1/2-y,-x,3/4+z
1/2+y,x,3/4+z
loop_
_atom_site_type_symbol
_atom_site_label
_atom_site_fract_x
_atom_site_fract_y
_atom_site_fract_z
Si Si1 0.311818 0.169331 0.809800
Si Si2 0.432035 0.567965 0.789000
Si Si3 0.434025 0.271530 0.007397
Si Si4 0.067542 0.176521 0.180458
Si Si5 0.771529 0.065975 0.070603
Si Si6 0.811817 0.830669 0.518200
Si Si7 0.723519 0.750000 0.414000
Si Si8 0.176521 0.932458 0.397542
O O1 0.303860 0.104296 0.849438
O O2 0.382326 0.180510 0.812207
O O3 0.290962 0.177285 0.715210
O O4 0.269417 0.212822 0.860156
O O5 0.500000 0.578869 0.818074
O O6 0.421131 0.500000 0.759926
O O7 0.417024 0.609465 0.710134
O O8 0.390535 0.582976 0.867865
O O9 0.500000 0.297434 0.029381
O O10 0.434239 0.250000 0.914000
O O11 0.382326 0.319490 0.015793
O O12 0.417998 0.217360 0.068356
O O13 0.082002 0.217360 0.259644
O O14 0.000000 0.182401 0.151845
O O15 0.797434 0.000000 0.048619
O O16 0.769417 0.787178 0.467844
O O17 0.790961 0.822715 0.612790
O O18 0.803860 0.895704 0.478561
O O19 0.182401 0.000000 0.426155
#
# Coordination Sequence:
#
# PCOD8307868 Si02
#       8
#    16  16  16  16  16  16  16  16
#     4  11  19  34  48  70  97 124 162 202 237 293
#     4   9  18  30  44  68 102 138 168 192 228 280
#     4  10  19  29  44  69  97 128 158 191 234 283
#     4  10  20  32  48  68  97 131 162 198 235 280
#     4  10  19  29  44  69  97 128 158 191 234 283
#     4  11  19  34  48  70  97 124 162 202 237 293
#     4  10  22  30  50  72  92 128 156 202 252 278
#     4  10  20  32  48  68  97 131 162 198 235 280
#
# _framework density 15.68647
#
# number of rings (size 3 to 8) (size 9 to 14) (size 15 to 20)
#    0.000    1.875    3.750    1.500    0.000    3.000 
#    0.000    0.625    0.000    0.000    0.000    0.000 
#    0.000    0.000    0.000    0.000    0.000    0.000 
#
# Total GULP energy -793032.695767 kJ/mol
# GULP energy per Si atom -12391.135871 kJ/mol
# Density = 1.565077 g / cm^3
# Si number density = 15.686470 Si / 1000 Ang^3
#
#
#
# Elastic Constant Matrix: (Units=GPa)
#
#
# Indices 1 2 3 4 5 6 
#
# 1 72.3038 39.8309 37.1479 0.0000 0.0000 0.0000
# 2 39.8309 72.3038 37.1479 0.0000 0.0000 0.0000
# 3 37.1479 37.1479 64.8483 0.0000 0.0000 0.0000
# 4 0.0000 0.0000 0.0000 23.3014 0.0000 0.0000
# 5 0.0000 0.0000 0.0000 0.0000 23.3014 0.0000
# 6 0.0000 0.0000 0.0000 0.0000 0.0000 20.2339
#
#
#
# Elastic Compliance Matrix: (Units=1/GPa)
#
#
# Indices 1 2 3 4 5 6 
#
# 1 0.022584 -0.008211 -0.008233 0.000000 0.000000 0.000000
# 2 -0.008211 0.022584 -0.008233 0.000000 0.000000 0.000000
# 3 -0.008233 -0.008233 0.024854 0.000000 0.000000 0.000000
# 4 0.000000 0.000000 0.000000 0.042916 0.000000 0.000000
# 5 0.000000 0.000000 0.000000 0.000000 0.042916 0.000000
# 6 0.000000 0.000000 0.000000 0.000000 0.000000 0.049422
#
#
# Mechanical properties :
#
#
# Convention : Reuss Voigt Hill
#
# Bulk Modulus (GPa) = 48.38936 48.63434 48.51185
# Shear Modulus (GPa) = 19.11901 19.72261 19.42081
#
# Velocity S-wave (km/s) = 3.49495 3.54969 3.52243
# Velocity P-wave (km/s) = 6.87030 6.91894 6.89466
#
# Compressibility (1/GPa) = 0.02066570
#
# Stress axis : x y z
#
# Youngs Moduli (GPa) = 44.27919 44.27919 40.23559
#
# Poissons Ratio (x) = 0.36357 0.33128
# Poissons Ratio (y) = 0.36357 0.33128
# Poissons Ratio (z) = 0.36457 0.36457
#
# Static dielectric constant tensor:
#      x y z
#    x 3.118870 0.000000 0.000000 
#    y 0.000000 3.118870 0.000000 
#    z 0.000000 0.000000 3.000510 
# 
# 
# High freq. dielectric constant tensor:
#      x y z
#    x 1.598400 0.000000 0.000000 
#    y 0.000000 1.598400 0.000000 
#    z 0.000000 0.000000 1.580130 
# 
# From -- ./inp_files/3325.got.cif
#   From: 2010.03.12/outbox.cif.g09.slc.cpg/sg109_2_cif.got.tgz:3325.got - 2010.04.14 01:55:16.
