data_PCOD8307076
_publ_section_title
;
Structure prediction by ZEFSAII (Michael W. Deem and Ramdas Pophale) SiO2 
 PCOD8307076
Probable space group: P 4 N C 
;
_chemical_formula_sum "Si O2"
_cell_formula_units_Z 40
_cell_length_a 11.700341
_cell_length_b 11.700341
_cell_length_c 15.111095
_cell_angle_alpha 90.000000
_cell_angle_beta 90.000000
_cell_angle_gamma 90.000000
_cell_volume 2068.678374
_symmetry_space_group_name_H-M "P 4 N C "
_symmetry_group_IT_number 104
_symmetry_cell_setting 'tetragonal'
loop_
_space_group_symop_operation_xyz
x,y,z
-y,x,z
-x,-y,z
y,-x,z
1/2-x,1/2+y,1/2+z
1/2+x,1/2-y,1/2+z
1/2-y,1/2-x,1/2+z
1/2+y,1/2+x,1/2+z
loop_
_atom_site_type_symbol
_atom_site_label
_atom_site_fract_x
_atom_site_fract_y
_atom_site_fract_z
Si Si1 0.312575 0.127521 0.523080
Si Si2 0.181882 0.986191 0.770577
Si Si3 0.504577 0.865102 0.663802
Si Si4 0.231902 0.394032 0.095692
Si Si5 0.401659 0.081531 0.844078
O O1 0.407658 0.180948 0.589607
O O2 0.192896 0.186568 0.544917
O O3 0.341644 0.153377 0.421011
O O4 0.310730 0.989394 0.526742
O O5 0.197782 0.970680 0.665676
O O6 0.104618 0.878969 0.799229
O O7 0.306155 0.989836 0.813469
O O8 0.374880 0.824137 0.641323
O O9 0.552958 0.837128 0.762833
O O10 0.500000 0.000000 0.660196
O O11 0.500000 0.000000 0.882804
#
# Coordination Sequence:
#
# PCOD8307076 Si02
#       5
#     8   8   8   8   8
#     4  11  23  35  59  91 119 152 197 245 303 352
#     4  11  21  36  64  89 117 153 200 256 308 350
#     4   9  18  37  55  80 114 158 195 235 289 350
#     4  11  19  38  59  87 123 153 194 254 296 354
#     4  11  20  37  59  84 122 159 201 244 289 365
#
# _framework density 19.336016999999998
#
# number of rings (size 3 to 8) (size 9 to 14) (size 15 to 20)
#    0.000    1.400    8.000    1.800    0.000    3.600 
#    3.600    0.000    0.000    0.600    0.000    0.000 
#    0.000    0.000    0.000    0.000    0.000    0.000 
#
# Total GULP energy -495627.932156 kJ/mol
# GULP energy per Si atom -12390.698304 kJ/mol
# Density = 1.929201 g / cm^3
# Si number density = 19.336017 Si / 1000 Ang^3
#
#
#
# Elastic Constant Matrix: (Units=GPa)
#
#
# Indices 1 2 3 4 5 6 
#
# 1 82.8570 34.8553 36.7715 0.0000 0.0000 0.0000
# 2 34.8553 82.8570 36.7715 0.0000 0.0000 0.0000
# 3 36.7715 36.7715 127.7869 0.0000 0.0000 0.0000
# 4 0.0000 0.0000 0.0000 20.8921 0.0000 0.0000
# 5 0.0000 0.0000 0.0000 0.0000 20.8921 0.0000
# 6 0.0000 0.0000 0.0000 0.0000 0.0000 21.6197
#
#
#
# Elastic Compliance Matrix: (Units=1/GPa)
#
#
# Indices 1 2 3 4 5 6 
#
# 1 0.015595 -0.005238 -0.002980 0.000000 0.000000 0.000000
# 2 -0.005238 0.015595 -0.002980 0.000000 0.000000 0.000000
# 3 -0.002980 -0.002980 0.009541 0.000000 0.000000 0.000000
# 4 0.000000 0.000000 0.000000 0.047865 0.000000 0.000000
# 5 0.000000 0.000000 0.000000 0.000000 0.047865 0.000000
# 6 0.000000 0.000000 0.000000 0.000000 0.000000 0.046254
#
#
# Mechanical properties :
#
#
# Convention : Reuss Voigt Hill
#
# Bulk Modulus (GPa) = 54.54376 56.69973 55.62175
# Shear Modulus (GPa) = 23.67169 25.02096 24.34632
#
# Velocity S-wave (km/s) = 3.50269 3.60113 3.55225
# Velocity P-wave (km/s) = 6.68043 6.83212 6.75670
#
# Compressibility (1/GPa) = 0.01833390
#
# Stress axis : x y z
#
# Youngs Moduli (GPa) = 64.12321 64.12321 104.81314
#
# Poissons Ratio (x) = 0.33585 0.31238
# Poissons Ratio (y) = 0.33585 0.31238
# Poissons Ratio (z) = 0.19111 0.19111
#
# Static dielectric constant tensor:
#      x y z
#    x 3.567620 0.000000 0.000000 
#    y 0.000000 3.567620 0.000000 
#    z 0.000000 0.000000 3.671020 
# 
# 
# High freq. dielectric constant tensor:
#      x y z
#    x 1.734880 0.000000 0.000000 
#    y 0.000000 1.734880 0.000000 
#    z 0.000000 0.000000 1.746700 
# 
# From -- ./inp_files/1196.got.cif
#   From: 2010.03.12/outbox.cif.g09.slc.cpg/sg104_cif.got.tgz:1196.got - 2010.04.14 01:44:05.
