data_PCOD8307293
_publ_section_title
;
Structure prediction by ZEFSAII (Michael W. Deem and Ramdas Pophale) SiO2 
 PCOD8307293
Probable space group: P 42 M C
;
_chemical_formula_sum "Si O2"
_cell_formula_units_Z 48
_cell_length_a 9.722637
_cell_length_b 9.722637
_cell_length_c 26.955719
_cell_angle_alpha 90.000000
_cell_angle_beta 90.000000
_cell_angle_gamma 90.000000
_cell_volume 2548.115228
_symmetry_space_group_name_H-M "P 42 M C"
_symmetry_group_IT_number 105
_symmetry_cell_setting 'tetragonal'
loop_
_space_group_symop_operation_xyz
x,y,z
-y,x,1/2+z
-x,-y,z
y,-x,1/2+z
-x,y,z
x,-y,z
-y,-x,1/2+z
y,x,1/2+z
loop_
_atom_site_type_symbol
_atom_site_label
_atom_site_fract_x
_atom_site_fract_y
_atom_site_fract_z
Si Si1 0.343497 0.655294 0.665980
Si Si2 0.000000 0.834686 0.025486
Si Si3 0.500000 0.338344 0.986799
Si Si4 0.754132 0.840037 0.843693
Si Si5 0.500000 0.334686 0.872679
Si Si6 0.745868 0.659963 0.054473
Si Si7 0.000000 0.838345 0.911366
Si Si8 0.156503 0.155294 0.232185
O O1 0.500000 0.684051 0.681123
O O2 0.300927 0.500000 0.678228
O O3 0.322594 0.679119 0.607964
O O4 0.253226 0.753226 0.699083
O O5 0.870852 0.765599 0.051899
O O6 0.000000 0.000000 0.032630
O O7 0.000000 0.790083 0.968005
O O8 0.500000 0.500000 0.992331
O O9 0.362862 0.284972 0.013826
O O10 0.500000 0.290081 0.930160
O O11 0.629148 0.734400 0.846267
O O12 0.820881 0.822594 0.790201
O O13 0.862862 0.784972 0.884339
O O14 0.710295 0.000000 0.852989
O O15 0.500000 0.500000 0.865536
O O16 0.789704 0.500000 0.045176
O O17 0.000000 0.000000 0.905834
O O18 0.000000 0.184050 0.217042
O O19 0.199074 0.000000 0.219937
#
# Coordination Sequence:
#
# PCOD8307293 Si02
#       8
#     8   4   4   8   4   8   4   8
#     4  10  22  40  62  86 112 149 193 239 292 347
#     4  11  23  35  55  91 125 153 189 243 288 333
#     4   9  18  37  63  85 115 155 199 237 286 349
#     4  10  20  39  62  83 113 156 198 238 287 346
#     4  11  23  35  55  91 125 153 189 243 288 333
#     4  10  20  39  62  83 113 156 198 238 287 346
#     4   9  18  37  63  85 115 155 199 237 286 349
#     4  10  22  40  62  86 112 149 193 239 292 347
#
# _framework density 18.837454000000001
#
# number of rings (size 3 to 8) (size 9 to 14) (size 15 to 20)
#    0.000    2.000    1.667    1.500    2.333    2.000 
#    0.000    2.500    0.000    0.000    0.000    0.000 
#    0.000    0.000    0.000    0.000    0.000    0.000 
#
# Total GULP energy -595205.129718 kJ/mol
# GULP energy per Si atom -12400.106869 kJ/mol
# Density = 1.879458 g / cm^3
# Si number density = 18.837454 Si / 1000 Ang^3
#
#
#
# Elastic Constant Matrix: (Units=GPa)
#
#
# Indices 1 2 3 4 5 6 
#
# 1 94.3976 76.7867 33.4056 0.0000 0.0000 0.0000
# 2 76.7867 94.3976 33.4056 0.0000 0.0000 0.0000
# 3 33.4056 33.4056 60.9758 0.0000 0.0000 0.0000
# 4 0.0000 0.0000 0.0000 37.9348 0.0000 0.0000
# 5 0.0000 0.0000 0.0000 0.0000 37.9348 0.0000
# 6 0.0000 0.0000 0.0000 0.0000 0.0000 7.0782
#
#
#
# Elastic Compliance Matrix: (Units=1/GPa)
#
#
# Indices 1 2 3 4 5 6 
#
# 1 0.032107 -0.024676 -0.004071 0.000000 0.000000 0.000000
# 2 -0.024676 0.032107 -0.004071 0.000000 0.000000 0.000000
# 3 -0.004071 -0.004071 0.020860 0.000000 0.000000 0.000000
# 4 0.000000 0.000000 0.000000 0.026361 0.000000 0.000000
# 5 0.000000 0.000000 0.000000 0.000000 0.026361 0.000000
# 6 0.000000 0.000000 0.000000 0.000000 0.000000 0.141279
#
#
# Mechanical properties :
#
#
# Convention : Reuss Voigt Hill
#
# Bulk Modulus (GPa) = 51.44538 59.66298 55.55418
# Shear Modulus (GPa) = 14.23732 23.66777 18.95254
#
# Velocity S-wave (km/s) = 2.75216 3.54845 3.17536
# Velocity P-wave (km/s) = 6.12116 6.96634 6.55738
#
# Compressibility (1/GPa) = 0.01943809
#
# Stress axis : x y z
#
# Youngs Moduli (GPa) = 31.14615 31.14615 47.93803
#
# Poissons Ratio (x) = 0.76857 0.19514
# Poissons Ratio (y) = 0.76857 0.19514
# Poissons Ratio (z) = 0.12679 0.12679
#
# Static dielectric constant tensor:
#      x y z
#    x 3.589230 0.000000 0.000000 
#    y 0.000000 3.589230 0.000000 
#    z 0.000000 0.000000 3.558240 
# 
# 
# High freq. dielectric constant tensor:
#      x y z
#    x 1.729740 0.000000 0.000000 
#    y 0.000000 1.729740 0.000000 
#    z 0.000000 0.000000 1.741290 
# 
# From -- ./inp_files/4918.got.cif
#   From: 2010.03.12/outbox.cif.g09.slc.cpg/sg105_3_cif.got.tgz:4918.got - 2010.04.14 01:45:32.
