data_PCOD8307676
_publ_section_title
;
Structure prediction by ZEFSAII (Michael W. Deem and Ramdas Pophale) SiO2 
 PCOD8307676
Probable space group: I 4 M M
;
_chemical_formula_sum "Si O2"
_cell_formula_units_Z 96
_cell_length_a 23.200524
_cell_length_b 23.200524
_cell_length_c 9.869706
_cell_angle_alpha 90.000000
_cell_angle_beta 90.000000
_cell_angle_gamma 90.000000
_cell_volume 5312.510528
_symmetry_space_group_name_H-M "I 4 M M"
_symmetry_group_IT_number 107
_symmetry_cell_setting 'tetragonal'
loop_
_space_group_symop_operation_xyz
x,y,z
-y,x,z
-x,-y,z
y,-x,z
-x,y,z
x,-y,z
-y,-x,z
y,x,z
1/2+x,1/2+y,1/2+z
1/2-y,1/2+x,1/2+z
1/2-x,1/2-y,1/2+z
1/2+y,1/2-x,1/2+z
1/2-x,1/2+y,1/2+z
1/2+x,1/2-y,1/2+z
1/2-y,1/2-x,1/2+z
1/2+y,1/2+x,1/2+z
loop_
_atom_site_type_symbol
_atom_site_label
_atom_site_fract_x
_atom_site_fract_y
_atom_site_fract_z
Si Si1 0.317693 0.000000 0.875000
Si Si2 0.621421 0.712257 0.711904
Si Si3 0.286286 0.378670 0.026917
Si Si4 0.754344 0.000000 0.620793
Si Si5 0.000000 0.337683 0.398072
Si Si6 0.377271 0.882325 0.844416
Si Si7 0.671665 0.822665 0.594864
Si Si8 0.251440 0.000000 0.151162
O O1 0.261243 0.000000 0.779373
O O2 0.360058 0.947988 0.846642
O O3 0.295306 0.000000 0.027490
O O4 0.648414 0.648414 0.697131
O O5 0.663424 0.755642 0.630684
O O6 0.557190 0.711631 0.648880
O O7 0.618885 0.731395 0.868957
O O8 0.347685 0.347685 0.047863
O O9 0.291598 0.443357 0.084650
O O10 0.238016 0.342595 0.109315
O O11 0.693474 0.000000 0.543078
O O12 0.056331 0.377217 0.388369
O O13 0.000000 0.288283 0.286527
O O14 0.370072 0.858849 0.692712
O O15 0.334181 0.847242 0.941407
#
# Coordination Sequence:
#
# PCOD8307676 Si02
#       8
#     8  16  16   8   8  16  16   8
#     4  12  24  35  56  84 118 151 200 234 294 332
#     4  11  22  36  60  88 113 149 192 236 294 356
#     4  11  22  36  60  88 113 149 192 236 294 356
#     4  12  20  40  58  82 115 154 187 241 287 356
#     4  12  20  39  60  72 114 161 208 228 282 330
#     4  12  22  35  59  80 110 160 198 240 273 339
#     4  12  19  38  54  85 114 144 192 243 292 336
#     4  12  20  40  58  82 115 154 187 241 287 356
#
# _framework density 18.070551999999999
#
# number of rings (size 3 to 8) (size 9 to 14) (size 15 to 20)
#    0.000    0.333   10.000    0.500    0.000    0.333 
#    0.000    2.500    0.000    4.500    0.000    2.333 
#    0.000    1.333    0.000    0.000    0.000    0.000 
#
# Total GULP energy -595355.899303 kJ/mol
# GULP energy per Si atom -12403.247902 kJ/mol
# Density = 1.802942 g / cm^3
# Si number density = 18.070552 Si / 1000 Ang^3
#
#
#
# Elastic Constant Matrix: (Units=GPa)
#
#
# Indices 1 2 3 4 5 6 
#
# 1 95.4249 54.1809 12.9335 0.0000 0.0000 0.0000
# 2 54.1809 95.4249 12.9335 0.0000 0.0000 0.0000
# 3 12.9335 12.9335 42.0674 0.0000 0.0000 0.0000
# 4 0.0000 0.0000 0.0000 -14.4992 0.0000 0.0000
# 5 0.0000 0.0000 0.0000 0.0000 -14.4992 0.0000
# 6 0.0000 0.0000 0.0000 0.0000 0.0000 -14.3907
#
#
#
# Elastic Compliance Matrix: (Units=1/GPa)
#
#
# Indices 1 2 3 4 5 6 
#
# 1 0.015653 -0.008593 -0.002170 0.000000 0.000000 0.000000
# 2 -0.008593 0.015653 -0.002170 0.000000 0.000000 0.000000
# 3 -0.002170 -0.002170 0.025106 0.000000 0.000000 0.000000
# 4 0.000000 0.000000 0.000000 -0.068969 0.000000 0.000000
# 5 0.000000 0.000000 0.000000 0.000000 -0.068969 0.000000
# 6 0.000000 0.000000 0.000000 0.000000 0.000000 -0.069489
#
#
# Mechanical properties :
#
#
# Convention : Reuss Voigt Hill
#
# Bulk Modulus (GPa) = 32.74046 43.66812 38.20429
# Shear Modulus (GPa) = -43.49077 1.51344 -20.98866
#
# Velocity S-wave (km/s) = -4.91116 0.91615 -3.41175
# Velocity P-wave (km/s) = 3.74190 5.03358 2.38066
#
# Compressibility (1/GPa) = 0.03054325
#
# Stress axis : x y z
#
# Youngs Moduli (GPa) = 63.88658 63.88658 39.83119
#
# Poissons Ratio (x) = 0.54899 0.08645
# Poissons Ratio (y) = 0.54899 0.08645
# Poissons Ratio (z) = 0.13866 0.13866
#
# Static dielectric constant tensor:
#      x y z
#    x 3.372910 0.000000 0.000000 
#    y 0.000000 3.372910 0.000000 
#    z 0.000000 0.000000 3.456010 
# 
# 
# High freq. dielectric constant tensor:
#      x y z
#    x 1.686520 0.000000 0.000000 
#    y 0.000000 1.686520 0.000000 
#    z 0.000000 0.000000 1.707280 
# 
# From -- ./inp_files/1558.got.cif
#   From: 2010.03.12/outbox.cif.g09.slc.cpg/sg107_1_cif.got.tgz:1558.got - 2010.04.14 01:49:11.
