data_PCOD8307744
_publ_section_title
;
Structure prediction by ZEFSAII (Michael W. Deem and Ramdas Pophale) SiO2 
 PCOD8307744
Probable space group: I 4 C M
;
_chemical_formula_sum "Si O2"
_cell_formula_units_Z 128
_cell_length_a 19.890248
_cell_length_b 19.890248
_cell_length_c 17.115451
_cell_angle_alpha 90.000000
_cell_angle_beta 90.000000
_cell_angle_gamma 90.000000
_cell_volume 6771.248365
_symmetry_space_group_name_H-M "I 4 C M"
_symmetry_group_IT_number 108
_symmetry_cell_setting 'tetragonal'
loop_
_space_group_symop_operation_xyz
x,y,z
-y,x,z
-x,-y,z
y,-x,z
-x,y,1/2+z
x,-y,1/2+z
-y,-x,1/2+z
y,x,1/2+z
1/2+x,1/2+y,1/2+z
1/2-y,1/2+x,1/2+z
1/2-x,1/2-y,1/2+z
1/2+y,1/2-x,1/2+z
1/2-x,1/2+y,z
1/2+x,1/2-y,z
1/2-y,1/2-x,z
1/2+y,1/2+x,z
loop_
_atom_site_type_symbol
_atom_site_label
_atom_site_fract_x
_atom_site_fract_y
_atom_site_fract_z
Si Si1 0.493762 0.604060 0.059460
Si Si2 0.645150 0.254620 0.248610
Si Si3 0.035350 0.753768 0.875886
Si Si4 0.506238 0.395940 0.874737
Si Si5 0.645151 0.254621 0.685590
Si Si6 0.160311 0.448071 0.151689
Si Si7 0.535350 0.746232 0.058314
Si Si8 0.160312 0.448069 0.782513
O O1 0.429817 0.562898 0.092401
O O2 0.490461 0.681818 0.083847
O O3 0.495189 0.598554 0.967099
O O4 0.707729 0.207729 0.268934
O O5 0.604895 0.261044 0.329479
O O6 0.673715 0.326284 0.217100
O O7 0.597355 0.221150 0.183691
O O8 0.990461 0.818182 0.850351
O O9 0.991929 0.687706 0.855036
O O10 0.053256 0.752291 0.967100
O O11 0.570183 0.437102 0.841796
O O12 0.707730 0.207730 0.665266
O O13 0.604896 0.261045 0.604722
O O14 0.597357 0.221152 0.750510
O O15 0.097986 0.402015 0.123939
O O16 0.187706 0.491931 0.079166
O O17 0.134302 0.500001 0.217101
O O18 0.097989 0.402012 0.810266
#
# Coordination Sequence:
#
# PCOD8307744 Si02
#       8
#    16  16  16  16  16  16  16  16
#     4   8  15  28  45  68 103 142 175 211 261 321
#     4   9  19  36  55  74 104 146 185 224 275 338
#     4  10  20  32  54  84 110 141 180 234 285 328
#     4   8  15  28  45  68 103 142 175 211 261 321
#     4   9  19  36  55  74 104 146 185 224 275 338
#     4   9  19  36  55  77 106 143 186 229 280 343
#     4  10  20  32  54  84 110 141 180 234 285 328
#     4   9  19  36  55  77 106 143 186 229 280 343
#
# _framework density 18.903457
#
# number of rings (size 3 to 8) (size 9 to 14) (size 15 to 20)
#    0.000    3.000    0.000    0.750    3.500    1.250 
#    0.000    0.000    0.000    4.500    0.000    7.000 
#    0.000    0.000    0.000    0.000    0.000    0.000 
#
# Total GULP energy -793110.040360 kJ/mol
# GULP energy per Si atom -12392.344381 kJ/mol
# Density = 1.886043 g / cm^3
# Si number density = 18.903457 Si / 1000 Ang^3
#
#
#
# Elastic Constant Matrix: (Units=GPa)
#
#
# Indices 1 2 3 4 5 6 
#
# 1 97.9082 44.7973 41.4829 0.0000 0.0000 -0.0005
# 2 44.7973 97.9082 41.4829 0.0000 0.0000 0.0005
# 3 41.4829 41.4829 80.7382 0.0000 0.0000 0.0000
# 4 0.0000 0.0000 0.0000 19.1411 0.0000 0.0000
# 5 0.0000 0.0000 0.0000 0.0000 19.1411 0.0000
# 6 -0.0005 0.0005 0.0000 0.0000 0.0000 35.5225
#
#
#
# Elastic Compliance Matrix: (Units=1/GPa)
#
#
# Indices 1 2 3 4 5 6 
#
# 1 0.014410 -0.004418 -0.005134 0.000000 0.000000 0.000000
# 2 -0.004418 0.014410 -0.005134 0.000000 0.000000 0.000000
# 3 -0.005134 -0.005134 0.017661 0.000000 0.000000 0.000000
# 4 0.000000 0.000000 0.000000 0.052244 0.000000 0.000000
# 5 0.000000 0.000000 0.000000 0.000000 0.052244 0.000000
# 6 0.000000 0.000000 0.000000 0.000000 0.000000 0.028151
#
#
# Mechanical properties :
#
#
# Convention : Reuss Voigt Hill
#
# Bulk Modulus (GPa) = 58.44562 59.12010 58.78286
# Shear Modulus (GPa) = 23.34312 24.68037 24.01175
#
# Velocity S-wave (km/s) = 3.51787 3.61723 3.56790
# Velocity P-wave (km/s) = 6.89098 6.98487 6.93809
#
# Compressibility (1/GPa) = 0.01710992
#
# Stress axis : x y z
#
# Youngs Moduli (GPa) = 69.39447 69.39447 56.62100
#
# Poissons Ratio (x) = 0.30660 0.29069
# Poissons Ratio (y) = 0.30660 0.29069
# Poissons Ratio (z) = 0.35627 0.35627
#
# Static dielectric constant tensor:
#      x y z
#    x 3.595550 0.000000 0.000000 
#    y 0.000000 3.595550 0.000000 
#    z 0.000000 0.000000 3.058220 
# 
# 
# High freq. dielectric constant tensor:
#      x y z
#    x 1.736090 0.000000 0.000000 
#    y 0.000000 1.736090 0.000000 
#    z 0.000000 0.000000 1.701480 
# 
# From -- ./inp_files/2660.got.cif
#   From: 2010.03.12/outbox.cif.g09.slc.cpg/sg108_2_cif.got.tgz:2660.got - 2010.04.14 01:53:11.
