data_PCOD8307651
_publ_section_title
;
Structure prediction by ZEFSAII (Michael W. Deem and Ramdas Pophale) SiO2 
 PCOD8307651
Probable space group: I 4 M M
;
_chemical_formula_sum "Si O2"
_cell_formula_units_Z 128
_cell_length_a 23.770276
_cell_length_b 23.770276
_cell_length_c 12.554590
_cell_angle_alpha 90.000000
_cell_angle_beta 90.000000
_cell_angle_gamma 90.000000
_cell_volume 7093.670034
_symmetry_space_group_name_H-M "I 4 M M"
_symmetry_group_IT_number 107
_symmetry_cell_setting 'tetragonal'
loop_
_space_group_symop_operation_xyz
x,y,z
-y,x,z
-x,-y,z
y,-x,z
-x,y,z
x,-y,z
-y,-x,z
y,x,z
1/2+x,1/2+y,1/2+z
1/2-y,1/2+x,1/2+z
1/2-x,1/2-y,1/2+z
1/2+y,1/2-x,1/2+z
1/2-x,1/2+y,1/2+z
1/2+x,1/2-y,1/2+z
1/2-y,1/2-x,1/2+z
1/2+y,1/2+x,1/2+z
loop_
_atom_site_type_symbol
_atom_site_label
_atom_site_fract_x
_atom_site_fract_y
_atom_site_fract_z
Si Si1 0.346748 0.563128 0.694310
Si Si2 0.760589 0.854963 0.568851
Si Si3 0.370633 0.064162 0.872348
Si Si4 0.350903 0.062995 0.259444
Si Si5 0.278904 0.563720 0.492534
Si Si6 0.325529 0.868618 0.057237
Si Si7 0.936636 0.239180 0.377023
Si Si8 0.750126 0.063030 0.764873
O O1 0.366921 0.500000 0.716509
O O2 0.397545 0.602456 0.727916
O O3 0.332699 0.570811 0.568729
O O4 0.293073 0.578178 0.767244
O O5 0.803306 0.803306 0.578236
O O6 0.698515 0.830176 0.551999
O O7 0.778295 0.893560 0.469226
O O8 0.764896 0.891730 0.675750
O O9 0.423204 0.087405 0.805017
O O10 0.313272 0.071564 0.806181
O O11 0.382525 0.000000 0.902341
O O12 0.369513 0.101222 0.979143
O O13 0.337217 0.110708 0.175137
O O14 0.305403 0.068103 0.353899
O O15 0.350496 0.000000 0.210671
O O16 0.253231 0.500000 0.509647
O O17 0.236681 0.612792 0.525160
O O18 0.292397 0.570923 0.366533
O O19 0.000000 0.224207 0.414591
O O20 0.756759 0.000000 0.717340
#
# Coordination Sequence:
#
# PCOD8307651 Si02
#       8
#    16  16  16  16  16  16  16  16
#     4  10  20  35  58  86 113 143 183 228 277 336
#     4  12  24  36  54  84 117 144 178 228 284 332
#     4  10  20  36  57  78 107 146 188 233 276 322
#     4  11  20  35  58  80 108 144 189 236 273 322
#     4   9  18  35  59  79 101 145 195 224 262 330
#     4  11  20  36  53  79 112 142 180 229 286 332
#     4  10  21  39  59  78 108 152 191 225 268 330
#     4   9  19  37  58  77 106 148 186 222 267 330
#
# _framework density 18.044256000000001
#
# number of rings (size 3 to 8) (size 9 to 14) (size 15 to 20)
#    0.000    1.750    3.750    2.625    0.000    1.375 
#    0.000    5.000    0.000    1.500    0.000    0.000 
#    0.000    2.250    0.000    0.500    0.000    0.000 
#
# Total GULP energy -793358.477485 kJ/mol
# GULP energy per Si atom -12396.226211 kJ/mol
# Density = 1.800319 g / cm^3
# Si number density = 18.044256 Si / 1000 Ang^3
#
#
#
# Elastic Constant Matrix: (Units=GPa)
#
#
# Indices 1 2 3 4 5 6 
#
# 1 94.8911 59.1406 43.3700 0.0000 0.0000 0.0007
# 2 59.1406 94.8911 43.3700 0.0000 0.0000 -0.0007
# 3 43.3700 43.3700 88.9811 0.0000 0.0000 0.0000
# 4 0.0000 0.0000 0.0000 21.9964 0.0000 0.0000
# 5 0.0000 0.0000 0.0000 0.0000 21.9964 0.0000
# 6 0.0007 -0.0007 0.0000 0.0000 0.0000 27.4125
#
#
#
# Elastic Compliance Matrix: (Units=1/GPa)
#
#
# Indices 1 2 3 4 5 6 
#
# 1 0.018460 -0.009512 -0.004361 0.000000 0.000000 -0.000001
# 2 -0.009512 0.018460 -0.004361 0.000000 0.000000 0.000001
# 3 -0.004361 -0.004361 0.015490 0.000000 0.000000 0.000000
# 4 0.000000 0.000000 0.000000 0.045462 0.000000 0.000000
# 5 0.000000 0.000000 0.000000 0.000000 0.045462 0.000000
# 6 -0.000001 0.000001 0.000000 0.000000 0.000000 0.036480
#
#
# Mechanical properties :
#
#
# Convention : Reuss Voigt Hill
#
# Bulk Modulus (GPa) = 62.73265 63.39161 63.06213
# Shear Modulus (GPa) = 22.56358 23.13991 22.85174
#
# Velocity S-wave (km/s) = 3.54002 3.58494 3.56255
# Velocity P-wave (km/s) = 7.17986 7.23486 7.20741
#
# Compressibility (1/GPa) = 0.01594066
#
# Stress axis : x y z
#
# Youngs Moduli (GPa) = 54.17140 54.17140 64.55811
#
# Poissons Ratio (x) = 0.51526 0.28157
# Poissons Ratio (y) = 0.51526 0.28157
# Poissons Ratio (z) = 0.23626 0.23626
#
# Static dielectric constant tensor:
#      x y z
#    x 3.233120 0.000000 0.000000 
#    y 0.000000 3.233120 0.000000 
#    z 0.000000 0.000000 3.443520 
# 
# 
# High freq. dielectric constant tensor:
#      x y z
#    x 1.683780 0.000000 0.000000 
#    y 0.000000 1.683780 0.000000 
#    z 0.000000 0.000000 1.704660 
# 
# From -- ./inp_files/2683.got.cif
#   From: 2010.03.12/outbox.cif.g09.slc.cpg/sg107_2_cif.got.tgz:2683.got - 2010.04.14 01:49:11.
