data_PCOD8307090
_publ_section_title
;
Structure prediction by ZEFSAII (Michael W. Deem and Ramdas Pophale) SiO2 
 PCOD8307090
Probable space group: P 4 N C 
;
_chemical_formula_sum "Si O2"
_cell_formula_units_Z 50
_cell_length_a 8.511727
_cell_length_b 8.511727
_cell_length_c 30.605100
_cell_angle_alpha 90.000000
_cell_angle_beta 90.000000
_cell_angle_gamma 90.000000
_cell_volume 2217.324086
_symmetry_space_group_name_H-M "P 4 N C "
_symmetry_group_IT_number 104
_symmetry_cell_setting 'tetragonal'
loop_
_space_group_symop_operation_xyz
x,y,z
-y,x,z
-x,-y,z
y,-x,z
1/2-x,1/2+y,1/2+z
1/2+x,1/2-y,1/2+z
1/2-y,1/2-x,1/2+z
1/2+y,1/2+x,1/2+z
loop_
_atom_site_type_symbol
_atom_site_label
_atom_site_fract_x
_atom_site_fract_y
_atom_site_fract_z
Si Si1 0.500000 0.500000 0.979071
Si Si2 0.389312 0.267330 0.279595
Si Si3 0.777544 0.873919 0.043893
Si Si4 0.114212 0.768991 0.878214
Si Si5 0.101684 0.762313 0.202061
Si Si6 0.915712 0.334414 0.461482
Si Si7 0.765653 0.890294 0.623184
O O1 0.467001 0.687558 0.971183
O O2 0.572534 0.295342 0.270916
O O3 0.358631 0.207868 0.328834
O O4 0.330975 0.134471 0.246583
O O5 0.642620 0.802761 0.075134
O O6 0.941786 0.789778 0.054112
O O7 0.732518 0.837080 0.994360
O O8 0.179632 0.640312 0.911337
O O9 0.929929 0.793394 0.886201
O O10 0.143244 0.657977 0.160206
O O11 0.918778 0.795903 0.200304
O O12 0.000000 0.500000 0.469629
O O13 0.926089 0.794645 0.628100
#
# Coordination Sequence:
#
# PCOD8307090 Si02
#       7
#     2   8   8   8   8   8   8
#     4  12  28  44  68 104 136 180 240 296 340 432
#     4   9  19  38  66  95 128 169 223 277 333 405
#     4  11  25  43  67 100 135 179 228 282 346 418
#     4   9  18  39  67  96 133 181 231 284 346 420
#     4  11  24  43  62  92 133 173 219 278 341 413
#     4  12  26  45  69 100 141 189 229 293 355 415
#     4  11  26  43  68  97 130 171 223 283 344 414
#
# _framework density 22.549706
#
# number of rings (size 3 to 8) (size 9 to 14) (size 15 to 20)
#    0.000    1.440    0.000    5.760    4.480    7.680 
#    8.640    0.000    0.000    0.000    0.000    0.000 
#    0.000    0.000    0.000    0.000    0.000    0.000 
#
# Total GULP energy -619483.142099 kJ/mol
# GULP energy per Si atom -12389.662842 kJ/mol
# Density = 2.249838 g / cm^3
# Si number density = 22.549706 Si / 1000 Ang^3
#
#
#
# Elastic Constant Matrix: (Units=GPa)
#
#
# Indices 1 2 3 4 5 6 
#
# 1 57.9833 25.6808 12.6513 0.0000 0.0000 0.0000
# 2 25.6808 57.9833 12.6513 0.0000 0.0000 0.0000
# 3 12.6513 12.6513 109.1313 0.0000 0.0000 0.0000
# 4 0.0000 0.0000 0.0000 32.7378 0.0000 0.0000
# 5 0.0000 0.0000 0.0000 0.0000 32.7378 0.0000
# 6 0.0000 0.0000 0.0000 0.0000 0.0000 27.9060
#
#
#
# Elastic Compliance Matrix: (Units=1/GPa)
#
#
# Indices 1 2 3 4 5 6 
#
# 1 0.021672 -0.009285 -0.001436 0.000000 0.000000 0.000000
# 2 -0.009285 0.021672 -0.001436 0.000000 0.000000 0.000000
# 3 -0.001436 -0.001436 0.009496 0.000000 0.000000 0.000000
# 4 0.000000 0.000000 0.000000 0.030546 0.000000 0.000000
# 5 0.000000 0.000000 0.000000 0.000000 0.030546 0.000000
# 6 0.000000 0.000000 0.000000 0.000000 0.000000 0.035835
#
#
# Mechanical properties :
#
#
# Convention : Reuss Voigt Hill
#
# Bulk Modulus (GPa) = 35.05575 36.34053 35.69814
# Shear Modulus (GPa) = 27.23470 30.28397 28.75934
#
# Velocity S-wave (km/s) = 3.47906 3.66865 3.57511
# Velocity P-wave (km/s) = 5.63189 5.83919 5.73648
#
# Compressibility (1/GPa) = 0.02852599
#
# Stress axis : x y z
#
# Youngs Moduli (GPa) = 46.14237 46.14237 105.30510
#
# Poissons Ratio (x) = 0.42844 0.15122
# Poissons Ratio (y) = 0.42844 0.15122
# Poissons Ratio (z) = 0.06626 0.06626
#
# Static dielectric constant tensor:
#      x y z
#    x 4.648260 0.000000 0.000000 
#    y 0.000000 4.648260 0.000000 
#    z 0.000000 0.000000 3.982760 
# 
# 
# High freq. dielectric constant tensor:
#      x y z
#    x 1.900070 0.000000 0.000000 
#    y 0.000000 1.900070 0.000000 
#    z 0.000000 0.000000 1.884540 
# 
# From -- ./inp_files/1950.got.cif
#   From: 2010.03.12/outbox.cif.g09.slc.cpg/sg104_cif.got.tgz:1950.got - 2010.04.14 01:44:05.
