data_PCOD8307323
_publ_section_title
;
Structure prediction by ZEFSAII (Michael W. Deem and Ramdas Pophale) SiO2 
 PCOD8307323
Probable space group: P 42 M C
;
_chemical_formula_sum "Si O2"
_cell_formula_units_Z 56
_cell_length_a 14.334597
_cell_length_b 14.334597
_cell_length_c 14.132778
_cell_angle_alpha 90.000000
_cell_angle_beta 90.000000
_cell_angle_gamma 90.000000
_cell_volume 2904.012709
_symmetry_space_group_name_H-M "P 42 M C"
_symmetry_group_IT_number 105
_symmetry_cell_setting 'tetragonal'
loop_
_space_group_symop_operation_xyz
x,y,z
-y,x,1/2+z
-x,-y,z
y,-x,1/2+z
-x,y,z
x,-y,z
-y,-x,1/2+z
y,x,1/2+z
loop_
_atom_site_type_symbol
_atom_site_label
_atom_site_fract_x
_atom_site_fract_y
_atom_site_fract_z
Si Si1 0.394077 0.322338 0.450800
Si Si2 0.218277 0.397760 0.764766
Si Si3 0.601225 0.778543 0.855925
Si Si4 0.892459 0.101821 0.543538
Si Si5 0.217388 0.892763 0.224814
Si Si6 0.394387 0.323997 0.669130
Si Si7 0.889551 0.218017 0.373044
O O1 0.500000 0.362175 0.441269
O O2 0.381194 0.236042 0.377310
O O3 0.318549 0.397846 0.415636
O O4 0.375494 0.292056 0.560223
O O5 0.174620 0.500000 0.748859
O O6 0.143051 0.323024 0.730340
O O7 0.314771 0.395647 0.703920
O O8 0.500000 0.824105 0.874203
O O9 0.614225 0.762361 0.742638
O O10 0.679586 0.848685 0.892292
O O11 0.880868 0.182832 0.619076
O O12 0.847905 0.146242 0.449916
O O13 0.000000 0.083000 0.524262
O O14 0.846419 0.000000 0.567416
O O15 0.145338 0.825203 0.276249
O O16 0.211402 0.000000 0.259641
O O17 0.500000 0.366702 0.676600
O O18 0.000000 0.226744 0.374221
#
# Coordination Sequence:
#
# PCOD8307323 Si02
#       7
#     8   8   8   8   8   8   8
#     4   9  18  35  58  82 111 147 188 233 282 334
#     4  10  21  36  55  84 118 152 187 230 287 351
#     4  10  21  36  55  84 118 152 187 230 287 351
#     4   9  20  38  59  83 110 141 183 239 293 340
#     4  11  22  38  59  84 112 147 191 239 289 343
#     4   9  18  35  58  82 111 147 188 233 282 334
#     4  11  22  38  59  84 112 147 191 239 289 343
#
# _framework density 19.283660999999999
#
# number of rings (size 3 to 8) (size 9 to 14) (size 15 to 20)
#    0.000    2.143    2.857    0.857    2.000    3.143 
#    0.000    4.286    0.000    2.571    0.000    4.000 
#    0.000    0.000    0.000    0.000    0.000    0.000 
#
# Total GULP energy -693735.879588 kJ/mol
# GULP energy per Si atom -12388.140707 kJ/mol
# Density = 1.923977 g / cm^3
# Si number density = 19.283661 Si / 1000 Ang^3
#
#
#
# Elastic Constant Matrix: (Units=GPa)
#
#
# Indices 1 2 3 4 5 6 
#
# 1 105.4727 49.0236 32.8703 0.0000 0.0000 0.0000
# 2 49.0236 105.4727 32.8703 0.0000 0.0000 0.0000
# 3 32.8703 32.8703 96.9821 0.0000 0.0000 0.0000
# 4 0.0000 0.0000 0.0000 -18.3137 0.0000 0.0000
# 5 0.0000 0.0000 0.0000 0.0000 -18.3137 0.0000
# 6 0.0000 0.0000 0.0000 0.0000 0.0000 23.4276
#
#
#
# Elastic Compliance Matrix: (Units=1/GPa)
#
#
# Indices 1 2 3 4 5 6 
#
# 1 0.012639 -0.005076 -0.002563 0.000000 0.000000 0.000000
# 2 -0.005076 0.012639 -0.002563 0.000000 0.000000 0.000000
# 3 -0.002563 -0.002563 0.012049 0.000000 0.000000 0.000000
# 4 0.000000 0.000000 0.000000 -0.054604 0.000000 0.000000
# 5 0.000000 0.000000 0.000000 0.000000 -0.054604 0.000000
# 6 0.000000 0.000000 0.000000 0.000000 0.000000 0.042685
#
#
# Mechanical properties :
#
#
# Convention : Reuss Voigt Hill
#
# Bulk Modulus (GPa) = 59.09530 59.71730 59.40630
# Shear Modulus (GPa) = -1587.49950 10.23760 -788.63095
#
# Velocity S-wave (km/s) = -28.72321 2.30662 -20.24478
# Velocity P-wave (km/s) = 32.70044 6.17487 22.70671
#
# Compressibility (1/GPa) = 0.01692182
#
# Stress axis : x y z
#
# Youngs Moduli (GPa) = 79.11857 79.11857 82.99525
#
# Poissons Ratio (x) = 0.40159 0.21276
# Poissons Ratio (y) = 0.40159 0.21276
# Poissons Ratio (z) = 0.20282 0.20282
#
# Static dielectric constant tensor:
#      x y z
#    x 3.780860 0.000000 0.000000 
#    y 0.000000 3.780860 0.000000 
#    z 0.000000 0.000000 3.693260 
# 
# 
# High freq. dielectric constant tensor:
#      x y z
#    x 1.733520 0.000000 0.000000 
#    y 0.000000 1.733520 0.000000 
#    z 0.000000 0.000000 1.759240 
# 
# From -- ./inp_files/1963.got.cif
#   From: 2010.03.12/outbox.cif.g09.slc.cpg/sg105_1_cif.got.tgz:1963.got - 2010.04.14 01:45:32.
