data_PCOD8307400
_publ_section_title
;
Structure prediction by ZEFSAII (Michael W. Deem and Ramdas Pophale) SiO2 
 PCOD8307400
Probable space group: P 42 B C
;
_chemical_formula_sum "Si O2"
_cell_formula_units_Z 36
_cell_length_a 8.994761
_cell_length_b 8.994761
_cell_length_c 19.813028
_cell_angle_alpha 90.000000
_cell_angle_beta 90.000000
_cell_angle_gamma 90.000000
_cell_volume 1602.987404
_symmetry_space_group_name_H-M "P 42 B C"
_symmetry_group_IT_number 106
_symmetry_cell_setting 'tetragonal'
loop_
_space_group_symop_operation_xyz
x,y,z
-y,x,1/2+z
-x,-y,z
y,-x,1/2+z
1/2-x,1/2+y,z
1/2+x,1/2-y,z
1/2-y,1/2-x,1/2+z
1/2+y,1/2+x,1/2+z
loop_
_atom_site_type_symbol
_atom_site_label
_atom_site_fract_x
_atom_site_fract_y
_atom_site_fract_z
Si Si1 0.500000 0.000000 0.108850
Si Si2 0.940153 0.305520 0.487862
Si Si3 0.079812 0.270696 0.781853
Si Si4 0.229304 0.420188 0.435848
Si Si5 0.940152 0.305521 0.229839
O O1 0.503401 0.850709 0.154746
O O2 0.649291 0.996599 0.062955
O O3 0.810381 0.418791 0.464722
O O4 0.865073 0.143849 0.481674
O O5 0.082331 0.316144 0.438972
O O6 0.070382 0.216763 0.858850
O O7 0.143849 0.134927 0.736027
O O8 0.183855 0.417669 0.778730
O O9 0.918790 0.310381 0.752978
#
# Coordination Sequence:
#
# PCOD8307400 Si02
#       5
#     4   8   8   8   8
#     4   8  20  40  54  78 108 150 192 218 284 334
#     4  10  21  35  58  80 118 154 188 242 281 342
#     4  10  19  35  55  84 114 152 194 240 291 333
#     4  10  19  35  55  84 114 152 194 240 291 333
#     4  10  21  35  58  80 118 154 188 242 281 342
#
# _framework density 22.458069999999999
#
# number of rings (size 3 to 8) (size 9 to 14) (size 15 to 20)
#    0.000    2.667    0.000    5.333    0.000    8.889 
#    0.000    4.444    0.000   21.333    0.000    0.000 
#    0.000    0.000    0.000    0.000    0.000    0.000 
#
# Total GULP energy -446155.628148 kJ/mol
# GULP energy per Si atom -12393.211893 kJ/mol
# Density = 2.240695 g / cm^3
# Si number density = 22.458070 Si / 1000 Ang^3
#
#
#
# Elastic Constant Matrix: (Units=GPa)
#
#
# Indices 1 2 3 4 5 6 
#
# 1 22.0849 19.6194 19.8460 0.0000 0.0000 0.0000
# 2 19.6194 22.0849 19.8460 0.0000 0.0000 0.0000
# 3 19.8460 19.8460 151.3971 0.0000 0.0000 0.0000
# 4 0.0000 0.0000 0.0000 12.0924 0.0000 0.0000
# 5 0.0000 0.0000 0.0000 0.0000 12.0924 0.0000
# 6 0.0000 0.0000 0.0000 0.0000 0.0000 68.4825
#
#
#
# Elastic Compliance Matrix: (Units=1/GPa)
#
#
# Indices 1 2 3 4 5 6 
#
# 1 0.216495 -0.189099 -0.003591 0.000000 0.000000 0.000000
# 2 -0.189099 0.216495 -0.003591 0.000000 0.000000 0.000000
# 3 -0.003591 -0.003591 0.007547 0.000000 0.000000 0.000000
# 4 0.000000 0.000000 0.000000 0.082696 0.000000 0.000000
# 5 0.000000 0.000000 0.000000 0.000000 0.082696 0.000000
# 6 0.000000 0.000000 0.000000 0.000000 0.000000 0.014602
#
#
# Mechanical properties :
#
#
# Convention : Reuss Voigt Hill
#
# Bulk Modulus (GPa) = 20.84454 34.90999 27.87727
# Shear Modulus (GPa) = 4.85868 27.61718 16.23793
#
# Velocity S-wave (km/s) = 1.47246 3.51054 2.69184
# Velocity P-wave (km/s) = 3.49178 5.65775 4.70121
#
# Compressibility (1/GPa) = 0.04797418
#
# Stress axis : x y z
#
# Youngs Moduli (GPa) = 4.61904 4.61904 132.50866
#
# Poissons Ratio (x) = 0.87346 0.47587
# Poissons Ratio (y) = 0.87346 0.47587
# Poissons Ratio (z) = 0.01659 0.01659
#
# Static dielectric constant tensor:
#      x y z
#    x 3.838190 0.000000 0.000000 
#    y 0.000000 3.838190 0.000000 
#    z 0.000000 0.000000 3.954610 
# 
# 
# High freq. dielectric constant tensor:
#      x y z
#    x 1.869990 0.000000 0.000000 
#    y 0.000000 1.869990 0.000000 
#    z 0.000000 0.000000 1.873850 
# 
# From -- ./inp_files/1573.got.cif
#   From: 2010.03.12/outbox.cif.g09.slc.cpg/sg106_cif.got.tgz:1573.got - 2010.04.14 01:48:02.
