data_PCOD8307038
_publ_section_title
;
Structure prediction by ZEFSAII (Michael W. Deem and Ramdas Pophale) SiO2 
 PCOD8307038
Probable space group: P 4 N C 
;
_chemical_formula_sum "Si O2"
_cell_formula_units_Z 60
_cell_length_a 17.229836
_cell_length_b 17.229836
_cell_length_c 10.086141
_cell_angle_alpha 90.000000
_cell_angle_beta 90.000000
_cell_angle_gamma 90.000000
_cell_volume 2994.244928
_symmetry_space_group_name_H-M "P 4 N C "
_symmetry_group_IT_number 104
_symmetry_cell_setting 'tetragonal'
loop_
_space_group_symop_operation_xyz
x,y,z
-y,x,z
-x,-y,z
y,-x,z
1/2-x,1/2+y,1/2+z
1/2+x,1/2-y,1/2+z
1/2-y,1/2-x,1/2+z
1/2+y,1/2+x,1/2+z
loop_
_atom_site_type_symbol
_atom_site_label
_atom_site_fract_x
_atom_site_fract_y
_atom_site_fract_z
Si Si1 0.185590 0.313239 0.713150
Si Si2 0.569458 0.784942 0.955315
Si Si3 0.172868 0.206968 0.461714
Si Si4 0.334633 0.986747 0.704174
Si Si5 0.020443 0.258187 0.187982
Si Si6 0.380357 0.455891 0.843778
Si Si7 0.058046 0.653279 0.968125
Si Si8 0.000000 0.500000 0.583241
O O1 0.195964 0.249992 0.596529
O O2 0.241978 0.296355 0.837184
O O3 0.096874 0.309142 0.759342
O O4 0.198569 0.399272 0.655898
O O5 0.621386 0.708579 0.955875
O O6 0.521165 0.792305 0.819734
O O7 0.630669 0.853033 0.981615
O O8 0.507583 0.784662 0.074864
O O9 0.079900 0.186490 0.442783
O O10 0.426009 0.991616 0.676637
O O11 0.314373 0.046167 0.820873
O O12 0.040306 0.165511 0.201995
O O13 0.961795 0.276416 0.068366
O O14 0.454854 0.402390 0.862919
O O15 0.005165 0.576924 0.992770
#
# Coordination Sequence:
#
# PCOD8307038 Si02
#       8
#     8   8   8   8   8   8   8   4
#     4  11  24  39  65  90 131 167 218 277 339 394
#     4  11  24  40  62  90 136 175 214 263 328 404
#     4  11  25  42  64  95 132 168 219 279 339 394
#     4  11  22  38  59  91 125 174 212 259 319 392
#     4  11  22  41  61  95 129 169 216 274 329 399
#     4  10  21  41  71  96 118 165 228 286 327 382
#     4  11  23  33  61  89 131 170 212 261 314 390
#     4  10  20  34  56  86 130 170 222 244 304 376
#
# _framework density 20.038440000000001
#
# number of rings (size 3 to 8) (size 9 to 14) (size 15 to 20)
#    0.000    1.200    2.667    4.400    7.467    0.000 
#    0.000    0.000    0.000    0.000    0.000    0.000 
#    0.000    0.000    0.000    0.000    0.000    0.000 
#
# Total GULP energy -743356.158212 kJ/mol
# GULP energy per Si atom -12389.269304 kJ/mol
# Density = 1.999283 g / cm^3
# Si number density = 20.038440 Si / 1000 Ang^3
#
#
#
# Elastic Constant Matrix: (Units=GPa)
#
#
# Indices 1 2 3 4 5 6 
#
# 1 87.7676 35.9960 29.4331 0.0000 0.0000 0.0000
# 2 35.9960 87.7676 29.4331 0.0000 0.0000 0.0000
# 3 29.4331 29.4331 100.5746 0.0000 0.0000 0.0000
# 4 0.0000 0.0000 0.0000 22.9278 0.0000 0.0000
# 5 0.0000 0.0000 0.0000 0.0000 22.9278 0.0000
# 6 0.0000 0.0000 0.0000 0.0000 0.0000 30.5115
#
#
#
# Elastic Compliance Matrix: (Units=1/GPa)
#
#
# Indices 1 2 3 4 5 6 
#
# 1 0.014351 -0.004965 -0.002747 0.000000 0.000000 0.000000
# 2 -0.004965 0.014351 -0.002747 0.000000 0.000000 0.000000
# 3 -0.002747 -0.002747 0.011551 0.000000 0.000000 0.000000
# 4 0.000000 0.000000 0.000000 0.043615 0.000000 0.000000
# 5 0.000000 0.000000 0.000000 0.000000 0.043615 0.000000
# 6 0.000000 0.000000 0.000000 0.000000 0.000000 0.032775
#
#
# Mechanical properties :
#
#
# Convention : Reuss Voigt Hill
#
# Bulk Modulus (GPa) = 51.71755 51.75937 51.73846
# Shear Modulus (GPa) = 26.64963 27.35658 27.00311
#
# Velocity S-wave (km/s) = 3.65077 3.69888 3.67490
# Velocity P-wave (km/s) = 6.60576 6.64292 6.62436
#
# Compressibility (1/GPa) = 0.01933580
#
# Stress axis : x y z
#
# Youngs Moduli (GPa) = 69.68141 69.68141 86.57520
#
# Poissons Ratio (x) = 0.34594 0.23782
# Poissons Ratio (y) = 0.34594 0.23782
# Poissons Ratio (z) = 0.19141 0.19141
#
# Static dielectric constant tensor:
#      x y z
#    x 3.782100 0.000000 0.000000 
#    y 0.000000 3.782100 0.000000 
#    z 0.000000 0.000000 3.509580 
# 
# 
# High freq. dielectric constant tensor:
#      x y z
#    x 1.786780 0.000000 0.000000 
#    y 0.000000 1.786780 0.000000 
#    z 0.000000 0.000000 1.763370 
# 
# From -- ./inp_files/644.got.cif
#   From: 2010.03.12/outbox.cif.g09.slc.cpg/sg104_cif.got.tgz:644.got - 2010.04.14 01:44:05.
