data_PCOD8307630
_publ_section_title
;
Structure prediction by ZEFSAII (Michael W. Deem and Ramdas Pophale) SiO2 
 PCOD8307630
Probable space group: I 4 M M
;
_chemical_formula_sum "Si O2"
_cell_formula_units_Z 64
_cell_length_a 13.344881
_cell_length_b 13.344881
_cell_length_c 20.350283
_cell_angle_alpha 90.000000
_cell_angle_beta 90.000000
_cell_angle_gamma 90.000000
_cell_volume 3624.097423
_symmetry_space_group_name_H-M "I 4 M M"
_symmetry_group_IT_number 107
_symmetry_cell_setting 'tetragonal'
loop_
_space_group_symop_operation_xyz
x,y,z
-y,x,z
-x,-y,z
y,-x,z
-x,y,z
x,-y,z
-y,-x,z
y,x,z
1/2+x,1/2+y,1/2+z
1/2-y,1/2+x,1/2+z
1/2-x,1/2-y,1/2+z
1/2+y,1/2-x,1/2+z
1/2-x,1/2+y,1/2+z
1/2+x,1/2-y,1/2+z
1/2-y,1/2-x,1/2+z
1/2+y,1/2+x,1/2+z
loop_
_atom_site_type_symbol
_atom_site_label
_atom_site_fract_x
_atom_site_fract_y
_atom_site_fract_z
Si Si1 0.114783 0.614784 0.287030
Si Si2 0.219003 0.616049 0.037030
Si Si3 0.222010 0.617252 0.653486
Si Si4 0.277990 0.882748 0.920574
O O1 0.132762 0.500000 0.266814
O O2 0.145305 0.682629 0.225584
O O3 0.182629 0.645305 0.348476
O O4 0.000000 0.632763 0.307246
O O5 0.247931 0.500000 0.037030
O O6 0.322219 0.677782 0.037030
O O7 0.153054 0.640201 0.101009
O O8 0.153054 0.640201 0.973051
O O9 0.241265 0.500000 0.645108
O O10 0.327143 0.672858 0.641048
O O11 0.172859 0.827142 0.933012
O O12 0.258736 0.000000 0.928952
#
# Coordination Sequence:
#
# PCOD8307630 Si02
#       4
#    16  16  16  16
#     4   9  17  30  50  74  97 125 164 208 251 293
#     4  10  21  36  54  76 100 126 159 200 246 296
#     4  10  20  33  50  73 101 133 168 205 244 287
#     4  10  20  33  50  73 101 133 168 205 244 287
#
# _framework density 17.659569999999999
#
# number of rings (size 3 to 8) (size 9 to 14) (size 15 to 20)
#    0.000    2.250    0.000    3.000    0.000    4.750 
#    0.000    0.000    0.000    4.500    0.000    7.000 
#    0.000    0.000    0.000    0.000    0.000    0.000 
#
# Total GULP energy -396895.868990 kJ/mol
# GULP energy per Si atom -12402.995906 kJ/mol
# Density = 1.761938 g / cm^3
# Si number density = 17.659570 Si / 1000 Ang^3
#
#
#
# Elastic Constant Matrix: (Units=GPa)
#
#
# Indices 1 2 3 4 5 6 
#
# 1 107.7446 50.0849 52.1461 0.0000 0.0000 0.0004
# 2 50.0849 107.7446 52.1461 0.0000 0.0000 -0.0004
# 3 52.1461 52.1461 103.4332 0.0000 0.0000 0.0000
# 4 0.0000 0.0000 0.0000 22.9853 0.0000 0.0000
# 5 0.0000 0.0000 0.0000 0.0000 22.9853 0.0000
# 6 0.0004 -0.0004 0.0000 0.0000 0.0000 18.0650
#
#
#
# Elastic Compliance Matrix: (Units=1/GPa)
#
#
# Indices 1 2 3 4 5 6 
#
# 1 0.013422 -0.003921 -0.004790 0.000000 0.000000 0.000000
# 2 -0.003921 0.013422 -0.004790 0.000000 0.000000 0.000000
# 3 -0.004790 -0.004790 0.014498 0.000000 0.000000 0.000000
# 4 0.000000 0.000000 0.000000 0.043506 0.000000 0.000000
# 5 0.000000 0.000000 0.000000 0.000000 0.043506 0.000000
# 6 0.000000 0.000000 0.000000 0.000000 0.000000 0.055356
#
#
# Mechanical properties :
#
#
# Convention : Reuss Voigt Hill
#
# Bulk Modulus (GPa) = 69.73467 69.74187 69.73827
# Shear Modulus (GPa) = 23.20271 23.77680 23.48976
#
# Velocity S-wave (km/s) = 3.62869 3.67331 3.65107
# Velocity P-wave (km/s) = 7.55848 7.58743 7.57297
#
# Compressibility (1/GPa) = 0.01434007
#
# Stress axis : x y z
#
# Youngs Moduli (GPa) = 74.50371 74.50371 68.97555
#
# Poissons Ratio (x) = 0.29213 0.33040
# Poissons Ratio (y) = 0.29213 0.33040
# Poissons Ratio (z) = 0.35688 0.35688
#
# Static dielectric constant tensor:
#      x y z
#    x 3.116220 0.000000 0.000000 
#    y 0.000000 3.116220 0.000000 
#    z 0.000000 0.000000 3.437200 
# 
# 
# High freq. dielectric constant tensor:
#      x y z
#    x 1.677810 0.000000 0.000000 
#    y 0.000000 1.677810 0.000000 
#    z 0.000000 0.000000 1.701540 
# 
# From -- ./inp_files/3721.got.cif
#   From: 2010.03.12/outbox.cif.g09.slc.cpg/sg107_2_cif.got.tgz:3721.got - 2010.04.14 01:49:11.
