data_PCOD8308533
_publ_section_title
;
Structure prediction by ZEFSAII (Michael W. Deem and Ramdas Pophale) SiO2 
 PCOD8308533
Probable space group: P -4 21 M 
;
_chemical_formula_sum "Si O2"
_cell_formula_units_Z 64
_cell_length_a 17.798390
_cell_length_b 17.798390
_cell_length_c 10.809664
_cell_angle_alpha 90.000000
_cell_angle_beta 90.000000
_cell_angle_gamma 90.000000
_cell_volume 3424.314403
_symmetry_space_group_name_H-M "P -4 21 M "
_symmetry_group_IT_number 113
_symmetry_cell_setting 'tetragonal'
loop_
_space_group_symop_operation_xyz
x,y,z
y,-x,-z
-x,-y,z
-y,x,-z
1/2+x,1/2-y,-z
1/2-x,1/2+y,-z
1/2-y,1/2-x,z
1/2+y,1/2+x,z
loop_
_atom_site_type_symbol
_atom_site_label
_atom_site_fract_x
_atom_site_fract_y
_atom_site_fract_z
Si Si1 0.416113 0.791049 0.959198
Si Si2 0.415669 0.206236 0.887280
Si Si3 0.081981 0.702707 0.402532
Si Si4 0.655666 0.409297 0.580538
Si Si5 0.070788 0.166576 0.628139
Si Si6 0.799313 0.176693 0.154900
Si Si7 0.814771 0.569476 0.499195
Si Si8 0.650748 0.267256 0.724455
O O1 0.371337 0.871337 0.947125
O O2 0.506800 0.800914 0.966015
O O3 0.404294 0.737879 0.840896
O O4 0.385405 0.744869 0.076065
O O5 0.371094 0.128907 0.912604
O O6 0.430801 0.217650 0.741753
O O7 0.363300 0.278422 0.924411
O O8 0.158577 0.658577 0.427508
O O9 0.083487 0.778130 0.481294
O O10 0.010853 0.655579 0.451626
O O11 0.587590 0.378068 0.498455
O O12 0.637294 0.486323 0.654423
O O13 0.671838 0.352179 0.691620
O O14 0.132847 0.156336 0.735360
O O15 0.064487 0.256268 0.610955
O O16 0.739704 0.239704 0.206315
O O17 0.886993 0.613008 0.549883
O O18 0.775069 0.613707 0.389314
O O19 0.728841 0.228841 0.762735
#
# Coordination Sequence:
#
# PCOD8308533 Si02
#       8
#     8   8   8   8   8   8   8   8
#     4  10  21  37  57  83 114 147 189 234 280 333
#     4  10  20  35  57  83 112 141 181 233 281 332
#     4  10  18  29  49  78 108 136 169 219 275 331
#     4  10  20  32  51  76 105 139 179 227 280 333
#     4  10  20  34  52  75 104 139 182 227 273 325
#     4  10  21  37  59  81 107 150 194 230 267 329
#     4   9  17  29  48  74 103 136 167 210 271 328
#     4   9  17  31  50  73 104 139 175 222 271 322
#
# _framework density 18.689874
#
# number of rings (size 3 to 8) (size 9 to 14) (size 15 to 20)
#    0.000    2.250    2.500    0.750    0.000    2.750 
#    0.000    1.250    0.000    4.875    0.000    3.500 
#    0.000    0.000    0.000    0.000    0.000    0.000 
#
# Total GULP energy -792954.486185 kJ/mol
# GULP energy per Si atom -12389.913847 kJ/mol
# Density = 1.864733 g / cm^3
# Si number density = 18.689874 Si / 1000 Ang^3
#
#
#
# Elastic Constant Matrix: (Units=GPa)
#
#
# Indices 1 2 3 4 5 6 
#
# 1 98.9146 38.0307 20.2238 0.0000 0.0000 0.0000
# 2 38.0307 98.9155 20.2242 0.0000 0.0000 0.0000
# 3 20.2238 20.2242 32.9874 0.0000 0.0000 0.0000
# 4 0.0000 0.0000 0.0000 24.6082 0.0000 0.0000
# 5 0.0000 0.0000 0.0000 0.0000 24.6080 0.0000
# 6 0.0000 0.0000 0.0000 0.0000 0.0000 18.3088
#
#
#
# Elastic Compliance Matrix: (Units=1/GPa)
#
#
# Indices 1 2 3 4 5 6 
#
# 1 0.012671 -0.003754 -0.005467 0.000000 0.000000 0.000000
# 2 -0.003754 0.012671 -0.005467 0.000000 0.000000 0.000000
# 3 -0.005467 -0.005467 0.037018 0.000000 0.000000 0.000000
# 4 0.000000 0.000000 0.000000 0.040637 0.000000 0.000000
# 5 0.000000 0.000000 0.000000 0.000000 0.040637 0.000000
# 6 0.000000 0.000000 0.000000 0.000000 0.000000 0.054618
#
#
# Mechanical properties :
#
#
# Convention : Reuss Voigt Hill
#
# Bulk Modulus (GPa) = 30.31736 43.08609 36.70173
# Shear Modulus (GPa) = 20.95373 23.66094 22.30733
#
# Velocity S-wave (km/s) = 3.35196 3.56192 3.45853
# Velocity P-wave (km/s) = 5.58903 6.32610 5.96896
#
# Compressibility (1/GPa) = 0.03298440
#
# Stress axis : x y z
#
# Youngs Moduli (GPa) = 78.92212 78.92254 27.01408
#
# Poissons Ratio (x) = 0.29627 0.14768
# Poissons Ratio (y) = 0.29626 0.14768
# Poissons Ratio (z) = 0.43144 0.43145
#
# Static dielectric constant tensor:
#      x y z
#    x 3.579940 0.000000 0.000000 
#    y 0.000000 3.579940 0.000000 
#    z 0.000000 0.000000 3.137140 
# 
# 
# High freq. dielectric constant tensor:
#      x y z
#    x 1.723870 0.000000 0.000000 
#    y 0.000000 1.723870 0.000000 
#    z 0.000000 0.000000 1.695290 
# 
# From -- ./inp_files/2027.got.cif
#   From: 2010.03.12/outbox.cif.g09.slc.cpg/sg113_cif.got.tgz:2027.got - 2010.04.14 02:06:34.
