data_PCOD8308384
_publ_section_title
;
Structure prediction by ZEFSAII (Michael W. Deem and Ramdas Pophale) SiO2 
 PCOD8308384
Probable space group: P -4 2 C
;
_chemical_formula_sum "Si O2"
_cell_formula_units_Z 42
_cell_length_a 11.302302
_cell_length_b 11.302302
_cell_length_c 16.649303
_cell_angle_alpha 90.000000
_cell_angle_beta 90.000000
_cell_angle_gamma 90.000000
_cell_volume 2126.815772
_symmetry_space_group_name_H-M "P -4 2 C"
_symmetry_group_IT_number 112
_symmetry_cell_setting 'tetragonal'
loop_
_space_group_symop_operation_xyz
x,y,z
y,-x,-z
-x,-y,z
-y,x,-z
x,-y,1/2-z
-x,y,1/2-z
-y,-x,1/2+z
y,x,1/2+z
loop_
_atom_site_type_symbol
_atom_site_label
_atom_site_fract_x
_atom_site_fract_y
_atom_site_fract_z
Si Si1 0.816869 0.592791 0.048179
Si Si2 0.834152 0.178940 0.661662
Si Si3 0.202281 0.674845 0.013344
Si Si4 0.006850 0.628481 0.591985
Si Si5 0.000000 0.000000 0.250000
Si Si6 0.629197 0.136804 0.772539
O O1 0.789936 0.453640 0.054455
O O2 0.848973 0.648706 0.133399
O O3 0.705835 0.663505 0.011508
O O4 0.930298 0.613935 0.993642
O O5 0.770906 0.151027 0.576691
O O6 0.922992 0.289481 0.653861
O O7 0.731985 0.209432 0.726567
O O8 0.914956 0.071452 0.690510
O O9 0.122417 0.678358 0.932392
O O10 0.000000 0.500000 0.634270
O O11 0.500000 0.187365 0.750000
O O12 0.640690 0.000000 0.750000
#
# Coordination Sequence:
#
# PCOD8308384 Si02
#       6
#     8   8   8   8   2   8
#     4  10  21  37  63  92 120 162 211 262 312 371
#     4  11  23  39  58  91 127 161 204 255 308 371
#     4  10  21  40  63  89 121 162 214 261 309 366
#     4   9  21  38  61  86 121 164 210 242 307 376
#     4  12  28  36  58  92 132 164 198 240 324 372
#     4  11  21  35  64  94 128 161 207 258 312 368
#
# _framework density 19.747833
#
# number of rings (size 3 to 8) (size 9 to 14) (size 15 to 20)
#    0.000    1.714    2.857    1.143    8.000    1.905 
#    0.000    0.476    4.190    0.000    0.000    0.000 
#    0.000    0.000    0.000    0.000    0.000    0.000 
#
# Total GULP energy -520764.489055 kJ/mol
# GULP energy per Si atom -12399.154501 kJ/mol
# Density = 1.970289 g / cm^3
# Si number density = 19.747833 Si / 1000 Ang^3
#
#
#
# Elastic Constant Matrix: (Units=GPa)
#
#
# Indices 1 2 3 4 5 6 
#
# 1 120.8411 67.7294 45.2170 0.0000 0.0000 0.0000
# 2 67.7294 120.8411 45.2170 0.0000 0.0000 0.0000
# 3 45.2170 45.2170 84.5250 0.0000 0.0000 0.0000
# 4 0.0000 0.0000 0.0000 29.4074 0.0000 0.0000
# 5 0.0000 0.0000 0.0000 0.0000 29.4074 0.0000
# 6 0.0000 0.0000 0.0000 0.0000 0.0000 32.6240
#
#
#
# Elastic Compliance Matrix: (Units=1/GPa)
#
#
# Indices 1 2 3 4 5 6 
#
# 1 0.012981 -0.005848 -0.003816 0.000000 0.000000 0.000000
# 2 -0.005848 0.012981 -0.003816 0.000000 0.000000 0.000000
# 3 -0.003816 -0.003816 0.015913 0.000000 0.000000 0.000000
# 4 0.000000 0.000000 0.000000 0.034005 0.000000 0.000000
# 5 0.000000 0.000000 0.000000 0.000000 0.034005 0.000000
# 6 0.000000 0.000000 0.000000 0.000000 0.000000 0.030652
#
#
# Mechanical properties :
#
#
# Convention : Reuss Voigt Hill
#
# Bulk Modulus (GPa) = 67.04159 71.39269 69.21714
# Shear Modulus (GPa) = 28.99093 29.49068 29.24080
#
# Velocity S-wave (km/s) = 3.83568 3.86860 3.85217
# Velocity P-wave (km/s) = 7.32387 7.49569 7.41028
#
# Compressibility (1/GPa) = 0.01491611
#
# Stress axis : x y z
#
# Youngs Moduli (GPa) = 77.03778 77.03778 62.83992
#
# Poissons Ratio (x) = 0.45049 0.23979
# Poissons Ratio (y) = 0.45049 0.23979
# Poissons Ratio (z) = 0.29397 0.29397
#
# Static dielectric constant tensor:
#      x y z
#    x 3.808160 0.000000 0.000000 
#    y 0.000000 3.808160 0.000000 
#    z 0.000000 0.000000 3.555580 
# 
# 
# High freq. dielectric constant tensor:
#      x y z
#    x 1.767080 0.000000 0.000000 
#    y 0.000000 1.767080 0.000000 
#    z 0.000000 0.000000 1.765590 
# 
# From -- ./inp_files/4053.got.cif
#   From: 2010.03.12/outbox.cif.g09.slc.cpg/sg112_3_cif.got.tgz:4053.got - 2010.04.14 02:02:48.
