data_PCOD8308157
_publ_section_title
;
Structure prediction by ZEFSAII (Michael W. Deem and Ramdas Pophale) SiO2 
 PCOD8308157
Probable space group: P -4 2 M 
;
_chemical_formula_sum "Si O2"
_cell_formula_units_Z 48
_cell_length_a 12.647956
_cell_length_b 12.647956
_cell_length_c 17.060868
_cell_angle_alpha 90.000000
_cell_angle_beta 90.000000
_cell_angle_gamma 90.000000
_cell_volume 2729.240549
_symmetry_space_group_name_H-M "P -4 2 M "
_symmetry_group_IT_number 111
_symmetry_cell_setting 'tetragonal'
loop_
_space_group_symop_operation_xyz
x,y,z
y,-x,-z
-x,-y,z
-y,x,-z
x,-y,-z
-x,y,-z
-y,-x,z
y,x,z
loop_
_atom_site_type_symbol
_atom_site_label
_atom_site_fract_x
_atom_site_fract_y
_atom_site_fract_z
Si Si1 0.704551 0.878254 0.682670
Si Si2 0.625211 0.883434 1.000000
Si Si3 0.788825 0.375446 0.836379
Si Si4 0.874492 0.500000 0.411598
Si Si5 0.878253 0.295450 0.682671
Si Si6 0.788825 0.375446 0.163621
O O1 0.807163 0.807163 0.663668
O O2 0.606160 0.834436 0.631449
O O3 0.670880 0.871565 0.773682
O O4 0.732154 0.000000 0.662761
O O5 0.663031 0.823918 0.922218
O O6 0.500000 0.891609 0.000000
O O7 0.663031 0.823917 0.077782
O O8 0.675623 0.000000 0.000000
O O9 0.673014 0.326987 0.819690
O O10 0.871567 0.329120 0.773683
O O11 0.781277 0.500000 0.828588
O O12 0.830297 0.500000 0.500000
O O13 0.834436 0.606159 0.368550
O O14 0.000000 0.500000 0.409720
O O15 0.807161 0.192840 0.663668
O O16 0.673013 0.326988 0.180310
#
# Coordination Sequence:
#
# PCOD8308157 Si02
#       6
#     8   8   8   8   8   8
#     4  10  20  34  54  79 107 139 175 217 263 310
#     4   9  17  28  45  67  93 129 173 219 260 302
#     4  10  19  31  48  72 102 137 176 218 263 310
#     4   9  18  34  56  78 102 134 171 210 255 313
#     4  10  20  34  54  79 107 139 175 217 263 310
#     4  10  19  31  48  72 102 137 176 218 263 310
#
# _framework density 17.587311
#
# number of rings (size 3 to 8) (size 9 to 14) (size 15 to 20)
#    0.000    2.333    1.667    1.500    0.000    2.667 
#    0.000    0.000    0.000    3.500    0.000    5.833 
#    0.000   12.000    0.000    0.000    0.000    0.000 
#
# Total GULP energy -595080.320267 kJ/mol
# GULP energy per Si atom -12397.506672 kJ/mol
# Density = 1.754728 g / cm^3
# Si number density = 17.587311 Si / 1000 Ang^3
#
#
#
# Elastic Constant Matrix: (Units=GPa)
#
#
# Indices 1 2 3 4 5 6 
#
# 1 92.7908 59.7038 30.5257 0.0000 0.0000 0.0000
# 2 59.7038 92.7902 30.5247 0.0000 0.0000 0.0000
# 3 30.5257 30.5247 111.2527 0.0000 0.0000 0.0000
# 4 0.0000 0.0000 0.0000 17.3261 0.0000 0.0000
# 5 0.0000 0.0000 0.0000 0.0000 17.3264 0.0000
# 6 0.0000 0.0000 0.0000 0.0000 0.0000 18.3092
#
#
#
# Elastic Compliance Matrix: (Units=1/GPa)
#
#
# Indices 1 2 3 4 5 6 
#
# 1 0.018795 -0.011428 -0.002021 0.000000 0.000000 0.000000
# 2 -0.011428 0.018795 -0.002021 0.000000 0.000000 0.000000
# 3 -0.002021 -0.002021 0.010098 0.000000 0.000000 0.000000
# 4 0.000000 0.000000 0.000000 0.057717 0.000000 0.000000
# 5 0.000000 0.000000 0.000000 0.000000 0.057715 0.000000
# 6 0.000000 0.000000 0.000000 0.000000 0.000000 0.054617
#
#
# Mechanical properties :
#
#
# Convention : Reuss Voigt Hill
#
# Bulk Modulus (GPa) = 59.71489 59.81580 59.76534
# Shear Modulus (GPa) = 19.66481 22.33098 20.99789
#
# Velocity S-wave (km/s) = 3.34746 3.56718 3.45907
# Velocity P-wave (km/s) = 6.99770 7.14500 7.07173
#
# Compressibility (1/GPa) = 0.01674624
#
# Stress axis : x y z
#
# Youngs Moduli (GPa) = 53.20496 53.20493 99.03209
#
# Poissons Ratio (x) = 0.60805 0.20019
# Poissons Ratio (y) = 0.60805 0.20016
# Poissons Ratio (z) = 0.10755 0.10754
#
# Static dielectric constant tensor:
#      x y z
#    x 3.096600 0.000000 0.000000 
#    y 0.000000 3.096600 0.000000 
#    z 0.000000 0.000000 3.486840 
# 
# 
# High freq. dielectric constant tensor:
#      x y z
#    x 1.664240 0.000000 0.000000 
#    y 0.000000 1.664240 0.000000 
#    z 0.000000 0.000000 1.690480 
# 
# From -- ./inp_files/3669.got.cif
#   From: 2010.03.12/outbox.cif.g09.slc.cpg/sg111_2_cif.got.tgz:3669.got - 2010.04.14 01:59:48.
