data_PCOD8308483
_publ_section_title
;
Structure prediction by ZEFSAII (Michael W. Deem and Ramdas Pophale) SiO2 
 PCOD8308483
Probable space group: P -4 2 C
;
_chemical_formula_sum "Si O2"
_cell_formula_units_Z 36
_cell_length_a 13.965353
_cell_length_b 13.965353
_cell_length_c 8.413465
_cell_angle_alpha 90.000000
_cell_angle_beta 90.000000
_cell_angle_gamma 90.000000
_cell_volume 1640.887203
_symmetry_space_group_name_H-M "P -4 2 C"
_symmetry_group_IT_number 112
_symmetry_cell_setting 'tetragonal'
loop_
_space_group_symop_operation_xyz
x,y,z
y,-x,-z
-x,-y,z
-y,x,-z
x,-y,1/2-z
-x,y,1/2-z
-y,-x,1/2+z
y,x,1/2+z
loop_
_atom_site_type_symbol
_atom_site_label
_atom_site_fract_x
_atom_site_fract_y
_atom_site_fract_z
Si Si1 0.973041 0.389681 0.073413
Si Si2 0.770106 0.500000 0.750000
Si Si3 0.779962 0.317909 0.185685
Si Si4 0.330956 0.155907 0.450658
Si Si5 0.431190 0.637295 0.498949
O O1 0.861205 0.360741 0.063532
O O2 0.000000 0.500000 0.037237
O O3 0.000000 0.362081 0.250000
O O4 0.039871 0.321332 0.961461
O O5 0.832212 0.434832 0.631717
O O6 0.704947 0.574691 0.653792
O O7 0.801163 0.334290 0.370455
O O8 0.757071 0.205510 0.144475
O O9 0.683114 0.374719 0.145847
O O10 0.539826 0.620441 0.551959
#
# Coordination Sequence:
#
# PCOD8308483 Si02
#       5
#     8   4   8   8   8
#     4   9  20  40  67  91 120 170 217 266 332 396
#     4  12  24  39  59  90 124 172 220 272 318 376
#     4  11  23  44  65  91 131 171 213 282 326 403
#     4  11  24  43  64  94 126 168 226 269 342 390
#     4  11  25  39  54  83 122 173 217 258 313 382
#
# _framework density 21.939353000000001
#
# number of rings (size 3 to 8) (size 9 to 14) (size 15 to 20)
#    0.000    1.333    2.222    2.667    0.000    6.222 
#    0.000   10.556    0.000    0.667    0.000    4.667 
#    0.000    0.000    0.000    0.000    0.000    0.000 
#
# Total GULP energy -446043.726091 kJ/mol
# GULP energy per Si atom -12390.103503 kJ/mol
# Density = 2.188942 g / cm^3
# Si number density = 21.939353 Si / 1000 Ang^3
#
#
#
# Elastic Constant Matrix: (Units=GPa)
#
#
# Indices 1 2 3 4 5 6 
#
# 1 96.2322 32.4327 28.0490 0.0000 0.0000 0.0000
# 2 32.4327 96.2322 28.0490 0.0000 0.0000 0.0000
# 3 28.0490 28.0490 85.4942 0.0000 0.0000 0.0000
# 4 0.0000 0.0000 0.0000 24.8284 0.0000 0.0000
# 5 0.0000 0.0000 0.0000 0.0000 24.8284 0.0000
# 6 0.0000 0.0000 0.0000 0.0000 0.0000 22.6288
#
#
#
# Elastic Compliance Matrix: (Units=1/GPa)
#
#
# Indices 1 2 3 4 5 6 
#
# 1 0.012372 -0.003302 -0.002976 0.000000 0.000000 0.000000
# 2 -0.003302 0.012372 -0.002976 0.000000 0.000000 0.000000
# 3 -0.002976 -0.002976 0.013649 0.000000 0.000000 0.000000
# 4 0.000000 0.000000 0.000000 0.040276 0.000000 0.000000
# 5 0.000000 0.000000 0.000000 0.000000 0.040276 0.000000
# 6 0.000000 0.000000 0.000000 0.000000 0.000000 0.044192
#
#
# Mechanical properties :
#
#
# Convention : Reuss Voigt Hill
#
# Bulk Modulus (GPa) = 50.28669 50.55777 50.42223
# Shear Modulus (GPa) = 26.55725 27.08563 26.82144
#
# Velocity S-wave (km/s) = 3.48298 3.51745 3.50026
# Velocity P-wave (km/s) = 6.25663 6.29214 6.27441
#
# Compressibility (1/GPa) = 0.01988598
#
# Stress axis : x y z
#
# Youngs Moduli (GPa) = 80.82907 80.82907 73.26481
#
# Poissons Ratio (x) = 0.26692 0.21800
# Poissons Ratio (y) = 0.26692 0.21800
# Poissons Ratio (z) = 0.24051 0.24051
#
# Static dielectric constant tensor:
#      x y z
#    x 4.221140 0.000000 0.000000 
#    y 0.000000 4.221140 0.000000 
#    z 0.000000 0.000000 4.016890 
# 
# 
# High freq. dielectric constant tensor:
#      x y z
#    x 1.844650 0.000000 0.000000 
#    y 0.000000 1.844650 0.000000 
#    z 0.000000 0.000000 1.872700 
# 
# From -- ./inp_files/1130.got.cif
#   From: 2010.03.12/outbox.cif.g09.slc.cpg/sg112_1_cif.got.tgz:1130.got - 2010.04.14 02:02:48.
