data_PCOD8308995
_publ_section_title
;
Structure prediction by ZEFSAII (Michael W. Deem and Ramdas Pophale) SiO2 
 PCOD8308995
Probable space group: P -4 21 C
;
_chemical_formula_sum "Si O2"
_cell_formula_units_Z 42
_cell_length_a 8.696833
_cell_length_b 8.696833
_cell_length_c 26.952695
_cell_angle_alpha 90.000000
_cell_angle_beta 90.000000
_cell_angle_gamma 90.000000
_cell_volume 2038.564505
_symmetry_space_group_name_H-M "P -4 21 C"
_symmetry_group_IT_number 114
_symmetry_cell_setting 'tetragonal'
loop_
_space_group_symop_operation_xyz
x,y,z
y,-x,-z
-x,-y,z
-y,x,-z
1/2+x,1/2-y,1/2-z
1/2-x,1/2+y,1/2-z
1/2-y,1/2-x,1/2+z
1/2+y,1/2+x,1/2+z
loop_
_atom_site_type_symbol
_atom_site_label
_atom_site_fract_x
_atom_site_fract_y
_atom_site_fract_z
Si Si1 0.000000 0.500000 0.755660
Si Si2 0.000000 0.000000 0.500000
Si Si3 0.503586 0.754750 0.325717
Si Si4 0.729354 0.196273 0.470466
Si Si5 0.978247 0.673862 0.939528
Si Si6 0.763082 0.998809 0.168402
Si Si7 0.000000 0.500000 0.594186
O O1 0.853812 0.542503 0.722134
O O2 0.045651 0.641073 0.790249
O O3 0.097054 0.872138 0.469759
O O4 0.356763 0.656622 0.343580
O O5 0.635203 0.636433 0.309600
O O6 0.563447 0.863492 0.370514
O O7 0.660485 0.231562 0.525331
O O8 0.731042 0.364274 0.446312
O O9 0.631422 0.071383 0.440168
O O10 0.000000 0.500000 0.955395
O O11 0.934022 0.688329 0.881909
#
# Coordination Sequence:
#
# PCOD8308995 Si02
#       7
#     4   2   8   8   8   8   4
#     4  11  22  43  66  90 126 161 210 271 326 394
#     4  12  24  40  64  88 132 176 216 268 320 384
#     4  10  24  40  65  92 124 166 212 268 330 384
#     4  12  25  42  65  94 136 175 218 267 327 390
#     4  12  25  41  65  99 130 175 218 270 323 387
#     4  11  23  41  65  93 126 163 216 266 326 387
#     4  11  22  43  62  94 130 171 218 265 322 396
#
# _framework density 20.602732
#
# number of rings (size 3 to 8) (size 9 to 14) (size 15 to 20)
#    0.000    0.762    5.714    1.143    5.333    0.381 
#    0.000    0.000    0.000    0.000    0.000    0.000 
#    0.000    0.000    0.000    0.000    0.000    0.000 
#
# Total GULP energy -520737.188092 kJ/mol
# GULP energy per Si atom -12398.504478 kJ/mol
# Density = 2.055584 g / cm^3
# Si number density = 20.602732 Si / 1000 Ang^3
#
#
#
# Elastic Constant Matrix: (Units=GPa)
#
#
# Indices 1 2 3 4 5 6 
#
# 1 88.0515 20.2165 27.2629 0.0000 0.0000 0.0000
# 2 20.2165 88.0515 27.2629 0.0000 0.0000 0.0000
# 3 27.2629 27.2629 116.1669 0.0000 0.0000 0.0000
# 4 0.0000 0.0000 0.0000 30.9278 0.0000 0.0000
# 5 0.0000 0.0000 0.0000 0.0000 30.9278 0.0000
# 6 0.0000 0.0000 0.0000 0.0000 0.0000 31.1292
#
#
#
# Elastic Compliance Matrix: (Units=1/GPa)
#
#
# Indices 1 2 3 4 5 6 
#
# 1 0.012608 -0.002134 -0.002458 0.000000 0.000000 0.000000
# 2 -0.002134 0.012608 -0.002458 0.000000 0.000000 0.000000
# 3 -0.002458 -0.002458 0.009762 0.000000 0.000000 0.000000
# 4 0.000000 0.000000 0.000000 0.032333 0.000000 0.000000
# 5 0.000000 0.000000 0.000000 0.000000 0.032333 0.000000
# 6 0.000000 0.000000 0.000000 0.000000 0.000000 0.032124
#
#
# Mechanical properties :
#
#
# Convention : Reuss Voigt Hill
#
# Bulk Modulus (GPa) = 47.89727 49.08382 48.49055
# Shear Modulus (GPa) = 32.71643 33.09881 32.90762
#
# Velocity S-wave (km/s) = 3.98925 4.01250 4.00089
# Velocity P-wave (km/s) = 6.67213 6.73368 6.70298
#
# Compressibility (1/GPa) = 0.02087801
#
# Stress axis : x y z
#
# Youngs Moduli (GPa) = 79.31479 79.31479 102.43679
#
# Poissons Ratio (x) = 0.16923 0.25181
# Poissons Ratio (y) = 0.16923 0.25181
# Poissons Ratio (z) = 0.19497 0.19497
#
# Static dielectric constant tensor:
#      x y z
#    x 3.728690 0.000000 0.000000 
#    y 0.000000 3.728690 0.000000 
#    z 0.000000 0.000000 3.650250 
# 
# 
# High freq. dielectric constant tensor:
#      x y z
#    x 1.808490 0.000000 0.000000 
#    y 0.000000 1.808490 0.000000 
#    z 0.000000 0.000000 1.807030 
# 
# From -- ./inp_files/3700.got.cif
#   From: 2010.03.12/outbox.cif.g09.slc.cpg/sg114_2_cif.got.tgz:3700.got - 2010.04.14 02:08:34.
