data_PCOD8308335
_publ_section_title
;
Structure prediction by ZEFSAII (Michael W. Deem and Ramdas Pophale) SiO2 
 PCOD8308335
Probable space group: P -4 2 C
;
_chemical_formula_sum "Si O2"
_cell_formula_units_Z 44
_cell_length_a 8.670728
_cell_length_b 8.670728
_cell_length_c 30.786341
_cell_angle_alpha 90.000000
_cell_angle_beta 90.000000
_cell_angle_gamma 90.000000
_cell_volume 2314.564036
_symmetry_space_group_name_H-M "P -4 2 C"
_symmetry_group_IT_number 112
_symmetry_cell_setting 'tetragonal'
loop_
_space_group_symop_operation_xyz
x,y,z
y,-x,-z
-x,-y,z
-y,x,-z
x,-y,1/2-z
-x,y,1/2-z
-y,-x,1/2+z
y,x,1/2+z
loop_
_atom_site_type_symbol
_atom_site_label
_atom_site_fract_x
_atom_site_fract_y
_atom_site_fract_z
Si Si1 0.825465 0.446644 0.205059
Si Si2 0.855365 0.906570 0.833621
Si Si3 0.000000 0.500000 0.444067
Si Si4 0.328966 0.964407 0.393296
Si Si5 0.756436 0.033420 0.491455
Si Si6 0.820636 0.342408 0.372182
O O1 0.741674 0.500000 0.250000
O O2 0.817493 0.258299 0.200326
O O3 0.753059 0.540039 0.164299
O O4 0.000000 0.500000 0.208041
O O5 0.926108 0.788650 0.867910
O O6 0.742329 0.021709 0.858685
O O7 0.000000 0.000000 0.811331
O O8 0.918542 0.624920 0.474934
O O9 0.141020 0.561831 0.415197
O O10 0.307355 0.784511 0.382406
O O11 0.500000 0.000000 0.377449
O O12 0.309974 0.999065 0.443959
O O13 0.830341 0.879162 0.511295
#
# Coordination Sequence:
#
# PCOD8308335 Si02
#       6
#     8   8   4   8   8   8
#     4   9  17  33  58  89 114 140 186 242 293 346
#     4   9  18  33  58  82 110 144 186 231 287 350
#     4  12  18  34  55  80 112 146 191 230 280 346
#     4  11  22  37  52  81 114 149 193 236 292 337
#     4  11  23  33  54  80 109 147 189 234 277 345
#     4  10  19  35  58  81 110 150 183 234 294 347
#
# _framework density 19.010059999999999
#
# number of rings (size 3 to 8) (size 9 to 14) (size 15 to 20)
#    0.000    1.818    5.455    1.091    5.091    0.000 
#    0.000   16.364    0.000    6.000    0.000    0.000 
#    0.000    0.000    0.000    0.000    0.000    0.000 
#
# Total GULP energy -545386.337482 kJ/mol
# GULP energy per Si atom -12395.144034 kJ/mol
# Density = 1.896679 g / cm^3
# Si number density = 19.010060 Si / 1000 Ang^3
#
#
#
# Elastic Constant Matrix: (Units=GPa)
#
#
# Indices 1 2 3 4 5 6 
#
# 1 97.4147 39.3929 44.5460 0.0000 0.0000 0.0000
# 2 39.3929 97.4147 44.5460 0.0000 0.0000 0.0000
# 3 44.5460 44.5460 121.1021 0.0000 0.0000 0.0000
# 4 0.0000 0.0000 0.0000 13.8257 0.0000 0.0000
# 5 0.0000 0.0000 0.0000 0.0000 13.8257 0.0000
# 6 0.0000 0.0000 0.0000 0.0000 0.0000 20.1327
#
#
#
# Elastic Compliance Matrix: (Units=1/GPa)
#
#
# Indices 1 2 3 4 5 6 
#
# 1 0.013423 -0.003811 -0.003536 0.000000 0.000000 0.000000
# 2 -0.003811 0.013423 -0.003536 0.000000 0.000000 0.000000
# 3 -0.003536 -0.003536 0.010859 0.000000 0.000000 0.000000
# 4 0.000000 0.000000 0.000000 0.072329 0.000000 0.000000
# 5 0.000000 0.000000 0.000000 0.000000 0.072329 0.000000
# 6 0.000000 0.000000 0.000000 0.000000 0.000000 0.049671
#
#
# Mechanical properties :
#
#
# Convention : Reuss Voigt Hill
#
# Bulk Modulus (GPa) = 62.73529 63.65568 63.19548
# Shear Modulus (GPa) = 19.29661 22.05327 20.67494
#
# Velocity S-wave (km/s) = 3.18948 3.40970 3.30142
# Velocity P-wave (km/s) = 6.82909 7.00424 6.91722
#
# Compressibility (1/GPa) = 0.01593999
#
# Stress axis : x y z
#
# Youngs Moduli (GPa) = 74.49643 74.49643 92.09287
#
# Poissons Ratio (x) = 0.28394 0.32561
# Poissons Ratio (y) = 0.28394 0.32561
# Poissons Ratio (z) = 0.26340 0.26340
#
# Static dielectric constant tensor:
#      x y z
#    x 3.470990 0.000000 0.000000 
#    y 0.000000 3.470990 0.000000 
#    z 0.000000 0.000000 3.943130 
# 
# 
# High freq. dielectric constant tensor:
#      x y z
#    x 1.721620 0.000000 0.000000 
#    y 0.000000 1.721620 0.000000 
#    z 0.000000 0.000000 1.740900 
# 
# From -- ./inp_files/6199.got.cif
#   From: 2010.03.12/outbox.cif.g09.slc.cpg/sg112_4_cif.got.tgz:6199.got - 2010.04.14 02:02:48.
