data_PCOD8308899
_publ_section_title
;
Structure prediction by ZEFSAII (Michael W. Deem and Ramdas Pophale) SiO2 
 PCOD8308899
Probable space group: P -4 21 C
;
_chemical_formula_sum "Si O2"
_cell_formula_units_Z 40
_cell_length_a 9.460295
_cell_length_b 9.460295
_cell_length_c 22.101396
_cell_angle_alpha 90.000000
_cell_angle_beta 90.000000
_cell_angle_gamma 90.000000
_cell_volume 1978.012649
_symmetry_space_group_name_H-M "P -4 21 C"
_symmetry_group_IT_number 114
_symmetry_cell_setting 'tetragonal'
loop_
_space_group_symop_operation_xyz
x,y,z
y,-x,-z
-x,-y,z
-y,x,-z
1/2+x,1/2-y,1/2-z
1/2-x,1/2+y,1/2-z
1/2-y,1/2-x,1/2+z
1/2+y,1/2+x,1/2+z
loop_
_atom_site_type_symbol
_atom_site_label
_atom_site_fract_x
_atom_site_fract_y
_atom_site_fract_z
Si Si1 0.756107 0.640515 0.562759
Si Si2 0.899592 0.109106 0.127220
Si Si3 0.677826 0.135543 0.304015
Si Si4 0.173595 0.637790 0.724767
Si Si5 0.343412 0.014601 0.051163
O O1 0.652378 0.507054 0.573381
O O2 0.849375 0.664698 0.623342
O O3 0.852638 0.586559 0.507744
O O4 0.674778 0.783947 0.540635
O O5 0.835985 0.236056 0.165047
O O6 0.760077 0.038554 0.102677
O O7 0.000000 0.000000 0.166330
O O8 0.531256 0.162607 0.268390
O O9 0.795875 0.247080 0.282552
O O10 0.717963 0.975122 0.286362
O O11 0.500000 0.000000 0.078818
#
# Coordination Sequence:
#
# PCOD8308899 Si02
#       5
#     8   8   8   8   8
#     4  10  21  39  59  92 122 161 206 257 307 371
#     4   9  20  37  61  87 123 159 207 255 306 365
#     4  10  24  40  63  90 126 165 210 255 317 372
#     4  10  23  41  62  91 124 168 206 259 307 378
#     4  11  22  35  65  92 125 158 208 263 311 373
#
# _framework density 20.222317
#
# number of rings (size 3 to 8) (size 9 to 14) (size 15 to 20)
#    0.000    2.000    2.000    0.000   14.000    1.600 
#    0.000    0.000    0.000    3.000    0.000    0.000 
#    0.000    0.000    0.000    0.000    0.000    0.000 
#
# Total GULP energy -495564.615741 kJ/mol
# GULP energy per Si atom -12389.115394 kJ/mol
# Density = 2.017629 g / cm^3
# Si number density = 20.222317 Si / 1000 Ang^3
#
#
#
# Elastic Constant Matrix: (Units=GPa)
#
#
# Indices 1 2 3 4 5 6 
#
# 1 114.2188 34.9350 39.5258 0.0000 0.0000 0.0000
# 2 34.9350 114.2188 39.5258 0.0000 0.0000 0.0000
# 3 39.5258 39.5258 77.5824 0.0000 0.0000 0.0000
# 4 0.0000 0.0000 0.0000 26.9384 0.0000 0.0000
# 5 0.0000 0.0000 0.0000 0.0000 26.9384 0.0000
# 6 0.0000 0.0000 0.0000 0.0000 0.0000 25.9230
#
#
#
# Elastic Compliance Matrix: (Units=1/GPa)
#
#
# Indices 1 2 3 4 5 6 
#
# 1 0.010899 -0.001714 -0.004679 0.000000 0.000000 0.000000
# 2 -0.001714 0.010899 -0.004679 0.000000 0.000000 0.000000
# 3 -0.004679 -0.004679 0.017657 0.000000 0.000000 0.000000
# 4 0.000000 0.000000 0.000000 0.037122 0.000000 0.000000
# 5 0.000000 0.000000 0.000000 0.000000 0.037122 0.000000
# 6 0.000000 0.000000 0.000000 0.000000 0.000000 0.038576
#
#
# Mechanical properties :
#
#
# Convention : Reuss Voigt Hill
#
# Bulk Modulus (GPa) = 57.77186 59.33260 58.55223
# Shear Modulus (GPa) = 27.74864 28.76220 28.25542
#
# Velocity S-wave (km/s) = 3.70831 3.77543 3.74202
# Velocity P-wave (km/s) = 6.85316 6.95766 6.90561
#
# Compressibility (1/GPa) = 0.01730946
#
# Stress axis : x y z
#
# Youngs Moduli (GPa) = 91.75414 91.75414 56.63368
#
# Poissons Ratio (x) = 0.15729 0.26500
# Poissons Ratio (y) = 0.15729 0.26500
# Poissons Ratio (z) = 0.42934 0.42934
#
# Static dielectric constant tensor:
#      x y z
#    x 3.904690 0.000000 0.000000 
#    y 0.000000 3.904690 0.000000 
#    z 0.000000 0.000000 3.377600 
# 
# 
# High freq. dielectric constant tensor:
#      x y z
#    x 1.785870 0.000000 0.000000 
#    y 0.000000 1.785870 0.000000 
#    z 0.000000 0.000000 1.773820 
# 
# From -- ./inp_files/3377.got.cif
#   From: 2010.03.12/outbox.cif.g09.slc.cpg/sg114_2_cif.got.tgz:3377.got - 2010.04.14 02:08:34.
