data_PCOD8308825
_publ_section_title
;
Structure prediction by ZEFSAII (Michael W. Deem and Ramdas Pophale) SiO2 
 PCOD8308825
Probable space group: P -4 21 C
;
_chemical_formula_sum "Si O2"
_cell_formula_units_Z 56
_cell_length_a 15.151744
_cell_length_b 15.151744
_cell_length_c 12.921643
_cell_angle_alpha 90.000000
_cell_angle_beta 90.000000
_cell_angle_gamma 90.000000
_cell_volume 2966.490666
_symmetry_space_group_name_H-M "P -4 21 C"
_symmetry_group_IT_number 114
_symmetry_cell_setting 'tetragonal'
loop_
_space_group_symop_operation_xyz
x,y,z
y,-x,-z
-x,-y,z
-y,x,-z
1/2+x,1/2-y,1/2-z
1/2-x,1/2+y,1/2-z
1/2-y,1/2-x,1/2+z
1/2+y,1/2+x,1/2+z
loop_
_atom_site_type_symbol
_atom_site_label
_atom_site_fract_x
_atom_site_fract_y
_atom_site_fract_z
Si Si1 0.381900 0.269885 0.672718
Si Si2 0.312766 0.629006 0.670865
Si Si3 0.719693 0.563363 0.619999
Si Si4 0.274380 0.674207 0.107222
Si Si5 0.307851 0.921130 0.664268
Si Si6 0.066291 0.277258 0.897995
Si Si7 0.239531 0.610888 0.885442
O O1 0.360308 0.366807 0.627856
O O2 0.393763 0.277951 0.796787
O O3 0.463365 0.224528 0.618798
O O4 0.305523 0.202366 0.643673
O O5 0.319166 0.535863 0.610294
O O6 0.231094 0.684773 0.622566
O O7 0.398813 0.688140 0.656157
O O8 0.310768 0.603185 0.792953
O O9 0.787410 0.572708 0.714402
O O10 0.776662 0.587962 0.519457
O O11 0.362135 0.734112 0.106844
O O12 0.277620 0.619413 0.000939
O O13 0.399240 0.868487 0.651381
O O14 0.316867 0.019580 0.616461
#
# Coordination Sequence:
#
# PCOD8308825 Si02
#       7
#     8   8   8   8   8   8   8
#     4  10  21  32  51  81 103 131 175 213 253 317
#     4   9  20  34  52  76 101 136 173 210 259 315
#     4  10  19  36  53  73 105 134 170 215 261 303
#     4   9  18  35  54  74 101 135 176 215 254 302
#     4   9  21  34  52  78 100 136 177 208 255 322
#     4  11  20  33  54  77 104 134 171 214 259 307
#     4  10  19  36  54  71 106 140 168 212 265 305
#
# _framework density 18.877524000000001
#
# number of rings (size 3 to 8) (size 9 to 14) (size 15 to 20)
#    0.000    2.286    0.000    4.286    0.000    3.429 
#    0.000    1.429    0.000    7.286    0.000    0.000 
#    0.000    0.000    0.000    0.000    0.000    0.000 
#
# Total GULP energy -694044.760943 kJ/mol
# GULP energy per Si atom -12393.656445 kJ/mol
# Density = 1.883456 g / cm^3
# Si number density = 18.877524 Si / 1000 Ang^3
#
#
#
# Elastic Constant Matrix: (Units=GPa)
#
#
# Indices 1 2 3 4 5 6 
#
# 1 71.2176 1.8928 13.4000 0.0000 0.0000 0.0000
# 2 1.8928 71.2176 13.4000 0.0000 0.0000 0.0000
# 3 13.4000 13.4000 102.2347 0.0000 0.0000 0.0000
# 4 0.0000 0.0000 0.0000 22.1185 0.0000 0.0000
# 5 0.0000 0.0000 0.0000 0.0000 22.1185 0.0000
# 6 0.0000 0.0000 0.0000 0.0000 0.0000 9.1043
#
#
#
# Elastic Compliance Matrix: (Units=1/GPa)
#
#
# Indices 1 2 3 4 5 6 
#
# 1 0.014397 -0.000028 -0.001883 0.000000 0.000000 0.000000
# 2 -0.000028 0.014397 -0.001883 0.000000 0.000000 0.000000
# 3 -0.001883 -0.001883 0.010275 0.000000 0.000000 0.000000
# 4 0.000000 0.000000 0.000000 0.045211 0.000000 0.000000
# 5 0.000000 0.000000 0.000000 0.000000 0.045211 0.000000
# 6 0.000000 0.000000 0.000000 0.000000 0.000000 0.109838
#
#
# Mechanical properties :
#
#
# Convention : Reuss Voigt Hill
#
# Bulk Modulus (GPa) = 31.76762 33.56175 32.66468
# Shear Modulus (GPa) = 19.42422 25.06674 22.24548
#
# Velocity S-wave (km/s) = 3.21122 3.64794 3.43652
# Velocity P-wave (km/s) = 5.53300 5.96327 5.75216
#
# Compressibility (1/GPa) = 0.03147860
#
# Stress axis : x y z
#
# Youngs Moduli (GPa) = 69.46101 69.46101 97.32265
#
# Poissons Ratio (x) = 0.00196 0.18329
# Poissons Ratio (y) = 0.00196 0.18329
# Poissons Ratio (z) = 0.13081 0.13081
#
# Static dielectric constant tensor:
#      x y z
#    x 3.385810 0.000000 0.000000 
#    y 0.000000 3.385810 0.000000 
#    z 0.000000 0.000000 3.733790 
# 
# 
# High freq. dielectric constant tensor:
#      x y z
#    x 1.717700 0.000000 0.000000 
#    y 0.000000 1.717700 0.000000 
#    z 0.000000 0.000000 1.749450 
# 
# From -- ./inp_files/2264.got.cif
#   From: 2010.03.12/outbox.cif.g09.slc.cpg/sg114_2_cif.got.tgz:2264.got - 2010.04.14 02:08:34.
