data_PCOD8308523
_publ_section_title
;
Structure prediction by ZEFSAII (Michael W. Deem and Ramdas Pophale) SiO2 
 PCOD8308523
Probable space group: P -4 21 M 
;
_chemical_formula_sum "Si O2"
_cell_formula_units_Z 56
_cell_length_a 11.495457
_cell_length_b 11.495457
_cell_length_c 22.967641
_cell_angle_alpha 90.000000
_cell_angle_beta 90.000000
_cell_angle_gamma 90.000000
_cell_volume 3035.071130
_symmetry_space_group_name_H-M "P -4 21 M "
_symmetry_group_IT_number 113
_symmetry_cell_setting 'tetragonal'
loop_
_space_group_symop_operation_xyz
x,y,z
y,-x,-z
-x,-y,z
-y,x,-z
1/2+x,1/2-y,-z
1/2-x,1/2+y,-z
1/2-y,1/2-x,z
1/2+y,1/2+x,z
loop_
_atom_site_type_symbol
_atom_site_label
_atom_site_fract_x
_atom_site_fract_y
_atom_site_fract_z
Si Si1 0.450294 0.764169 0.629544
Si Si2 0.567924 0.746538 0.951834
Si Si3 0.994445 0.310751 0.241886
Si Si4 0.386281 0.699580 0.859190
Si Si5 0.508327 0.366362 0.067628
Si Si6 0.342252 0.658366 0.442622
Si Si7 0.396732 0.286129 0.429138
O O1 0.393243 0.893243 0.616954
O O2 0.503372 0.756920 0.693832
O O3 0.551090 0.728454 0.584961
O O4 0.348069 0.669793 0.623912
O O5 0.629503 0.870498 0.946449
O O6 0.446870 0.752784 0.916897
O O7 0.653170 0.646676 0.923977
O O8 0.544446 0.720293 0.019689
O O9 0.090456 0.409545 0.235229
O O10 0.023653 0.210122 0.194940
O O11 0.867488 0.367488 0.229934
O O12 0.268170 0.768170 0.845850
O O13 0.353096 0.564692 0.872051
O O14 0.500000 0.500000 0.045820
O O15 0.273572 0.773572 0.427973
O O16 0.352333 0.637295 0.511431
O O17 0.468238 0.690749 0.416659
O O18 0.349358 0.150643 0.432271
#
# Coordination Sequence:
#
# PCOD8308523 Si02
#       7
#     8   8   8   8   8   8   8
#     4  10  20  35  56  81 109 144 182 226 284 338
#     4  11  19  30  49  71 101 136 171 216 261 310
#     4   9  18  33  52  79 113 141 174 225 274 318
#     4  10  19  33  54  77 102 136 176 215 263 314
#     4  10  17  32  47  68 100 136 172 207 251 315
#     4  11  21  34  54  78 109 147 184 231 279 328
#     4  10  21  35  52  77 109 145 187 228 274 333
#
# _framework density 18.450968
#
# number of rings (size 3 to 8) (size 9 to 14) (size 15 to 20)
#    0.000    1.857    4.286    1.714    0.000    2.000 
#    0.000    5.714    0.000    1.286    0.000    0.000 
#    0.000    3.429    0.000    0.000    0.000    0.000 
#
# Total GULP energy -693784.466589 kJ/mol
# GULP energy per Si atom -12389.008332 kJ/mol
# Density = 1.840897 g / cm^3
# Si number density = 18.450968 Si / 1000 Ang^3
#
#
#
# Elastic Constant Matrix: (Units=GPa)
#
#
# Indices 1 2 3 4 5 6 
#
# 1 50.9668 13.9569 15.2478 0.0000 0.0000 0.0000
# 2 13.9569 50.9660 15.2483 0.0000 0.0000 0.0000
# 3 15.2478 15.2483 68.9379 0.0000 0.0000 0.0000
# 4 0.0000 0.0000 0.0000 23.6662 0.0000 0.0000
# 5 0.0000 0.0000 0.0000 0.0000 23.6662 0.0000
# 6 0.0000 0.0000 0.0000 0.0000 0.0000 25.3582
#
#
#
# Elastic Compliance Matrix: (Units=1/GPa)
#
#
# Indices 1 2 3 4 5 6 
#
# 1 0.022104 -0.004916 -0.003802 0.000000 0.000000 0.000000
# 2 -0.004916 0.022105 -0.003802 0.000000 0.000000 0.000000
# 3 -0.003802 -0.003802 0.016188 0.000000 0.000000 0.000000
# 4 0.000000 0.000000 0.000000 0.042254 0.000000 0.000000
# 5 0.000000 0.000000 0.000000 0.000000 0.042254 0.000000
# 6 0.000000 0.000000 0.000000 0.000000 0.000000 0.039435
#
#
# Mechanical properties :
#
#
# Convention : Reuss Voigt Hill
#
# Bulk Modulus (GPa) = 28.28262 28.86408 28.57335
# Shear Modulus (GPa) = 22.60756 22.96595 22.78675
#
# Velocity S-wave (km/s) = 3.50419 3.53186 3.51805
# Velocity P-wave (km/s) = 5.63332 5.68416 5.65880
#
# Compressibility (1/GPa) = 0.03535740
#
# Stress axis : x y z
#
# Youngs Moduli (GPa) = 45.24041 45.23943 61.77557
#
# Poissons Ratio (x) = 0.22239 0.23485
# Poissons Ratio (y) = 0.22239 0.23487
# Poissons Ratio (z) = 0.17199 0.17200
#
# Static dielectric constant tensor:
#      x y z
#    x 3.465990 0.000000 0.000000 
#    y 0.000000 3.465990 0.000000 
#    z 0.000000 0.000000 3.329990 
# 
# 
# High freq. dielectric constant tensor:
#      x y z
#    x 1.702900 0.000000 0.000000 
#    y 0.000000 1.702900 0.000000 
#    z 0.000000 0.000000 1.695470 
# 
# From -- ./inp_files/2669.got.cif
#   From: 2010.03.12/outbox.cif.g09.slc.cpg/sg113_cif.got.tgz:2669.got - 2010.04.14 02:06:34.
