data_PCOD8308880
_publ_section_title
;
Structure prediction by ZEFSAII (Michael W. Deem and Ramdas Pophale) SiO2 
 PCOD8308880
Probable space group: P -4 21 C
;
_chemical_formula_sum "Si O2"
_cell_formula_units_Z 56
_cell_length_a 10.876414
_cell_length_b 10.876414
_cell_length_c 23.735433
_cell_angle_alpha 90.000000
_cell_angle_beta 90.000000
_cell_angle_gamma 90.000000
_cell_volume 2807.815837
_symmetry_space_group_name_H-M "P -4 21 C"
_symmetry_group_IT_number 114
_symmetry_cell_setting 'tetragonal'
loop_
_space_group_symop_operation_xyz
x,y,z
y,-x,-z
-x,-y,z
-y,x,-z
1/2+x,1/2-y,1/2-z
1/2-x,1/2+y,1/2-z
1/2-y,1/2-x,1/2+z
1/2+y,1/2+x,1/2+z
loop_
_atom_site_type_symbol
_atom_site_label
_atom_site_fract_x
_atom_site_fract_y
_atom_site_fract_z
Si Si1 0.642218 0.234176 0.848803
Si Si2 0.144304 0.500000 0.956588
Si Si3 0.734176 0.857782 0.348803
Si Si4 0.360327 0.781954 0.462860
Si Si5 0.218046 0.639673 0.537140
Si Si6 0.233303 0.000000 0.664739
Si Si7 0.357581 0.000000 0.779624
O O1 0.500000 0.208726 0.861512
O O2 0.717856 0.221767 0.906774
O O3 0.656033 0.373839 0.825858
O O4 0.694907 0.127722 0.806725
O O5 0.210047 0.500000 0.896822
O O6 0.000000 0.500000 0.944755
O O7 0.185925 0.384999 0.993740
O O8 0.185925 0.615002 0.993739
O O9 0.721767 0.782144 0.406774
O O10 0.873839 0.843968 0.325858
O O11 0.627723 0.805093 0.306725
O O12 0.342349 0.657652 0.500000
O O13 0.500000 0.800436 0.443828
O O14 0.335751 0.000000 0.713011
O O15 0.500000 0.000000 0.790902
#
# Coordination Sequence:
#
# PCOD8308880 Si02
#       7
#     8   8   8   8   8   8   8
#     4  11  22  38  61  89 117 160 202 252 304 375
#     4  10  21  33  57  86 115 149 195 241 293 365
#     4  11  22  38  61  89 117 160 202 252 304 375
#     4  11  21  37  60  87 119 158 202 245 304 371
#     4  11  21  37  60  87 119 158 202 245 304 371
#     4  12  22  38  58  90 126 150 196 258 318 339
#     4  10  23  41  63  82 115 165 211 240 294 383
#
# _framework density 19.944330000000001
#
# number of rings (size 3 to 8) (size 9 to 14) (size 15 to 20)
#    0.000    1.143    5.714    1.714    0.000    0.286 
#    0.000    0.000    0.000    1.714    0.000    0.000 
#    0.000    0.000    0.000    0.000    0.000    0.000 
#
# Total GULP energy -693983.182446 kJ/mol
# GULP energy per Si atom -12392.556829 kJ/mol
# Density = 1.989894 g / cm^3
# Si number density = 19.944330 Si / 1000 Ang^3
#
#
#
# Elastic Constant Matrix: (Units=GPa)
#
#
# Indices 1 2 3 4 5 6 
#
# 1 86.9216 17.6508 32.2747 0.0000 0.0000 0.0000
# 2 17.6508 86.9216 32.2747 0.0000 0.0000 0.0000
# 3 32.2747 32.2747 106.5114 0.0000 0.0000 0.0000
# 4 0.0000 0.0000 0.0000 27.8742 0.0000 0.0000
# 5 0.0000 0.0000 0.0000 0.0000 27.8742 0.0000
# 6 0.0000 0.0000 0.0000 0.0000 0.0000 25.4933
#
#
#
# Elastic Compliance Matrix: (Units=1/GPa)
#
#
# Indices 1 2 3 4 5 6 
#
# 1 0.013100 -0.001337 -0.003564 0.000000 0.000000 0.000000
# 2 -0.001337 0.013100 -0.003564 0.000000 0.000000 0.000000
# 3 -0.003564 -0.003564 0.011549 0.000000 0.000000 0.000000
# 4 0.000000 0.000000 0.000000 0.035875 0.000000 0.000000
# 5 0.000000 0.000000 0.000000 0.000000 0.035875 0.000000
# 6 0.000000 0.000000 0.000000 0.000000 0.000000 0.039226
#
#
# Mechanical properties :
#
#
# Convention : Reuss Voigt Hill
#
# Bulk Modulus (GPa) = 48.03722 49.41724 48.72723
# Shear Modulus (GPa) = 28.96966 29.45864 29.21415
#
# Velocity S-wave (km/s) = 3.81534 3.84740 3.83140
# Velocity P-wave (km/s) = 6.59901 6.67593 6.63758
#
# Compressibility (1/GPa) = 0.02081719
#
# Stress axis : x y z
#
# Youngs Moduli (GPa) = 76.33876 76.33876 86.58924
#
# Poissons Ratio (x) = 0.10203 0.30863
# Poissons Ratio (y) = 0.10203 0.30863
# Poissons Ratio (z) = 0.27210 0.27210
#
# Static dielectric constant tensor:
#      x y z
#    x 3.595760 0.000000 0.000000 
#    y 0.000000 3.595760 0.000000 
#    z 0.000000 0.000000 3.541660 
# 
# 
# High freq. dielectric constant tensor:
#      x y z
#    x 1.769310 0.000000 0.000000 
#    y 0.000000 1.769310 0.000000 
#    z 0.000000 0.000000 1.788070 
# 
# From -- ./inp_files/3139.got.cif
#   From: 2010.03.12/outbox.cif.g09.slc.cpg/sg114_2_cif.got.tgz:3139.got - 2010.04.14 02:08:34.
