data_PCOD8308985
_publ_section_title
;
Structure prediction by ZEFSAII (Michael W. Deem and Ramdas Pophale) SiO2 
 PCOD8308985
Probable space group: P -4 21 C
;
_chemical_formula_sum "Si O2"
_cell_formula_units_Z 48
_cell_length_a 8.957951
_cell_length_b 8.957951
_cell_length_c 27.764976
_cell_angle_alpha 90.000000
_cell_angle_beta 90.000000
_cell_angle_gamma 90.000000
_cell_volume 2227.997337
_symmetry_space_group_name_H-M "P -4 21 C"
_symmetry_group_IT_number 114
_symmetry_cell_setting 'tetragonal'
loop_
_space_group_symop_operation_xyz
x,y,z
y,-x,-z
-x,-y,z
-y,x,-z
1/2+x,1/2-y,1/2-z
1/2-x,1/2+y,1/2-z
1/2-y,1/2-x,1/2+z
1/2+y,1/2+x,1/2+z
loop_
_atom_site_type_symbol
_atom_site_label
_atom_site_fract_x
_atom_site_fract_y
_atom_site_fract_z
Si Si1 0.527003 0.677791 0.198855
Si Si2 0.721129 0.325870 0.352324
Si Si3 0.168439 0.322625 0.958118
Si Si4 0.325867 0.776274 0.648151
Si Si5 0.677674 0.973847 0.800471
Si Si6 0.167737 0.670595 0.957491
O O1 0.500000 0.500000 0.197894
O O2 0.697333 0.713990 0.185356
O O3 0.445931 0.775270 0.157279
O O4 0.482680 0.749007 0.249847
O O5 0.751561 0.499356 0.339569
O O6 0.552374 0.275098 0.342653
O O7 0.750860 0.287869 0.407802
O O8 0.205031 0.238299 0.907939
O O9 0.186951 0.496716 0.948987
O O10 0.999325 0.284999 0.973242
O O11 0.279336 0.275587 0.999964
O O12 0.213288 0.696172 0.685506
O O13 0.500000 0.000000 0.800927
#
# Coordination Sequence:
#
# PCOD8308985 Si02
#       6
#     8   8   8   8   8   8
#     4  12  24  42  68  98 132 174 222 270 333 396
#     4  11  23  44  67  93 130 174 219 274 332 397
#     4  10  23  43  66  94 127 168 212 265 326 387
#     4  11  23  44  67  93 130 174 219 274 332 397
#     4  12  26  42  64  98 134 174 220 276 329 396
#     4  10  23  43  66  94 127 168 212 265 326 387
#
# _framework density 21.544011999999999
#
# number of rings (size 3 to 8) (size 9 to 14) (size 15 to 20)
#    0.000    1.000    1.667    5.000    2.333    3.333 
#    0.000    0.000    0.000    0.000    0.000    0.000 
#    0.000    0.000    0.000    0.000    0.000    0.000 
#
# Total GULP energy -595118.336233 kJ/mol
# GULP energy per Si atom -12398.298672 kJ/mol
# Density = 2.149498 g / cm^3
# Si number density = 21.544012 Si / 1000 Ang^3
#
#
#
# Elastic Constant Matrix: (Units=GPa)
#
#
# Indices 1 2 3 4 5 6 
#
# 1 79.8195 21.3769 39.5726 0.0000 0.0000 0.0000
# 2 21.3769 79.8195 39.5726 0.0000 0.0000 0.0000
# 3 39.5726 39.5726 126.1930 0.0000 0.0000 0.0000
# 4 0.0000 0.0000 0.0000 38.9905 0.0000 0.0000
# 5 0.0000 0.0000 0.0000 0.0000 38.9905 0.0000
# 6 0.0000 0.0000 0.0000 0.0000 0.0000 40.3805
#
#
#
# Elastic Compliance Matrix: (Units=1/GPa)
#
#
# Indices 1 2 3 4 5 6 
#
# 1 0.015102 -0.002009 -0.004106 0.000000 0.000000 0.000000
# 2 -0.002009 0.015102 -0.004106 0.000000 0.000000 0.000000
# 3 -0.004106 -0.004106 0.010499 0.000000 0.000000 0.000000
# 4 0.000000 0.000000 0.000000 0.025647 0.000000 0.000000
# 5 0.000000 0.000000 0.000000 0.000000 0.025647 0.000000
# 6 0.000000 0.000000 0.000000 0.000000 0.000000 0.024764
#
#
# Mechanical properties :
#
#
# Convention : Reuss Voigt Hill
#
# Bulk Modulus (GPa) = 49.35325 54.09736 51.72530
# Shear Modulus (GPa) = 34.73256 36.02628 35.37942
#
# Velocity S-wave (km/s) = 4.01954 4.09371 4.05679
# Velocity P-wave (km/s) = 6.67084 6.89270 6.78268
#
# Compressibility (1/GPa) = 0.02026209
#
# Stress axis : x y z
#
# Youngs Moduli (GPa) = 66.21711 66.21711 95.24340
#
# Poissons Ratio (x) = 0.13303 0.39105
# Poissons Ratio (y) = 0.13303 0.39105
# Poissons Ratio (z) = 0.27187 0.27187
#
# Static dielectric constant tensor:
#      x y z
#    x 3.824870 0.000000 0.000000 
#    y 0.000000 3.824870 0.000000 
#    z 0.000000 0.000000 3.739080 
# 
# 
# High freq. dielectric constant tensor:
#      x y z
#    x 1.851090 0.000000 0.000000 
#    y 0.000000 1.851090 0.000000 
#    z 0.000000 0.000000 1.854220 
# 
# From -- ./inp_files/3971.got.cif
#   From: 2010.03.12/outbox.cif.g09.slc.cpg/sg114_2_cif.got.tgz:3971.got - 2010.04.14 02:08:34.
