data_PCOD8308506
_publ_section_title
;
Structure prediction by ZEFSAII (Michael W. Deem and Ramdas Pophale) SiO2 
 PCOD8308506
Probable space group: P -4 2 C
;
_chemical_formula_sum "Si O2"
_cell_formula_units_Z 34
_cell_length_a 7.892553
_cell_length_b 7.892553
_cell_length_c 23.559278
_cell_angle_alpha 90.000000
_cell_angle_beta 90.000000
_cell_angle_gamma 90.000000
_cell_volume 1467.563801
_symmetry_space_group_name_H-M "P -4 2 C"
_symmetry_group_IT_number 112
_symmetry_cell_setting 'tetragonal'
loop_
_space_group_symop_operation_xyz
x,y,z
y,-x,-z
-x,-y,z
-y,x,-z
x,-y,1/2-z
-x,y,1/2-z
-y,-x,1/2+z
y,x,1/2+z
loop_
_atom_site_type_symbol
_atom_site_label
_atom_site_fract_x
_atom_site_fract_y
_atom_site_fract_z
Si Si1 0.500000 0.500000 0.750000
Si Si2 0.000000 0.000000 0.250000
Si Si3 0.428558 0.177838 0.427669
Si Si4 0.772722 0.263068 0.458402
Si Si5 0.000000 0.500000 0.114153
Si Si6 0.759139 0.262637 0.182072
Si Si7 0.000000 0.000000 0.000000
O O1 0.367636 0.379761 0.782851
O O2 0.126412 0.123154 0.285170
O O3 0.601206 0.288108 0.422531
O O4 0.311761 0.262016 0.475846
O O5 0.337185 0.161356 0.367535
O O6 0.500000 0.000000 0.449817
O O7 0.912193 0.371011 0.427603
O O8 0.845314 0.068857 0.460605
O O9 0.124360 0.595032 0.155772
#
# Coordination Sequence:
#
# PCOD8308506 Si02
#       7
#     2   2   8   8   4   8   2
#     4  12  28  56  76 106 148 200 260 344 392 450
#     4  12  32  54  80 110 148 200 280 354 384 446
#     4  12  26  42  73 110 150 197 243 303 379 461
#     4  12  24  44  69 111 157 194 237 300 370 477
#     4  12  26  47  74 110 148 201 238 308 388 476
#     4  12  29  50  80 107 147 201 263 327 397 458
#     4  12  20  38  64  96 156 202 240 282 344 440
#
# _framework density 23.167646999999999
#
# number of rings (size 3 to 8) (size 9 to 14) (size 15 to 20)
#    0.000    0.000    3.529    5.647    6.588    3.294 
#    0.000    0.000    0.000    0.000    0.000    0.000 
#    0.000    0.000    0.000    0.000    0.000    0.000 
#
# Total GULP energy -421413.949835 kJ/mol
# GULP energy per Si atom -12394.527936 kJ/mol
# Density = 2.311492 g / cm^3
# Si number density = 23.167647 Si / 1000 Ang^3
#
#
#
# Elastic Constant Matrix: (Units=GPa)
#
#
# Indices 1 2 3 4 5 6 
#
# 1 125.0684 45.3955 56.6506 0.0000 0.0000 0.0000
# 2 45.3955 125.0684 56.6506 0.0000 0.0000 0.0000
# 3 56.6506 56.6506 132.2536 0.0000 0.0000 0.0000
# 4 0.0000 0.0000 0.0000 53.5162 0.0000 0.0000
# 5 0.0000 0.0000 0.0000 0.0000 53.5162 0.0000
# 6 0.0000 0.0000 0.0000 0.0000 0.0000 33.6978
#
#
#
# Elastic Compliance Matrix: (Units=1/GPa)
#
#
# Indices 1 2 3 4 5 6 
#
# 1 0.010376 -0.002175 -0.003513 0.000000 0.000000 0.000000
# 2 -0.002175 0.010376 -0.003513 0.000000 0.000000 0.000000
# 3 -0.003513 -0.003513 0.010571 0.000000 0.000000 0.000000
# 4 0.000000 0.000000 0.000000 0.018686 0.000000 0.000000
# 5 0.000000 0.000000 0.000000 0.000000 0.018686 0.000000
# 6 0.000000 0.000000 0.000000 0.000000 0.000000 0.029675
#
#
# Mechanical properties :
#
#
# Convention : Reuss Voigt Hill
#
# Bulk Modulus (GPa) = 77.39109 77.75374 77.57242
# Shear Modulus (GPa) = 41.29499 43.05895 42.17697
#
# Velocity S-wave (km/s) = 4.22648 4.31580 4.27137
# Velocity P-wave (km/s) = 7.56933 7.64651 7.60802
#
# Compressibility (1/GPa) = 0.01292138
#
# Stress axis : x y z
#
# Youngs Moduli (GPa) = 96.37327 96.37327 94.60001
#
# Poissons Ratio (x) = 0.20961 0.33233
# Poissons Ratio (y) = 0.20961 0.33233
# Poissons Ratio (z) = 0.33856 0.33856
#
# Static dielectric constant tensor:
#      x y z
#    x 4.092290 0.000000 0.000000 
#    y 0.000000 4.092290 0.000000 
#    z 0.000000 0.000000 4.210770 
# 
# 
# High freq. dielectric constant tensor:
#      x y z
#    x 1.941850 0.000000 0.000000 
#    y 0.000000 1.941850 0.000000 
#    z 0.000000 0.000000 1.905340 
# 
# From -- ./inp_files/4772.got.cif
#   From: 2010.03.12/outbox.cif.g09.slc.cpg/sg112_3_cif.got.tgz:4772.got - 2010.04.14 02:02:48.
