data_PCOD8308362
_publ_section_title
;
Structure prediction by ZEFSAII (Michael W. Deem and Ramdas Pophale) SiO2 
 PCOD8308362
Probable space group: P -4 2 C
;
_chemical_formula_sum "Si O2"
_cell_formula_units_Z 40
_cell_length_a 12.483843
_cell_length_b 12.483843
_cell_length_c 14.130412
_cell_angle_alpha 90.000000
_cell_angle_beta 90.000000
_cell_angle_gamma 90.000000
_cell_volume 2202.172937
_symmetry_space_group_name_H-M "P -4 2 C"
_symmetry_group_IT_number 112
_symmetry_cell_setting 'tetragonal'
loop_
_space_group_symop_operation_xyz
x,y,z
y,-x,-z
-x,-y,z
-y,x,-z
x,-y,1/2-z
-x,y,1/2-z
-y,-x,1/2+z
y,x,1/2+z
loop_
_atom_site_type_symbol
_atom_site_label
_atom_site_fract_x
_atom_site_fract_y
_atom_site_fract_z
Si Si1 0.751185 0.610152 0.201921
Si Si2 0.858919 0.094853 0.996923
Si Si3 0.705391 0.193986 0.608780
Si Si4 0.368238 0.605292 0.977233
Si Si5 0.309332 0.962819 0.851313
O O1 0.716722 0.500000 0.250000
O O2 0.758654 0.699907 0.284568
O O3 0.660896 0.639691 0.125447
O O4 0.871625 0.597900 0.156898
O O5 0.810416 0.170094 0.079067
O O6 0.785505 0.098479 0.904753
O O7 0.974875 0.135534 0.962098
O O8 0.638378 0.266860 0.538362
O O9 0.653285 0.073781 0.598955
O O10 0.476629 0.637525 0.033286
O O11 0.263854 0.000000 0.750000
#
# Coordination Sequence:
#
# PCOD8308362 Si02
#       5
#     8   8   8   8   8
#     4  11  21  38  59  86 114 147 197 249 293 356
#     4   9  17  33  56  82 120 156 188 236 299 355
#     4  10  20  36  56  85 118 152 189 245 292 352
#     4  11  23  40  59  82 116 155 197 243 305 346
#     4   9  19  33  58  86 116 147 197 241 298 352
#
# _framework density 18.163876999999999
#
# number of rings (size 3 to 8) (size 9 to 14) (size 15 to 20)
#    0.000    2.000    4.000    0.000    0.000    4.400 
#    0.000   17.000    0.000    0.000    0.000    0.000 
#    0.000    0.000    0.000    0.000    0.000    0.000 
#
# Total GULP energy -495661.660134 kJ/mol
# GULP energy per Si atom -12391.541503 kJ/mol
# Density = 1.812254 g / cm^3
# Si number density = 18.163877 Si / 1000 Ang^3
#
#
#
# Elastic Constant Matrix: (Units=GPa)
#
#
# Indices 1 2 3 4 5 6 
#
# 1 84.4407 33.0233 45.3046 0.0000 0.0000 0.0000
# 2 33.0233 84.4407 45.3046 0.0000 0.0000 0.0000
# 3 45.3046 45.3046 94.2664 0.0000 0.0000 0.0000
# 4 0.0000 0.0000 0.0000 34.3747 0.0000 0.0000
# 5 0.0000 0.0000 0.0000 0.0000 34.3747 0.0000
# 6 0.0000 0.0000 0.0000 0.0000 0.0000 25.1994
#
#
#
# Elastic Compliance Matrix: (Units=1/GPa)
#
#
# Indices 1 2 3 4 5 6 
#
# 1 0.016489 -0.002960 -0.006502 0.000000 0.000000 0.000000
# 2 -0.002960 0.016489 -0.006502 0.000000 0.000000 0.000000
# 3 -0.006502 -0.006502 0.016858 0.000000 0.000000 0.000000
# 4 0.000000 0.000000 0.000000 0.029091 0.000000 0.000000
# 5 0.000000 0.000000 0.000000 0.000000 0.029091 0.000000
# 6 0.000000 0.000000 0.000000 0.000000 0.000000 0.039684
#
#
# Mechanical properties :
#
#
# Convention : Reuss Voigt Hill
#
# Bulk Modulus (GPa) = 55.84214 56.71253 56.27734
# Shear Modulus (GPa) = 26.93995 28.09076 27.51536
#
# Velocity S-wave (km/s) = 3.85536 3.93685 3.89632
# Velocity P-wave (km/s) = 7.11538 7.20802 7.16185
#
# Compressibility (1/GPa) = 0.01790762
#
# Stress axis : x y z
#
# Youngs Moduli (GPa) = 60.64774 60.64774 59.31945
#
# Poissons Ratio (x) = 0.17952 0.38569
# Poissons Ratio (y) = 0.17952 0.38569
# Poissons Ratio (z) = 0.39433 0.39433
#
# Static dielectric constant tensor:
#      x y z
#    x 3.493550 0.000000 0.000000 
#    y 0.000000 3.493550 0.000000 
#    z 0.000000 0.000000 3.442110 
# 
# 
# High freq. dielectric constant tensor:
#      x y z
#    x 1.702750 0.000000 0.000000 
#    y 0.000000 1.702750 0.000000 
#    z 0.000000 0.000000 1.693700 
# 
# From -- ./inp_files/3274.got.cif
#   From: 2010.03.12/outbox.cif.g09.slc.cpg/sg112_2_cif.got.tgz:3274.got - 2010.04.14 02:02:48.
