data_PCOD8308434
_publ_section_title
;
Structure prediction by ZEFSAII (Michael W. Deem and Ramdas Pophale) SiO2 
 PCOD8308434
Probable space group: P -4 2 C
;
_chemical_formula_sum "Si O2"
_cell_formula_units_Z 48
_cell_length_a 13.595545
_cell_length_b 13.595545
_cell_length_c 12.619898
_cell_angle_alpha 90.000000
_cell_angle_beta 90.000000
_cell_angle_gamma 90.000000
_cell_volume 2332.647356
_symmetry_space_group_name_H-M "P -4 2 C"
_symmetry_group_IT_number 112
_symmetry_cell_setting 'tetragonal'
loop_
_space_group_symop_operation_xyz
x,y,z
y,-x,-z
-x,-y,z
-y,x,-z
x,-y,1/2-z
-x,y,1/2-z
-y,-x,1/2+z
y,x,1/2+z
loop_
_atom_site_type_symbol
_atom_site_label
_atom_site_fract_x
_atom_site_fract_y
_atom_site_fract_z
Si Si1 0.008496 0.192499 0.374180
Si Si2 0.463509 0.152211 0.418386
Si Si3 0.688334 0.500000 0.750000
Si Si4 0.610573 0.713126 0.766096
Si Si5 0.164727 0.342833 0.460031
Si Si6 0.000000 0.000000 0.000000
Si Si7 0.000000 0.500000 0.750000
Si Si8 0.808060 0.714450 0.075216
O O1 0.081824 0.282541 0.397722
O O2 0.000000 0.174580 0.250000
O O3 0.040329 0.089748 0.427914
O O4 0.904902 0.221557 0.422315
O O5 0.497722 0.249280 0.357283
O O6 0.555320 0.119299 0.493212
O O7 0.436015 0.069023 0.329573
O O8 0.368204 0.177734 0.485803
O O9 0.622219 0.597431 0.744209
O O10 0.500000 0.744045 0.750000
O O11 0.638720 0.741630 0.884914
O O12 0.670671 0.783570 0.688711
O O13 0.208758 0.278999 0.554475
#
# Coordination Sequence:
#
# PCOD8308434 Si02
#       8
#     8   8   4   8   8   2   2   8
#     4  12  26  45  70 101 127 172 228 278 345 414
#     4  11  23  42  65  98 135 173 230 283 334 408
#     4  11  23  39  67  98 138 180 237 269 329 403
#     4  12  24  42  67 102 139 183 231 284 332 405
#     4  12  24  43  69  97 138 181 223 282 346 404
#     4  12  26  48  68  98 136 168 214 284 340 430
#     4  10  24  44  62  90 130 170 218 288 332 388
#     4  12  24  43  69  97 138 181 223 282 346 404
#
# _framework density 20.577476999999998
#
# number of rings (size 3 to 8) (size 9 to 14) (size 15 to 20)
#    0.000    0.333    8.333    1.500    0.000    0.000 
#    0.000    1.667    0.000    0.000    0.000    0.000 
#    0.000    0.000    0.000    0.000    0.000    0.000 
#
# Total GULP energy -595221.023612 kJ/mol
# GULP energy per Si atom -12400.437992 kJ/mol
# Density = 2.053064 g / cm^3
# Si number density = 20.577477 Si / 1000 Ang^3
#
#
#
# Elastic Constant Matrix: (Units=GPa)
#
#
# Indices 1 2 3 4 5 6 
#
# 1 89.1509 14.4709 26.4864 0.0000 0.0000 0.0000
# 2 14.4709 89.1509 26.4864 0.0000 0.0000 0.0000
# 3 26.4864 26.4864 102.7539 0.0000 0.0000 0.0000
# 4 0.0000 0.0000 0.0000 30.8417 0.0000 0.0000
# 5 0.0000 0.0000 0.0000 0.0000 30.8417 0.0000
# 6 0.0000 0.0000 0.0000 0.0000 0.0000 52.3898
#
#
#
# Elastic Compliance Matrix: (Units=1/GPa)
#
#
# Indices 1 2 3 4 5 6 
#
# 1 0.012253 -0.001138 -0.002865 0.000000 0.000000 0.000000
# 2 -0.001138 0.012253 -0.002865 0.000000 0.000000 0.000000
# 3 -0.002865 -0.002865 0.011209 0.000000 0.000000 0.000000
# 4 0.000000 0.000000 0.000000 0.032424 0.000000 0.000000
# 5 0.000000 0.000000 0.000000 0.000000 0.032424 0.000000
# 6 0.000000 0.000000 0.000000 0.000000 0.000000 0.019088
#
#
# Mechanical properties :
#
#
# Convention : Reuss Voigt Hill
#
# Bulk Modulus (GPa) = 45.49810 46.21590 45.85700
# Shear Modulus (GPa) = 35.53369 37.05547 36.29458
#
# Velocity S-wave (km/s) = 4.16002 4.24816 4.20432
# Velocity P-wave (km/s) = 6.72554 6.82427 6.77509
#
# Compressibility (1/GPa) = 0.02197894
#
# Stress axis : x y z
#
# Youngs Moduli (GPa) = 81.61398 81.61398 89.21375
#
# Poissons Ratio (x) = 0.09285 0.25561
# Poissons Ratio (y) = 0.09285 0.25561
# Poissons Ratio (z) = 0.23383 0.23383
#
# Static dielectric constant tensor:
#      x y z
#    x 3.706400 0.000000 0.000000 
#    y 0.000000 3.706400 0.000000 
#    z 0.000000 0.000000 3.700730 
# 
# 
# High freq. dielectric constant tensor:
#      x y z
#    x 1.807190 0.000000 0.000000 
#    y 0.000000 1.807190 0.000000 
#    z 0.000000 0.000000 1.817090 
# 
# From -- ./inp_files/2623.got.cif
#   From: 2010.03.12/outbox.cif.g09.slc.cpg/sg112_2_cif.got.tgz:2623.got - 2010.04.14 02:02:48.
