data_PCOD8308248
_publ_section_title
;
Structure prediction by ZEFSAII (Michael W. Deem and Ramdas Pophale) SiO2 
 PCOD8308248
Probable space group: P -4 2 M 
;
_chemical_formula_sum "Si O2"
_cell_formula_units_Z 60
_cell_length_a 12.523733
_cell_length_b 12.523733
_cell_length_c 20.961859
_cell_angle_alpha 90.000000
_cell_angle_beta 90.000000
_cell_angle_gamma 90.000000
_cell_volume 3287.739471
_symmetry_space_group_name_H-M "P -4 2 M "
_symmetry_group_IT_number 111
_symmetry_cell_setting 'tetragonal'
loop_
_space_group_symop_operation_xyz
x,y,z
y,-x,-z
-x,-y,z
-y,x,-z
x,-y,-z
-x,y,-z
-y,-x,z
y,x,z
loop_
_atom_site_type_symbol
_atom_site_label
_atom_site_fract_x
_atom_site_fract_y
_atom_site_fract_z
Si Si1 0.383026 0.791014 0.640714
Si Si2 0.430456 0.260549 0.556177
Si Si3 0.190889 0.634216 0.787898
Si Si4 0.711178 0.114760 0.522625
Si Si5 0.617407 0.981388 0.867386
Si Si6 0.164039 0.000120 0.073751
Si Si7 0.500000 0.673234 0.000000
Si Si8 0.745536 0.433249 0.136215
O O1 0.318720 0.681281 0.631159
O O2 0.503603 0.770431 0.618686
O O3 0.386050 0.826162 0.713452
O O4 0.329830 0.882321 0.596130
O O5 0.500000 0.316143 0.500000
O O6 0.340352 0.340352 0.580510
O O7 0.381809 0.154541 0.524299
O O8 0.254762 0.745239 0.799948
O O9 0.260590 0.539527 0.820365
O O10 0.068426 0.637278 0.811934
O O11 0.815053 0.184948 0.514603
O O12 0.746680 0.000000 0.500000
O O13 0.709680 0.002713 0.917806
O O14 0.625369 0.857331 0.845951
O O15 0.500000 0.000000 0.897993
O O16 0.106351 0.893650 0.102905
O O17 0.105821 0.105821 0.103039
O O18 0.142684 0.000000 0.000000
O O19 0.532326 0.745055 0.938789
O O20 0.599735 0.599735 0.020879
O O21 0.645710 0.354291 0.150964
#
# Coordination Sequence:
#
# PCOD8308248 Si02
#       8
#     8   8   8   8   8   8   4   8
#     4   9  19  34  53  76 105 139 178 217 255 313
#     4   9  17  29  47  77 111 137 168 208 259 317
#     4  10  21  38  57  77 105 147 188 223 268 324
#     4   9  18  34  53  79 107 137 179 223 267 315
#     4  10  21  35  50  73 105 139 173 214 265 319
#     4   9  18  33  54  78 100 127 168 216 266 320
#     4   9  18  34  57  82 108 144 185 227 278 340
#     4  10  21  37  56  81 111 140 181 232 282 331
#
# _framework density 18.249621999999999
#
# number of rings (size 3 to 8) (size 9 to 14) (size 15 to 20)
#    0.000    2.600    0.000    2.800    0.000    7.200 
#    7.200    4.667    0.000    0.800    0.000    3.733 
#    0.000    0.000    0.000    0.000    0.000    0.000 
#
# Total GULP energy -743433.945973 kJ/mol
# GULP energy per Si atom -12390.565766 kJ/mol
# Density = 1.820808 g / cm^3
# Si number density = 18.249622 Si / 1000 Ang^3
#
#
#
# Elastic Constant Matrix: (Units=GPa)
#
#
# Indices 1 2 3 4 5 6 
#
# 1 93.9009 58.6831 52.2449 0.0000 0.0000 0.0000
# 2 58.6831 93.8852 52.2445 0.0000 0.0000 0.0000
# 3 52.2449 52.2445 98.3455 0.0000 0.0000 0.0000
# 4 0.0000 0.0000 0.0000 21.1118 0.0000 0.0000
# 5 0.0000 0.0000 0.0000 0.0000 21.1112 0.0000
# 6 0.0000 0.0000 0.0000 0.0000 0.0000 14.6599
#
#
#
# Elastic Compliance Matrix: (Units=1/GPa)
#
#
# Indices 1 2 3 4 5 6 
#
# 1 0.019349 -0.009049 -0.005472 0.000000 0.000000 0.000000
# 2 -0.009049 0.019354 -0.005474 0.000000 0.000000 0.000000
# 3 -0.005472 -0.005474 0.015983 0.000000 0.000000 0.000000
# 4 0.000000 0.000000 0.000000 0.047367 0.000000 0.000000
# 5 0.000000 0.000000 0.000000 0.000000 0.047368 0.000000
# 6 0.000000 0.000000 0.000000 0.000000 0.000000 0.068213
#
#
# Mechanical properties :
#
#
# Convention : Reuss Voigt Hill
#
# Bulk Modulus (GPa) = 68.04670 68.05295 68.04983
# Shear Modulus (GPa) = 19.04591 19.57385 19.30988
#
# Velocity S-wave (km/s) = 3.23404 3.27855 3.25637
# Velocity P-wave (km/s) = 7.16330 7.19047 7.17690
#
# Compressibility (1/GPa) = 0.01469579
#
# Stress axis : x y z
#
# Youngs Moduli (GPa) = 51.68131 51.66944 62.56654
#
# Poissons Ratio (x) = 0.46758 0.34235
# Poissons Ratio (y) = 0.46769 0.34249
# Poissons Ratio (z) = 0.28279 0.28284
#
# Static dielectric constant tensor:
#      x y z
#    x 3.446760 0.000000 0.000000 
#    y 0.000000 3.446760 0.000000 
#    z 0.000000 0.000000 3.178430 
# 
# 
# High freq. dielectric constant tensor:
#      x y z
#    x 1.710000 0.000000 0.000000 
#    y 0.000000 1.710000 0.000000 
#    z 0.000000 0.000000 1.682110 
# 
# From -- ./inp_files/4028.got.cif
#   From: 2010.03.12/outbox.cif.g09.slc.cpg/sg111_3_cif.got.tgz:4028.got - 2010.04.14 01:59:48.
