data_PCOD8308073
_publ_section_title
;
Structure prediction by ZEFSAII (Michael W. Deem and Ramdas Pophale) SiO2 
 PCOD8308073
Probable space group: I 41 C D
;
_chemical_formula_sum "Si O2"
_cell_formula_units_Z 32
_cell_length_a 8.779080
_cell_length_b 8.779080
_cell_length_c 16.186786
_cell_angle_alpha 90.000000
_cell_angle_beta 90.000000
_cell_angle_gamma 90.000000
_cell_volume 1247.551947
_symmetry_space_group_name_H-M "I 41 C D"
_symmetry_group_IT_number 110
_symmetry_cell_setting 'tetragonal'
loop_
_space_group_symop_operation_xyz
x,y,z
-y,1/2+x,1/4+z
-x,-y,z
y,1/2-x,1/4+z
-x,y,1/2+z
x,-y,1/2+z
1/2-y,-x,1/4+z
1/2+y,x,1/4+z
1/2+x,1/2+y,1/2+z
1/2-y,x,3/4+z
1/2-x,1/2-y,1/2+z
1/2+y,-x,3/4+z
1/2-x,1/2+y,z
1/2+x,1/2-y,z
-y,1/2-x,3/4+z
y,1/2+x,3/4+z
loop_
_atom_site_type_symbol
_atom_site_label
_atom_site_fract_x
_atom_site_fract_y
_atom_site_fract_z
Si Si1 0.774340 0.548012 0.487360
Si Si2 0.548012 0.225662 0.050231
O O1 0.614494 0.614493 0.518795
O O2 0.750000 0.493584 0.393795
O O3 0.821719 0.404950 0.544068
O O4 0.904953 0.678279 0.493523
#
# Coordination Sequence:
#
# PCOD8308073 Si02
#       2
#    16  16
#     4  11  24  43  68 102 139 183 230 283 343 410
#     4  11  24  43  68 102 139 183 230 283 343 410
#
# _framework density 25.650236
#
# number of rings (size 3 to 8) (size 9 to 14) (size 15 to 20)
#    0.000    1.000    0.000    6.000    0.000   10.000 
#    0.000    0.000    0.000    0.000    0.000    0.000 
#    0.000    0.000    0.000    0.000    0.000    0.000 
#
# Total GULP energy -198491.589779 kJ/mol
# GULP energy per Si atom -12405.724361 kJ/mol
# Density = 2.559185 g / cm^3
# Si number density = 25.650236 Si / 1000 Ang^3
#
#
#
# Elastic Constant Matrix: (Units=GPa)
#
#
# Indices 1 2 3 4 5 6 
#
# 1 47.0271 37.5882 23.5012 0.0000 0.0000 0.0000
# 2 37.5882 47.0271 23.5012 0.0000 0.0000 0.0000
# 3 23.5012 23.5012 134.2225 0.0000 0.0000 0.0000
# 4 0.0000 0.0000 0.0000 38.4387 0.0000 0.0000
# 5 0.0000 0.0000 0.0000 0.0000 38.4387 0.0000
# 6 0.0000 0.0000 0.0000 0.0000 0.0000 66.1876
#
#
#
# Elastic Compliance Matrix: (Units=1/GPa)
#
#
# Indices 1 2 3 4 5 6 
#
# 1 0.059518 -0.046426 -0.002292 0.000000 0.000000 0.000000
# 2 -0.046426 0.059518 -0.002292 0.000000 0.000000 0.000000
# 3 -0.002292 -0.002292 0.008253 0.000000 0.000000 0.000000
# 4 0.000000 0.000000 0.000000 0.026015 0.000000 0.000000
# 5 0.000000 0.000000 0.000000 0.000000 0.026015 0.000000
# 6 0.000000 0.000000 0.000000 0.000000 0.000000 0.015109
#
#
# Mechanical properties :
#
#
# Convention : Reuss Voigt Hill
#
# Bulk Modulus (GPa) = 39.57709 44.16199 41.86954
# Shear Modulus (GPa) = 16.40034 38.19206 27.29620
#
# Velocity S-wave (km/s) = 2.53135 3.86288 3.26570
# Velocity P-wave (km/s) = 4.89966 6.09510 5.52978
#
# Compressibility (1/GPa) = 0.02526715
#
# Stress axis : x y z
#
# Youngs Moduli (GPa) = 16.80171 16.80171 121.16789
#
# Poissons Ratio (x) = 0.78004 0.27774
# Poissons Ratio (y) = 0.78004 0.27774
# Poissons Ratio (z) = 0.03851 0.03851
#
# Static dielectric constant tensor:
#      x y z
#    x 4.714760 0.000000 0.000000 
#    y 0.000000 4.714760 0.000000 
#    z 0.000000 0.000000 4.319170 
# 
# 
# High freq. dielectric constant tensor:
#      x y z
#    x 2.034520 0.000000 0.000000 
#    y 0.000000 2.034520 0.000000 
#    z 0.000000 0.000000 2.012840 
# 
# From -- ./inp_files/591.got.cif
#   From: 2010.03.12/outbox.cif.g09.slc.cpg/sg110_1_cif.got.tgz:591.got - 2010.04.14 01:58:01.
