data_PCOD8308358
_publ_section_title
;
Structure prediction by ZEFSAII (Michael W. Deem and Ramdas Pophale) SiO2 
 PCOD8308358
Probable space group: P -4 2 C
;
_chemical_formula_sum "Si O2"
_cell_formula_units_Z 48
_cell_length_a 8.151842
_cell_length_b 8.151842
_cell_length_c 33.582415
_cell_angle_alpha 90.000000
_cell_angle_beta 90.000000
_cell_angle_gamma 90.000000
_cell_volume 2231.636373
_symmetry_space_group_name_H-M "P -4 2 C"
_symmetry_group_IT_number 112
_symmetry_cell_setting 'tetragonal'
loop_
_space_group_symop_operation_xyz
x,y,z
y,-x,-z
-x,-y,z
-y,x,-z
x,-y,1/2-z
-x,y,1/2-z
-y,-x,1/2+z
y,x,1/2+z
loop_
_atom_site_type_symbol
_atom_site_label
_atom_site_fract_x
_atom_site_fract_y
_atom_site_fract_z
Si Si1 0.819741 0.808813 0.159839
Si Si2 0.191186 0.180259 0.840161
Si Si3 0.186747 0.813253 0.500000
Si Si4 0.312951 0.687239 0.580557
Si Si5 0.687239 0.312952 0.419443
Si Si6 0.195583 0.500000 0.795562
O O1 0.797810 0.779360 0.112851
O O2 0.666345 0.730345 0.184236
O O3 0.000000 0.736875 0.172566
O O4 0.821646 1.000000 0.168626
O O5 0.220639 0.202191 0.887149
O O6 0.269655 0.333655 0.815763
O O7 0.230716 0.702118 0.537565
O O8 0.297882 0.769284 0.462435
O O9 1.000000 0.780931 0.487577
O O10 0.298338 0.500000 0.594560
O O11 0.500000 0.745636 0.577702
O O12 0.252157 0.500000 0.750000
O O13 0.000000 0.500000 0.800069
#
# Coordination Sequence:
#
# PCOD8308358 Si02
#       6
#     8   8   8   8   8   8
#     4  10  20  35  58  86 115 152 195 238 293 358
#     4  10  20  35  58  86 115 152 195 238 293 358
#     4  11  24  39  56  82 114 149 192 241 292 348
#     4  11  23  38  57  82 113 151 195 240 291 350
#     4  11  23  38  57  82 113 151 195 240 291 350
#     4   9  18  34  57  87 121 153 189 241 301 355
#
# _framework density 21.508883000000001
#
# number of rings (size 3 to 8) (size 9 to 14) (size 15 to 20)
#    0.000    1.667    1.667    3.000    0.000   10.667 
#    0.000    3.333    0.000    2.000    0.000    2.333 
#    0.000    0.000    0.000    0.000    0.000    0.000 
#
# Total GULP energy -595152.138489 kJ/mol
# GULP energy per Si atom -12399.002885 kJ/mol
# Density = 2.145993 g / cm^3
# Si number density = 21.508883 Si / 1000 Ang^3
#
#
#
# Elastic Constant Matrix: (Units=GPa)
#
#
# Indices 1 2 3 4 5 6 
#
# 1 92.6916 32.5342 34.0473 0.0000 0.0000 0.0000
# 2 32.5342 92.6916 34.0473 0.0000 0.0000 0.0000
# 3 34.0473 34.0473 132.8697 0.0000 0.0000 0.0000
# 4 0.0000 0.0000 0.0000 21.0566 0.0000 0.0000
# 5 0.0000 0.0000 0.0000 0.0000 21.0566 0.0000
# 6 0.0000 0.0000 0.0000 0.0000 0.0000 20.1123
#
#
#
# Elastic Compliance Matrix: (Units=1/GPa)
#
#
# Indices 1 2 3 4 5 6 
#
# 1 0.012951 -0.003672 -0.002378 0.000000 0.000000 0.000000
# 2 -0.003672 0.012951 -0.002378 0.000000 0.000000 0.000000
# 3 -0.002378 -0.002378 0.008745 0.000000 0.000000 0.000000
# 4 0.000000 0.000000 0.000000 0.047491 0.000000 0.000000
# 5 0.000000 0.000000 0.000000 0.000000 0.047491 0.000000
# 6 0.000000 0.000000 0.000000 0.000000 0.000000 0.049721
#
#
# Mechanical properties :
#
#
# Convention : Reuss Voigt Hill
#
# Bulk Modulus (GPa) = 56.20733 57.72339 56.96536
# Shear Modulus (GPa) = 24.73602 26.95338 25.84470
#
# Velocity S-wave (km/s) = 3.39490 3.54379 3.47015
# Velocity P-wave (km/s) = 6.44639 6.60605 6.52671
#
# Compressibility (1/GPa) = 0.01779127
#
# Stress axis : x y z
#
# Youngs Moduli (GPa) = 77.21566 77.21566 114.35568
#
# Poissons Ratio (x) = 0.28356 0.27189
# Poissons Ratio (y) = 0.28356 0.27189
# Poissons Ratio (z) = 0.18358 0.18358
#
# Static dielectric constant tensor:
#      x y z
#    x 4.052050 0.000000 0.000000 
#    y 0.000000 4.052050 0.000000 
#    z 0.000000 0.000000 3.670060 
# 
# 
# High freq. dielectric constant tensor:
#      x y z
#    x 1.838470 0.000000 0.000000 
#    y 0.000000 1.838470 0.000000 
#    z 0.000000 0.000000 1.835910 
# 
# From -- ./inp_files/6313.got.cif
#   From: 2010.03.12/outbox.cif.g09.slc.cpg/sg112_4_cif.got.tgz:6313.got - 2010.04.14 02:02:48.
