data_PCOD8308167
_publ_section_title
;
Structure prediction by ZEFSAII (Michael W. Deem and Ramdas Pophale) SiO2 
 PCOD8308167
Probable space group: P -4 2 M 
;
_chemical_formula_sum "Si O2"
_cell_formula_units_Z 56
_cell_length_a 19.390408
_cell_length_b 19.390408
_cell_length_c 8.559496
_cell_angle_alpha 90.000000
_cell_angle_beta 90.000000
_cell_angle_gamma 90.000000
_cell_volume 3218.267118
_symmetry_space_group_name_H-M "P -4 2 M "
_symmetry_group_IT_number 111
_symmetry_cell_setting 'tetragonal'
loop_
_space_group_symop_operation_xyz
x,y,z
y,-x,-z
-x,-y,z
-y,x,-z
x,-y,-z
-x,y,-z
-y,-x,z
y,x,z
loop_
_atom_site_type_symbol
_atom_site_label
_atom_site_fract_x
_atom_site_fract_y
_atom_site_fract_z
Si Si1 0.337755 0.078141 0.642259
Si Si2 0.321159 0.213752 0.232995
Si Si3 0.779804 0.110237 0.585996
Si Si4 0.571294 0.963412 0.210933
Si Si5 0.836851 0.432465 0.575606
Si Si6 0.178178 0.935431 0.903054
Si Si7 0.674093 0.106985 0.009556
O O1 0.264182 0.070807 0.549170
O O2 0.386446 0.131696 0.558939
O O3 0.375945 0.004526 0.671844
O O4 0.326777 0.114755 0.806675
O O5 0.288669 0.288669 0.217676
O O6 0.272062 0.158412 0.317033
O O7 0.391095 0.222548 0.332173
O O8 0.335693 0.183317 0.061530
O O9 0.841200 0.158801 0.514624
O O10 0.813424 0.056160 0.712718
O O11 0.546654 0.896489 0.303776
O O12 0.612555 0.942611 0.053683
O O13 0.500000 0.000000 0.164510
O O14 0.802870 0.500000 0.500000
O O15 0.130922 0.869079 0.937417
O O16 0.253599 0.926625 0.970467
O O17 0.145715 0.000000 0.000000
#
# Coordination Sequence:
#
# PCOD8308167 Si02
#       7
#     8   8   8   8   8   8   8
#     4  11  20  29  48  71  97 133 170 210 252 305
#     4   8  16  33  51  64  90 129 166 205 251 298
#     4   8  17  33  51  70  92 120 157 206 253 304
#     4  11  21  33  45  66 106 141 174 212 258 313
#     4  10  19  32  46  69  96 133 171 210 253 307
#     4  10  20  37  56  74  98 124 163 214 275 337
#     4  10  21  33  47  71  96 133 172 215 254 308
#
# _framework density 17.400669000000001
#
# number of rings (size 3 to 8) (size 9 to 14) (size 15 to 20)
#    0.000    2.286    1.429    3.857    0.000    3.571 
#    0.000    0.000    0.000    0.000    0.000    0.000 
#    0.000    4.857    0.000    0.000    0.000    0.429 
#
# Total GULP energy -693858.425776 kJ/mol
# GULP energy per Si atom -12390.329032 kJ/mol
# Density = 1.736106 g / cm^3
# Si number density = 17.400669 Si / 1000 Ang^3
#
#
#
# Elastic Constant Matrix: (Units=GPa)
#
#
# Indices 1 2 3 4 5 6 
#
# 1 83.8630 46.2567 38.4352 0.0000 0.0000 0.0000
# 2 46.2567 83.8653 38.4359 0.0000 0.0000 0.0000
# 3 38.4352 38.4359 103.7658 0.0000 0.0000 0.0000
# 4 0.0000 0.0000 0.0000 22.7160 0.0000 0.0000
# 5 0.0000 0.0000 0.0000 0.0000 22.7160 0.0000
# 6 0.0000 0.0000 0.0000 0.0000 0.0000 26.6031
#
#
#
# Elastic Compliance Matrix: (Units=1/GPa)
#
#
# Indices 1 2 3 4 5 6 
#
# 1 0.018214 -0.008376 -0.003644 0.000000 0.000000 0.000000
# 2 -0.008376 0.018214 -0.003644 0.000000 0.000000 0.000000
# 3 -0.003644 -0.003644 0.012337 0.000000 0.000000 0.000000
# 4 0.000000 0.000000 0.000000 0.044022 0.000000 0.000000
# 5 0.000000 0.000000 0.000000 0.000000 0.044022 0.000000
# 6 0.000000 0.000000 0.000000 0.000000 0.000000 0.037590
#
#
# Mechanical properties :
#
#
# Convention : Reuss Voigt Hill
#
# Bulk Modulus (GPa) = 57.35139 57.52773 57.43956
# Shear Modulus (GPa) = 23.63631 24.29813 23.96722
#
# Velocity S-wave (km/s) = 3.68959 3.74088 3.71532
# Velocity P-wave (km/s) = 7.15413 7.19662 7.17541
#
# Compressibility (1/GPa) = 0.01743637
#
# Stress axis : x y z
#
# Youngs Moduli (GPa) = 54.90151 54.90295 81.05943
#
# Poissons Ratio (x) = 0.45988 0.29538
# Poissons Ratio (y) = 0.45987 0.29538
# Poissons Ratio (z) = 0.20006 0.20007
#
# Static dielectric constant tensor:
#      x y z
#    x 3.182550 0.000000 0.000000 
#    y 0.000000 3.182540 0.000000 
#    z 0.000000 0.000000 3.529330 
# 
# 
# High freq. dielectric constant tensor:
#      x y z
#    x 1.640620 0.000000 0.000000 
#    y 0.000000 1.640620 0.000000 
#    z 0.000000 0.000000 1.685510 
# 
# From -- ./inp_files/1944.got.cif
#   From: 2010.03.12/outbox.cif.g09.slc.cpg/sg111_1_cif.got.tgz:1944.got - 2010.04.14 01:59:48.
