data_PCOD8308239
_publ_section_title
;
Structure prediction by ZEFSAII (Michael W. Deem and Ramdas Pophale) SiO2 
 PCOD8308239
Probable space group: P -4 2 M 
;
_chemical_formula_sum "Si O2"
_cell_formula_units_Z 56
_cell_length_a 11.256625
_cell_length_b 11.256625
_cell_length_c 20.802973
_cell_angle_alpha 90.000000
_cell_angle_beta 90.000000
_cell_angle_gamma 90.000000
_cell_volume 2635.978127
_symmetry_space_group_name_H-M "P -4 2 M "
_symmetry_group_IT_number 111
_symmetry_cell_setting 'tetragonal'
loop_
_space_group_symop_operation_xyz
x,y,z
y,-x,-z
-x,-y,z
-y,x,-z
x,-y,-z
-x,y,-z
-y,-x,z
y,x,z
loop_
_atom_site_type_symbol
_atom_site_label
_atom_site_fract_x
_atom_site_fract_y
_atom_site_fract_z
Si Si1 0.306143 0.502817 0.384422
Si Si2 0.095440 0.404734 0.853720
Si Si3 0.839209 0.653726 0.466571
Si Si4 0.741332 0.936242 0.591088
Si Si5 0.827443 0.638969 0.715700
Si Si6 0.557238 0.744749 0.067193
Si Si7 0.245197 0.942488 0.932770
O O1 0.379774 0.620227 0.408580
O O2 0.393897 0.393897 0.371858
O O3 0.198742 0.472823 0.434663
O O4 0.244980 0.530591 0.316073
O O5 0.098146 0.402644 0.776596
O O6 0.220967 0.450601 0.883196
O O7 0.000000 0.500000 0.875496
O O8 0.048659 0.279199 0.882737
O O9 0.713324 0.713324 0.472377
O O10 0.891107 0.643606 0.538740
O O11 0.922613 0.739100 0.421388
O O12 0.869513 0.869513 0.579848
O O13 0.695265 0.914169 0.662463
O O14 0.738033 0.738033 0.741984
O O15 0.631732 0.631732 0.094413
O O16 0.644481 0.855179 0.055327
O O17 0.500000 0.707806 0.000000
O O18 0.131939 0.868062 0.905763
O O19 0.208736 0.000000 0.000000
#
# Coordination Sequence:
#
# PCOD8308239 Si02
#       7
#     8   8   8   8   8   8   8
#     4   9  19  36  57  83 115 150 195 247 297 355
#     4  10  22  37  59  85 121 161 195 236 290 349
#     4   9  18  34  58  84 112 149 190 243 306 355
#     4   9  19  35  55  84 116 145 194 247 288 349
#     4  10  22  38  55  77 112 156 194 236 289 346
#     4  10  20  36  61  91 121 153 194 242 290 343
#     4  10  20  37  63  91 119 152 194 243 291 344
#
# _framework density 21.244484
#
# number of rings (size 3 to 8) (size 9 to 14) (size 15 to 20)
#    0.000    2.429    1.429    0.000    2.000    2.857 
#    0.000    5.714    0.000    6.857    0.000    0.000 
#    0.000    0.000    0.000    0.429    0.000    0.000 
#
# Total GULP energy -693737.580055 kJ/mol
# GULP energy per Si atom -12388.171072 kJ/mol
# Density = 2.119613 g / cm^3
# Si number density = 21.244484 Si / 1000 Ang^3
#
#
#
# Elastic Constant Matrix: (Units=GPa)
#
#
# Indices 1 2 3 4 5 6 
#
# 1 68.9790 32.9669 34.3955 0.0000 0.0000 0.0000
# 2 32.9669 68.9786 34.3957 0.0000 0.0000 0.0000
# 3 34.3955 34.3957 129.2972 0.0000 0.0000 0.0000
# 4 0.0000 0.0000 0.0000 20.7794 0.0000 0.0000
# 5 0.0000 0.0000 0.0000 0.0000 20.7790 0.0000
# 6 0.0000 0.0000 0.0000 0.0000 0.0000 28.2484
#
#
#
# Elastic Compliance Matrix: (Units=1/GPa)
#
#
# Indices 1 2 3 4 5 6 
#
# 1 0.019862 -0.007907 -0.003180 0.000000 0.000000 0.000000
# 2 -0.007907 0.019862 -0.003180 0.000000 0.000000 0.000000
# 3 -0.003180 -0.003180 0.009426 0.000000 0.000000 0.000000
# 4 0.000000 0.000000 0.000000 0.048125 0.000000 0.000000
# 5 0.000000 0.000000 0.000000 0.000000 0.048125 0.000000
# 6 0.000000 0.000000 0.000000 0.000000 0.000000 0.035400
#
#
# Mechanical properties :
#
#
# Convention : Reuss Voigt Hill
#
# Bulk Modulus (GPa) = 48.50777 52.30789 50.40783
# Shear Modulus (GPa) = 23.12603 24.99449 24.06026
#
# Velocity S-wave (km/s) = 3.30292 3.43376 3.36898
# Velocity P-wave (km/s) = 6.11788 6.35581 6.23798
#
# Compressibility (1/GPa) = 0.02061525
#
# Stress axis : x y z
#
# Youngs Moduli (GPa) = 50.34785 50.34749 106.08769
#
# Poissons Ratio (x) = 0.39808 0.33739
# Poissons Ratio (y) = 0.39809 0.33740
# Poissons Ratio (z) = 0.16012 0.16012
#
# Static dielectric constant tensor:
#      x y z
#    x 4.101430 0.000000 0.000000 
#    y 0.000000 4.101440 0.000000 
#    z 0.000000 0.000000 3.503620 
# 
# 
# High freq. dielectric constant tensor:
#      x y z
#    x 1.831610 0.000000 0.000000 
#    y 0.000000 1.831610 0.000000 
#    z 0.000000 0.000000 1.810540 
# 
# From -- ./inp_files/3980.got.cif
#   From: 2010.03.12/outbox.cif.g09.slc.cpg/sg111_2_cif.got.tgz:3980.got - 2010.04.14 01:59:48.
