data_PCOD8308017
_publ_section_title
;
Structure prediction by ZEFSAII (Michael W. Deem and Ramdas Pophale) SiO2 
 PCOD8308017
Probable space group: I 41 C D
;
_chemical_formula_sum "Si O2"
_cell_formula_units_Z 120
_cell_length_a 24.417868
_cell_length_b 24.417868
_cell_length_c 10.351744
_cell_angle_alpha 90.000000
_cell_angle_beta 90.000000
_cell_angle_gamma 90.000000
_cell_volume 6172.043903
_symmetry_space_group_name_H-M "I 41 C D"
_symmetry_group_IT_number 110
_symmetry_cell_setting 'tetragonal'
loop_
_space_group_symop_operation_xyz
x,y,z
-y,1/2+x,1/4+z
-x,-y,z
y,1/2-x,1/4+z
-x,y,1/2+z
x,-y,1/2+z
1/2-y,-x,1/4+z
1/2+y,x,1/4+z
1/2+x,1/2+y,1/2+z
1/2-y,x,3/4+z
1/2-x,1/2-y,1/2+z
1/2+y,-x,3/4+z
1/2-x,1/2+y,z
1/2+x,1/2-y,z
-y,1/2-x,3/4+z
y,1/2+x,3/4+z
loop_
_atom_site_type_symbol
_atom_site_label
_atom_site_fract_x
_atom_site_fract_y
_atom_site_fract_z
Si Si1 0.296026 0.909246 0.651900
Si Si2 0.759750 0.015366 0.226481
Si Si3 0.500000 0.000000 0.245086
Si Si4 0.231060 0.797843 0.649475
Si Si5 0.406128 0.429227 0.607469
Si Si6 0.499530 0.175487 0.229370
Si Si7 0.602342 0.692043 0.608871
Si Si8 0.077156 0.411682 0.649354
O O1 0.262257 0.854189 0.687324
O O2 0.288536 0.919649 0.498769
O O3 0.359720 0.907217 0.688602
O O4 0.276046 0.960298 0.737013
O O5 0.778062 0.019401 0.078208
O O6 0.730063 0.073161 0.253320
O O7 0.807002 0.008239 0.332230
O O8 0.469594 0.956510 0.334609
O O9 0.548111 0.971406 0.160381
O O10 0.232195 0.760949 0.779351
O O11 0.168333 0.807745 0.605102
O O12 0.351961 0.443937 0.526328
O O13 0.421413 0.367286 0.572577
O O14 0.389364 0.431429 0.756082
O O15 0.452846 0.129898 0.244272
#
# Coordination Sequence:
#
# PCOD8308017 Si02
#       8
#    16  16   8  16  16  16  16  16
#     4  10  22  40  65  89 124 171 213 256 325 388
#     4  12  22  41  61  94 122 159 213 262 317 379
#     4  10  20  34  58  94 126 160 196 264 312 374
#     4  10  23  42  65  89 123 169 215 265 323 381
#     4  10  20  38  59  86 123 164 200 244 317 382
#     4  11  23  37  65  90 125 159 206 257 313 377
#     4  10  22  38  63  87 123 168 208 258 317 390
#     4  10  21  38  61  91 123 165 205 253 316 389
#
# _framework density 19.442506000000002
#
# number of rings (size 3 to 8) (size 9 to 14) (size 15 to 20)
#    0.000    1.600    2.667    2.000    5.600    1.067 
#    0.000    1.333    0.000    0.000    0.000    0.000 
#    0.000    0.000    0.000    0.000    0.000    0.000 
#
# Total GULP energy -743663.298383 kJ/mol
# GULP energy per Si atom -12394.388306 kJ/mol
# Density = 1.939825 g / cm^3
# Si number density = 19.442506 Si / 1000 Ang^3
#
#
#
# Elastic Constant Matrix: (Units=GPa)
#
#
# Indices 1 2 3 4 5 6 
#
# 1 110.5523 53.0254 25.8921 0.0000 0.0000 0.0000
# 2 53.0254 110.5523 25.8921 0.0000 0.0000 0.0000
# 3 25.8921 25.8921 46.6238 0.0000 0.0000 0.0000
# 4 0.0000 0.0000 0.0000 33.8167 0.0000 0.0000
# 5 0.0000 0.0000 0.0000 0.0000 33.8167 0.0000
# 6 0.0000 0.0000 0.0000 0.0000 0.0000 24.7034
#
#
#
# Elastic Compliance Matrix: (Units=1/GPa)
#
#
# Indices 1 2 3 4 5 6 
#
# 1 0.012400 -0.004983 -0.004119 0.000000 0.000000 0.000000
# 2 -0.004983 0.012400 -0.004119 0.000000 0.000000 0.000000
# 3 -0.004119 -0.004119 0.026023 0.000000 0.000000 0.000000
# 4 0.000000 0.000000 0.000000 0.029571 0.000000 0.000000
# 5 0.000000 0.000000 0.000000 0.000000 0.029571 0.000000
# 6 0.000000 0.000000 0.000000 0.000000 0.000000 0.040480
#
#
# Mechanical properties :
#
#
# Convention : Reuss Voigt Hill
#
# Bulk Modulus (GPa) = 41.01486 53.03860 47.02673
# Shear Modulus (GPa) = 27.02468 29.32860 28.17664
#
# Velocity S-wave (km/s) = 3.73229 3.88813 3.81100
# Velocity P-wave (km/s) = 6.30195 6.89171 6.60342
#
# Compressibility (1/GPa) = 0.02438141
#
# Stress axis : x y z
#
# Youngs Moduli (GPa) = 80.64362 80.64362 38.42708
#
# Poissons Ratio (x) = 0.40184 0.15829
# Poissons Ratio (y) = 0.40184 0.15829
# Poissons Ratio (z) = 0.33218 0.33218
#
# Static dielectric constant tensor:
#      x y z
#    x 3.656200 0.000000 0.000000 
#    y 0.000000 3.656200 0.000000 
#    z 0.000000 0.000000 3.406030 
# 
# 
# High freq. dielectric constant tensor:
#      x y z
#    x 1.765630 0.000000 0.000000 
#    y 0.000000 1.765630 0.000000 
#    z 0.000000 0.000000 1.744890 
# 
# From -- ./inp_files/554.got.cif
#   From: 2010.03.12/outbox.cif.g09.slc.cpg/sg110_1_cif.got.tgz:554.got - 2010.04.14 01:58:01.
