data_PCOD8308761
_publ_section_title
;
Structure prediction by ZEFSAII (Michael W. Deem and Ramdas Pophale) SiO2 
 PCOD8308761
Probable space group: P -4 21 M 
;
_chemical_formula_sum "Si O2"
_cell_formula_units_Z 48
_cell_length_a 14.232313
_cell_length_b 14.232313
_cell_length_c 12.578519
_cell_angle_alpha 90.000000
_cell_angle_beta 90.000000
_cell_angle_gamma 90.000000
_cell_volume 2547.888876
_symmetry_space_group_name_H-M "P -4 21 M "
_symmetry_group_IT_number 113
_symmetry_cell_setting 'tetragonal'
loop_
_space_group_symop_operation_xyz
x,y,z
y,-x,-z
-x,-y,z
-y,x,-z
1/2+x,1/2-y,-z
1/2-x,1/2+y,-z
1/2-y,1/2-x,z
1/2+y,1/2+x,z
loop_
_atom_site_type_symbol
_atom_site_label
_atom_site_fract_x
_atom_site_fract_y
_atom_site_fract_z
Si Si1 0.331841 0.673444 0.585550
Si Si2 0.923330 0.576671 0.522566
Si Si3 0.922614 0.577387 0.286326
Si Si4 0.274802 0.465811 0.222605
Si Si5 0.729572 0.539431 0.606295
Si Si6 0.631333 0.576318 0.007252
Si Si7 0.665927 0.322027 0.206025
O O1 0.238259 0.738259 0.593161
O O2 0.402018 0.690835 0.681674
O O3 0.309354 0.563729 0.589270
O O4 0.383942 0.688112 0.474396
O O5 0.888250 0.611750 0.404863
O O6 0.840396 0.531340 0.589614
O O7 0.000000 0.500000 0.501476
O O8 0.837581 0.532839 0.220539
O O9 0.000000 0.500000 0.299946
O O10 0.311088 0.571234 0.237939
O O11 0.308576 0.418545 0.113916
O O12 0.709784 0.576973 0.724441
O O13 0.684265 0.636149 0.917087
O O14 0.620702 0.469832 0.966616
O O15 0.755710 0.255710 0.226716
#
# Coordination Sequence:
#
# PCOD8308761 Si02
#       7
#     8   4   4   8   8   8   8
#     4  12  24  40  61  91 120 162 204 254 308 357
#     4  11  22  42  61  87 125 171 205 241 303 369
#     4  11  22  38  61  89 121 163 213 251 303 353
#     4  11  21  40  62  89 121 159 205 258 302 361
#     4  12  23  40  61  90 126 158 204 252 303 369
#     4   9  20  38  60  87 118 157 200 250 312 367
#     4  11  23  38  61  90 124 161 202 249 309 367
#
# _framework density 18.839124000000002
#
# number of rings (size 3 to 8) (size 9 to 14) (size 15 to 20)
#    0.000    1.000    4.167    3.000    1.167    3.667 
#    0.000    0.000    0.000    4.000    0.000    0.000 
#    0.000    0.000    0.000    0.000    0.000    0.000 
#
# Total GULP energy -595301.129656 kJ/mol
# GULP energy per Si atom -12402.106868 kJ/mol
# Density = 1.879625 g / cm^3
# Si number density = 18.839124 Si / 1000 Ang^3
#
#
#
# Elastic Constant Matrix: (Units=GPa)
#
#
# Indices 1 2 3 4 5 6 
#
# 1 89.0188 28.4895 27.4270 0.0000 0.0000 0.0000
# 2 28.4895 89.0180 27.4279 0.0000 0.0000 0.0000
# 3 27.4270 27.4279 77.1501 0.0000 0.0000 0.0000
# 4 0.0000 0.0000 0.0000 39.1778 0.0000 0.0000
# 5 0.0000 0.0000 0.0000 0.0000 39.1757 0.0000
# 6 0.0000 0.0000 0.0000 0.0000 0.0000 28.2950
#
#
#
# Elastic Compliance Matrix: (Units=1/GPa)
#
#
# Indices 1 2 3 4 5 6 
#
# 1 0.013362 -0.003159 -0.003627 0.000000 0.000000 0.000000
# 2 -0.003159 0.013362 -0.003628 0.000000 0.000000 0.000000
# 3 -0.003627 -0.003628 0.015541 0.000000 0.000000 0.000000
# 4 0.000000 0.000000 0.000000 0.025525 0.000000 0.000000
# 5 0.000000 0.000000 0.000000 0.000000 0.025526 0.000000
# 6 0.000000 0.000000 0.000000 0.000000 0.000000 0.035342
#
#
# Mechanical properties :
#
#
# Convention : Reuss Voigt Hill
#
# Bulk Modulus (GPa) = 46.64587 46.87508 46.76047
# Shear Modulus (GPa) = 31.92213 32.78586 32.35399
#
# Velocity S-wave (km/s) = 4.12085 4.17622 4.14863
# Velocity P-wave (km/s) = 6.88881 6.94192 6.91542
#
# Compressibility (1/GPa) = 0.02143813
#
# Stress axis : x y z
#
# Youngs Moduli (GPa) = 74.83853 74.83718 64.34641
#
# Poissons Ratio (x) = 0.23640 0.23340
# Poissons Ratio (y) = 0.23640 0.23342
# Poissons Ratio (z) = 0.27146 0.27147
#
# Static dielectric constant tensor:
#      x y z
#    x 3.523490 0.000000 0.000000 
#    y 0.000000 3.523530 0.000000 
#    z 0.000000 0.000000 3.502430 
# 
# 
# High freq. dielectric constant tensor:
#      x y z
#    x 1.740240 0.000000 0.000000 
#    y 0.000000 1.740240 0.000000 
#    z 0.000000 0.000000 1.734670 
# 
# From -- ./inp_files/1875.got.cif
#   From: 2010.03.12/outbox.cif.g09.slc.cpg/sg113_cif.got.tgz:1875.got - 2010.04.14 02:06:34.
