data_PCOD8308467
_publ_section_title
;
Structure prediction by ZEFSAII (Michael W. Deem and Ramdas Pophale) SiO2 
 PCOD8308467
Probable space group: P -4 2 C
;
_chemical_formula_sum "Si O2"
_cell_formula_units_Z 32
_cell_length_a 13.722416
_cell_length_b 13.722416
_cell_length_c 10.022347
_cell_angle_alpha 90.000000
_cell_angle_beta 90.000000
_cell_angle_gamma 90.000000
_cell_volume 1887.255054
_symmetry_space_group_name_H-M "P -4 2 C"
_symmetry_group_IT_number 112
_symmetry_cell_setting 'tetragonal'
loop_
_space_group_symop_operation_xyz
x,y,z
y,-x,-z
-x,-y,z
-y,x,-z
x,-y,1/2-z
-x,y,1/2-z
-y,-x,1/2+z
y,x,1/2+z
loop_
_atom_site_type_symbol
_atom_site_label
_atom_site_fract_x
_atom_site_fract_y
_atom_site_fract_z
Si Si1 0.794372 0.200753 0.978974
Si Si2 0.609472 0.112380 0.092940
Si Si3 0.109252 0.886047 0.729225
Si Si4 0.111715 0.610806 0.905836
O O1 0.680801 0.183072 0.010487
O O2 0.862233 0.140241 0.079160
O O3 0.816999 0.165721 0.829907
O O4 0.819369 0.315758 0.988483
O O5 0.499136 0.142504 0.057021
O O6 0.629410 0.125678 0.249100
O O7 0.628747 0.000365 0.052942
O O8 0.000000 0.845158 0.750000
O O9 0.112909 0.000000 0.750000
#
# Coordination Sequence:
#
# PCOD8308467 Si02
#       4
#     8   8   8   8
#     4  12  20  33  54  77 104 144 180 216 266 316
#     4   9  18  34  55  77 103 140 184 223 262 313
#     4  11  22  32  46  74 112 145 174 208 254 323
#     4   9  18  34  55  77 103 140 184 223 262 313
#
# _framework density 16.955842000000001
#
# number of rings (size 3 to 8) (size 9 to 14) (size 15 to 20)
#    0.000    1.750    2.500    6.000    0.000    2.000 
#    0.000    1.250    0.000    5.250    0.000    3.500 
#    0.000    0.000    0.000    0.000    0.000    0.000 
#
# Total GULP energy -396849.799586 kJ/mol
# GULP energy per Si atom -12401.556237 kJ/mol
# Density = 1.691725 g / cm^3
# Si number density = 16.955842 Si / 1000 Ang^3
#
#
#
# Elastic Constant Matrix: (Units=GPa)
#
#
# Indices 1 2 3 4 5 6 
#
# 1 120.7509 59.5969 26.7700 0.0000 0.0000 0.0000
# 2 59.5969 120.7509 26.7700 0.0000 0.0000 0.0000
# 3 26.7700 26.7700 35.5681 0.0000 0.0000 0.0000
# 4 0.0000 0.0000 0.0000 28.3391 0.0000 0.0000
# 5 0.0000 0.0000 0.0000 0.0000 28.3391 0.0000
# 6 0.0000 0.0000 0.0000 0.0000 0.0000 28.0438
#
#
#
# Elastic Compliance Matrix: (Units=1/GPa)
#
#
# Indices 1 2 3 4 5 6 
#
# 1 0.011746 -0.004606 -0.005374 0.000000 0.000000 0.000000
# 2 -0.004606 0.011746 -0.005374 0.000000 0.000000 0.000000
# 3 -0.005374 -0.005374 0.036204 0.000000 0.000000 0.000000
# 4 0.000000 0.000000 0.000000 0.035287 0.000000 0.000000
# 5 0.000000 0.000000 0.000000 0.000000 0.035287 0.000000
# 6 0.000000 0.000000 0.000000 0.000000 0.000000 0.035658
#
#
# Mechanical properties :
#
#
# Convention : Reuss Voigt Hill
#
# Bulk Modulus (GPa) = 34.49602 55.92706 45.21154
# Shear Modulus (GPa) = 24.23652 27.87327 26.05489
#
# Velocity S-wave (km/s) = 3.78483 4.05887 3.92424
# Velocity P-wave (km/s) = 6.28400 7.41764 6.87423
#
# Compressibility (1/GPa) = 0.02898885
#
# Stress axis : x y z
#
# Youngs Moduli (GPa) = 85.13395 85.13395 27.62088
#
# Poissons Ratio (x) = 0.39212 0.14844
# Poissons Ratio (y) = 0.39212 0.14844
# Poissons Ratio (z) = 0.45751 0.45751
#
# Static dielectric constant tensor:
#      x y z
#    x 3.182810 0.000000 0.000000 
#    y 0.000000 3.182810 0.000000 
#    z 0.000000 0.000000 3.005690 
# 
# 
# High freq. dielectric constant tensor:
#      x y z
#    x 1.644270 0.000000 0.000000 
#    y 0.000000 1.644270 0.000000 
#    z 0.000000 0.000000 1.641640 
# 
# From -- ./inp_files/1019.got.cif
#   From: 2010.03.12/outbox.cif.g09.slc.cpg/sg112_1_cif.got.tgz:1019.got - 2010.04.14 02:02:48.
