data_PCOD8308690
_publ_section_title
;
Structure prediction by ZEFSAII (Michael W. Deem and Ramdas Pophale) SiO2 
 PCOD8308690
Probable space group: P -4 21 M 
;
_chemical_formula_sum "Si O2"
_cell_formula_units_Z 48
_cell_length_a 12.233964
_cell_length_b 12.233964
_cell_length_c 17.929020
_cell_angle_alpha 90.000000
_cell_angle_beta 90.000000
_cell_angle_gamma 90.000000
_cell_volume 2683.434185
_symmetry_space_group_name_H-M "P -4 21 M "
_symmetry_group_IT_number 113
_symmetry_cell_setting 'tetragonal'
loop_
_space_group_symop_operation_xyz
x,y,z
y,-x,-z
-x,-y,z
-y,x,-z
1/2+x,1/2-y,-z
1/2-x,1/2+y,-z
1/2-y,1/2-x,z
1/2+y,1/2+x,z
loop_
_atom_site_type_symbol
_atom_site_label
_atom_site_fract_x
_atom_site_fract_y
_atom_site_fract_z
Si Si1 0.836243 0.967376 0.024072
Si Si2 0.922146 0.896137 0.171149
Si Si3 0.321405 0.002657 0.899407
Si Si4 0.504018 0.826751 0.595644
Si Si5 0.330589 0.351152 0.328465
Si Si6 0.836839 0.957560 0.476210
O O1 0.830230 0.915296 0.106881
O O2 0.718225 0.974348 0.984508
O O3 0.912426 0.890506 0.971833
O O4 0.862781 0.891267 0.250251
O O5 0.987077 0.783101 0.154741
O O6 0.000000 0.000000 0.171126
O O7 0.394740 0.105261 0.872031
O O8 0.392479 0.892479 0.898015
O O9 0.600036 0.899965 0.633021
O O10 0.464808 0.731825 0.652030
O O11 0.549351 0.778490 0.518156
O O12 0.400591 0.900591 0.574433
O O13 0.247654 0.252346 0.322748
O O14 0.420543 0.324364 0.390968
O O15 0.918553 0.879580 0.522368
#
# Coordination Sequence:
#
# PCOD8308690 Si02
#       6
#     8   8   8   8   8   8
#     4   9  16  35  54  81 102 140 181 219 260 314
#     4  11  21  36  56  78 114 148 183 217 268 330
#     4  10  21  36  58  86 111 139 179 231 281 321
#     4   9  18  33  53  76 105 139 174 219 272 322
#     4  10  21  33  52  80 107 140 176 220 268 320
#     4   9  18  32  53  78 100 136 180 226 267 307
#
# _framework density 17.887526999999999
#
# number of rings (size 3 to 8) (size 9 to 14) (size 15 to 20)
#    0.000    2.333    3.333    1.000    4.667    4.667 
#    0.000    1.667    0.000    1.000    0.000    2.333 
#    0.000    0.000    0.000    0.000    0.000    0.000 
#
# Total GULP energy -594968.702290 kJ/mol
# GULP energy per Si atom -12395.181298 kJ/mol
# Density = 1.784681 g / cm^3
# Si number density = 17.887527 Si / 1000 Ang^3
#
#
#
# Elastic Constant Matrix: (Units=GPa)
#
#
# Indices 1 2 3 4 5 6 
#
# 1 73.0039 22.2957 28.4864 0.0000 0.0000 0.0000
# 2 22.2957 73.0042 28.4862 0.0000 0.0000 0.0000
# 3 28.4864 28.4862 131.2085 0.0000 0.0000 0.0000
# 4 0.0000 0.0000 0.0000 17.8213 0.0000 0.0000
# 5 0.0000 0.0000 0.0000 0.0000 17.8213 0.0000
# 6 0.0000 0.0000 0.0000 0.0000 0.0000 16.7720
#
#
#
# Elastic Compliance Matrix: (Units=1/GPa)
#
#
# Indices 1 2 3 4 5 6 
#
# 1 0.015889 -0.003831 -0.002618 0.000000 0.000000 0.000000
# 2 -0.003831 0.015889 -0.002618 0.000000 0.000000 0.000000
# 3 -0.002618 -0.002618 0.008758 0.000000 0.000000 0.000000
# 4 0.000000 0.000000 0.000000 0.056113 0.000000 0.000000
# 5 0.000000 0.000000 0.000000 0.000000 0.056113 0.000000
# 6 0.000000 0.000000 0.000000 0.000000 0.000000 0.059623
#
#
# Mechanical properties :
#
#
# Convention : Reuss Voigt Hill
#
# Bulk Modulus (GPa) = 44.63689 48.41703 46.52696
# Shear Modulus (GPa) = 21.00953 23.67948 22.34451
#
# Velocity S-wave (km/s) = 3.43087 3.64235 3.53819
# Velocity P-wave (km/s) = 6.37988 6.69442 6.53904
#
# Compressibility (1/GPa) = 0.02240300
#
# Stress axis : x y z
#
# Youngs Moduli (GPa) = 62.93470 62.93504 114.17870
#
# Poissons Ratio (x) = 0.24112 0.29892
# Poissons Ratio (y) = 0.24111 0.29891
# Poissons Ratio (z) = 0.16476 0.16476
#
# Static dielectric constant tensor:
#      x y z
#    x 3.318290 0.000000 0.000000 
#    y 0.000000 3.318290 0.000000 
#    z 0.000000 0.000000 3.542330 
# 
# 
# High freq. dielectric constant tensor:
#      x y z
#    x 1.686110 0.000000 0.000000 
#    y 0.000000 1.686110 0.000000 
#    z 0.000000 0.000000 1.680070 
# 
# From -- ./inp_files/2466.got.cif
#   From: 2010.03.12/outbox.cif.g09.slc.cpg/sg113_cif.got.tgz:2466.got - 2010.04.14 02:06:34.
