data_PCOD8308914
_publ_section_title
;
Structure prediction by ZEFSAII (Michael W. Deem and Ramdas Pophale) SiO2 
 PCOD8308914
Probable space group: P -4 21 C
;
_chemical_formula_sum "Si O2"
_cell_formula_units_Z 40
_cell_length_a 9.236041
_cell_length_b 9.236041
_cell_length_c 23.559607
_cell_angle_alpha 90.000000
_cell_angle_beta 90.000000
_cell_angle_gamma 90.000000
_cell_volume 2009.739396
_symmetry_space_group_name_H-M "P -4 21 C"
_symmetry_group_IT_number 114
_symmetry_cell_setting 'tetragonal'
loop_
_space_group_symop_operation_xyz
x,y,z
y,-x,-z
-x,-y,z
-y,x,-z
1/2+x,1/2-y,1/2-z
1/2-x,1/2+y,1/2-z
1/2-y,1/2-x,1/2+z
1/2+y,1/2+x,1/2+z
loop_
_atom_site_type_symbol
_atom_site_label
_atom_site_fract_x
_atom_site_fract_y
_atom_site_fract_z
Si Si1 0.229883 0.976198 0.489900
Si Si2 0.752942 0.121392 0.366117
Si Si3 0.179525 0.807600 0.685515
Si Si4 0.339619 0.993764 0.606456
Si Si5 0.333172 0.988668 0.780205
O O1 0.293404 0.932953 0.428817
O O2 0.352406 0.994111 0.537969
O O3 0.125220 0.855397 0.516439
O O4 0.607328 0.179551 0.337141
O O5 0.870682 0.247601 0.370064
O O6 0.818572 0.991629 0.327841
O O7 0.265950 0.845991 0.628174
O O8 0.227752 0.923648 0.732792
O O9 0.225859 0.647958 0.705410
O O10 0.500000 0.000000 0.632032
O O11 0.500000 0.000000 0.759072
#
# Coordination Sequence:
#
# PCOD8308914 Si02
#       5
#     8   8   8   8   8
#     4   9  17  35  62  92 118 157 204 241 300 362
#     4  10  21  41  64  90 122 161 204 252 303 368
#     4  11  21  39  60  87 123 158 206 250 307 357
#     4  11  22  36  60  92 125 157 200 252 300 363
#     4  10  23  39  62  91 121 161 208 255 304 368
#
# _framework density 19.903075999999999
#
# number of rings (size 3 to 8) (size 9 to 14) (size 15 to 20)
#    0.000    1.800    2.000    2.400    0.000    5.600 
#    0.000    5.000    0.000    0.000    0.000    0.000 
#    0.000    0.000    0.000    0.000    0.000    0.000 
#
# Total GULP energy -495875.238699 kJ/mol
# GULP energy per Si atom -12396.880967 kJ/mol
# Density = 1.985778 g / cm^3
# Si number density = 19.903076 Si / 1000 Ang^3
#
#
#
# Elastic Constant Matrix: (Units=GPa)
#
#
# Indices 1 2 3 4 5 6 
#
# 1 170.8593 -13.9622 44.3704 0.0000 0.0000 0.0000
# 2 -13.9622 170.8593 44.3704 0.0000 0.0000 0.0000
# 3 44.3704 44.3704 119.9447 0.0000 0.0000 0.0000
# 4 0.0000 0.0000 0.0000 30.4008 0.0000 0.0000
# 5 0.0000 0.0000 0.0000 0.0000 30.4008 0.0000
# 6 0.0000 0.0000 0.0000 0.0000 0.0000 21.3285
#
#
#
# Elastic Compliance Matrix: (Units=1/GPa)
#
#
# Indices 1 2 3 4 5 6 
#
# 1 0.006735 0.001325 -0.002982 0.000000 0.000000 0.000000
# 2 0.001325 0.006735 -0.002982 0.000000 0.000000 0.000000
# 3 -0.002982 -0.002982 0.010543 0.000000 0.000000 0.000000
# 4 0.000000 0.000000 0.000000 0.032894 0.000000 0.000000
# 5 0.000000 0.000000 0.000000 0.000000 0.032894 0.000000
# 6 0.000000 0.000000 0.000000 0.000000 0.000000 0.046886
#
#
# Mechanical properties :
#
#
# Convention : Reuss Voigt Hill
#
# Bulk Modulus (GPa) = 67.85762 67.91338 67.88550
# Shear Modulus (GPa) = 33.13977 42.21836 37.67906
#
# Velocity S-wave (km/s) = 4.08494 4.61064 4.35573
# Velocity P-wave (km/s) = 7.51113 7.90823 7.71224
#
# Compressibility (1/GPa) = 0.01473674
#
# Stress axis : x y z
#
# Youngs Moduli (GPa) = 148.47150 148.47150 94.84891
#
# Poissons Ratio (x) = -0.19668 0.28280
# Poissons Ratio (y) = -0.19668 0.28280
# Poissons Ratio (z) = 0.44268 0.44268
#
# Static dielectric constant tensor:
#      x y z
#    x 3.501710 0.000000 0.000000 
#    y 0.000000 3.501710 0.000000 
#    z 0.000000 0.000000 4.014370 
# 
# 
# High freq. dielectric constant tensor:
#      x y z
#    x 1.763420 0.000000 0.000000 
#    y 0.000000 1.763420 0.000000 
#    z 0.000000 0.000000 1.793220 
# 
# From -- ./inp_files/3337.got.cif
#   From: 2010.03.12/outbox.cif.g09.slc.cpg/sg114_2_cif.got.tgz:3337.got - 2010.04.14 02:08:34.
