data_PCOD8308027
_publ_section_title
;
Structure prediction by ZEFSAII (Michael W. Deem and Ramdas Pophale) SiO2 
 PCOD8308027
Probable space group: I 41 C D
;
_chemical_formula_sum "Si O2"
_cell_formula_units_Z 120
_cell_length_a 18.821163
_cell_length_b 18.821163
_cell_length_c 15.753567
_cell_angle_alpha 90.000000
_cell_angle_beta 90.000000
_cell_angle_gamma 90.000000
_cell_volume 5580.483343
_symmetry_space_group_name_H-M "I 41 C D"
_symmetry_group_IT_number 110
_symmetry_cell_setting 'tetragonal'
loop_
_space_group_symop_operation_xyz
x,y,z
-y,1/2+x,1/4+z
-x,-y,z
y,1/2-x,1/4+z
-x,y,1/2+z
x,-y,1/2+z
1/2-y,-x,1/4+z
1/2+y,x,1/4+z
1/2+x,1/2+y,1/2+z
1/2-y,x,3/4+z
1/2-x,1/2-y,1/2+z
1/2+y,-x,3/4+z
1/2-x,1/2+y,z
1/2+x,1/2-y,z
-y,1/2-x,3/4+z
y,1/2+x,3/4+z
loop_
_atom_site_type_symbol
_atom_site_label
_atom_site_fract_x
_atom_site_fract_y
_atom_site_fract_z
Si Si1 0.786209 0.160271 0.250000
Si Si2 0.750327 0.902887 0.573520
Si Si3 0.000000 0.000000 0.570679
Si Si4 0.194976 0.864160 0.555504
Si Si5 0.948377 0.171680 0.846983
Si Si6 0.440496 0.882660 0.714101
Si Si7 0.629610 0.944298 0.912606
Si Si8 0.209511 0.048528 0.885752
O O1 0.762761 0.145546 0.154974
O O2 0.856791 0.207769 0.254005
O O3 0.720824 0.199305 0.296808
O O4 0.804349 0.086280 0.296679
O O5 0.826711 0.918294 0.535329
O O6 0.706146 0.973137 0.599593
O O7 0.068057 0.002127 0.510118
O O8 0.998936 0.070509 0.628939
O O9 0.266882 0.889564 0.599791
O O10 0.131050 0.884058 0.618184
O O11 0.186966 0.900453 0.463592
O O12 0.932047 0.123240 0.929054
O O13 0.938140 0.122474 0.764076
O O14 0.478607 0.839687 0.637793
O O15 0.708208 0.974822 0.893048
#
# Coordination Sequence:
#
# PCOD8308027 Si02
#       8
#    16  16   8  16  16  16  16  16
#     4  11  26  43  79  99 146 187 238 304 369 424
#     4  12  27  49  68 116 145 187 246 310 360 443
#     4  12  26  44  72 104 144 200 226 298 374 436
#     4  10  20  48  70  98 135 192 235 289 367 434
#     4  11  27  46  72 108 146 187 247 300 363 446
#     4  12  28  44  71 106 148 185 246 299 363 450
#     4  10  22  44  74  96 141 188 236 296 356 430
#     4  10  21  46  70  99 138 189 238 290 361 437
#
# _framework density 21.503513999999999
#
# number of rings (size 3 to 8) (size 9 to 14) (size 15 to 20)
#    0.000    1.067    5.333    0.000    9.333    2.667 
#    0.000    0.000    0.000    0.000    0.000    0.000 
#    0.000    0.000    0.000    0.000    0.000    0.000 
#
# Total GULP energy -744096.346523 kJ/mol
# GULP energy per Si atom -12401.605775 kJ/mol
# Density = 2.145457 g / cm^3
# Si number density = 21.503514 Si / 1000 Ang^3
#
#
#
# Elastic Constant Matrix: (Units=GPa)
#
#
# Indices 1 2 3 4 5 6 
#
# 1 112.6549 65.8305 34.8388 0.0000 0.0000 0.0000
# 2 65.8305 112.6549 34.8388 0.0000 0.0000 0.0000
# 3 34.8388 34.8388 76.4280 0.0000 0.0000 0.0000
# 4 0.0000 0.0000 0.0000 31.9118 0.0000 0.0000
# 5 0.0000 0.0000 0.0000 0.0000 31.9118 0.0000
# 6 0.0000 0.0000 0.0000 0.0000 0.0000 34.0250
#
#
#
# Elastic Compliance Matrix: (Units=1/GPa)
#
#
# Indices 1 2 3 4 5 6 
#
# 1 0.014086 -0.007270 -0.003107 0.000000 0.000000 0.000000
# 2 -0.007270 0.014086 -0.003107 0.000000 0.000000 0.000000
# 3 -0.003107 -0.003107 0.015917 0.000000 0.000000 0.000000
# 4 0.000000 0.000000 0.000000 0.031336 0.000000 0.000000
# 5 0.000000 0.000000 0.000000 0.000000 0.031336 0.000000
# 6 0.000000 0.000000 0.000000 0.000000 0.000000 0.029390
#
#
# Mechanical properties :
#
#
# Convention : Reuss Voigt Hill
#
# Bulk Modulus (GPa) = 58.40938 63.63932 61.02435
# Shear Modulus (GPa) = 29.61626 30.65171 30.13399
#
# Velocity S-wave (km/s) = 3.71519 3.77958 3.74752
# Velocity P-wave (km/s) = 6.75464 6.97897 6.86772
#
# Compressibility (1/GPa) = 0.01712054
#
# Stress axis : x y z
#
# Youngs Moduli (GPa) = 70.99259 70.99259 62.82756
#
# Poissons Ratio (x) = 0.51615 0.19519
# Poissons Ratio (y) = 0.51615 0.19519
# Poissons Ratio (z) = 0.22056 0.22056
#
# Static dielectric constant tensor:
#      x y z
#    x 3.869460 0.000000 0.000000 
#    y 0.000000 3.869460 0.000000 
#    z 0.000000 0.000000 3.831990 
# 
# 
# High freq. dielectric constant tensor:
#      x y z
#    x 1.847540 0.000000 0.000000 
#    y 0.000000 1.847540 0.000000 
#    z 0.000000 0.000000 1.839090 
# 
# From -- ./inp_files/1779.got.cif
#   From: 2010.03.12/outbox.cif.g09.slc.cpg/sg110_1_cif.got.tgz:1779.got - 2010.04.14 01:58:01.
