data_PCOD8308692
_publ_section_title
;
Structure prediction by ZEFSAII (Michael W. Deem and Ramdas Pophale) SiO2 
 PCOD8308692
Probable space group: P -4 21 M 
;
_chemical_formula_sum "Si O2"
_cell_formula_units_Z 48
_cell_length_a 14.582951
_cell_length_b 14.582951
_cell_length_c 12.107485
_cell_angle_alpha 90.000000
_cell_angle_beta 90.000000
_cell_angle_gamma 90.000000
_cell_volume 2574.807543
_symmetry_space_group_name_H-M "P -4 21 M "
_symmetry_group_IT_number 113
_symmetry_cell_setting 'tetragonal'
loop_
_space_group_symop_operation_xyz
x,y,z
y,-x,-z
-x,-y,z
-y,x,-z
1/2+x,1/2-y,-z
1/2-x,1/2+y,-z
1/2-y,1/2-x,z
1/2+y,1/2+x,z
loop_
_atom_site_type_symbol
_atom_site_label
_atom_site_fract_x
_atom_site_fract_y
_atom_site_fract_z
Si Si1 0.305184 0.654835 0.922079
Si Si2 0.571860 0.223100 0.785157
Si Si3 0.623163 0.275447 0.338969
Si Si4 0.775445 0.876841 0.838974
Si Si5 0.071857 0.723095 0.714835
Si Si6 0.194811 0.845164 0.577918
O O1 0.242055 0.742055 0.939097
O O2 0.396842 0.694276 0.865852
O O3 0.254643 0.583324 0.841452
O O4 0.323355 0.608179 0.041078
O O5 0.628137 0.128137 0.806256
O O6 0.463947 0.212513 0.806439
O O7 0.583318 0.254657 0.658542
O O8 0.708672 0.208672 0.344588
O O9 0.643998 0.356001 0.249995
O O10 0.536058 0.212512 0.306439
O O11 0.608186 0.323358 0.458916
O O12 0.708665 0.791336 0.844592
O O13 0.128131 0.628131 0.693726
O O14 0.103152 0.805721 0.634141
O O15 0.257947 0.757947 0.560926
#
# Coordination Sequence:
#
# PCOD8308692 Si02
#       6
#     8   8   8   8   8   8
#     4   8  17  35  54  74 101 141 179 207 261 326
#     4   9  18  35  59  76 100 143 183 216 256 323
#     4  10  21  34  53  81 111 139 172 221 277 319
#     4  10  21  34  53  81 111 139 172 221 277 319
#     4   9  18  35  59  76 100 143 183 216 256 323
#     4   8  17  35  54  74 101 141 179 207 261 326
#
# _framework density 18.642171000000001
#
# number of rings (size 3 to 8) (size 9 to 14) (size 15 to 20)
#    0.000    3.000    0.000    2.000    4.667    0.667 
#    0.000    3.333    0.000    6.000    0.000    0.000 
#    0.000    0.000    0.000    0.000    0.000    0.000 
#
# Total GULP energy -594754.073296 kJ/mol
# GULP energy per Si atom -12390.709860 kJ/mol
# Density = 1.859974 g / cm^3
# Si number density = 18.642171 Si / 1000 Ang^3
#
#
#
# Elastic Constant Matrix: (Units=GPa)
#
#
# Indices 1 2 3 4 5 6 
#
# 1 57.8979 10.5696 35.8519 0.0000 0.0000 0.0000
# 2 10.5696 57.8966 35.8517 0.0000 0.0000 0.0000
# 3 35.8519 35.8517 159.2605 0.0000 0.0000 0.0000
# 4 0.0000 0.0000 0.0000 18.6396 0.0000 0.0000
# 5 0.0000 0.0000 0.0000 0.0000 18.6396 0.0000
# 6 0.0000 0.0000 0.0000 0.0000 0.0000 18.7445
#
#
#
# Elastic Compliance Matrix: (Units=1/GPa)
#
#
# Indices 1 2 3 4 5 6 
#
# 1 0.020120 -0.001009 -0.004302 0.000000 0.000000 0.000000
# 2 -0.001009 0.020121 -0.004302 0.000000 0.000000 0.000000
# 3 -0.004302 -0.004302 0.008216 0.000000 0.000000 0.000000
# 4 0.000000 0.000000 0.000000 0.053649 0.000000 0.000000
# 5 0.000000 0.000000 0.000000 0.000000 0.053649 0.000000
# 6 0.000000 0.000000 0.000000 0.000000 0.000000 0.053349
#
#
# Mechanical properties :
#
#
# Convention : Reuss Voigt Hill
#
# Bulk Modulus (GPa) = 34.21194 48.84461 41.52827
# Shear Modulus (GPa) = 21.00185 24.05684 22.52934
#
# Velocity S-wave (km/s) = 3.36009 3.59618 3.48014
# Velocity P-wave (km/s) = 5.78320 6.59556 6.20269
#
# Compressibility (1/GPa) = 0.02922956
#
# Stress axis : x y z
#
# Youngs Moduli (GPa) = 49.70179 49.70054 121.71387
#
# Poissons Ratio (x) = 0.05015 0.52363
# Poissons Ratio (y) = 0.05015 0.52364
# Poissons Ratio (z) = 0.21382 0.21382
#
# Static dielectric constant tensor:
#      x y z
#    x 3.083670 0.000000 0.000000 
#    y 0.000000 3.083670 0.000000 
#    z 0.000000 0.000000 4.226100 
# 
# 
# High freq. dielectric constant tensor:
#      x y z
#    x 1.694640 0.000000 0.000000 
#    y 0.000000 1.694640 0.000000 
#    z 0.000000 0.000000 1.742880 
# 
# From -- ./inp_files/1812.got.cif
#   From: 2010.03.12/outbox.cif.g09.slc.cpg/sg113_cif.got.tgz:1812.got - 2010.04.14 02:06:34.
