data_PCOD8308250
_publ_section_title
;
Structure prediction by ZEFSAII (Michael W. Deem and Ramdas Pophale) SiO2 
 PCOD8308250
Probable space group: P -4 2 M 
;
_chemical_formula_sum "Si O2"
_cell_formula_units_Z 32
_cell_length_a 17.874938
_cell_length_b 17.874938
_cell_length_c 4.986929
_cell_angle_alpha 90.000000
_cell_angle_beta 90.000000
_cell_angle_gamma 90.000000
_cell_volume 1593.390683
_symmetry_space_group_name_H-M "P -4 2 M "
_symmetry_group_IT_number 111
_symmetry_cell_setting 'tetragonal'
loop_
_space_group_symop_operation_xyz
x,y,z
y,-x,-z
-x,-y,z
-y,x,-z
x,-y,-z
-x,y,-z
-y,-x,z
y,x,z
loop_
_atom_site_type_symbol
_atom_site_label
_atom_site_fract_x
_atom_site_fract_y
_atom_site_fract_z
Si Si1 0.950780 0.829897 0.762639
Si Si2 0.049869 0.663527 0.243849
Si Si3 0.586967 0.803311 0.525031
Si Si4 0.588303 0.709144 0.017405
O O1 0.876019 0.876019 0.713899
O O2 0.924837 0.746348 0.848700
O O3 0.000000 0.831090 0.500000
O O4 0.000000 0.865714 0.000000
O O5 0.120672 0.617780 0.347563
O O6 0.000000 0.672797 0.500000
O O7 0.000000 0.626416 0.000000
O O8 0.500000 0.817521 0.500000
O O9 0.611315 0.737607 0.725139
O O10 0.611988 0.774689 0.230049
O O11 0.632991 0.632991 0.082911
O O12 0.500000 0.691022 0.000000
#
# Coordination Sequence:
#
# PCOD8308250 Si02
#       4
#     8   8   8   8
#     4  10  21  35  52  76 105 138 178 223 270 324
#     4  10  21  38  57  81 112 144 184 232 281 338
#     4  10  21  38  58  84 115 148 190 238 286 344
#     4  10  21  37  58  85 117 152 193 239 288 346
#
# _framework density 20.082961000000001
#
# number of rings (size 3 to 8) (size 9 to 14) (size 15 to 20)
#    0.000    2.000    0.000    3.000    0.000    4.250 
#    0.000    1.250    0.000    4.500    0.000    0.000 
#    0.000    0.000    0.000    0.000    0.000    0.000 
#
# Total GULP energy -396449.091012 kJ/mol
# GULP energy per Si atom -12389.034094 kJ/mol
# Density = 2.003725 g / cm^3
# Si number density = 20.082961 Si / 1000 Ang^3
#
#
#
# Elastic Constant Matrix: (Units=GPa)
#
#
# Indices 1 2 3 4 5 6 
#
# 1 84.2536 62.8142 39.1777 0.0000 0.0000 0.0000
# 2 62.8142 84.2536 39.1777 0.0000 0.0000 0.0000
# 3 39.1777 39.1777 121.6456 0.0000 0.0000 0.0000
# 4 0.0000 0.0000 0.0000 30.6216 0.0000 0.0000
# 5 0.0000 0.0000 0.0000 0.0000 30.6216 0.0000
# 6 0.0000 0.0000 0.0000 0.0000 0.0000 31.2188
#
#
#
# Elastic Compliance Matrix: (Units=1/GPa)
#
#
# Indices 1 2 3 4 5 6 
#
# 1 0.027426 -0.019218 -0.002644 0.000000 0.000000 0.000000
# 2 -0.019218 0.027426 -0.002644 0.000000 0.000000 0.000000
# 3 -0.002644 -0.002644 0.009923 0.000000 0.000000 0.000000
# 4 0.000000 0.000000 0.000000 0.032657 0.000000 0.000000
# 5 0.000000 0.000000 0.000000 0.000000 0.032657 0.000000
# 6 0.000000 0.000000 0.000000 0.000000 0.000000 0.032032
#
#
# Mechanical properties :
#
#
# Convention : Reuss Voigt Hill
#
# Bulk Modulus (GPa) = 63.43028 63.61024 63.52026
# Shear Modulus (GPa) = 23.10707 28.42459 25.76583
#
# Velocity S-wave (km/s) = 3.39570 3.76621 3.58574
# Velocity P-wave (km/s) = 6.85763 7.11723 6.98863
#
# Compressibility (1/GPa) = 0.01576534
#
# Stress axis : x y z
#
# Youngs Moduli (GPa) = 36.46240 36.46240 100.77228
#
# Poissons Ratio (x) = 0.70072 0.26639
# Poissons Ratio (y) = 0.70072 0.26639
# Poissons Ratio (z) = 0.09639 0.09639
#
# Static dielectric constant tensor:
#      x y z
#    x 3.531510 0.000000 0.000000 
#    y 0.000000 3.531510 0.000000 
#    z 0.000000 0.000000 4.099420 
# 
# 
# High freq. dielectric constant tensor:
#      x y z
#    x 1.772950 0.000000 0.000000 
#    y 0.000000 1.772950 0.000000 
#    z 0.000000 0.000000 1.809370 
# 
# From -- ./inp_files/409.got.cif
#   From: 2010.03.12/outbox.cif.g09.slc.cpg/sg111_1_cif.got.tgz:409.got - 2010.04.14 01:59:48.
