data_PCOD8308700
_publ_section_title
;
Structure prediction by ZEFSAII (Michael W. Deem and Ramdas Pophale) SiO2 
 PCOD8308700
Probable space group: P -4 21 M 
;
_chemical_formula_sum "Si O2"
_cell_formula_units_Z 64
_cell_length_a 11.550698
_cell_length_b 11.550698
_cell_length_c 23.118141
_cell_angle_alpha 90.000000
_cell_angle_beta 90.000000
_cell_angle_gamma 90.000000
_cell_volume 3084.390568
_symmetry_space_group_name_H-M "P -4 21 M "
_symmetry_group_IT_number 113
_symmetry_cell_setting 'tetragonal'
loop_
_space_group_symop_operation_xyz
x,y,z
y,-x,-z
-x,-y,z
-y,x,-z
1/2+x,1/2-y,-z
1/2-x,1/2+y,-z
1/2-y,1/2-x,z
1/2+y,1/2+x,z
loop_
_atom_site_type_symbol
_atom_site_label
_atom_site_fract_x
_atom_site_fract_y
_atom_site_fract_z
Si Si1 0.425841 0.261888 0.942815
Si Si2 0.945730 0.740986 0.941394
Si Si3 0.493170 0.181895 0.417493
Si Si4 0.396749 0.590501 0.239980
Si Si5 0.256725 0.426837 0.164376
Si Si6 0.675902 0.486722 0.479189
Si Si7 0.649138 0.657896 0.632573
Si Si8 0.266277 0.051814 0.179811
O O1 0.341182 0.158819 0.924563
O O2 0.365295 0.385554 0.931582
O O3 0.539399 0.252683 0.903101
O O4 0.456799 0.252015 0.010042
O O5 0.851797 0.648204 0.962886
O O6 0.002852 0.697735 0.882302
O O7 0.583850 0.083850 0.401852
O O8 0.495711 0.202543 0.487062
O O9 0.530813 0.298157 0.383074
O O10 0.365574 0.134427 0.398837
O O11 0.500000 0.500000 0.239440
O O12 0.289521 0.542461 0.201121
O O13 0.343817 0.599382 0.303487
O O14 0.445580 0.717008 0.219324
O O15 0.133409 0.366591 0.182050
O O16 0.357163 0.335106 0.172318
O O17 0.608288 0.389260 0.516290
O O18 0.689179 0.453804 0.411949
O O19 0.745462 0.754539 0.625258
O O20 0.380996 0.119005 0.205516
#
# Coordination Sequence:
#
# PCOD8308700 Si02
#       8
#     8   8   8   8   8   8   8   8
#     4  11  23  37  57  85 116 152 193 241 300 361
#     4  11  23  37  56  86 118 150 192 242 300 360
#     4   9  18  33  53  80 116 152 186 233 292 346
#     4  10  22  38  60  81 117 155 193 240 293 341
#     4  10  21  40  62  84 110 149 200 243 292 356
#     4   9  18  32  56  82 111 146 189 231 280 332
#     4  10  21  35  56  84 114 149 190 236 281 342
#     4  10  21  39  61  85 113 150 196 243 296 355
#
# _framework density 20.749641
#
# number of rings (size 3 to 8) (size 9 to 14) (size 15 to 20)
#    0.000    2.000    1.250    1.875    3.500    7.000 
#    0.000    0.625    0.000    0.750    0.000    0.000 
#    0.000    0.000    0.000    0.000    0.000    0.000 
#
# Total GULP energy -793298.462964 kJ/mol
# GULP energy per Si atom -12395.288484 kJ/mol
# Density = 2.070241 g / cm^3
# Si number density = 20.749641 Si / 1000 Ang^3
#
#
#
# Elastic Constant Matrix: (Units=GPa)
#
#
# Indices 1 2 3 4 5 6 
#
# 1 58.8544 20.6185 18.2924 0.0000 0.0000 0.0000
# 2 20.6185 58.8529 18.2923 0.0000 0.0000 0.0000
# 3 18.2924 18.2923 110.6704 0.0000 0.0000 0.0000
# 4 0.0000 0.0000 0.0000 23.0561 0.0000 0.0000
# 5 0.0000 0.0000 0.0000 0.0000 23.0555 0.0000
# 6 0.0000 0.0000 0.0000 0.0000 0.0000 19.6573
#
#
#
# Elastic Compliance Matrix: (Units=1/GPa)
#
#
# Indices 1 2 3 4 5 6 
#
# 1 0.019886 -0.006267 -0.002251 0.000000 0.000000 0.000000
# 2 -0.006267 0.019887 -0.002251 0.000000 0.000000 0.000000
# 3 -0.002251 -0.002251 0.009780 0.000000 0.000000 0.000000
# 4 0.000000 0.000000 0.000000 0.043373 0.000000 0.000000
# 5 0.000000 0.000000 0.000000 0.000000 0.043374 0.000000
# 6 0.000000 0.000000 0.000000 0.000000 0.000000 0.050872
#
#
# Mechanical properties :
#
#
# Convention : Reuss Voigt Hill
#
# Bulk Modulus (GPa) = 35.69614 38.08713 36.89164
# Shear Modulus (GPa) = 22.93070 24.56539 23.74805
#
# Velocity S-wave (km/s) = 3.32793 3.44451 3.38672
# Velocity P-wave (km/s) = 5.65751 5.84935 5.75423
#
# Compressibility (1/GPa) = 0.02801423
#
# Stress axis : x y z
#
# Youngs Moduli (GPa) = 50.28569 50.28435 102.24953
#
# Poissons Ratio (x) = 0.31515 0.23017
# Poissons Ratio (y) = 0.31516 0.23018
# Poissons Ratio (z) = 0.11320 0.11320
#
# Static dielectric constant tensor:
#      x y z
#    x 3.907080 0.000000 0.000000 
#    y 0.000000 3.907090 0.000000 
#    z 0.000000 0.000000 3.730090 
# 
# 
# High freq. dielectric constant tensor:
#      x y z
#    x 1.807890 0.000000 0.000000 
#    y 0.000000 1.807890 0.000000 
#    z 0.000000 0.000000 1.796050 
# 
# From -- ./inp_files/2917.got.cif
#   From: 2010.03.12/outbox.cif.g09.slc.cpg/sg113_cif.got.tgz:2917.got - 2010.04.14 02:06:34.
