data_PCOD8308008
_publ_section_title
;
Structure prediction by ZEFSAII (Michael W. Deem and Ramdas Pophale) SiO2 
 PCOD8308008
Probable space group: I 41 C D
;
_chemical_formula_sum "Si O2"
_cell_formula_units_Z 72
_cell_length_a 14.210428
_cell_length_b 14.210428
_cell_length_c 17.734384
_cell_angle_alpha 90.000000
_cell_angle_beta 90.000000
_cell_angle_gamma 90.000000
_cell_volume 3581.215248
_symmetry_space_group_name_H-M "I 41 C D"
_symmetry_group_IT_number 110
_symmetry_cell_setting 'tetragonal'
loop_
_space_group_symop_operation_xyz
x,y,z
-y,1/2+x,1/4+z
-x,-y,z
y,1/2-x,1/4+z
-x,y,1/2+z
x,-y,1/2+z
1/2-y,-x,1/4+z
1/2+y,x,1/4+z
1/2+x,1/2+y,1/2+z
1/2-y,x,3/4+z
1/2-x,1/2-y,1/2+z
1/2+y,-x,3/4+z
1/2-x,1/2+y,z
1/2+x,1/2-y,z
-y,1/2-x,3/4+z
y,1/2+x,3/4+z
loop_
_atom_site_type_symbol
_atom_site_label
_atom_site_fract_x
_atom_site_fract_y
_atom_site_fract_z
Si Si1 0.744647 0.383490 0.404040
Si Si2 0.083287 0.816343 0.653558
Si Si3 0.500000 0.000000 0.360766
Si Si4 0.583287 0.816343 0.317973
Si Si5 0.883490 0.244647 0.817491
O O1 0.754150 0.492984 0.379413
O O2 0.727169 0.371514 0.492907
O O3 0.836543 0.320878 0.382374
O O4 0.653555 0.346445 0.360766
O O5 0.128486 0.772831 0.728625
O O6 0.163457 0.820878 0.589158
O O7 0.045421 0.922673 0.666772
O O8 0.454579 0.077327 0.304759
O O9 0.492984 0.754150 0.342118
#
# Coordination Sequence:
#
# PCOD8308008 Si02
#       5
#    16  16   8  16  16
#     4  10  19  36  58  83 115 151 188 234 285 339
#     4   9  19  35  58  84 114 148 190 235 285 341
#     4   8  16  36  58  80 112 148 184 238 292 340
#     4   9  19  35  58  84 114 148 190 235 285 341
#     4  10  19  36  58  83 115 151 188 234 285 339
#
# _framework density 20.104907000000001
#
# number of rings (size 3 to 8) (size 9 to 14) (size 15 to 20)
#    0.000    2.667    0.000    1.333    0.000    0.000 
#    0.000   32.222    0.000    0.000    0.000    0.000 
#    0.000    0.000    0.000    0.000    0.000    0.000 
#
# Total GULP energy -446136.593755 kJ/mol
# GULP energy per Si atom -12392.683160 kJ/mol
# Density = 2.005915 g / cm^3
# Si number density = 20.104907 Si / 1000 Ang^3
#
#
#
# Elastic Constant Matrix: (Units=GPa)
#
#
# Indices 1 2 3 4 5 6 
#
# 1 105.8317 75.7211 74.5379 0.0000 0.0000 0.0000
# 2 75.7211 105.8317 74.5379 0.0000 0.0000 0.0000
# 3 74.5379 74.5379 110.7258 0.0000 0.0000 0.0000
# 4 0.0000 0.0000 0.0000 35.0021 0.0000 0.0000
# 5 0.0000 0.0000 0.0000 0.0000 35.0021 0.0000
# 6 0.0000 0.0000 0.0000 0.0000 0.0000 42.2822
#
#
#
# Elastic Compliance Matrix: (Units=1/GPa)
#
#
# Indices 1 2 3 4 5 6 
#
# 1 0.022763 -0.010448 -0.008290 0.000000 0.000000 0.000000
# 2 -0.010448 0.022763 -0.008290 0.000000 0.000000 0.000000
# 3 -0.008290 -0.008290 0.020193 0.000000 0.000000 0.000000
# 4 0.000000 0.000000 0.000000 0.028570 0.000000 0.000000
# 5 0.000000 0.000000 0.000000 0.000000 0.028570 0.000000
# 6 0.000000 0.000000 0.000000 0.000000 0.000000 0.023651
#
#
# Mechanical properties :
#
#
# Convention : Reuss Voigt Hill
#
# Bulk Modulus (GPa) = 85.74670 85.77588 85.76129
# Shear Modulus (GPa) = 24.45535 28.96345 26.70940
#
# Velocity S-wave (km/s) = 3.49146 3.79966 3.64882
# Velocity P-wave (km/s) = 7.68088 7.87443 7.77826
#
# Compressibility (1/GPa) = 0.01166226
#
# Stress axis : x y z
#
# Youngs Moduli (GPa) = 43.93062 43.93062 49.52165
#
# Poissons Ratio (x) = 0.45897 0.41056
# Poissons Ratio (y) = 0.45897 0.41056
# Poissons Ratio (z) = 0.36421 0.36421
#
# Static dielectric constant tensor:
#      x y z
#    x 3.888500 0.000000 0.000000 
#    y 0.000000 3.888500 0.000000 
#    z 0.000000 0.000000 3.341850 
# 
# 
# High freq. dielectric constant tensor:
#      x y z
#    x 1.793550 0.000000 0.000000 
#    y 0.000000 1.793550 0.000000 
#    z 0.000000 0.000000 1.749410 
# 
# From -- ./inp_files/1634.got.cif
#   From: 2010.03.12/outbox.cif.g09.slc.cpg/sg110_1_cif.got.tgz:1634.got - 2010.04.14 01:58:01.
