data_PCOD8308302
_publ_section_title
;
Structure prediction by ZEFSAII (Michael W. Deem and Ramdas Pophale) SiO2 
 PCOD8308302
Probable space group: P -4 2 C
;
_chemical_formula_sum "Si O2"
_cell_formula_units_Z 44
_cell_length_a 8.209442
_cell_length_b 8.209442
_cell_length_c 31.566437
_cell_angle_alpha 90.000000
_cell_angle_beta 90.000000
_cell_angle_gamma 90.000000
_cell_volume 2127.418063
_symmetry_space_group_name_H-M "P -4 2 C"
_symmetry_group_IT_number 112
_symmetry_cell_setting 'tetragonal'
loop_
_space_group_symop_operation_xyz
x,y,z
y,-x,-z
-x,-y,z
-y,x,-z
x,-y,1/2-z
-x,y,1/2-z
-y,-x,1/2+z
y,x,1/2+z
loop_
_atom_site_type_symbol
_atom_site_label
_atom_site_fract_x
_atom_site_fract_y
_atom_site_fract_z
Si Si1 0.500000 0.500000 0.881184
Si Si2 0.087710 0.749518 0.816002
Si Si3 0.239799 0.734659 0.905642
Si Si4 0.500000 0.500000 0.750000
Si Si5 0.000000 0.500000 0.547568
Si Si6 0.000000 0.000000 0.250000
Si Si7 0.589269 0.249014 0.187017
Si Si8 0.914585 0.241100 0.488090
O O1 0.416874 0.647543 0.906738
O O2 0.347528 0.423206 0.856388
O O3 0.175042 0.801728 0.860181
O O4 0.167931 0.583068 0.800113
O O5 0.890324 0.725781 0.818881
O O6 0.114822 0.888455 0.780426
O O7 0.102243 0.611999 0.921369
O O8 0.262657 0.883485 0.938075
O O9 0.386459 0.377101 0.777405
O O10 0.121213 0.599877 0.516433
O O11 0.103756 0.200175 0.492386
#
# Coordination Sequence:
#
# PCOD8308302 Si02
#       8
#     4   8   8   2   4   2   8   8
#     4   9  18  31  57  88 107 138 188 236 285 347
#     4  10  21  38  57  81 111 152 196 240 292 359
#     4  10  20  37  59  85 118 153 191 240 301 362
#     4  10  16  26  56  82 102 134 178 238 282 318
#     4  10  20  36  60  87 114 153 200 238 288 368
#     4  12  24  34  56  86 110 142 204 258 284 326
#     4   9  18  35  57  79 106 143 188 232 289 354
#     4   9  20  37  57  83 117 155 195 239 293 360
#
# _framework density 20.68235
#
# number of rings (size 3 to 8) (size 9 to 14) (size 15 to 20)
#    0.000    2.364    0.000    3.273    0.000    7.273 
#    0.000    3.636    0.000   33.818    0.000    0.000 
#    0.000    0.000    0.000    0.000    0.000    0.000 
#
# Total GULP energy -545224.701436 kJ/mol
# GULP energy per Si atom -12391.470487 kJ/mol
# Density = 2.063528 g / cm^3
# Si number density = 20.682350 Si / 1000 Ang^3
#
#
#
# Elastic Constant Matrix: (Units=GPa)
#
#
# Indices 1 2 3 4 5 6 
#
# 1 83.9582 14.7827 43.7504 0.0000 0.0000 0.0000
# 2 14.7827 83.9582 43.7504 0.0000 0.0000 0.0000
# 3 43.7504 43.7504 133.4533 0.0000 0.0000 0.0000
# 4 0.0000 0.0000 0.0000 29.2178 0.0000 0.0000
# 5 0.0000 0.0000 0.0000 0.0000 29.2178 0.0000
# 6 0.0000 0.0000 0.0000 0.0000 0.0000 14.8477
#
#
#
# Elastic Compliance Matrix: (Units=1/GPa)
#
#
# Indices 1 2 3 4 5 6 
#
# 1 0.014365 -0.000091 -0.004680 0.000000 0.000000 0.000000
# 2 -0.000091 0.014365 -0.004680 0.000000 0.000000 0.000000
# 3 -0.004680 -0.004680 0.010562 0.000000 0.000000 0.000000
# 4 0.000000 0.000000 0.000000 0.034226 0.000000 0.000000
# 5 0.000000 0.000000 0.000000 0.000000 0.034226 0.000000
# 6 0.000000 0.000000 0.000000 0.000000 0.000000 0.067350
#
#
# Mechanical properties :
#
#
# Convention : Reuss Voigt Hill
#
# Bulk Modulus (GPa) = 49.03910 56.21518 52.62714
# Shear Modulus (GPa) = 24.90150 27.92908 26.41529
#
# Velocity S-wave (km/s) = 3.47363 3.67874 3.57766
# Velocity P-wave (km/s) = 6.31270 6.72930 6.52433
#
# Compressibility (1/GPa) = 0.02039189
#
# Stress axis : x y z
#
# Youngs Moduli (GPa) = 69.61261 69.61261 94.68328
#
# Poissons Ratio (x) = 0.00632 0.44308
# Poissons Ratio (y) = 0.00632 0.44308
# Poissons Ratio (z) = 0.32576 0.32576
#
# Static dielectric constant tensor:
#      x y z
#    x 3.874430 0.000000 0.000000 
#    y 0.000000 3.874430 0.000000 
#    z 0.000000 0.000000 4.006890 
# 
# 
# High freq. dielectric constant tensor:
#      x y z
#    x 1.791670 0.000000 0.000000 
#    y 0.000000 1.791670 0.000000 
#    z 0.000000 0.000000 1.820620 
# 
# From -- ./inp_files/6250.got.cif
#   From: 2010.03.12/outbox.cif.g09.slc.cpg/sg112_4_cif.got.tgz:6250.got - 2010.04.14 02:02:48.
