data_PCOD8308739
_publ_section_title
;
Structure prediction by ZEFSAII (Michael W. Deem and Ramdas Pophale) SiO2 
 PCOD8308739
Probable space group: P -4 21 M 
;
_chemical_formula_sum "Si O2"
_cell_formula_units_Z 40
_cell_length_a 15.933437
_cell_length_b 15.933437
_cell_length_c 7.851467
_cell_angle_alpha 90.000000
_cell_angle_beta 90.000000
_cell_angle_gamma 90.000000
_cell_volume 1993.286589
_symmetry_space_group_name_H-M "P -4 21 M "
_symmetry_group_IT_number 113
_symmetry_cell_setting 'tetragonal'
loop_
_space_group_symop_operation_xyz
x,y,z
y,-x,-z
-x,-y,z
-y,x,-z
1/2+x,1/2-y,-z
1/2-x,1/2+y,-z
1/2-y,1/2-x,z
1/2+y,1/2+x,z
loop_
_atom_site_type_symbol
_atom_site_label
_atom_site_fract_x
_atom_site_fract_y
_atom_site_fract_z
Si Si1 0.800427 0.438628 0.600861
Si Si2 0.677698 0.312357 0.245162
Si Si3 0.196492 0.832327 0.631218
Si Si4 0.554579 0.191459 0.085020
Si Si5 0.240577 0.006267 0.751281
O O1 0.868322 0.368322 0.567947
O O2 0.713327 0.393241 0.652445
O O3 0.828759 0.499145 0.750654
O O4 0.794239 0.487152 0.421556
O O5 0.769588 0.269588 0.216077
O O6 0.645636 0.288797 0.433323
O O7 0.610125 0.275336 0.113901
O O8 0.681173 0.412763 0.223977
O O9 0.273184 0.773184 0.698347
O O10 0.190222 0.918201 0.739001
O O11 0.612124 0.112124 0.052639
O O12 0.496966 0.201346 0.918582
#
# Coordination Sequence:
#
# PCOD8308739 Si02
#       5
#     8   8   8   8   8
#     4  10  23  42  63  90 127 165 203 255 311 371
#     4   9  20  40  62  86 122 164 205 251 307 372
#     4   9  18  37  64  88 117 162 206 248 307 368
#     4  11  24  40  62  92 126 165 205 252 311 374
#     4  11  21  37  66  93 118 158 217 256 298 362
#
# _framework density 20.067360999999998
#
# number of rings (size 3 to 8) (size 9 to 14) (size 15 to 20)
#    0.000    2.000    2.000    2.400    2.800    2.800 
#    0.000    1.000    0.000    5.400    0.000    0.000 
#    0.000    0.000    0.000    0.000    0.000    0.000 
#
# Total GULP energy -495940.288640 kJ/mol
# GULP energy per Si atom -12398.507216 kJ/mol
# Density = 2.002169 g / cm^3
# Si number density = 20.067361 Si / 1000 Ang^3
#
#
#
# Elastic Constant Matrix: (Units=GPa)
#
#
# Indices 1 2 3 4 5 6 
#
# 1 70.2645 -1.7293 11.4709 0.0000 0.0000 0.0000
# 2 -1.7293 70.2645 11.4709 0.0000 0.0000 0.0000
# 3 11.4709 11.4709 95.3266 0.0000 0.0000 0.0000
# 4 0.0000 0.0000 0.0000 23.2316 0.0000 0.0000
# 5 0.0000 0.0000 0.0000 0.0000 23.2316 0.0000
# 6 0.0000 0.0000 0.0000 0.0000 0.0000 7.5495
#
#
#
# Elastic Compliance Matrix: (Units=1/GPa)
#
#
# Indices 1 2 3 4 5 6 
#
# 1 0.014547 0.000657 -0.001829 0.000000 0.000000 0.000000
# 2 0.000657 0.014547 -0.001829 0.000000 0.000000 0.000000
# 3 -0.001829 -0.001829 0.010931 0.000000 0.000000 0.000000
# 4 0.000000 0.000000 0.000000 0.043045 0.000000 0.000000
# 5 0.000000 0.000000 0.000000 0.000000 0.043045 0.000000
# 6 0.000000 0.000000 0.000000 0.000000 0.000000 0.132459
#
#
# Mechanical properties :
#
#
# Convention : Reuss Voigt Hill
#
# Bulk Modulus (GPa) = 29.39483 30.92004 30.15744
# Shear Modulus (GPa) = 18.12138 25.11207 21.61672
#
# Velocity S-wave (km/s) = 3.00830 3.54133 3.28565
# Velocity P-wave (km/s) = 5.17169 5.67124 5.42722
#
# Compressibility (1/GPa) = 0.03401959
#
# Stress axis : x y z
#
# Youngs Moduli (GPa) = 68.74377 68.74377 91.48681
#
# Poissons Ratio (x) = -0.04514 0.16737
# Poissons Ratio (y) = -0.04514 0.16737
# Poissons Ratio (z) = 0.12576 0.12576
#
# Static dielectric constant tensor:
#      x y z
#    x 3.571870 0.000000 0.000000 
#    y 0.000000 3.571870 0.000000 
#    z 0.000000 0.000000 3.664320 
# 
# 
# High freq. dielectric constant tensor:
#      x y z
#    x 1.770180 0.000000 0.000000 
#    y 0.000000 1.770180 0.000000 
#    z 0.000000 0.000000 1.793460 
# 
# From -- ./inp_files/999.got.cif
#   From: 2010.03.12/outbox.cif.g09.slc.cpg/sg113_cif.got.tgz:999.got - 2010.04.14 02:06:34.
