data_PCOD8308741
_publ_section_title
;
Structure prediction by ZEFSAII (Michael W. Deem and Ramdas Pophale) SiO2 
 PCOD8308741
Probable space group: P -4 21 M 
;
_chemical_formula_sum "Si O2"
_cell_formula_units_Z 32
_cell_length_a 11.851332
_cell_length_b 11.851332
_cell_length_c 11.337919
_cell_angle_alpha 90.000000
_cell_angle_beta 90.000000
_cell_angle_gamma 90.000000
_cell_volume 1592.456871
_symmetry_space_group_name_H-M "P -4 21 M "
_symmetry_group_IT_number 113
_symmetry_cell_setting 'tetragonal'
loop_
_space_group_symop_operation_xyz
x,y,z
y,-x,-z
-x,-y,z
-y,x,-z
1/2+x,1/2-y,-z
1/2-x,1/2+y,-z
1/2-y,1/2-x,z
1/2+y,1/2+x,z
loop_
_atom_site_type_symbol
_atom_site_label
_atom_site_fract_x
_atom_site_fract_y
_atom_site_fract_z
Si Si1 0.095039 0.404962 0.069356
Si Si2 0.098594 0.227005 0.252668
Si Si3 0.906558 0.593443 0.796246
Si Si4 0.219897 0.099057 0.579924
Si Si5 0.492898 0.309062 0.330627
O O1 0.116936 0.383065 0.932902
O O2 0.000000 0.500000 0.090927
O O3 0.057391 0.284806 0.129026
O O4 0.217601 0.282400 0.290838
O O5 0.119904 0.091717 0.244677
O O6 0.010155 0.264691 0.352153
O O7 0.792260 0.549755 0.739141
O O8 0.000000 0.500000 0.776788
O O9 0.291764 0.208237 0.617403
O O10 0.233613 0.080938 0.440699
O O11 0.090251 0.111229 0.618707
#
# Coordination Sequence:
#
# PCOD8308741 Si02
#       5
#     4   8   4   8   8
#     4   9  22  47  69  98 129 177 238 290 326 399
#     4  10  23  42  67  97 132 177 220 285 345 395
#     4  11  24  45  71  99 136 184 237 282 336 407
#     4  12  24  40  65  98 138 176 223 279 345 425
#     4  12  24  43  63 101 137 179 223 279 351 412
#
# _framework density 20.094735
#
# number of rings (size 3 to 8) (size 9 to 14) (size 15 to 20)
#    0.750    0.250    3.750    3.750    1.750    0.000 
#    4.500    0.000    0.000    0.000    0.000    0.000 
#    0.000    0.000    0.000    0.000    0.000    0.000 
#
# Total GULP energy -396631.293698 kJ/mol
# GULP energy per Si atom -12394.727928 kJ/mol
# Density = 2.004900 g / cm^3
# Si number density = 20.094735 Si / 1000 Ang^3
#
#
#
# Elastic Constant Matrix: (Units=GPa)
#
#
# Indices 1 2 3 4 5 6 
#
# 1 114.2748 41.0528 55.2426 0.0000 0.0000 0.0000
# 2 41.0528 114.2746 55.2425 0.0000 0.0000 0.0000
# 3 55.2426 55.2425 129.8782 0.0000 0.0000 0.0000
# 4 0.0000 0.0000 0.0000 32.3209 0.0000 0.0000
# 5 0.0000 0.0000 0.0000 0.0000 32.3217 0.0000
# 6 0.0000 0.0000 0.0000 0.0000 0.0000 37.0531
#
#
#
# Elastic Compliance Matrix: (Units=1/GPa)
#
#
# Indices 1 2 3 4 5 6 
#
# 1 0.011444 -0.002213 -0.003926 0.000000 0.000000 0.000000
# 2 -0.002213 0.011444 -0.003926 0.000000 0.000000 0.000000
# 3 -0.003926 -0.003926 0.011039 0.000000 0.000000 0.000000
# 4 0.000000 0.000000 0.000000 0.030940 0.000000 0.000000
# 5 0.000000 0.000000 0.000000 0.000000 0.030939 0.000000
# 6 0.000000 0.000000 0.000000 0.000000 0.000000 0.026988
#
#
# Mechanical properties :
#
#
# Convention : Reuss Voigt Hill
#
# Bulk Modulus (GPa) = 72.48423 73.50040 72.99231
# Shear Modulus (GPa) = 33.89272 34.13178 34.01225
#
# Velocity S-wave (km/s) = 4.11134 4.12581 4.11858
# Velocity P-wave (km/s) = 7.66074 7.70407 7.68244
#
# Compressibility (1/GPa) = 0.01379610
#
# Stress axis : x y z
#
# Youngs Moduli (GPa) = 87.38261 87.38249 90.58392
#
# Poissons Ratio (x) = 0.19339 0.35565
# Poissons Ratio (y) = 0.19339 0.35565
# Poissons Ratio (z) = 0.34308 0.34308
#
# Static dielectric constant tensor:
#      x y z
#    x 3.657490 0.000000 0.000000 
#    y 0.000000 3.657470 0.000000 
#    z 0.000000 0.000000 3.494460 
# 
# 
# High freq. dielectric constant tensor:
#      x y z
#    x 1.791840 0.000000 0.000000 
#    y 0.000000 1.791840 0.000000 
#    z 0.000000 0.000000 1.766700 
# 
# From -- ./inp_files/1592.got.cif
#   From: 2010.03.12/outbox.cif.g09.slc.cpg/sg113_cif.got.tgz:1592.got - 2010.04.14 02:06:34.
