data_PCOD8308133
_publ_section_title
;
Structure prediction by ZEFSAII (Michael W. Deem and Ramdas Pophale) SiO2 
 PCOD8308133
Probable space group: P -4 2 M 
;
_chemical_formula_sum "Si O2"
_cell_formula_units_Z 56
_cell_length_a 28.472551
_cell_length_b 28.472551
_cell_length_c 5.170415
_cell_angle_alpha 90.000000
_cell_angle_beta 90.000000
_cell_angle_gamma 90.000000
_cell_volume 4191.583884
_symmetry_space_group_name_H-M "P -4 2 M "
_symmetry_group_IT_number 111
_symmetry_cell_setting 'tetragonal'
loop_
_space_group_symop_operation_xyz
x,y,z
y,-x,-z
-x,-y,z
-y,x,-z
x,-y,-z
-x,y,-z
-y,-x,z
y,x,z
loop_
_atom_site_type_symbol
_atom_site_label
_atom_site_fract_x
_atom_site_fract_y
_atom_site_fract_z
Si Si1 0.947030 0.130057 0.558600
Si Si2 0.284408 0.205369 0.414690
Si Si3 0.093746 0.170699 0.954312
Si Si4 0.719964 0.359302 0.620036
Si Si5 0.529897 0.392942 0.241912
Si Si6 0.397239 0.681657 0.120692
Si Si7 0.754279 0.166515 0.086314
O O1 0.917935 0.082066 0.594319
O O2 0.928519 0.160332 0.321038
O O3 0.000000 0.114817 0.500000
O O4 0.943801 0.163188 0.813862
O O5 0.245944 0.245944 0.429324
O O6 0.335805 0.228646 0.393246
O O7 0.279339 0.171708 0.664084
O O8 0.277744 0.173621 0.163418
O O9 0.136230 0.136230 0.023053
O O10 0.114415 0.223412 0.936694
O O11 0.680744 0.319257 0.631396
O O12 0.714962 0.391064 0.367059
O O13 0.714213 0.393766 0.866180
O O14 0.500000 0.383704 0.500000
O O15 0.569066 0.430935 0.318443
O O16 0.552792 0.344235 0.143888
O O17 0.500000 0.412492 0.000000
O O18 0.356750 0.643251 0.110270
O O19 0.795371 0.204630 0.104920
#
# Coordination Sequence:
#
# PCOD8308133 Si02
#       7
#     8   8   8   8   8   8   8
#     4  10  19  30  42  54  66  83 111 148 191 235
#     4   9  15  21  33  53  73  91 109 127 145 176
#     4   9  17  28  40  52  68  89 109 133 170 217
#     4   9  15  24  37  53  72  91 109 127 151 188
#     4  11  22  34  46  58  70  86 112 148 192 238
#     4   9  17  28  40  52  68  89 109 132 166 210
#     4   9  15  23  34  50  71  91 109 127 151 188
#
# _framework density 13.360104
#
# number of rings (size 3 to 8) (size 9 to 14) (size 15 to 20)
#    0.000    2.571    0.000    3.429    0.000   10.143 
#    0.000    0.000    0.000    2.571    0.000    0.000 
#    0.000    0.000    0.000    0.000    0.000    0.000 
#
# Total GULP energy -694209.754284 kJ/mol
# GULP energy per Si atom -12396.602755 kJ/mol
# Density = 1.332970 g / cm^3
# Si number density = 13.360104 Si / 1000 Ang^3
#
#
#
# Elastic Constant Matrix: (Units=GPa)
#
#
# Indices 1 2 3 4 5 6 
#
# 1 37.1748 35.8454 25.6125 0.0000 0.0000 0.0000
# 2 35.8454 37.1749 25.6112 0.0000 0.0000 0.0000
# 3 25.6125 25.6112 109.7596 0.0000 0.0000 0.0000
# 4 0.0000 0.0000 0.0000 17.8069 0.0000 0.0000
# 5 0.0000 0.0000 0.0000 0.0000 17.8063 0.0000
# 6 0.0000 0.0000 0.0000 0.0000 0.0000 12.6454
#
#
#
# Elastic Compliance Matrix: (Units=1/GPa)
#
#
# Indices 1 2 3 4 5 6 
#
# 1 0.384280 -0.367900 -0.003827 0.000000 0.000000 0.000000
# 2 -0.367900 0.384271 -0.003816 0.000000 0.000000 0.000000
# 3 -0.003827 -0.003816 0.010894 0.000000 0.000000 0.000000
# 4 0.000000 0.000000 0.000000 0.056158 0.000000 0.000000
# 5 0.000000 0.000000 0.000000 0.000000 0.056160 0.000000
# 6 0.000000 0.000000 0.000000 0.000000 0.000000 0.079080
#
#
# Mechanical properties :
#
#
# Convention : Reuss Voigt Hill
#
# Bulk Modulus (GPa) = 35.26051 39.80529 37.53290
# Shear Modulus (GPa) = 2.88787 16.12108 9.50447
#
# Velocity S-wave (km/s) = 1.47182 3.47747 2.67011
# Velocity P-wave (km/s) = 5.41646 6.78104 6.13680
#
# Compressibility (1/GPa) = 0.02836034
#
# Stress axis : x y z
#
# Youngs Moduli (GPa) = 2.60227 2.60233 91.79291
#
# Poissons Ratio (x) = 0.95740 0.35125
# Poissons Ratio (y) = 0.95738 0.35025
# Poissons Ratio (z) = 0.00996 0.00993
#
# Static dielectric constant tensor:
#      x y z
#    x 2.467620 0.000000 0.000000 
#    y 0.000000 2.467620 0.000000 
#    z 0.000000 0.000000 2.902250 
# 
# 
# High freq. dielectric constant tensor:
#      x y z
#    x 1.465600 0.000000 0.000000 
#    y 0.000000 1.465600 0.000000 
#    z 0.000000 0.000000 1.535750 
# 
# From -- ./inp_files/761.got.cif
#   From: 2010.03.12/outbox.cif.g09.slc.cpg/sg111_1_cif.got.tgz:761.got - 2010.04.14 01:59:48.
