data_PCOD8308867
_publ_section_title
;
Structure prediction by ZEFSAII (Michael W. Deem and Ramdas Pophale) SiO2 
 PCOD8308867
Probable space group: P -4 21 C
;
_chemical_formula_sum "Si O2"
_cell_formula_units_Z 48
_cell_length_a 8.666948
_cell_length_b 8.666948
_cell_length_c 28.589686
_cell_angle_alpha 90.000000
_cell_angle_beta 90.000000
_cell_angle_gamma 90.000000
_cell_volume 2147.542500
_symmetry_space_group_name_H-M "P -4 21 C"
_symmetry_group_IT_number 114
_symmetry_cell_setting 'tetragonal'
loop_
_space_group_symop_operation_xyz
x,y,z
y,-x,-z
-x,-y,z
-y,x,-z
1/2+x,1/2-y,1/2-z
1/2-x,1/2+y,1/2-z
1/2-y,1/2-x,1/2+z
1/2+y,1/2+x,1/2+z
loop_
_atom_site_type_symbol
_atom_site_label
_atom_site_fract_x
_atom_site_fract_y
_atom_site_fract_z
Si Si1 0.920958 0.654194 0.201778
Si Si2 0.653768 0.314061 0.491600
Si Si3 0.679234 0.989316 0.630949
Si Si4 0.147806 0.110066 0.440550
Si Si5 0.677873 0.162091 0.398654
Si Si6 0.335968 0.563996 0.778023
O O1 0.937528 0.658970 0.145486
O O2 0.746896 0.660953 0.219311
O O3 0.000000 0.500000 0.221078
O O4 0.012736 0.796218 0.225189
O O5 0.491804 0.299282 0.519135
O O6 0.795514 0.213770 0.514042
O O7 0.600765 0.248804 0.441617
O O8 0.763491 0.113019 0.598568
O O9 0.500000 0.000000 0.621027
O O10 0.742511 0.824633 0.617014
O O11 0.714683 0.013748 0.685882
O O12 0.281506 0.009085 0.416856
O O13 0.000000 0.000000 0.453930
O O14 0.500000 0.500000 0.793719
#
# Coordination Sequence:
#
# PCOD8308867 Si02
#       6
#     8   8   8   8   8   8
#     4  11  24  44  68 101 142 182 238 294 355 428
#     4  11  26  46  66  98 144 184 234 295 366 435
#     4  10  20  39  68 100 141 183 232 295 347 423
#     4  10  23  41  69 102 140 187 244 296 352 429
#     4  10  24  42  66 103 134 183 240 291 359 425
#     4  11  23  43  67 103 141 187 236 288 353 433
#
# _framework density 22.351130999999999
#
# number of rings (size 3 to 8) (size 9 to 14) (size 15 to 20)
#    0.000    1.500    0.000    5.000    7.000    1.333 
#    3.000    0.000    0.000    0.000    0.000    0.000 
#    0.000    0.000    0.000    0.000    0.000    0.000 
#
# Total GULP energy -595058.110867 kJ/mol
# GULP energy per Si atom -12397.043976 kJ/mol
# Density = 2.230026 g / cm^3
# Si number density = 22.351131 Si / 1000 Ang^3
#
#
#
# Elastic Constant Matrix: (Units=GPa)
#
#
# Indices 1 2 3 4 5 6 
#
# 1 109.0216 30.5288 52.8917 0.0000 0.0000 0.0000
# 2 30.5288 109.0216 52.8917 0.0000 0.0000 0.0000
# 3 52.8917 52.8917 136.1993 0.0000 0.0000 0.0000
# 4 0.0000 0.0000 0.0000 63.0533 0.0000 0.0000
# 5 0.0000 0.0000 0.0000 0.0000 63.0533 0.0000
# 6 0.0000 0.0000 0.0000 0.0000 0.0000 33.2557
#
#
#
# Elastic Compliance Matrix: (Units=1/GPa)
#
#
# Indices 1 2 3 4 5 6 
#
# 1 0.011448 -0.001292 -0.003944 0.000000 0.000000 0.000000
# 2 -0.001292 0.011448 -0.003944 0.000000 0.000000 0.000000
# 3 -0.003944 -0.003944 0.010405 0.000000 0.000000 0.000000
# 4 0.000000 0.000000 0.000000 0.015860 0.000000 0.000000
# 5 0.000000 0.000000 0.000000 0.000000 0.015860 0.000000
# 6 0.000000 0.000000 0.000000 0.000000 0.000000 0.030070
#
#
# Mechanical properties :
#
#
# Convention : Reuss Voigt Hill
#
# Bulk Modulus (GPa) = 66.93014 69.65190 68.29102
# Shear Modulus (GPa) = 42.21914 46.40115 44.31014
#
# Velocity S-wave (km/s) = 4.35087 4.56127 4.45731
# Velocity P-wave (km/s) = 7.43303 7.67922 7.55713
#
# Compressibility (1/GPa) = 0.01494095
#
# Stress axis : x y z
#
# Youngs Moduli (GPa) = 87.35399 87.35399 96.10585
#
# Poissons Ratio (x) = 0.11289 0.37901
# Poissons Ratio (y) = 0.11289 0.37901
# Poissons Ratio (z) = 0.34450 0.34450
#
# Static dielectric constant tensor:
#      x y z
#    x 4.027100 0.000000 0.000000 
#    y 0.000000 4.027100 0.000000 
#    z 0.000000 0.000000 4.374160 
# 
# 
# High freq. dielectric constant tensor:
#      x y z
#    x 1.880720 0.000000 0.000000 
#    y 0.000000 1.880720 0.000000 
#    z 0.000000 0.000000 1.889870 
# 
# From -- ./inp_files/3978.got.cif
#   From: 2010.03.12/outbox.cif.g09.slc.cpg/sg114_2_cif.got.tgz:3978.got - 2010.04.14 02:08:34.
