data_PCOD8308161
_publ_section_title
;
Structure prediction by ZEFSAII (Michael W. Deem and Ramdas Pophale) SiO2 
 PCOD8308161
Probable space group: P -4 2 M 
;
_chemical_formula_sum "Si O2"
_cell_formula_units_Z 40
_cell_length_a 13.722902
_cell_length_b 13.722902
_cell_length_c 12.147359
_cell_angle_alpha 90.000000
_cell_angle_beta 90.000000
_cell_angle_gamma 90.000000
_cell_volume 2287.566830
_symmetry_space_group_name_H-M "P -4 2 M "
_symmetry_group_IT_number 111
_symmetry_cell_setting 'tetragonal'
loop_
_space_group_symop_operation_xyz
x,y,z
y,-x,-z
-x,-y,z
-y,x,-z
x,-y,-z
-x,y,-z
-y,-x,z
y,x,z
loop_
_atom_site_type_symbol
_atom_site_label
_atom_site_fract_x
_atom_site_fract_y
_atom_site_fract_z
Si Si1 0.229773 0.076442 0.644189
Si Si2 0.130356 0.713898 0.589986
Si Si3 0.896527 0.386845 0.975249
Si Si4 0.652200 0.804284 0.808058
Si Si5 0.109625 0.456236 0.253364
O O1 0.120349 0.120349 0.637648
O O2 0.293289 0.117276 0.541427
O O3 0.282951 0.110209 0.754957
O O4 0.225009 0.959804 0.641687
O O5 0.229781 0.770220 0.620923
O O6 0.130943 0.603198 0.635259
O O7 0.871909 0.378149 0.845670
O O8 0.906919 0.500000 0.000000
O O9 0.816688 0.343155 0.059057
O O10 0.000000 0.335169 0.000000
O O11 0.698580 0.698580 0.779683
O O12 0.543345 0.812000 0.759029
O O13 0.000000 0.500000 0.250301
#
# Coordination Sequence:
#
# PCOD8308161 Si02
#       5
#     8   8   8   8   8
#     4   9  18  33  49  73 109 138 171 211 256 314
#     4  10  20  32  49  75 105 140 179 216 255 306
#     4   9  14  27  47  68  92 127 162 207 257 303
#     4  10  19  31  49  75 103 135 168 209 267 318
#     4  11  18  32  53  76 102 133 169 221 262 303
#
# _framework density 17.485828000000001
#
# number of rings (size 3 to 8) (size 9 to 14) (size 15 to 20)
#    0.000    2.200    6.000    0.000    0.000    2.000 
#    0.000    2.000    0.000    0.600    0.000    0.000 
#    0.000    4.800    0.000    0.000    0.000    0.000 
#
# Total GULP energy -495642.331828 kJ/mol
# GULP energy per Si atom -12391.058296 kJ/mol
# Density = 1.744603 g / cm^3
# Si number density = 17.485828 Si / 1000 Ang^3
#
#
#
# Elastic Constant Matrix: (Units=GPa)
#
#
# Indices 1 2 3 4 5 6 
#
# 1 72.0487 35.4478 22.7925 0.0000 0.0000 0.0000
# 2 35.4478 72.0510 22.7936 0.0000 0.0000 0.0000
# 3 22.7925 22.7936 60.2870 0.0000 0.0000 0.0000
# 4 0.0000 0.0000 0.0000 21.4143 0.0000 0.0000
# 5 0.0000 0.0000 0.0000 0.0000 21.4144 0.0000
# 6 0.0000 0.0000 0.0000 0.0000 0.0000 23.4551
#
#
#
# Elastic Compliance Matrix: (Units=1/GPa)
#
#
# Indices 1 2 3 4 5 6 
#
# 1 0.019200 -0.008121 -0.004188 0.000000 0.000000 0.000000
# 2 -0.008121 0.019200 -0.004189 0.000000 0.000000 0.000000
# 3 -0.004188 -0.004189 0.019755 0.000000 0.000000 0.000000
# 4 0.000000 0.000000 0.000000 0.046698 0.000000 0.000000
# 5 0.000000 0.000000 0.000000 0.000000 0.046698 0.000000
# 6 0.000000 0.000000 0.000000 0.000000 0.000000 0.042635
#
#
# Mechanical properties :
#
#
# Convention : Reuss Voigt Hill
#
# Bulk Modulus (GPa) = 39.74934 40.71716 40.23325
# Shear Modulus (GPa) = 21.22541 21.48027 21.35284
#
# Velocity S-wave (km/s) = 3.48783 3.50871 3.49829
# Velocity P-wave (km/s) = 6.24513 6.30485 6.27506
#
# Compressibility (1/GPa) = 0.02515765
#
# Stress axis : x y z
#
# Youngs Moduli (GPa) = 52.08322 52.08440 50.62121
#
# Poissons Ratio (x) = 0.42298 0.21203
# Poissons Ratio (y) = 0.42297 0.21204
# Poissons Ratio (z) = 0.21815 0.21817
#
# Static dielectric constant tensor:
#      x y z
#    x 3.040880 0.000000 0.000000 
#    y 0.000000 3.040870 0.000000 
#    z 0.000000 0.000000 3.672450 
# 
# 
# High freq. dielectric constant tensor:
#      x y z
#    x 1.644300 0.000000 0.000000 
#    y 0.000000 1.644300 0.000000 
#    z 0.000000 0.000000 1.687080 
# 
# From -- ./inp_files/2505.got.cif
#   From: 2010.03.12/outbox.cif.g09.slc.cpg/sg111_2_cif.got.tgz:2505.got - 2010.04.14 01:59:48.
