data_PCOD8308716
_publ_section_title
;
Structure prediction by ZEFSAII (Michael W. Deem and Ramdas Pophale) SiO2 
 PCOD8308716
Probable space group: P -4 21 M 
;
_chemical_formula_sum "Si O2"
_cell_formula_units_Z 32
_cell_length_a 9.624672
_cell_length_b 9.624672
_cell_length_c 16.218894
_cell_angle_alpha 90.000000
_cell_angle_beta 90.000000
_cell_angle_gamma 90.000000
_cell_volume 1502.426073
_symmetry_space_group_name_H-M "P -4 21 M "
_symmetry_group_IT_number 113
_symmetry_cell_setting 'tetragonal'
loop_
_space_group_symop_operation_xyz
x,y,z
y,-x,-z
-x,-y,z
-y,x,-z
1/2+x,1/2-y,-z
1/2-x,1/2+y,-z
1/2-y,1/2-x,z
1/2+y,1/2+x,z
loop_
_atom_site_type_symbol
_atom_site_label
_atom_site_fract_x
_atom_site_fract_y
_atom_site_fract_z
Si Si1 0.083804 0.817653 0.874159
Si Si2 0.507385 0.777133 0.954426
Si Si3 0.819391 0.908234 0.463065
Si Si4 0.493675 0.774319 0.292606
O O1 0.205544 0.705544 0.866504
O O2 0.995395 0.819898 0.789895
O O3 0.152269 0.970509 0.890731
O O4 0.987602 0.778240 0.952124
O O5 0.663546 0.836455 0.939171
O O6 0.399819 0.899819 0.940856
O O7 0.683955 0.816046 0.482001
O O8 0.820656 0.966383 0.370221
O O9 0.960107 0.818775 0.474831
O O10 0.602198 0.897803 0.282914
O O11 0.340307 0.840307 0.305155
#
# Coordination Sequence:
#
# PCOD8308716 Si02
#       4
#     8   8   8   8
#     4   9  17  30  49  75 104 138 184 229 271 326
#     4   9  17  30  48  70 101 139 176 222 278 327
#     4  10  21  38  60  87 118 152 192 240 296 357
#     4   9  17  32  57  84 109 144 190 234 277 334
#
# _framework density 21.298883
#
# number of rings (size 3 to 8) (size 9 to 14) (size 15 to 20)
#    0.000    2.750    0.000    1.500    0.000    5.000 
#    0.000    6.250    0.000    7.500    0.000    0.000 
#    0.000    0.000    0.000    0.000    0.000    0.000 
#
# Total GULP energy -396635.027690 kJ/mol
# GULP energy per Si atom -12394.844615 kJ/mol
# Density = 2.125041 g / cm^3
# Si number density = 21.298883 Si / 1000 Ang^3
#
#
#
# Elastic Constant Matrix: (Units=GPa)
#
#
# Indices 1 2 3 4 5 6 
#
# 1 80.6121 35.5045 62.9818 0.0000 0.0000 0.0000
# 2 35.5045 80.6107 62.9819 0.0000 0.0000 0.0000
# 3 62.9818 62.9819 160.4922 0.0000 0.0000 0.0000
# 4 0.0000 0.0000 0.0000 30.3095 0.0000 0.0000
# 5 0.0000 0.0000 0.0000 0.0000 30.3094 0.0000
# 6 0.0000 0.0000 0.0000 0.0000 0.0000 39.3286
#
#
#
# Elastic Compliance Matrix: (Units=1/GPa)
#
#
# Indices 1 2 3 4 5 6 
#
# 1 0.018583 -0.003587 -0.005885 0.000000 0.000000 0.000000
# 2 -0.003587 0.018583 -0.005885 0.000000 0.000000 0.000000
# 3 -0.005885 -0.005885 0.010850 0.000000 0.000000 0.000000
# 4 0.000000 0.000000 0.000000 0.032993 0.000000 0.000000
# 5 0.000000 0.000000 0.000000 0.000000 0.032993 0.000000
# 6 0.000000 0.000000 0.000000 0.000000 0.000000 0.025427
#
#
# Mechanical properties :
#
#
# Convention : Reuss Voigt Hill
#
# Bulk Modulus (GPa) = 57.79608 71.62793 64.71201
# Shear Modulus (GPa) = 28.42385 30.67261 29.54823
#
# Velocity S-wave (km/s) = 3.65708 3.79899 3.72871
# Velocity P-wave (km/s) = 6.71021 7.27640 6.99903
#
# Compressibility (1/GPa) = 0.01730221
#
# Stress axis : x y z
#
# Youngs Moduli (GPa) = 53.81388 53.81244 92.16889
#
# Poissons Ratio (x) = 0.19301 0.54240
# Poissons Ratio (y) = 0.19302 0.54241
# Poissons Ratio (z) = 0.31668 0.31669
#
# Static dielectric constant tensor:
#      x y z
#    x 3.973630 0.000000 0.000000 
#    y 0.000000 3.973620 0.000000 
#    z 0.000000 0.000000 3.916970 
# 
# 
# High freq. dielectric constant tensor:
#      x y z
#    x 1.832680 0.000000 0.000000 
#    y 0.000000 1.832680 0.000000 
#    z 0.000000 0.000000 1.818230 
# 
# From -- ./inp_files/1538.got.cif
#   From: 2010.03.12/outbox.cif.g09.slc.cpg/sg113_cif.got.tgz:1538.got - 2010.04.14 02:06:34.
