data_PCOD8308938
_publ_section_title
;
Structure prediction by ZEFSAII (Michael W. Deem and Ramdas Pophale) SiO2 
 PCOD8308938
Probable space group: P -4 21 C
;
_chemical_formula_sum "Si O2"
_cell_formula_units_Z 36
_cell_length_a 9.372212
_cell_length_b 9.372212
_cell_length_c 19.115894
_cell_angle_alpha 90.000000
_cell_angle_beta 90.000000
_cell_angle_gamma 90.000000
_cell_volume 1679.108736
_symmetry_space_group_name_H-M "P -4 21 C"
_symmetry_group_IT_number 114
_symmetry_cell_setting 'tetragonal'
loop_
_space_group_symop_operation_xyz
x,y,z
y,-x,-z
-x,-y,z
-y,x,-z
1/2+x,1/2-y,1/2-z
1/2-x,1/2+y,1/2-z
1/2-y,1/2-x,1/2+z
1/2+y,1/2+x,1/2+z
loop_
_atom_site_type_symbol
_atom_site_label
_atom_site_fract_x
_atom_site_fract_y
_atom_site_fract_z
Si Si1 0.141770 0.660805 0.190313
Si Si2 0.500000 0.500000 0.500000
Si Si3 0.813270 0.759003 0.561386
Si Si4 0.061135 0.701968 0.039199
Si Si5 0.500000 0.500000 0.000000
Si Si6 0.342726 0.822762 0.784839
O O1 0.143613 0.640161 0.106377
O O2 0.189304 0.511872 0.223131
O O3 0.251231 0.779708 0.215659
O O4 0.985752 0.707663 0.215093
O O5 0.537199 0.629387 0.447980
O O6 0.663530 0.814952 0.528206
O O7 0.864310 0.600497 0.531807
O O8 0.787300 0.752760 0.644367
O O9 0.938920 0.871504 0.547052
#
# Coordination Sequence:
#
# PCOD8308938 Si02
#       6
#     8   2   8   8   2   8
#     4  10  22  39  60  86 120 156 193 241 296 354
#     4   8  16  32  62  96 108 144 208 250 292 348
#     4  10  22  39  61  90 121 156 200 246 300 358
#     4   9  19  39  63  86 118 155 197 249 297 351
#     4  12  24  36  58  92 124 160 200 250 304 352
#     4  10  23  41  59  86 119 155 198 244 296 355
#
# _framework density 21.439944000000001
#
# number of rings (size 3 to 8) (size 9 to 14) (size 15 to 20)
#    0.000    2.222    0.000    1.333    0.000   14.222 
#    0.000    2.222    0.000    2.667    0.000    0.000 
#    0.000    0.000    0.000    0.000    0.000    0.000 
#
# Total GULP energy -446332.437729 kJ/mol
# GULP energy per Si atom -12398.123270 kJ/mol
# Density = 2.139115 g / cm^3
# Si number density = 21.439944 Si / 1000 Ang^3
#
#
#
# Elastic Constant Matrix: (Units=GPa)
#
#
# Indices 1 2 3 4 5 6 
#
# 1 75.4205 52.3572 45.5373 0.0000 0.0000 0.0000
# 2 52.3572 75.4205 45.5373 0.0000 0.0000 0.0000
# 3 45.5373 45.5373 74.3479 0.0000 0.0000 0.0000
# 4 0.0000 0.0000 0.0000 37.3183 0.0000 0.0000
# 5 0.0000 0.0000 0.0000 0.0000 37.3183 0.0000
# 6 0.0000 0.0000 0.0000 0.0000 0.0000 42.6834
#
#
#
# Elastic Compliance Matrix: (Units=1/GPa)
#
#
# Indices 1 2 3 4 5 6 
#
# 1 0.028624 -0.014735 -0.008507 0.000000 0.000000 0.000000
# 2 -0.014735 0.028624 -0.008507 0.000000 0.000000 0.000000
# 3 -0.008507 -0.008507 0.023872 0.000000 0.000000 0.000000
# 4 0.000000 0.000000 0.000000 0.026796 0.000000 0.000000
# 5 0.000000 0.000000 0.000000 0.000000 0.026796 0.000000
# 6 0.000000 0.000000 0.000000 0.000000 0.000000 0.023428
#
#
# Mechanical properties :
#
#
# Convention : Reuss Voigt Hill
#
# Bulk Modulus (GPa) = 56.74798 56.89473 56.82135
# Shear Modulus (GPa) = 21.97666 28.91448 25.44557
#
# Velocity S-wave (km/s) = 3.20509 3.67635 3.44878
# Velocity P-wave (km/s) = 6.34213 6.67946 6.51298
#
# Compressibility (1/GPa) = 0.01762177
#
# Stress axis : x y z
#
# Youngs Moduli (GPa) = 34.93524 34.93524 41.89081
#
# Poissons Ratio (x) = 0.51476 0.35638
# Poissons Ratio (y) = 0.51476 0.35638
# Poissons Ratio (z) = 0.29721 0.29721
#
# Static dielectric constant tensor:
#      x y z
#    x 3.993190 0.000000 0.000000 
#    y 0.000000 3.993190 0.000000 
#    z 0.000000 0.000000 3.495260 
# 
# 
# High freq. dielectric constant tensor:
#      x y z
#    x 1.849650 0.000000 0.000000 
#    y 0.000000 1.849650 0.000000 
#    z 0.000000 0.000000 1.813330 
# 
# From -- ./inp_files/3008.got.cif
#   From: 2010.03.12/outbox.cif.g09.slc.cpg/sg114_2_cif.got.tgz:3008.got - 2010.04.14 02:08:34.
