data_PCOD8308279
_publ_section_title
;
Structure prediction by ZEFSAII (Michael W. Deem and Ramdas Pophale) SiO2 
 PCOD8308279
Probable space group: P -4 2 M 
;
_chemical_formula_sum "Si O2"
_cell_formula_units_Z 32
_cell_length_a 12.532887
_cell_length_b 12.532887
_cell_length_c 9.848814
_cell_angle_alpha 90.000000
_cell_angle_beta 90.000000
_cell_angle_gamma 90.000000
_cell_volume 1546.985288
_symmetry_space_group_name_H-M "P -4 2 M "
_symmetry_group_IT_number 111
_symmetry_cell_setting 'tetragonal'
loop_
_space_group_symop_operation_xyz
x,y,z
y,-x,-z
-x,-y,z
-y,x,-z
x,-y,-z
-x,y,-z
-y,-x,z
y,x,z
loop_
_atom_site_type_symbol
_atom_site_label
_atom_site_fract_x
_atom_site_fract_y
_atom_site_fract_z
Si Si1 0.067143 0.237321 0.633903
Si Si2 0.383030 0.041121 0.150227
Si Si3 0.449084 0.723943 0.855454
Si Si4 0.245399 0.409821 0.602946
O O1 0.129708 0.129708 0.681705
O O2 0.151139 0.326733 0.596040
O O3 0.000000 0.209251 0.500000
O O4 0.994176 0.285368 0.753719
O O5 0.380056 0.168568 0.144246
O O6 0.500000 0.000000 0.201522
O O7 0.359833 0.000000 0.000000
O O8 0.372987 0.627014 0.810819
O O9 0.547254 0.736483 0.753612
O O10 0.500000 0.699369 0.000000
O O11 0.210999 0.500000 0.500000
O O12 0.354494 0.354494 0.553014
#
# Coordination Sequence:
#
# PCOD8308279 Si02
#       4
#     8   8   8   8
#     4  11  25  43  68  97 130 173 224 283 342 395
#     4  11  21  42  69  94 129 174 223 274 328 396
#     4  12  24  39  63  96 131 170 215 264 329 401
#     4  11  23  38  57  86 124 170 214 258 321 395
#
# _framework density 20.685392
#
# number of rings (size 3 to 8) (size 9 to 14) (size 15 to 20)
#    0.000    0.750    5.000    3.000    0.000    9.250 
#    0.000    0.000    0.000    0.000    0.000    1.750 
#    0.000    0.000    0.000    0.000    0.000    0.000 
#
# Total GULP energy -396856.719644 kJ/mol
# GULP energy per Si atom -12401.772489 kJ/mol
# Density = 2.063831 g / cm^3
# Si number density = 20.685392 Si / 1000 Ang^3
#
#
#
# Elastic Constant Matrix: (Units=GPa)
#
#
# Indices 1 2 3 4 5 6 
#
# 1 63.4362 57.8562 17.9924 0.0000 0.0000 0.0000
# 2 57.8562 63.4368 17.9906 0.0000 0.0000 0.0000
# 3 17.9924 17.9906 79.0216 0.0000 0.0000 0.0000
# 4 0.0000 0.0000 0.0000 44.4480 0.0000 0.0000
# 5 0.0000 0.0000 0.0000 0.0000 44.4500 0.0000
# 6 0.0000 0.0000 0.0000 0.0000 0.0000 36.2446
#
#
#
# Elastic Compliance Matrix: (Units=1/GPa)
#
#
# Indices 1 2 3 4 5 6 
#
# 1 0.094022 -0.085179 -0.002015 0.000000 0.000000 0.000000
# 2 -0.085179 0.094020 -0.002011 0.000000 0.000000 0.000000
# 3 -0.002015 -0.002011 0.013571 0.000000 0.000000 0.000000
# 4 0.000000 0.000000 0.000000 0.022498 0.000000 0.000000
# 5 0.000000 0.000000 0.000000 0.000000 0.022497 0.000000
# 6 0.000000 0.000000 0.000000 0.000000 0.000000 0.027590
#
#
# Mechanical properties :
#
#
# Convention : Reuss Voigt Hill
#
# Bulk Modulus (GPa) = 43.09859 43.73031 43.41445
# Shear Modulus (GPa) = 10.86142 32.49889 21.68015
#
# Velocity S-wave (km/s) = 2.29394 3.96801 3.24093
# Velocity P-wave (km/s) = 5.28174 6.49462 5.91933
#
# Compressibility (1/GPa) = 0.02320262
#
# Stress axis : x y z
#
# Youngs Moduli (GPa) = 10.63577 10.63603 73.68417
#
# Poissons Ratio (x) = 0.90597 0.14850
# Poissons Ratio (y) = 0.90595 0.14816
# Poissons Ratio (z) = 0.02144 0.02139
#
# Static dielectric constant tensor:
#      x y z
#    x 4.200080 0.000000 0.000000 
#    y 0.000000 4.200120 0.000000 
#    z 0.000000 0.000000 3.756590 
# 
# 
# High freq. dielectric constant tensor:
#      x y z
#    x 1.811650 0.000000 0.000000 
#    y 0.000000 1.811650 0.000000 
#    z 0.000000 0.000000 1.812100 
# 
# From -- ./inp_files/2330.got.cif
#   From: 2010.03.12/outbox.cif.g09.slc.cpg/sg111_2_cif.got.tgz:2330.got - 2010.04.14 01:59:48.
