data_PCOD8308858
_publ_section_title
;
Structure prediction by ZEFSAII (Michael W. Deem and Ramdas Pophale) SiO2 
 PCOD8308858
Probable space group: P -4 21 C
;
_chemical_formula_sum "Si O2"
_cell_formula_units_Z 36
_cell_length_a 14.677249
_cell_length_b 14.677249
_cell_length_c 8.769507
_cell_angle_alpha 90.000000
_cell_angle_beta 90.000000
_cell_angle_gamma 90.000000
_cell_volume 1889.141564
_symmetry_space_group_name_H-M "P -4 21 C"
_symmetry_group_IT_number 114
_symmetry_cell_setting 'tetragonal'
loop_
_space_group_symop_operation_xyz
x,y,z
y,-x,-z
-x,-y,z
-y,x,-z
1/2+x,1/2-y,1/2-z
1/2-x,1/2+y,1/2-z
1/2-y,1/2-x,1/2+z
1/2+y,1/2+x,1/2+z
loop_
_atom_site_type_symbol
_atom_site_label
_atom_site_fract_x
_atom_site_fract_y
_atom_site_fract_z
Si Si1 0.438070 0.814764 0.581412
Si Si2 0.636345 0.504265 0.569215
Si Si3 0.495735 0.636345 0.069215
Si Si4 0.500000 0.000000 0.000000
Si Si5 0.061930 0.314764 0.581412
O O1 0.489929 0.741619 0.477464
O O2 0.342196 0.842196 0.500000
O O3 0.419277 0.774893 0.750000
O O4 0.499852 0.906398 0.598336
O O5 0.594180 0.415133 0.490271
O O6 0.626256 0.496251 0.750000
O O7 0.584867 0.594180 0.990272
O O8 0.489929 0.741619 0.022536
O O9 0.500148 0.093602 0.901664
#
# Coordination Sequence:
#
# PCOD8308858 Si02
#       5
#     8   8   8   4   8
#     4  10  20  37  59  86 118 154 197 242 295 351
#     4  11  22  39  62  87 119 157 199 247 299 355
#     4  11  22  39  62  87 119 157 199 247 299 355
#     4   8  22  36  62  80 122 152 196 234 298 336
#     4  10  20  37  59  86 118 154 197 242 295 351
#
# _framework density 19.056274999999999
#
# number of rings (size 3 to 8) (size 9 to 14) (size 15 to 20)
#    1.333    0.444    0.000    7.333    0.000    0.000 
#    4.000    0.000    0.000    0.000    0.000    0.000 
#    0.000    0.000    0.000    0.000    0.000    0.000 
#
# Total GULP energy -446071.816675 kJ/mol
# GULP energy per Si atom -12390.883797 kJ/mol
# Density = 1.901290 g / cm^3
# Si number density = 19.056275 Si / 1000 Ang^3
#
#
#
# Elastic Constant Matrix: (Units=GPa)
#
#
# Indices 1 2 3 4 5 6 
#
# 1 98.6278 28.0949 18.8967 0.0000 0.0000 0.0000
# 2 28.0949 98.6278 18.8967 0.0000 0.0000 0.0000
# 3 18.8967 18.8967 134.6772 0.0000 0.0000 0.0000
# 4 0.0000 0.0000 0.0000 27.8720 0.0000 0.0000
# 5 0.0000 0.0000 0.0000 0.0000 27.8720 0.0000
# 6 0.0000 0.0000 0.0000 0.0000 0.0000 21.6358
#
#
#
# Elastic Compliance Matrix: (Units=1/GPa)
#
#
# Indices 1 2 3 4 5 6 
#
# 1 0.011207 -0.002971 -0.001156 0.000000 0.000000 0.000000
# 2 -0.002971 0.011207 -0.001156 0.000000 0.000000 0.000000
# 3 -0.001156 -0.001156 0.007749 0.000000 0.000000 0.000000
# 4 0.000000 0.000000 0.000000 0.035878 0.000000 0.000000
# 5 0.000000 0.000000 0.000000 0.000000 0.035878 0.000000
# 6 0.000000 0.000000 0.000000 0.000000 0.000000 0.046220
#
#
# Mechanical properties :
#
#
# Convention : Reuss Voigt Hill
#
# Bulk Modulus (GPa) = 51.02336 51.52328 51.27332
# Shear Modulus (GPa) = 30.25964 33.21227 31.73596
#
# Velocity S-wave (km/s) = 3.98918 4.17928 4.08534
# Velocity P-wave (km/s) = 6.93191 7.09821 7.01555
#
# Compressibility (1/GPa) = 0.01959887
#
# Stress axis : x y z
#
# Youngs Moduli (GPa) = 89.23131 89.23131 129.04153
#
# Poissons Ratio (x) = 0.26510 0.14912
# Poissons Ratio (y) = 0.26510 0.14912
# Poissons Ratio (z) = 0.10311 0.10311
#
# Static dielectric constant tensor:
#      x y z
#    x 3.285930 0.000000 0.000000 
#    y 0.000000 3.285930 0.000000 
#    z 0.000000 0.000000 3.484590 
# 
# 
# High freq. dielectric constant tensor:
#      x y z
#    x 1.724900 0.000000 0.000000 
#    y 0.000000 1.724900 0.000000 
#    z 0.000000 0.000000 1.757420 
# 
# From -- ./inp_files/719.got.cif
#   From: 2010.03.12/outbox.cif.g09.slc.cpg/sg114_1_cif.got.tgz:719.got - 2010.04.14 02:08:34.
