data_PCOD8308420
_publ_section_title
;
Structure prediction by ZEFSAII (Michael W. Deem and Ramdas Pophale) SiO2 
 PCOD8308420
Probable space group: P -4 2 C
;
_chemical_formula_sum "Si O2"
_cell_formula_units_Z 32
_cell_length_a 8.389164
_cell_length_b 8.389164
_cell_length_c 18.664539
_cell_angle_alpha 90.000000
_cell_angle_beta 90.000000
_cell_angle_gamma 90.000000
_cell_volume 1313.574281
_symmetry_space_group_name_H-M "P -4 2 C"
_symmetry_group_IT_number 112
_symmetry_cell_setting 'tetragonal'
loop_
_space_group_symop_operation_xyz
x,y,z
y,-x,-z
-x,-y,z
-y,x,-z
x,-y,1/2-z
-x,y,1/2-z
-y,-x,1/2+z
y,x,1/2+z
loop_
_atom_site_type_symbol
_atom_site_label
_atom_site_fract_x
_atom_site_fract_y
_atom_site_fract_z
Si Si1 0.234695 0.320047 0.082738
Si Si2 0.833373 0.441432 0.562538
Si Si3 0.596279 0.663961 0.828899
Si Si4 0.827647 0.821448 0.724207
O O1 0.411515 0.288919 0.050985
O O2 0.215250 0.481488 0.129053
O O3 0.183087 0.177273 0.136803
O O4 0.130526 0.342710 0.010815
O O5 0.756625 0.335859 0.624181
O O6 0.000000 0.500000 0.593772
O O7 0.500000 0.500000 0.817601
O O8 0.669802 0.723052 0.752384
O O9 0.000000 0.752795 0.750000
O O10 0.808207 0.000000 0.750000
#
# Coordination Sequence:
#
# PCOD8308420 Si02
#       4
#     8   8   8   8
#     4  11  23  41  66  98 137 176 239 289 345 423
#     4  11  23  40  67 101 135 181 226 297 357 416
#     4  10  23  43  66  99 133 180 235 286 350 412
#     4  11  26  46  68 101 144 190 233 288 356 433
#
# _framework density 24.361011999999999
#
# number of rings (size 3 to 8) (size 9 to 14) (size 15 to 20)
#    0.000    1.250    2.500    2.250    3.500    8.000 
#    0.000    6.250    0.000    3.000    0.000    0.000 
#    0.000    0.000    0.000    0.000    0.000    0.000 
#
# Total GULP energy -396529.627962 kJ/mol
# GULP energy per Si atom -12391.550874 kJ/mol
# Density = 2.430556 g / cm^3
# Si number density = 24.361012 Si / 1000 Ang^3
#
#
#
# Elastic Constant Matrix: (Units=GPa)
#
#
# Indices 1 2 3 4 5 6 
#
# 1 88.3519 3.1150 29.9132 0.0000 0.0000 0.0000
# 2 3.1150 88.3519 29.9132 0.0000 0.0000 0.0000
# 3 29.9132 29.9132 177.6717 0.0000 0.0000 0.0000
# 4 0.0000 0.0000 0.0000 34.6279 0.0000 0.0000
# 5 0.0000 0.0000 0.0000 0.0000 34.6279 0.0000
# 6 0.0000 0.0000 0.0000 0.0000 0.0000 29.1151
#
#
#
# Elastic Compliance Matrix: (Units=1/GPa)
#
#
# Indices 1 2 3 4 5 6 
#
# 1 0.012009 0.000277 -0.002068 0.000000 0.000000 0.000000
# 2 0.000277 0.012009 -0.002068 0.000000 0.000000 0.000000
# 3 -0.002068 -0.002068 0.006325 0.000000 0.000000 0.000000
# 4 0.000000 0.000000 0.000000 0.028878 0.000000 0.000000
# 5 0.000000 0.000000 0.000000 0.000000 0.028878 0.000000
# 6 0.000000 0.000000 0.000000 0.000000 0.000000 0.034346
#
#
# Mechanical properties :
#
#
# Convention : Reuss Voigt Hill
#
# Bulk Modulus (GPa) = 44.20343 53.36205 48.78274
# Shear Modulus (GPa) = 36.30895 39.10310 37.70603
#
# Velocity S-wave (km/s) = 3.86483 4.01078 3.93848
# Velocity P-wave (km/s) = 6.17255 6.58792 6.38362
#
# Compressibility (1/GPa) = 0.02262268
#
# Stress axis : x y z
#
# Youngs Moduli (GPa) = 83.27135 83.27135 158.10608
#
# Poissons Ratio (x) = -0.02306 0.32704
# Poissons Ratio (y) = -0.02306 0.32704
# Poissons Ratio (z) = 0.17225 0.17225
#
# Static dielectric constant tensor:
#      x y z
#    x 4.238760 0.000000 0.000000 
#    y 0.000000 4.238760 0.000000 
#    z 0.000000 0.000000 4.604390 
# 
# 
# High freq. dielectric constant tensor:
#      x y z
#    x 1.950750 0.000000 0.000000 
#    y 0.000000 1.950750 0.000000 
#    z 0.000000 0.000000 1.991790 
# 
# From -- ./inp_files/4534.got.cif
#   From: 2010.03.12/outbox.cif.g09.slc.cpg/sg112_3_cif.got.tgz:4534.got - 2010.04.14 02:02:48.
