data_PCOD8308753
_publ_section_title
;
Structure prediction by ZEFSAII (Michael W. Deem and Ramdas Pophale) SiO2 
 PCOD8308753
Probable space group: P -4 21 M 
;
_chemical_formula_sum "Si O2"
_cell_formula_units_Z 48
_cell_length_a 14.298379
_cell_length_b 14.298379
_cell_length_c 12.163623
_cell_angle_alpha 90.000000
_cell_angle_beta 90.000000
_cell_angle_gamma 90.000000
_cell_volume 2486.775386
_symmetry_space_group_name_H-M "P -4 21 M "
_symmetry_group_IT_number 113
_symmetry_cell_setting 'tetragonal'
loop_
_space_group_symop_operation_xyz
x,y,z
y,-x,-z
-x,-y,z
-y,x,-z
1/2+x,1/2-y,-z
1/2-x,1/2+y,-z
1/2-y,1/2-x,z
1/2+y,1/2+x,z
loop_
_atom_site_type_symbol
_atom_site_label
_atom_site_fract_x
_atom_site_fract_y
_atom_site_fract_z
Si Si1 0.651039 0.515361 0.482884
Si Si2 0.422295 0.077706 0.193363
Si Si3 0.222683 0.875995 0.101168
Si Si4 0.278162 0.531344 0.071693
Si Si5 0.236938 0.999355 0.295182
Si Si6 0.578027 0.921974 0.940509
Si Si7 0.052487 0.100159 0.257517
O O1 0.601478 0.416865 0.495717
O O2 0.734708 0.521311 0.572612
O O3 0.675229 0.524025 0.353288
O O4 0.337023 0.037557 0.262679
O O5 0.500000 0.000000 0.186218
O O6 0.396456 0.103545 0.067595
O O7 0.315419 0.815419 0.078074
O O8 0.133737 0.820985 0.055410
O O9 0.214316 0.901903 0.230523
O O10 0.231226 0.976562 0.042878
O O11 0.173122 0.543000 0.119224
O O12 0.347949 0.470582 0.145406
O O13 0.162116 0.078584 0.261870
O O14 0.500000 0.000000 0.926444
O O15 0.000000 0.000000 0.271771
#
# Coordination Sequence:
#
# PCOD8308753 Si02
#       7
#     8   4   8   8   8   4   8
#     4   9  15  33  63  91 120 156 191 251 326 382
#     4  11  24  44  63  87 125 179 225 257 311 391
#     4  12  24  39  60  92 128 164 215 267 317 381
#     4  12  24  37  61  92 123 167 211 262 317 384
#     4  11  21  38  67  92 124 166 216 266 325 373
#     4  11  24  46  61  81 127 185 219 245 319 393
#     4  11  20  37  64  97 131 159 199 266 334 380
#
# _framework density 19.302105000000001
#
# number of rings (size 3 to 8) (size 9 to 14) (size 15 to 20)
#    0.000    1.000    7.500    2.000    0.000    0.000 
#    1.500    0.833   18.333    1.000    0.000    0.000 
#    0.000    0.000    0.000    0.000    0.000    0.000 
#
# Total GULP energy -594858.511968 kJ/mol
# GULP energy per Si atom -12392.885666 kJ/mol
# Density = 1.925817 g / cm^3
# Si number density = 19.302105 Si / 1000 Ang^3
#
#
#
# Elastic Constant Matrix: (Units=GPa)
#
#
# Indices 1 2 3 4 5 6 
#
# 1 89.7371 26.1136 26.9783 0.0000 0.0000 0.0000
# 2 26.1136 89.7364 26.9784 0.0000 0.0000 0.0000
# 3 26.9783 26.9784 84.6738 0.0000 0.0000 0.0000
# 4 0.0000 0.0000 0.0000 25.6325 0.0000 0.0000
# 5 0.0000 0.0000 0.0000 0.0000 25.6326 0.0000
# 6 0.0000 0.0000 0.0000 0.0000 0.0000 31.7522
#
#
#
# Elastic Compliance Matrix: (Units=1/GPa)
#
#
# Indices 1 2 3 4 5 6 
#
# 1 0.012927 -0.002791 -0.003229 0.000000 0.000000 0.000000
# 2 -0.002791 0.012927 -0.003229 0.000000 0.000000 0.000000
# 3 -0.003229 -0.003229 0.013868 0.000000 0.000000 0.000000
# 4 0.000000 0.000000 0.000000 0.039013 0.000000 0.000000
# 5 0.000000 0.000000 0.000000 0.000000 0.039013 0.000000
# 6 0.000000 0.000000 0.000000 0.000000 0.000000 0.031494
#
#
# Mechanical properties :
#
#
# Convention : Reuss Voigt Hill
#
# Bulk Modulus (GPa) = 47.12103 47.14312 47.13208
# Shear Modulus (GPa) = 28.60175 28.87527 28.73851
#
# Velocity S-wave (km/s) = 3.85358 3.87197 3.86279
# Velocity P-wave (km/s) = 6.65323 6.66831 6.66078
#
# Compressibility (1/GPa) = 0.02122195
#
# Stress axis : x y z
#
# Youngs Moduli (GPa) = 77.35942 77.35863 72.10872
#
# Poissons Ratio (x) = 0.21589 0.23287
# Poissons Ratio (y) = 0.21590 0.23287
# Poissons Ratio (z) = 0.24983 0.24983
#
# Static dielectric constant tensor:
#      x y z
#    x 3.463510 0.000000 0.000000 
#    y 0.000000 3.463510 0.000000 
#    z 0.000000 0.000000 3.751860 
# 
# 
# High freq. dielectric constant tensor:
#      x y z
#    x 1.740960 0.000000 0.000000 
#    y 0.000000 1.740960 0.000000 
#    z 0.000000 0.000000 1.746170 
# 
# From -- ./inp_files/1869.got.cif
#   From: 2010.03.12/outbox.cif.g09.slc.cpg/sg113_cif.got.tgz:1869.got - 2010.04.14 02:06:34.
