data_PCOD8308982
_publ_section_title
;
Structure prediction by ZEFSAII (Michael W. Deem and Ramdas Pophale) SiO2 
 PCOD8308982
Probable space group: P -4 21 C
;
_chemical_formula_sum "Si O2"
_cell_formula_units_Z 56
_cell_length_a 14.063464
_cell_length_b 14.063464
_cell_length_c 12.315357
_cell_angle_alpha 90.000000
_cell_angle_beta 90.000000
_cell_angle_gamma 90.000000
_cell_volume 2435.743865
_symmetry_space_group_name_H-M "P -4 21 C"
_symmetry_group_IT_number 114
_symmetry_cell_setting 'tetragonal'
loop_
_space_group_symop_operation_xyz
x,y,z
y,-x,-z
-x,-y,z
-y,x,-z
1/2+x,1/2-y,1/2-z
1/2-x,1/2+y,1/2-z
1/2-y,1/2-x,1/2+z
1/2+y,1/2+x,1/2+z
loop_
_atom_site_type_symbol
_atom_site_label
_atom_site_fract_x
_atom_site_fract_y
_atom_site_fract_z
Si Si1 0.475532 0.826322 0.467544
Si Si2 0.966005 0.243667 0.822794
Si Si3 0.854745 0.779678 0.197016
Si Si4 0.680799 0.660899 0.227334
Si Si5 0.559072 0.183246 0.096999
Si Si6 0.909420 0.354330 0.228370
Si Si7 0.866366 0.039519 0.468431
O O1 0.546433 0.777887 0.553492
O O2 0.431022 0.742895 0.394572
O O3 0.400658 0.888291 0.534414
O O4 0.535888 0.888621 0.380677
O O5 0.894131 0.155977 0.803520
O O6 0.929284 0.324068 0.739012
O O7 0.077990 0.221073 0.806382
O O8 0.760184 0.721859 0.163362
O O9 0.876695 0.740260 0.317049
O O10 0.618790 0.741978 0.288482
O O11 0.620493 0.604136 0.138289
O O12 0.471320 0.136683 0.161687
O O13 0.527040 0.258160 0.005871
O O14 0.934232 0.091818 0.557248
#
# Coordination Sequence:
#
# PCOD8308982 Si02
#       7
#     8   8   8   8   8   8   8
#     4  11  24  44  71  96 139 185 230 290 364 425
#     4  11  25  43  70 102 133 186 237 293 364 428
#     4  10  23  42  66  97 134 184 231 288 351 435
#     4  11  21  44  68  96 139 180 232 294 353 427
#     4  11  21  44  64  96 140 176 226 290 356 424
#     4  10  26  46  67 104 142 178 241 301 350 438
#     4  11  22  37  66 100 130 182 235 287 353 421
#
# _framework density 22.990925000000001
#
# number of rings (size 3 to 8) (size 9 to 14) (size 15 to 20)
#    0.000    1.286    4.286    0.857    2.000    1.714 
#    2.571    0.000    0.000    0.000    0.000    0.000 
#    0.000    0.000    0.000    0.000    0.000    0.000 
#
# Total GULP energy -694005.746116 kJ/mol
# GULP energy per Si atom -12392.959752 kJ/mol
# Density = 2.293860 g / cm^3
# Si number density = 22.990925 Si / 1000 Ang^3
#
#
#
# Elastic Constant Matrix: (Units=GPa)
#
#
# Indices 1 2 3 4 5 6 
#
# 1 83.8476 17.0149 35.5530 0.0000 0.0000 0.0000
# 2 17.0149 83.8476 35.5530 0.0000 0.0000 0.0000
# 3 35.5530 35.5530 108.5344 0.0000 0.0000 0.0000
# 4 0.0000 0.0000 0.0000 22.0922 0.0000 0.0000
# 5 0.0000 0.0000 0.0000 0.0000 22.0922 0.0000
# 6 0.0000 0.0000 0.0000 0.0000 0.0000 27.1991
#
#
#
# Elastic Compliance Matrix: (Units=1/GPa)
#
#
# Indices 1 2 3 4 5 6 
#
# 1 0.013927 -0.001036 -0.004223 0.000000 0.000000 0.000000
# 2 -0.001036 0.013927 -0.004223 0.000000 0.000000 0.000000
# 3 -0.004223 -0.004223 0.011980 0.000000 0.000000 0.000000
# 4 0.000000 0.000000 0.000000 0.045265 0.000000 0.000000
# 5 0.000000 0.000000 0.000000 0.000000 0.045265 0.000000
# 6 0.000000 0.000000 0.000000 0.000000 0.000000 0.036766
#
#
# Mechanical properties :
#
#
# Convention : Reuss Voigt Hill
#
# Bulk Modulus (GPa) = 47.91174 50.27459 49.09317
# Shear Modulus (GPa) = 25.89998 26.81728 26.35863
#
# Velocity S-wave (km/s) = 3.36002 3.41901 3.38964
# Velocity P-wave (km/s) = 5.99480 6.12379 6.05964
#
# Compressibility (1/GPa) = 0.02087171
#
# Stress axis : x y z
#
# Youngs Moduli (GPa) = 71.80213 71.80213 83.47017
#
# Poissons Ratio (x) = 0.07436 0.35249
# Poissons Ratio (y) = 0.07436 0.35249
# Poissons Ratio (z) = 0.30322 0.30322
#
# Static dielectric constant tensor:
#      x y z
#    x 4.209110 0.000000 0.000000 
#    y 0.000000 4.209110 0.000000 
#    z 0.000000 0.000000 4.038050 
# 
# 
# High freq. dielectric constant tensor:
#      x y z
#    x 1.908950 0.000000 0.000000 
#    y 0.000000 1.908950 0.000000 
#    z 0.000000 0.000000 1.901630 
# 
# From -- ./inp_files/1750.got.cif
#   From: 2010.03.12/outbox.cif.g09.slc.cpg/sg114_1_cif.got.tgz:1750.got - 2010.04.14 02:08:34.
