data_PCOD8308333
_publ_section_title
;
Structure prediction by ZEFSAII (Michael W. Deem and Ramdas Pophale) SiO2 
 PCOD8308333
Probable space group: P -4 2 C
;
_chemical_formula_sum "Si O2"
_cell_formula_units_Z 48
_cell_length_a 11.381953
_cell_length_b 11.381953
_cell_length_c 19.877362
_cell_angle_alpha 90.000000
_cell_angle_beta 90.000000
_cell_angle_gamma 90.000000
_cell_volume 2575.089470
_symmetry_space_group_name_H-M "P -4 2 C"
_symmetry_group_IT_number 112
_symmetry_cell_setting 'tetragonal'
loop_
_space_group_symop_operation_xyz
x,y,z
y,-x,-z
-x,-y,z
-y,x,-z
x,-y,1/2-z
-x,y,1/2-z
-y,-x,1/2+z
y,x,1/2+z
loop_
_atom_site_type_symbol
_atom_site_label
_atom_site_fract_x
_atom_site_fract_y
_atom_site_fract_z
Si Si1 0.217948 0.385848 0.948342
Si Si2 0.252994 0.138836 0.326028
Si Si3 0.766304 0.647379 0.548006
Si Si4 0.872519 0.244717 0.823408
Si Si5 0.998114 0.868171 0.120562
Si Si6 0.631976 0.003181 0.534671
O O1 0.226287 0.317207 0.877808
O O2 0.261776 0.515229 0.931979
O O3 0.297802 0.343582 0.009811
O O4 0.083465 0.379285 0.971691
O O5 0.282747 0.177458 0.249525
O O6 0.116046 0.154561 0.339382
O O7 0.294796 0.003893 0.335097
O O8 0.787431 0.713094 0.617841
O O9 0.870245 0.659159 0.494764
O O10 0.877319 0.103779 0.824271
O O11 0.970586 0.751369 0.075487
O O12 0.000000 0.000000 0.083287
O O13 0.500000 0.000000 0.571439
#
# Coordination Sequence:
#
# PCOD8308333 Si02
#       6
#     8   8   8   8   8   8
#     4  11  22  37  57  81 109 146 191 235 280 333
#     4  10  20  34  54  85 121 150 179 224 282 342
#     4  11  22  37  57  81 109 146 191 235 280 333
#     4  10  20  34  54  85 121 150 179 224 282 342
#     4  10  19  34  58  85 119 152 187 225 284 353
#     4  10  20  35  56  85 115 144 184 238 289 339
#
# _framework density 18.640129999999999
#
# number of rings (size 3 to 8) (size 9 to 14) (size 15 to 20)
#    0.000    1.667    5.000    0.500    0.000    3.000 
#    3.000    1.667    0.000    5.000    0.000    2.333 
#    0.000    0.000    0.000    0.000    0.000    0.000 
#
# Total GULP energy -594633.154761 kJ/mol
# GULP energy per Si atom -12388.190724 kJ/mol
# Density = 1.859770 g / cm^3
# Si number density = 18.640130 Si / 1000 Ang^3
#
#
#
# Elastic Constant Matrix: (Units=GPa)
#
#
# Indices 1 2 3 4 5 6 
#
# 1 99.0133 8.4710 38.8445 0.0000 0.0000 0.0000
# 2 8.4710 99.0133 38.8445 0.0000 0.0000 0.0000
# 3 38.8445 38.8445 119.2772 0.0000 0.0000 0.0000
# 4 0.0000 0.0000 0.0000 11.7543 0.0000 0.0000
# 5 0.0000 0.0000 0.0000 0.0000 11.7543 0.0000
# 6 0.0000 0.0000 0.0000 0.0000 0.0000 12.9897
#
#
#
# Elastic Compliance Matrix: (Units=1/GPa)
#
#
# Indices 1 2 3 4 5 6 
#
# 1 0.011606 0.000562 -0.003963 0.000000 0.000000 0.000000
# 2 0.000562 0.011606 -0.003963 0.000000 0.000000 0.000000
# 3 -0.003963 -0.003963 0.010965 0.000000 0.000000 0.000000
# 4 0.000000 0.000000 0.000000 0.085075 0.000000 0.000000
# 5 0.000000 0.000000 0.000000 0.000000 0.085075 0.000000
# 6 0.000000 0.000000 0.000000 0.000000 0.000000 0.076984
#
#
# Mechanical properties :
#
#
# Convention : Reuss Voigt Hill
#
# Bulk Modulus (GPa) = 51.41402 54.40262 52.90832
# Shear Modulus (GPa) = 16.52774 22.70927 19.61850
#
# Velocity S-wave (km/s) = 2.98094 3.49420 3.24773
# Velocity P-wave (km/s) = 6.28413 6.74747 6.51992
#
# Compressibility (1/GPa) = 0.01944995
#
# Stress axis : x y z
#
# Youngs Moduli (GPa) = 86.16074 86.16074 91.20065
#
# Poissons Ratio (x) = -0.04839 0.36140
# Poissons Ratio (y) = -0.04839 0.36140
# Poissons Ratio (z) = 0.34143 0.34143
#
# Static dielectric constant tensor:
#      x y z
#    x 3.498430 0.000000 0.000000 
#    y 0.000000 3.498430 0.000000 
#    z 0.000000 0.000000 3.240430 
# 
# 
# High freq. dielectric constant tensor:
#      x y z
#    x 1.713900 0.000000 0.000000 
#    y 0.000000 1.713900 0.000000 
#    z 0.000000 0.000000 1.707540 
# 
# From -- ./inp_files/4141.got.cif
#   From: 2010.03.12/outbox.cif.g09.slc.cpg/sg112_3_cif.got.tgz:4141.got - 2010.04.14 02:02:48.
