data_PCOD8308531
_publ_section_title
;
Structure prediction by ZEFSAII (Michael W. Deem and Ramdas Pophale) SiO2 
 PCOD8308531
Probable space group: P -4 21 M 
;
_chemical_formula_sum "Si O2"
_cell_formula_units_Z 64
_cell_length_a 16.830018
_cell_length_b 16.830018
_cell_length_c 14.706792
_cell_angle_alpha 90.000000
_cell_angle_beta 90.000000
_cell_angle_gamma 90.000000
_cell_volume 4165.691567
_symmetry_space_group_name_H-M "P -4 21 M "
_symmetry_group_IT_number 113
_symmetry_cell_setting 'tetragonal'
loop_
_space_group_symop_operation_xyz
x,y,z
y,-x,-z
-x,-y,z
-y,x,-z
1/2+x,1/2-y,-z
1/2-x,1/2+y,-z
1/2-y,1/2-x,z
1/2+y,1/2+x,z
loop_
_atom_site_type_symbol
_atom_site_label
_atom_site_fract_x
_atom_site_fract_y
_atom_site_fract_z
Si Si1 0.676371 0.055515 0.219935
Si Si2 0.108996 0.738540 0.573168
Si Si3 0.826230 0.806021 0.569502
Si Si4 0.431802 0.391508 0.894634
Si Si5 0.176099 0.446245 0.565070
Si Si6 0.609526 0.758305 0.219710
Si Si7 0.808853 0.179751 0.226405
Si Si8 0.428916 0.391286 0.106089
O O1 0.594507 0.094507 0.179955
O O2 0.668731 0.057597 0.327576
O O3 0.749735 0.110990 0.191358
O O4 0.689182 0.965691 0.184731
O O5 0.187789 0.687789 0.576545
O O6 0.123287 0.811377 0.503288
O O7 0.092834 0.768437 0.675812
O O8 0.037322 0.683996 0.534051
O O9 0.751329 0.748672 0.575965
O O10 0.902124 0.756773 0.534435
O O11 0.838584 0.839519 0.671183
O O12 0.386317 0.323593 0.837589
O O13 0.396968 0.478126 0.868994
O O14 0.525056 0.387154 0.870127
O O15 0.418684 0.372810 0.000099
O O16 0.098080 0.401921 0.522781
O O17 0.689409 0.810592 0.208480
O O18 0.615718 0.677946 0.161703
O O19 0.765440 0.265440 0.218532
#
# Coordination Sequence:
#
# PCOD8308531 Si02
#       8
#     8   8   8   8   8   8   8   8
#     4   8  14  25  42  65  89 112 141 175 215 259
#     4   9  17  28  42  61  90 121 141 170 217 260
#     4   8  15  28  42  59  86 114 141 173 212 253
#     4   9  17  31  49  62  84 117 146 184 225 261
#     4   8  14  25  42  60  80 111 146 177 207 249
#     4  10  18  28  44  65  94 124 145 173 214 268
#     4   9  15  26  48  69  83 107 145 189 224 248
#     4   9  18  31  45  64  88 117 147 176 222 268
#
# _framework density 15.363595999999999
#
# number of rings (size 3 to 8) (size 9 to 14) (size 15 to 20)
#    0.000    3.250    1.250    2.250    0.000    1.000 
#    2.250    2.500    0.000    0.375    0.000    0.000 
#    0.000    0.500    0.000    0.250    0.000    0.250 
#
# Total GULP energy -792955.508241 kJ/mol
# GULP energy per Si atom -12389.929816 kJ/mol
# Density = 1.532863 g / cm^3
# Si number density = 15.363596 Si / 1000 Ang^3
#
#
#
# Elastic Constant Matrix: (Units=GPa)
#
#
# Indices 1 2 3 4 5 6 
#
# 1 63.5535 30.5392 34.4729 0.0000 0.0000 0.0000
# 2 30.5392 63.5539 34.4730 0.0000 0.0000 0.0000
# 3 34.4729 34.4730 55.6890 0.0000 0.0000 0.0000
# 4 0.0000 0.0000 0.0000 20.5729 0.0000 0.0000
# 5 0.0000 0.0000 0.0000 0.0000 20.5728 0.0000
# 6 0.0000 0.0000 0.0000 0.0000 0.0000 20.2210
#
#
#
# Elastic Compliance Matrix: (Units=1/GPa)
#
#
# Indices 1 2 3 4 5 6 
#
# 1 0.024870 -0.005420 -0.012040 0.000000 0.000000 0.000000
# 2 -0.005420 0.024870 -0.012040 0.000000 0.000000 0.000000
# 3 -0.012040 -0.012040 0.032863 0.000000 0.000000 0.000000
# 4 0.000000 0.000000 0.000000 0.048608 0.000000 0.000000
# 5 0.000000 0.000000 0.000000 0.000000 0.048608 0.000000
# 6 0.000000 0.000000 0.000000 0.000000 0.000000 0.049454
#
#
# Mechanical properties :
#
#
# Convention : Reuss Voigt Hill
#
# Bulk Modulus (GPa) = 42.36770 42.41851 42.39311
# Shear Modulus (GPa) = 16.88393 17.82744 17.35569
#
# Velocity S-wave (km/s) = 3.31865 3.41011 3.36469
# Velocity P-wave (km/s) = 6.50547 6.57076 6.53820
#
# Compressibility (1/GPa) = 0.02360289
#
# Stress axis : x y z
#
# Youngs Moduli (GPa) = 40.20911 40.20948 30.42924
#
# Poissons Ratio (x) = 0.21793 0.36637
# Poissons Ratio (y) = 0.21792 0.36637
# Poissons Ratio (z) = 0.48412 0.48412
#
# Static dielectric constant tensor:
#      x y z
#    x 3.090790 0.000000 0.000000 
#    y 0.000000 3.090800 0.000000 
#    z 0.000000 0.000000 2.851600 
# 
# 
# High freq. dielectric constant tensor:
#      x y z
#    x 1.576190 0.000000 0.000000 
#    y 0.000000 1.576190 0.000000 
#    z 0.000000 0.000000 1.558990 
# 
# From -- ./inp_files/2049.got.cif
#   From: 2010.03.12/outbox.cif.g09.slc.cpg/sg113_cif.got.tgz:2049.got - 2010.04.14 02:06:34.
