data_PCOD8308154
_publ_section_title
;
Structure prediction by ZEFSAII (Michael W. Deem and Ramdas Pophale) SiO2 
 PCOD8308154
Probable space group: P -4 2 M 
;
_chemical_formula_sum "Si O2"
_cell_formula_units_Z 60
_cell_length_a 12.429930
_cell_length_b 12.429930
_cell_length_c 24.309238
_cell_angle_alpha 90.000000
_cell_angle_beta 90.000000
_cell_angle_gamma 90.000000
_cell_volume 3755.854083
_symmetry_space_group_name_H-M "P -4 2 M "
_symmetry_group_IT_number 111
_symmetry_cell_setting 'tetragonal'
loop_
_space_group_symop_operation_xyz
x,y,z
y,-x,-z
-x,-y,z
-y,x,-z
x,-y,-z
-x,y,-z
-y,-x,z
y,x,z
loop_
_atom_site_type_symbol
_atom_site_label
_atom_site_fract_x
_atom_site_fract_y
_atom_site_fract_z
Si Si1 0.120914 0.292403 0.608983
Si Si2 0.626189 0.798857 0.720616
Si Si3 0.175585 0.000000 0.000000
Si Si4 0.375956 0.995562 0.795402
Si Si5 0.378629 0.201172 0.499212
Si Si6 0.876522 0.296690 0.612899
Si Si7 0.999797 0.180872 0.880043
Si Si8 0.614997 0.210594 0.723007
O O1 0.176232 0.176232 0.602636
O O2 0.179702 0.361507 0.655794
O O3 0.126218 0.356256 0.551741
O O4 0.999254 0.271786 0.626517
O O5 0.711084 0.711084 0.742030
O O6 0.644768 0.908376 0.753268
O O7 0.507582 0.752461 0.731137
O O8 0.236621 0.997279 0.941267
O O9 0.105185 0.894816 0.002402
O O10 0.500000 0.000000 0.818064
O O11 0.285606 0.003410 0.842041
O O12 0.354643 0.885331 0.763686
O O13 0.500000 0.241775 0.500000
O O14 0.307686 0.307686 0.500740
O O15 0.358101 0.131863 0.444752
O O16 0.817626 0.182375 0.610110
O O17 0.826090 0.370714 0.660129
O O18 0.893724 0.106277 0.870158
O O19 0.105452 0.105452 0.871525
O O20 0.688737 0.311264 0.738353
#
# Coordination Sequence:
#
# PCOD8308154 Si02
#       8
#     8   8   4   8   8   8   8   8
#     4  10  20  34  50  69  92 117 148 186 230 281
#     4  10  20  33  49  68  92 122 155 192 234 279
#     4   7  12  24  43  68  96 126 155 187 230 270
#     4  10  19  31  47  67  96 128 156 191 235 273
#     4  10  21  34  50  70  88 112 147 186 232 284
#     4  10  20  34  50  69  92 117 148 186 230 281
#     4   9  16  28  48  72  97 124 158 196 229 269
#     4  10  20  33  49  68  92 122 155 192 234 279
#
# _framework density 15.975061
#
# number of rings (size 3 to 8) (size 9 to 14) (size 15 to 20)
#    0.000    2.333    1.333    2.800    0.000    2.800 
#    0.000    0.333    0.000    7.200    0.000    0.000 
#    0.000    0.000    0.000    0.000    0.000   80.000 
#
# Total GULP energy -743685.335796 kJ/mol
# GULP energy per Si atom -12394.755597 kJ/mol
# Density = 1.593870 g / cm^3
# Si number density = 15.975061 Si / 1000 Ang^3
#
#
#
# Elastic Constant Matrix: (Units=GPa)
#
#
# Indices 1 2 3 4 5 6 
#
# 1 77.9284 23.1014 18.2830 0.0000 0.0000 0.0000
# 2 23.1014 77.9219 18.2816 0.0000 0.0000 0.0000
# 3 18.2830 18.2816 83.0433 0.0000 0.0000 0.0000
# 4 0.0000 0.0000 0.0000 17.6831 0.0000 0.0000
# 5 0.0000 0.0000 0.0000 0.0000 17.6826 0.0000
# 6 0.0000 0.0000 0.0000 0.0000 0.0000 16.9716
#
#
#
# Elastic Compliance Matrix: (Units=1/GPa)
#
#
# Indices 1 2 3 4 5 6 
#
# 1 0.014497 -0.003742 -0.002368 0.000000 0.000000 0.000000
# 2 -0.003742 0.014498 -0.002368 0.000000 0.000000 0.000000
# 3 -0.002368 -0.002368 0.013084 0.000000 0.000000 0.000000
# 4 0.000000 0.000000 0.000000 0.056551 0.000000 0.000000
# 5 0.000000 0.000000 0.000000 0.000000 0.056553 0.000000
# 6 0.000000 0.000000 0.000000 0.000000 0.000000 0.058922
#
#
# Mechanical properties :
#
#
# Convention : Reuss Voigt Hill
#
# Bulk Modulus (GPa) = 39.80275 39.80285 39.80280
# Shear Modulus (GPa) = 20.88233 22.41597 21.64915
#
# Velocity S-wave (km/s) = 3.61942 3.74998 3.68528
# Velocity P-wave (km/s) = 6.51434 6.61207 6.56339
#
# Compressibility (1/GPa) = 0.02512389
#
# Stress axis : x y z
#
# Youngs Moduli (GPa) = 68.97858 68.97314 76.42638
#
# Poissons Ratio (x) = 0.25813 0.18097
# Poissons Ratio (y) = 0.25815 0.18096
# Poissons Ratio (z) = 0.16333 0.16332
#
# Static dielectric constant tensor:
#      x y z
#    x 2.951830 0.000000 0.000000 
#    y 0.000000 2.951830 0.000000 
#    z 0.000000 0.000000 3.164980 
# 
# 
# High freq. dielectric constant tensor:
#      x y z
#    x 1.607650 0.000000 0.000000 
#    y 0.000000 1.607650 0.000000 
#    z 0.000000 0.000000 1.609110 
# 
# From -- ./inp_files/4060.got.cif
#   From: 2010.03.12/outbox.cif.g09.slc.cpg/sg111_3_cif.got.tgz:4060.got - 2010.04.14 01:59:48.
