data_PCOD8308993
_publ_section_title
;
Structure prediction by ZEFSAII (Michael W. Deem and Ramdas Pophale) SiO2 
 PCOD8308993
Probable space group: P -4 21 C
;
_chemical_formula_sum "Si O2"
_cell_formula_units_Z 56
_cell_length_a 11.440946
_cell_length_b 11.440946
_cell_length_c 20.968120
_cell_angle_alpha 90.000000
_cell_angle_beta 90.000000
_cell_angle_gamma 90.000000
_cell_volume 2744.627212
_symmetry_space_group_name_H-M "P -4 21 C"
_symmetry_group_IT_number 114
_symmetry_cell_setting 'tetragonal'
loop_
_space_group_symop_operation_xyz
x,y,z
y,-x,-z
-x,-y,z
-y,x,-z
1/2+x,1/2-y,1/2-z
1/2-x,1/2+y,1/2-z
1/2-y,1/2-x,1/2+z
1/2+y,1/2+x,1/2+z
loop_
_atom_site_type_symbol
_atom_site_label
_atom_site_fract_x
_atom_site_fract_y
_atom_site_fract_z
Si Si1 0.438692 0.775022 0.460275
Si Si2 0.052768 0.374940 0.639074
Si Si3 0.509434 0.631601 0.216792
Si Si4 0.270388 0.238552 0.183424
Si Si5 0.329728 0.261451 0.819713
Si Si6 0.644124 0.408025 0.640266
Si Si7 0.070109 0.790413 0.924649
O O1 0.382754 0.896986 0.434265
O O2 0.526236 0.731919 0.405937
O O3 0.498568 0.797094 0.529094
O O4 0.352767 0.664747 0.470833
O O5 0.168019 0.338003 0.680454
O O6 0.000000 0.500000 0.661847
O O7 0.947341 0.280848 0.643573
O O8 0.500000 0.500000 0.195963
O O9 0.616507 0.682765 0.178322
O O10 0.398789 0.692384 0.184262
O O11 0.518275 0.639369 0.293894
O O12 0.277093 0.158817 0.246076
O O13 0.277857 0.144847 0.127151
O O14 0.208531 0.215143 0.848690
O O15 0.514579 0.384158 0.611355
#
# Coordination Sequence:
#
# PCOD8308993 Si02
#       7
#     8   8   8   8   8   8   8
#     4  11  21  37  66  91 122 170 209 267 327 376
#     4  11  22  41  61  93 128 171 218 269 319 392
#     4  11  20  39  62  90 129 169 212 254 321 389
#     4  10  24  38  63  96 128 169 214 268 325 389
#     4  11  23  39  62  93 128 173 213 260 325 389
#     4  11  22  37  61  94 130 169 209 263 322 390
#     4  11  22  39  62  99 130 158 213 271 326 384
#
# _framework density 20.403500000000001
#
# number of rings (size 3 to 8) (size 9 to 14) (size 15 to 20)
#    0.000    1.143    4.286    3.857    4.000    0.000 
#    0.000    2.143    0.000    0.000    0.000    0.000 
#    0.000    0.000    0.000    0.000    0.000    0.000 
#
# Total GULP energy -693784.746092 kJ/mol
# GULP energy per Si atom -12389.013323 kJ/mol
# Density = 2.035706 g / cm^3
# Si number density = 20.403500 Si / 1000 Ang^3
#
#
#
# Elastic Constant Matrix: (Units=GPa)
#
#
# Indices 1 2 3 4 5 6 
#
# 1 91.3615 33.6593 40.1453 0.0000 0.0000 0.0000
# 2 33.6593 91.3615 40.1453 0.0000 0.0000 0.0000
# 3 40.1453 40.1453 72.7745 0.0000 0.0000 0.0000
# 4 0.0000 0.0000 0.0000 40.1871 0.0000 0.0000
# 5 0.0000 0.0000 0.0000 0.0000 40.1871 0.0000
# 6 0.0000 0.0000 0.0000 0.0000 0.0000 33.5918
#
#
#
# Elastic Compliance Matrix: (Units=1/GPa)
#
#
# Indices 1 2 3 4 5 6 
#
# 1 0.014859 -0.002472 -0.006833 0.000000 0.000000 0.000000
# 2 -0.002472 0.014859 -0.006833 0.000000 0.000000 0.000000
# 3 -0.006833 -0.006833 0.021280 0.000000 0.000000 0.000000
# 4 0.000000 0.000000 0.000000 0.024884 0.000000 0.000000
# 5 0.000000 0.000000 0.000000 0.000000 0.024884 0.000000
# 6 0.000000 0.000000 0.000000 0.000000 0.000000 0.029769
#
#
# Mechanical properties :
#
#
# Convention : Reuss Voigt Hill
#
# Bulk Modulus (GPa) = 53.41496 53.71082 53.56289
# Shear Modulus (GPa) = 29.57699 32.22971 30.90335
#
# Velocity S-wave (km/s) = 3.81150 3.97875 3.89602
# Velocity P-wave (km/s) = 6.75323 6.89121 6.82257
#
# Compressibility (1/GPa) = 0.01872135
#
# Stress axis : x y z
#
# Youngs Moduli (GPa) = 67.30063 67.30063 46.99250
#
# Poissons Ratio (x) = 0.16634 0.32111
# Poissons Ratio (y) = 0.16634 0.32111
# Poissons Ratio (z) = 0.45988 0.45988
#
# Static dielectric constant tensor:
#      x y z
#    x -1.679680 0.000000 0.000000 
#    y 0.000000 -1.679680 0.000000 
#    z 0.000000 0.000000 3.570730 
# 
# 
# High freq. dielectric constant tensor:
#      x y z
#    x 1.797450 0.000000 0.000000 
#    y 0.000000 1.797450 0.000000 
#    z 0.000000 0.000000 1.776330 
# 
# From -- ./inp_files/3158.got.cif
#   From: 2010.03.12/outbox.cif.g09.slc.cpg/sg114_2_cif.got.tgz:3158.got - 2010.04.14 02:08:34.
