data_PCOD8308844
_publ_section_title
;
Structure prediction by ZEFSAII (Michael W. Deem and Ramdas Pophale) SiO2 
 PCOD8308844
Probable space group: P -4 21 C
;
_chemical_formula_sum "Si O2"
_cell_formula_units_Z 48
_cell_length_a 9.165659
_cell_length_b 9.165659
_cell_length_c 28.082887
_cell_angle_alpha 90.000000
_cell_angle_beta 90.000000
_cell_angle_gamma 90.000000
_cell_volume 2359.223817
_symmetry_space_group_name_H-M "P -4 21 C"
_symmetry_group_IT_number 114
_symmetry_cell_setting 'tetragonal'
loop_
_space_group_symop_operation_xyz
x,y,z
y,-x,-z
-x,-y,z
-y,x,-z
1/2+x,1/2-y,1/2-z
1/2-x,1/2+y,1/2-z
1/2-y,1/2-x,1/2+z
1/2+y,1/2+x,1/2+z
loop_
_atom_site_type_symbol
_atom_site_label
_atom_site_fract_x
_atom_site_fract_y
_atom_site_fract_z
Si Si1 0.847245 0.432053 0.005510
Si Si2 0.668789 0.007725 0.718232
Si Si3 0.232818 0.823930 0.433029
Si Si4 0.641004 0.588461 0.166674
Si Si5 0.313410 0.176980 0.306635
Si Si6 0.459036 0.169974 0.403324
O O1 0.743810 0.561757 0.023584
O O2 0.860640 0.314336 0.048998
O O3 0.000000 0.500000 0.992703
O O4 0.802670 0.363817 0.955320
O O5 0.729065 0.172350 0.710058
O O6 0.500000 0.000000 0.703593
O O7 0.749263 0.882540 0.686970
O O8 0.693740 0.952478 0.772247
O O9 0.152823 0.905075 0.389965
O O10 0.384459 0.753412 0.413074
O O11 0.500000 0.500000 0.181827
O O12 0.775085 0.496759 0.189821
O O13 0.370603 0.233732 0.358270
O O14 0.500000 0.000000 0.395661
#
# Coordination Sequence:
#
# PCOD8308844 Si02
#       6
#     8   8   8   8   8   8
#     4   9  20  35  57  95 122 160 205 265 322 378
#     4  11  25  38  63  94 129 171 216 273 323 380
#     4  10  20  34  63  92 124 162 211 263 323 375
#     4  10  22  38  59  94 126 165 214 263 326 379
#     4  11  21  42  67  92 126 171 221 266 325 390
#     4   9  18  37  63  88 120 168 206 258 320 387
#
# _framework density 20.345673000000001
#
# number of rings (size 3 to 8) (size 9 to 14) (size 15 to 20)
#    0.000    2.333    3.333    1.500    4.667    0.667 
#    0.000    1.667    0.000   16.000    0.000    0.000 
#    0.000    0.000    0.000    0.000    0.000    0.000 
#
# Total GULP energy -594708.735997 kJ/mol
# GULP energy per Si atom -12389.765333 kJ/mol
# Density = 2.029937 g / cm^3
# Si number density = 20.345673 Si / 1000 Ang^3
#
#
#
# Elastic Constant Matrix: (Units=GPa)
#
#
# Indices 1 2 3 4 5 6 
#
# 1 88.6874 32.7015 51.0911 0.0000 0.0000 0.0000
# 2 32.7015 88.6874 51.0911 0.0000 0.0000 0.0000
# 3 51.0911 51.0911 101.9372 0.0000 0.0000 0.0000
# 4 0.0000 0.0000 0.0000 33.4934 0.0000 0.0000
# 5 0.0000 0.0000 0.0000 0.0000 33.4934 0.0000
# 6 0.0000 0.0000 0.0000 0.0000 0.0000 24.2183
#
#
#
# Elastic Compliance Matrix: (Units=1/GPa)
#
#
# Indices 1 2 3 4 5 6 
#
# 1 0.016056 -0.001806 -0.007142 0.000000 0.000000 0.000000
# 2 -0.001806 0.016056 -0.007142 0.000000 0.000000 0.000000
# 3 -0.007142 -0.007142 0.016969 0.000000 0.000000 0.000000
# 4 0.000000 0.000000 0.000000 0.029857 0.000000 0.000000
# 5 0.000000 0.000000 0.000000 0.000000 0.029857 0.000000
# 6 0.000000 0.000000 0.000000 0.000000 0.000000 0.041291
#
#
# Mechanical properties :
#
#
# Convention : Reuss Voigt Hill
#
# Bulk Modulus (GPa) = 59.16882 61.00884 60.08883
# Shear Modulus (GPa) = 26.60999 27.86956 27.23978
#
# Velocity S-wave (km/s) = 3.62041 3.70510 3.66300
# Velocity P-wave (km/s) = 6.82798 6.95377 6.89116
#
# Compressibility (1/GPa) = 0.01690079
#
# Stress axis : x y z
#
# Youngs Moduli (GPa) = 62.28247 62.28247 58.92991
#
# Poissons Ratio (x) = 0.11247 0.42089
# Poissons Ratio (y) = 0.11247 0.42089
# Poissons Ratio (z) = 0.44483 0.44483
#
# Static dielectric constant tensor:
#      x y z
#    x 3.711310 0.000000 0.000000 
#    y 0.000000 3.711310 0.000000 
#    z 0.000000 0.000000 3.790030 
# 
# 
# High freq. dielectric constant tensor:
#      x y z
#    x 1.779030 0.000000 0.000000 
#    y 0.000000 1.779030 0.000000 
#    z 0.000000 0.000000 1.799950 
# 
# From -- ./inp_files/3951.got.cif
#   From: 2010.03.12/outbox.cif.g09.slc.cpg/sg114_2_cif.got.tgz:3951.got - 2010.04.14 02:08:34.
