data_PCOD8308191
_publ_section_title
;
Structure prediction by ZEFSAII (Michael W. Deem and Ramdas Pophale) SiO2 
 PCOD8308191
Probable space group: P -4 2 M 
;
_chemical_formula_sum "Si O2"
_cell_formula_units_Z 64
_cell_length_a 12.688005
_cell_length_b 12.688005
_cell_length_c 21.891211
_cell_angle_alpha 90.000000
_cell_angle_beta 90.000000
_cell_angle_gamma 90.000000
_cell_volume 3524.166911
_symmetry_space_group_name_H-M "P -4 2 M "
_symmetry_group_IT_number 111
_symmetry_cell_setting 'tetragonal'
loop_
_space_group_symop_operation_xyz
x,y,z
y,-x,-z
-x,-y,z
-y,x,-z
x,-y,-z
-x,y,-z
-y,-x,z
y,x,z
loop_
_atom_site_type_symbol
_atom_site_label
_atom_site_fract_x
_atom_site_fract_y
_atom_site_fract_z
Si Si1 0.379584 0.789478 0.004692
Si Si2 0.716106 0.885335 0.634437
Si Si3 0.641824 0.806202 0.759759
Si Si4 0.106301 0.567636 0.761935
Si Si5 0.873955 0.295244 0.878146
Si Si6 0.875176 0.698095 0.355979
Si Si7 0.107578 0.279636 0.885365
Si Si8 0.503640 0.125040 0.431146
O O1 0.317147 0.682854 0.019717
O O2 0.342817 0.839821 0.941994
O O3 0.500000 0.757339 0.000000
O O4 0.361843 0.871831 0.059787
O O5 0.818066 0.818066 0.612571
O O6 0.699247 0.871484 0.706575
O O7 0.612871 0.839009 0.600092
O O8 0.735083 0.009194 0.620245
O O9 0.687783 0.687783 0.763437
O O10 0.515982 0.798896 0.750256
O O11 0.663483 0.869995 0.821559
O O12 0.117507 0.610620 0.829864
O O13 0.115284 0.663101 0.714431
O O14 0.000000 0.500000 0.751461
O O15 0.792572 0.207429 0.854615
O O16 0.987316 0.241596 0.886730
O O17 0.795165 0.795165 0.362975
O O18 0.832118 0.598654 0.395010
O O19 0.175267 0.175267 0.894873
O O20 0.500000 0.169177 0.500000
O O21 0.500000 0.000000 0.429518
#
# Coordination Sequence:
#
# PCOD8308191 Si02
#       8
#     8   8   8   8   8   8   8   8
#     4  10  22  37  54  78 106 138 185 234 283 339
#     4  10  19  34  56  83 113 148 189 232 276 334
#     4  10  19  32  55  81 104 136 187 232 273 327
#     4  12  19  35  58  79 108 150 191 233 280 326
#     4  11  23  35  52  82 110 140 182 232 284 339
#     4  11  21  34  54  85 119 149 184 229 285 339
#     4  10  20  35  54  78 107 144 181 223 279 342
#     4   9  18  35  57  80 107 146 194 233 267 320
#
# _framework density 18.160319000000001
#
# number of rings (size 3 to 8) (size 9 to 14) (size 15 to 20)
#    0.000    1.625    3.750    1.875    0.000    1.625 
#    0.000    0.000    0.000    9.375    0.000    4.375 
#    0.000    0.000    0.000    0.000    0.000    0.000 
#
# Total GULP energy -793578.875658 kJ/mol
# GULP energy per Si atom -12399.669932 kJ/mol
# Density = 1.811899 g / cm^3
# Si number density = 18.160319 Si / 1000 Ang^3
#
#
#
# Elastic Constant Matrix: (Units=GPa)
#
#
# Indices 1 2 3 4 5 6 
#
# 1 106.3862 59.6943 26.9150 0.0000 0.0000 0.0000
# 2 59.6943 106.3837 26.9154 0.0000 0.0000 0.0000
# 3 26.9150 26.9154 100.1631 0.0000 0.0000 0.0000
# 4 0.0000 0.0000 0.0000 21.0261 0.0000 0.0000
# 5 0.0000 0.0000 0.0000 0.0000 21.0256 0.0000
# 6 0.0000 0.0000 0.0000 0.0000 0.0000 22.9168
#
#
#
# Elastic Compliance Matrix: (Units=1/GPa)
#
#
# Indices 1 2 3 4 5 6 
#
# 1 0.014006 -0.007411 -0.001772 0.000000 0.000000 0.000000
# 2 -0.007411 0.014007 -0.001772 0.000000 0.000000 0.000000
# 3 -0.001772 -0.001772 0.010936 0.000000 0.000000 0.000000
# 4 0.000000 0.000000 0.000000 0.047560 0.000000 0.000000
# 5 0.000000 0.000000 0.000000 0.000000 0.047561 0.000000
# 6 0.000000 0.000000 0.000000 0.000000 0.000000 0.043636
#
#
# Mechanical properties :
#
#
# Convention : Reuss Voigt Hill
#
# Bulk Modulus (GPa) = 58.69167 59.99805 59.34486
# Shear Modulus (GPa) = 24.35491 26.28758 25.32125
#
# Velocity S-wave (km/s) = 3.66608 3.80877 3.73811
# Velocity P-wave (km/s) = 7.09289 7.24237 7.16802
#
# Compressibility (1/GPa) = 0.01703819
#
# Stress axis : x y z
#
# Youngs Moduli (GPa) = 71.39580 71.39381 91.43919
#
# Poissons Ratio (x) = 0.52910 0.16205
# Poissons Ratio (y) = 0.52911 0.16207
# Poissons Ratio (z) = 0.12653 0.12654
#
# Static dielectric constant tensor:
#      x y z
#    x 3.370820 0.000000 0.000000 
#    y 0.000000 3.370820 0.000000 
#    z 0.000000 0.000000 3.537170 
# 
# 
# High freq. dielectric constant tensor:
#      x y z
#    x 1.689980 0.000000 0.000000 
#    y 0.000000 1.689980 0.000000 
#    z 0.000000 0.000000 1.715730 
# 
# From -- ./inp_files/4228.got.cif
#   From: 2010.03.12/outbox.cif.g09.slc.cpg/sg111_3_cif.got.tgz:4228.got - 2010.04.14 01:59:48.
