data_PCOD8308186
_publ_section_title
;
Structure prediction by ZEFSAII (Michael W. Deem and Ramdas Pophale) SiO2 
 PCOD8308186
Probable space group: P -4 2 M 
;
_chemical_formula_sum "Si O2"
_cell_formula_units_Z 60
_cell_length_a 12.185569
_cell_length_b 12.185569
_cell_length_c 21.314512
_cell_angle_alpha 90.000000
_cell_angle_beta 90.000000
_cell_angle_gamma 90.000000
_cell_volume 3164.951216
_symmetry_space_group_name_H-M "P -4 2 M "
_symmetry_group_IT_number 111
_symmetry_cell_setting 'tetragonal'
loop_
_space_group_symop_operation_xyz
x,y,z
y,-x,-z
-x,-y,z
-y,x,-z
x,-y,-z
-x,y,-z
-y,-x,z
y,x,z
loop_
_atom_site_type_symbol
_atom_site_label
_atom_site_fract_x
_atom_site_fract_y
_atom_site_fract_z
Si Si1 0.002008 0.822339 0.927035
Si Si2 0.839190 0.436847 0.404856
Si Si3 0.226807 0.952153 0.434346
Si Si4 0.851337 0.679513 0.371936
Si Si5 0.994202 0.374620 0.834989
Si Si6 0.782909 0.611157 0.236188
Si Si7 0.666436 0.500000 0.500000
Si Si8 0.369983 0.188190 0.738034
O O1 0.117068 0.882933 0.909868
O O2 0.980375 0.709798 0.890260
O O3 0.903301 0.903301 0.909613
O O4 0.000000 0.792524 0.000000
O O5 0.909009 0.350840 0.445565
O O6 0.882531 0.563048 0.404827
O O7 0.726201 0.443904 0.441584
O O8 0.832421 0.382748 0.336057
O O9 0.142142 0.857859 0.410971
O O10 0.183767 0.000000 0.500000
O O11 0.235095 0.048728 0.382539
O O12 0.739569 0.739569 0.397453
O O13 0.837765 0.654506 0.299518
O O14 0.074139 0.353707 0.775297
O O15 0.000000 0.500000 0.859385
O O16 0.868741 0.354389 0.816518
O O17 0.667531 0.667531 0.221551
O O18 0.756703 0.482036 0.237630
O O19 0.593056 0.406945 0.532678
O O20 0.268600 0.268600 0.751842
#
# Coordination Sequence:
#
# PCOD8308186 Si02
#       8
#     8   8   8   8   8   8   4   8
#     4   9  18  33  54  80 110 145 184 226 271 317
#     4  11  22  39  57  77 101 131 172 215 266 325
#     4  12  25  39  55  73  96 126 160 201 251 312
#     4  10  21  38  58  77  99 128 164 208 256 308
#     4  10  19  32  52  78 110 145 180 219 260 310
#     4   9  19  34  52  75 103 136 172 210 255 307
#     4  11  22  34  51  76 104 132 167 219 278 332
#     4  10  20  34  54  79 106 137 174 218 266 317
#
# _framework density 18.957637999999999
#
# number of rings (size 3 to 8) (size 9 to 14) (size 15 to 20)
#    0.000    1.800    0.000    5.200    0.000    4.667 
#    0.000    0.667    0.000    1.600    0.000    0.000 
#    0.000    0.000    0.000   24.800    0.000    0.000 
#
# Total GULP energy -743463.294320 kJ/mol
# GULP energy per Si atom -12391.054905 kJ/mol
# Density = 1.891449 g / cm^3
# Si number density = 18.957638 Si / 1000 Ang^3
#
#
#
# Elastic Constant Matrix: (Units=GPa)
#
#
# Indices 1 2 3 4 5 6 
#
# 1 89.0033 43.2890 30.7023 0.0000 0.0000 0.0000
# 2 43.2890 89.0042 30.7022 0.0000 0.0000 0.0000
# 3 30.7023 30.7022 65.8627 0.0000 0.0000 0.0000
# 4 0.0000 0.0000 0.0000 23.7726 0.0000 0.0000
# 5 0.0000 0.0000 0.0000 0.0000 23.7729 0.0000
# 6 0.0000 0.0000 0.0000 0.0000 0.0000 35.1530
#
#
#
# Elastic Compliance Matrix: (Units=1/GPa)
#
#
# Indices 1 2 3 4 5 6 
#
# 1 0.015761 -0.006114 -0.004497 0.000000 0.000000 0.000000
# 2 -0.006114 0.015760 -0.004497 0.000000 0.000000 0.000000
# 3 -0.004497 -0.004497 0.019375 0.000000 0.000000 0.000000
# 4 0.000000 0.000000 0.000000 0.042065 0.000000 0.000000
# 5 0.000000 0.000000 0.000000 0.000000 0.042065 0.000000
# 6 0.000000 0.000000 0.000000 0.000000 0.000000 0.028447
#
#
# Mechanical properties :
#
#
# Convention : Reuss Voigt Hill
#
# Bulk Modulus (GPa) = 48.35312 50.36193 49.35752
# Shear Modulus (GPa) = 24.92746 25.81814 25.37280
#
# Velocity S-wave (km/s) = 3.63009 3.69438 3.66238
# Velocity P-wave (km/s) = 6.56745 6.69485 6.63146
#
# Compressibility (1/GPa) = 0.02068119
#
# Stress axis : x y z
#
# Youngs Moduli (GPa) = 63.44951 63.45044 51.61201
#
# Poissons Ratio (x) = 0.38796 0.23208
# Poissons Ratio (y) = 0.38795 0.23207
# Poissons Ratio (z) = 0.28531 0.28531
#
# Static dielectric constant tensor:
#      x y z
#    x 3.604500 0.000000 0.000000 
#    y 0.000000 3.604500 0.000000 
#    z 0.000000 0.000000 3.144270 
# 
# 
# High freq. dielectric constant tensor:
#      x y z
#    x 1.745100 0.000000 0.000000 
#    y 0.000000 1.745100 0.000000 
#    z 0.000000 0.000000 1.703120 
# 
# From -- ./inp_files/4039.got.cif
#   From: 2010.03.12/outbox.cif.g09.slc.cpg/sg111_3_cif.got.tgz:4039.got - 2010.04.14 01:59:48.
