data_PCOD8308960
_publ_section_title
;
Structure prediction by ZEFSAII (Michael W. Deem and Ramdas Pophale) SiO2 
 PCOD8308960
Probable space group: P -4 21 C
;
_chemical_formula_sum "Si O2"
_cell_formula_units_Z 48
_cell_length_a 8.144444
_cell_length_b 8.144444
_cell_length_c 32.709939
_cell_angle_alpha 90.000000
_cell_angle_beta 90.000000
_cell_angle_gamma 90.000000
_cell_volume 2169.714629
_symmetry_space_group_name_H-M "P -4 21 C"
_symmetry_group_IT_number 114
_symmetry_cell_setting 'tetragonal'
loop_
_space_group_symop_operation_xyz
x,y,z
y,-x,-z
-x,-y,z
-y,x,-z
1/2+x,1/2-y,1/2-z
1/2-x,1/2+y,1/2-z
1/2-y,1/2-x,1/2+z
1/2+y,1/2+x,1/2+z
loop_
_atom_site_type_symbol
_atom_site_label
_atom_site_fract_x
_atom_site_fract_y
_atom_site_fract_z
Si Si1 0.592707 0.337887 0.667421
Si Si2 0.404372 0.254574 0.492010
Si Si3 0.314765 0.983538 0.773133
Si Si4 0.000000 0.000000 0.367455
Si Si5 0.500000 0.000000 0.052305
Si Si6 0.289819 0.139889 0.690252
Si Si7 0.225949 0.233471 0.409580
O O1 0.500000 0.500000 0.653916
O O2 0.696175 0.373633 0.708813
O O3 0.468894 0.180681 0.670389
O O4 0.723417 0.318555 0.631756
O O5 0.298382 0.403862 0.509590
O O6 0.350071 0.200878 0.446796
O O7 0.378910 0.106312 0.523513
O O8 0.307284 0.996361 0.723869
O O9 0.500000 0.000000 0.789261
O O10 0.255361 0.806175 0.786588
O O11 0.923136 0.150673 0.341147
O O12 0.134834 0.065321 0.399010
O O13 0.607242 0.115053 0.080867
#
# Coordination Sequence:
#
# PCOD8308960 Si02
#       7
#     8   8   8   4   4   8   8
#     4  10  24  43  66 101 128 179 226 287 348 397
#     4   9  21  42  70  99 128 171 224 272 335 417
#     4  11  24  42  70  96 131 180 233 293 336 417
#     4  12  28  42  63 104 144 184 224 284 351 408
#     4  10  22  42  70 100 130 174 222 272 348 408
#     4  11  26  43  68  96 140 184 237 281 346 410
#     4  11  24  43  67  96 137 174 220 282 338 409
#
# _framework density 22.122727000000001
#
# number of rings (size 3 to 8) (size 9 to 14) (size 15 to 20)
#    0.000    1.500    0.000    3.000   15.167    2.667 
#    7.500    0.000    0.000    0.000    0.000    0.000 
#    0.000    0.000    0.000    0.000    0.000    0.000 
#
# Total GULP energy -595104.457983 kJ/mol
# GULP energy per Si atom -12398.009541 kJ/mol
# Density = 2.207237 g / cm^3
# Si number density = 22.122727 Si / 1000 Ang^3
#
#
#
# Elastic Constant Matrix: (Units=GPa)
#
#
# Indices 1 2 3 4 5 6 
#
# 1 85.8376 13.6743 34.1511 0.0000 0.0000 0.0000
# 2 13.6743 85.8376 34.1511 0.0000 0.0000 0.0000
# 3 34.1511 34.1511 113.5459 0.0000 0.0000 0.0000
# 4 0.0000 0.0000 0.0000 16.1936 0.0000 0.0000
# 5 0.0000 0.0000 0.0000 0.0000 16.1936 0.0000
# 6 0.0000 0.0000 0.0000 0.0000 0.0000 36.0950
#
#
#
# Elastic Compliance Matrix: (Units=1/GPa)
#
#
# Indices 1 2 3 4 5 6 
#
# 1 0.013260 -0.000597 -0.003809 0.000000 0.000000 0.000000
# 2 -0.000597 0.013260 -0.003809 0.000000 0.000000 0.000000
# 3 -0.003809 -0.003809 0.011098 0.000000 0.000000 0.000000
# 4 0.000000 0.000000 0.000000 0.061753 0.000000 0.000000
# 5 0.000000 0.000000 0.000000 0.000000 0.061753 0.000000
# 6 0.000000 0.000000 0.000000 0.000000 0.000000 0.027705
#
#
# Mechanical properties :
#
#
# Convention : Reuss Voigt Hill
#
# Bulk Modulus (GPa) = 47.19267 49.90823 48.55045
# Shear Modulus (GPa) = 23.54925 27.24610 25.39767
#
# Velocity S-wave (km/s) = 3.26618 3.51321 3.39194
# Velocity P-wave (km/s) = 5.96678 6.25024 6.11015
#
# Compressibility (1/GPa) = 0.02118973
#
# Stress axis : x y z
#
# Youngs Moduli (GPa) = 75.41282 75.41282 90.10553
#
# Poissons Ratio (x) = 0.04503 0.34319
# Poissons Ratio (y) = 0.04503 0.34319
# Poissons Ratio (z) = 0.28723 0.28723
#
# Static dielectric constant tensor:
#      x y z
#    x 4.311440 0.000000 0.000000 
#    y 0.000000 4.311440 0.000000 
#    z 0.000000 0.000000 4.002770 
# 
# 
# High freq. dielectric constant tensor:
#      x y z
#    x 1.877980 0.000000 0.000000 
#    y 0.000000 1.877980 0.000000 
#    z 0.000000 0.000000 1.871690 
# 
# From -- ./inp_files/4005.got.cif
#   From: 2010.03.12/outbox.cif.g09.slc.cpg/sg114_3_cif.got.tgz:4005.got - 2010.04.14 02:08:34.
