data_PCOD8308222
_publ_section_title
;
Structure prediction by ZEFSAII (Michael W. Deem and Ramdas Pophale) SiO2 
 PCOD8308222
Probable space group: P -4 2 M 
;
_chemical_formula_sum "Si O2"
_cell_formula_units_Z 40
_cell_length_a 13.561644
_cell_length_b 13.561644
_cell_length_c 12.008113
_cell_angle_alpha 90.000000
_cell_angle_beta 90.000000
_cell_angle_gamma 90.000000
_cell_volume 2208.510384
_symmetry_space_group_name_H-M "P -4 2 M "
_symmetry_group_IT_number 111
_symmetry_cell_setting 'tetragonal'
loop_
_space_group_symop_operation_xyz
x,y,z
y,-x,-z
-x,-y,z
-y,x,-z
x,-y,-z
-x,y,-z
-y,-x,z
y,x,z
loop_
_atom_site_type_symbol
_atom_site_label
_atom_site_fract_x
_atom_site_fract_y
_atom_site_fract_z
Si Si1 0.892068 0.731166 0.539729
Si Si2 0.430250 0.275438 0.140901
Si Si3 0.633267 0.211070 0.087748
Si Si4 0.687285 0.159031 0.698096
Si Si5 0.958842 0.389089 0.256894
O O1 0.825518 0.825518 0.575431
O O2 0.844236 0.674597 0.434967
O O3 0.895426 0.649760 0.637892
O O4 0.000000 0.769320 0.500000
O O5 0.384527 0.384527 0.128341
O O6 0.547628 0.283486 0.134336
O O7 0.402357 0.226361 0.258282
O O8 0.384386 0.203134 0.044971
O O9 0.738707 0.261294 0.115206
O O10 0.622001 0.104315 0.144309
O O11 0.792040 0.207961 0.731637
O O12 0.684033 0.051665 0.754547
O O13 0.000000 0.500000 0.275888
#
# Coordination Sequence:
#
# PCOD8308222 Si02
#       5
#     8   8   8   8   8
#     4   9  19  33  52  75 105 136 174 216 261 309
#     4   9  18  34  52  74 106 139 174 211 260 314
#     4  10  20  33  51  77 107 137 174 219 260 308
#     4   9  18  34  51  72 103 138 171 212 261 311
#     4  11  20  33  52  79 106 139 170 219 266 319
#
# _framework density 18.111756
#
# number of rings (size 3 to 8) (size 9 to 14) (size 15 to 20)
#    0.000    2.400    2.000    0.600    0.000    5.000 
#    0.000    2.000    0.000    1.800    0.000    0.000 
#    0.000   28.800    0.000    0.000    0.000    0.000 
#
# Total GULP energy -495689.981312 kJ/mol
# GULP energy per Si atom -12392.249533 kJ/mol
# Density = 1.807053 g / cm^3
# Si number density = 18.111756 Si / 1000 Ang^3
#
#
#
# Elastic Constant Matrix: (Units=GPa)
#
#
# Indices 1 2 3 4 5 6 
#
# 1 64.0312 26.0620 21.2537 0.0000 0.0000 0.0000
# 2 26.0620 64.0332 21.2546 0.0000 0.0000 0.0000
# 3 21.2537 21.2546 47.2733 0.0000 0.0000 0.0000
# 4 0.0000 0.0000 0.0000 26.5277 0.0000 0.0000
# 5 0.0000 0.0000 0.0000 0.0000 26.5276 0.0000
# 6 0.0000 0.0000 0.0000 0.0000 0.0000 30.4388
#
#
#
# Elastic Compliance Matrix: (Units=1/GPa)
#
#
# Indices 1 2 3 4 5 6 
#
# 1 0.020212 -0.006124 -0.006334 0.000000 0.000000 0.000000
# 2 -0.006124 0.020212 -0.006334 0.000000 0.000000 0.000000
# 3 -0.006334 -0.006334 0.026849 0.000000 0.000000 0.000000
# 4 0.000000 0.000000 0.000000 0.037697 0.000000 0.000000
# 5 0.000000 0.000000 0.000000 0.000000 0.037697 0.000000
# 6 0.000000 0.000000 0.000000 0.000000 0.000000 0.032853
#
#
# Mechanical properties :
#
#
# Convention : Reuss Voigt Hill
#
# Bulk Modulus (GPa) = 33.68230 34.71981 34.20105
# Shear Modulus (GPa) = 22.42149 23.81664 23.11906
#
# Velocity S-wave (km/s) = 3.52227 3.63020 3.57664
# Velocity P-wave (km/s) = 5.93120 6.06486 5.99840
#
# Compressibility (1/GPa) = 0.02968918
#
# Stress axis : x y z
#
# Youngs Moduli (GPa) = 49.47448 49.47559 37.24509
#
# Poissons Ratio (x) = 0.30300 0.23591
# Poissons Ratio (y) = 0.30299 0.23592
# Poissons Ratio (z) = 0.31336 0.31339
#
# Static dielectric constant tensor:
#      x y z
#    x 3.339520 0.000000 0.000000 
#    y 0.000000 3.339510 0.000000 
#    z 0.000000 0.000000 3.443520 
# 
# 
# High freq. dielectric constant tensor:
#      x y z
#    x 1.689800 0.000000 0.000000 
#    y 0.000000 1.689800 0.000000 
#    z 0.000000 0.000000 1.701290 
# 
# From -- ./inp_files/2514.got.cif
#   From: 2010.03.12/outbox.cif.g09.slc.cpg/sg111_2_cif.got.tgz:2514.got - 2010.04.14 01:59:48.
