data_PCOD8308187
_publ_section_title
;
Structure prediction by ZEFSAII (Michael W. Deem and Ramdas Pophale) SiO2 
 PCOD8308187
Probable space group: P -4 2 M 
;
_chemical_formula_sum "Si O2"
_cell_formula_units_Z 32
_cell_length_a 14.185792
_cell_length_b 14.185792
_cell_length_c 8.191812
_cell_angle_alpha 90.000000
_cell_angle_beta 90.000000
_cell_angle_gamma 90.000000
_cell_volume 1648.493170
_symmetry_space_group_name_H-M "P -4 2 M "
_symmetry_group_IT_number 111
_symmetry_cell_setting 'tetragonal'
loop_
_space_group_symop_operation_xyz
x,y,z
y,-x,-z
-x,-y,z
-y,x,-z
x,-y,-z
-x,y,-z
-y,-x,z
y,x,z
loop_
_atom_site_type_symbol
_atom_site_label
_atom_site_fract_x
_atom_site_fract_y
_atom_site_fract_z
Si Si1 0.415456 0.189149 0.389735
Si Si2 0.389662 0.985914 0.814561
Si Si3 0.315729 0.172896 0.702493
Si Si4 0.461284 0.689215 0.178856
O O1 0.500000 0.142922 0.500000
O O2 0.333948 0.211773 0.519042
O O3 0.452839 0.285076 0.301914
O O4 0.371522 0.118453 0.254755
O O5 0.326926 0.060389 0.711661
O O6 0.500000 0.000000 0.795120
O O7 0.356382 0.000000 0.000000
O O8 0.210489 0.210489 0.748287
O O9 0.391783 0.220158 0.826110
O O10 0.403841 0.596160 0.238373
O O11 0.500000 0.669830 0.000000
#
# Coordination Sequence:
#
# PCOD8308187 Si02
#       4
#     8   8   8   8
#     4  10  19  32  53  74 102 140 181 228 271 332
#     4  11  19  31  56  81 104 137 180 220 275 333
#     4  10  21  34  51  78 111 139 176 233 277 321
#     4  10  20  33  48  68  99 144 193 238 275 311
#
# _framework density 19.411666
#
# number of rings (size 3 to 8) (size 9 to 14) (size 15 to 20)
#    0.000    1.750    5.000    2.250    0.000    1.250 
#    0.000    5.000    0.000    1.500    0.000    0.000 
#    0.000   16.500    0.000    0.000    0.000    0.000 
#
# Total GULP energy -396453.589664 kJ/mol
# GULP energy per Si atom -12389.174677 kJ/mol
# Density = 1.936748 g / cm^3
# Si number density = 19.411666 Si / 1000 Ang^3
#
#
#
# Elastic Constant Matrix: (Units=GPa)
#
#
# Indices 1 2 3 4 5 6 
#
# 1 68.4832 49.5936 33.0002 0.0000 0.0000 0.0000
# 2 49.5936 68.4826 32.9991 0.0000 0.0000 0.0000
# 3 33.0002 32.9991 104.4284 0.0000 0.0000 0.0000
# 4 0.0000 0.0000 0.0000 15.1564 0.0000 0.0000
# 5 0.0000 0.0000 0.0000 0.0000 15.1565 0.0000
# 6 0.0000 0.0000 0.0000 0.0000 0.0000 27.0996
#
#
#
# Elastic Compliance Matrix: (Units=1/GPa)
#
#
# Indices 1 2 3 4 5 6 
#
# 1 0.031613 -0.021327 -0.003251 0.000000 0.000000 0.000000
# 2 -0.021327 0.031613 -0.003250 0.000000 0.000000 0.000000
# 3 -0.003251 -0.003250 0.011630 0.000000 0.000000 0.000000
# 4 0.000000 0.000000 0.000000 0.065979 0.000000 0.000000
# 5 0.000000 0.000000 0.000000 0.000000 0.065978 0.000000
# 6 0.000000 0.000000 0.000000 0.000000 0.000000 0.036901
#
#
# Mechanical properties :
#
#
# Convention : Reuss Voigt Hill
#
# Bulk Modulus (GPa) = 52.08200 52.50891 52.29546
# Shear Modulus (GPa) = 16.35218 19.86926 18.11072
#
# Velocity S-wave (km/s) = 2.90554 3.20280 3.05779
# Velocity P-wave (km/s) = 6.17614 6.38641 6.28215
#
# Compressibility (1/GPa) = 0.01920049
#
# Stress axis : x y z
#
# Youngs Moduli (GPa) = 31.63260 31.63267 85.98312
#
# Poissons Ratio (x) = 0.67463 0.27950
# Poissons Ratio (y) = 0.67463 0.27945
# Poissons Ratio (z) = 0.10283 0.10281
#
# Static dielectric constant tensor:
#      x y z
#    x 3.323370 0.000000 0.000000 
#    y 0.000000 3.323370 0.000000 
#    z 0.000000 0.000000 3.716820 
# 
# 
# High freq. dielectric constant tensor:
#      x y z
#    x 1.717940 0.000000 0.000000 
#    y 0.000000 1.717940 0.000000 
#    z 0.000000 0.000000 1.764900 
# 
# From -- ./inp_files/1250.got.cif
#   From: 2010.03.12/outbox.cif.g09.slc.cpg/sg111_1_cif.got.tgz:1250.got - 2010.04.14 01:59:48.
