data_PCOD8308317
_publ_section_title
;
Structure prediction by ZEFSAII (Michael W. Deem and Ramdas Pophale) SiO2 
 PCOD8308317
Probable space group: P -4 2 C
;
_chemical_formula_sum "Si O2"
_cell_formula_units_Z 58
_cell_length_a 17.346240
_cell_length_b 17.346240
_cell_length_c 9.706151
_cell_angle_alpha 90.000000
_cell_angle_beta 90.000000
_cell_angle_gamma 90.000000
_cell_volume 2920.503596
_symmetry_space_group_name_H-M "P -4 2 C"
_symmetry_group_IT_number 112
_symmetry_cell_setting 'tetragonal'
loop_
_space_group_symop_operation_xyz
x,y,z
y,-x,-z
-x,-y,z
-y,x,-z
x,-y,1/2-z
-x,y,1/2-z
-y,-x,1/2+z
y,x,1/2+z
loop_
_atom_site_type_symbol
_atom_site_label
_atom_site_fract_x
_atom_site_fract_y
_atom_site_fract_z
Si Si1 0.812021 0.581244 0.042743
Si Si2 0.830518 0.997849 0.905424
Si Si3 0.853357 0.744956 0.080493
Si Si4 0.419175 0.307064 0.778557
Si Si5 0.414317 0.277702 0.269856
Si Si6 0.846776 0.748148 0.406795
Si Si7 0.000000 0.000000 0.000000
Si Si8 0.808859 0.587298 0.504475
O O1 0.870470 0.654241 0.049366
O O2 0.770256 0.581598 0.188660
O O3 0.851236 0.496539 0.018218
O O4 0.750181 0.598083 0.924262
O O5 0.793466 0.073251 0.976011
O O6 0.801639 0.000000 0.750000
O O7 0.794804 0.920015 0.969012
O O8 0.923217 0.998460 0.908254
O O9 0.835781 0.759889 0.242620
O O10 0.780227 0.772379 0.989076
O O11 0.500000 0.351900 0.750000
O O12 0.347732 0.358330 0.737020
O O13 0.415519 0.276538 0.935373
O O14 0.500000 0.309926 0.250000
O O15 0.398711 0.206082 0.166514
O O16 0.858588 0.657569 0.441960
#
# Coordination Sequence:
#
# PCOD8308317 Si02
#       8
#     8   8   8   8   8   8   2   8
#     4  10  21  35  54  79 113 152 193 246 296 343
#     4  10  23  39  62  92 123 161 189 233 295 357
#     4  11  22  38  61  89 119 153 202 244 286 352
#     4  10  18  31  50  75 105 145 191 239 303 353
#     4  10  20  33  50  75 107 149 195 241 301 355
#     4  11  22  38  61  89 119 153 202 244 286 352
#     4  12  18  44  60  86 140 152 182 236 298 352
#     4  10  21  35  54  79 113 152 193 246 296 343
#
# _framework density 19.859589
#
# number of rings (size 3 to 8) (size 9 to 14) (size 15 to 20)
#    0.000    1.655    2.759    2.690    1.931    0.276 
#    0.000    1.379    0.000    7.448    0.000    2.897 
#    0.000    0.000    0.000    0.000    0.000    0.000 
#
# Total GULP energy -718863.662324 kJ/mol
# GULP energy per Si atom -12394.201075 kJ/mol
# Density = 1.981439 g / cm^3
# Si number density = 19.859589 Si / 1000 Ang^3
#
#
#
# Elastic Constant Matrix: (Units=GPa)
#
#
# Indices 1 2 3 4 5 6 
#
# 1 111.0586 51.4928 15.4704 0.0000 0.0000 0.0000
# 2 51.4928 111.0586 15.4704 0.0000 0.0000 0.0000
# 3 15.4704 15.4704 61.1833 0.0000 0.0000 0.0000
# 4 0.0000 0.0000 0.0000 21.4056 0.0000 0.0000
# 5 0.0000 0.0000 0.0000 0.0000 21.4056 0.0000
# 6 0.0000 0.0000 0.0000 0.0000 0.0000 31.5077
#
#
#
# Elastic Compliance Matrix: (Units=1/GPa)
#
#
# Indices 1 2 3 4 5 6 
#
# 1 0.011626 -0.005163 -0.001634 0.000000 0.000000 0.000000
# 2 -0.005163 0.011626 -0.001634 0.000000 0.000000 0.000000
# 3 -0.001634 -0.001634 0.017171 0.000000 0.000000 0.000000
# 4 0.000000 0.000000 0.000000 0.046717 0.000000 0.000000
# 5 0.000000 0.000000 0.000000 0.000000 0.046717 0.000000
# 6 0.000000 0.000000 0.000000 0.000000 0.000000 0.031738
#
#
# Mechanical properties :
#
#
# Convention : Reuss Voigt Hill
#
# Bulk Modulus (GPa) = 42.44493 49.79642 46.12067
# Shear Modulus (GPa) = 26.27305 28.25488 27.26397
#
# Velocity S-wave (km/s) = 3.64117 3.77600 3.70920
# Velocity P-wave (km/s) = 6.25271 6.64377 6.45120
#
# Compressibility (1/GPa) = 0.02355994
#
# Stress axis : x y z
#
# Youngs Moduli (GPa) = 86.01729 86.01729 58.23854
#
# Poissons Ratio (x) = 0.44407 0.09517
# Poissons Ratio (y) = 0.44407 0.09517
# Poissons Ratio (z) = 0.14057 0.14057
#
# Static dielectric constant tensor:
#      x y z
#    x 3.636420 0.000000 0.000000 
#    y 0.000000 3.636420 0.000000 
#    z 0.000000 0.000000 3.573130 
# 
# 
# High freq. dielectric constant tensor:
#      x y z
#    x 1.759830 0.000000 0.000000 
#    y 0.000000 1.759830 0.000000 
#    z 0.000000 0.000000 1.778610 
# 
# From -- ./inp_files/1522.got.cif
#   From: 2010.03.12/outbox.cif.g09.slc.cpg/sg112_1_cif.got.tgz:1522.got - 2010.04.14 02:02:48.
