data_PCOD8308364
_publ_section_title
;
Structure prediction by ZEFSAII (Michael W. Deem and Ramdas Pophale) SiO2 
 PCOD8308364
Probable space group: P -4 2 C
;
_chemical_formula_sum "Si O2"
_cell_formula_units_Z 56
_cell_length_a 11.811172
_cell_length_b 11.811172
_cell_length_c 19.905936
_cell_angle_alpha 90.000000
_cell_angle_beta 90.000000
_cell_angle_gamma 90.000000
_cell_volume 2776.953396
_symmetry_space_group_name_H-M "P -4 2 C"
_symmetry_group_IT_number 112
_symmetry_cell_setting 'tetragonal'
loop_
_space_group_symop_operation_xyz
x,y,z
y,-x,-z
-x,-y,z
-y,x,-z
x,-y,1/2-z
-x,y,1/2-z
-y,-x,1/2+z
y,x,1/2+z
loop_
_atom_site_type_symbol
_atom_site_label
_atom_site_fract_x
_atom_site_fract_y
_atom_site_fract_z
Si Si1 0.761608 0.001279 0.174969
Si Si2 0.842554 0.004160 0.461518
Si Si3 0.233243 0.369385 0.826220
Si Si4 0.371791 0.749592 0.563704
Si Si5 0.372044 0.771240 0.327347
Si Si6 0.633778 0.749450 0.560968
Si Si7 0.624528 0.001106 0.529575
O O1 0.679594 0.895316 0.165258
O O2 0.815322 0.000000 0.250000
O O3 0.863690 0.996587 0.119083
O O4 0.690108 0.113660 0.162275
O O5 0.707592 0.007531 0.466228
O O6 0.888184 0.894367 0.500447
O O7 0.330666 0.307142 0.867880
O O8 0.271232 0.363817 0.749019
O O9 0.222633 0.498274 0.851485
O O10 0.502423 0.716833 0.550686
O O11 0.295682 0.705310 0.502158
O O12 0.358308 0.885695 0.574171
O O13 0.305442 0.680170 0.371364
O O14 0.647673 0.885536 0.570688
O O15 0.500000 0.000000 0.497785
#
# Coordination Sequence:
#
# PCOD8308364 Si02
#       7
#     8   8   8   8   8   8   8
#     4  10  20  36  58  85 117 150 191 239 284 339
#     4  11  22  36  57  85 115 146 184 232 290 348
#     4  10  21  37  59  87 118 152 189 234 291 350
#     4  11  23  38  58  84 114 151 195 241 291 348
#     4  10  21  37  59  87 118 152 189 234 291 350
#     4  11  23  38  58  84 114 151 195 241 291 348
#     4  10  21  37  57  80 109 147 192 239 285 338
#
# _framework density 20.165983000000001
#
# number of rings (size 3 to 8) (size 9 to 14) (size 15 to 20)
#    0.000    1.571    0.000    5.571    0.000    7.714 
#    0.000    3.571    0.000   11.143    0.000    0.000 
#    0.000    0.000    0.000    0.000    0.000    0.000 
#
# Total GULP energy -694169.782146 kJ/mol
# GULP energy per Si atom -12395.888967 kJ/mol
# Density = 2.012008 g / cm^3
# Si number density = 20.165983 Si / 1000 Ang^3
#
#
#
# Elastic Constant Matrix: (Units=GPa)
#
#
# Indices 1 2 3 4 5 6 
#
# 1 85.1004 10.4661 32.0204 0.0000 0.0000 0.0000
# 2 10.4661 85.1004 32.0204 0.0000 0.0000 0.0000
# 3 32.0204 32.0204 112.6014 0.0000 0.0000 0.0000
# 4 0.0000 0.0000 0.0000 32.6820 0.0000 0.0000
# 5 0.0000 0.0000 0.0000 0.0000 32.6820 0.0000
# 6 0.0000 0.0000 0.0000 0.0000 0.0000 31.1200
#
#
#
# Elastic Compliance Matrix: (Units=1/GPa)
#
#
# Indices 1 2 3 4 5 6 
#
# 1 0.013163 -0.000236 -0.003676 0.000000 0.000000 0.000000
# 2 -0.000236 0.013163 -0.003676 0.000000 0.000000 0.000000
# 3 -0.003676 -0.003676 0.010972 0.000000 0.000000 0.000000
# 4 0.000000 0.000000 0.000000 0.030598 0.000000 0.000000
# 5 0.000000 0.000000 0.000000 0.000000 0.030598 0.000000
# 6 0.000000 0.000000 0.000000 0.000000 0.000000 0.032134
#
#
# Mechanical properties :
#
#
# Convention : Reuss Voigt Hill
#
# Bulk Modulus (GPa) = 45.20429 47.97956 46.59192
# Shear Modulus (GPa) = 32.64199 33.18316 32.91258
#
# Velocity S-wave (km/s) = 4.02763 4.06088 4.04429
# Velocity P-wave (km/s) = 6.64032 6.76991 6.70543
#
# Compressibility (1/GPa) = 0.02212180
#
# Stress axis : x y z
#
# Youngs Moduli (GPa) = 75.97041 75.97041 91.14392
#
# Poissons Ratio (x) = 0.01790 0.33506
# Poissons Ratio (y) = 0.01790 0.33506
# Poissons Ratio (z) = 0.27928 0.27928
#
# Static dielectric constant tensor:
#      x y z
#    x 3.793940 0.000000 0.000000 
#    y 0.000000 3.793940 0.000000 
#    z 0.000000 0.000000 3.768590 
# 
# 
# High freq. dielectric constant tensor:
#      x y z
#    x 1.795090 0.000000 0.000000 
#    y 0.000000 1.795090 0.000000 
#    z 0.000000 0.000000 1.779580 
# 
# From -- ./inp_files/4924.got.cif
#   From: 2010.03.12/outbox.cif.g09.slc.cpg/sg112_3_cif.got.tgz:4924.got - 2010.04.14 02:02:48.
