data_PCOD8308745
_publ_section_title
;
Structure prediction by ZEFSAII (Michael W. Deem and Ramdas Pophale) SiO2 
 PCOD8308745
Probable space group: P -4 21 M 
;
_chemical_formula_sum "Si O2"
_cell_formula_units_Z 26
_cell_length_a 11.540407
_cell_length_b 11.540407
_cell_length_c 9.371619
_cell_angle_alpha 90.000000
_cell_angle_beta 90.000000
_cell_angle_gamma 90.000000
_cell_volume 1248.121531
_symmetry_space_group_name_H-M "P -4 21 M "
_symmetry_group_IT_number 113
_symmetry_cell_setting 'tetragonal'
loop_
_space_group_symop_operation_xyz
x,y,z
y,-x,-z
-x,-y,z
-y,x,-z
1/2+x,1/2-y,-z
1/2-x,1/2+y,-z
1/2-y,1/2-x,z
1/2+y,1/2+x,z
loop_
_atom_site_type_symbol
_atom_site_label
_atom_site_fract_x
_atom_site_fract_y
_atom_site_fract_z
Si Si1 0.179373 0.044629 0.531418
Si Si2 0.500000 0.500000 0.000000
Si Si3 0.095723 0.595723 0.970070
Si Si4 0.377881 0.301397 0.849755
Si Si5 0.096367 0.596367 0.642584
O O1 0.215345 0.078528 0.689926
O O2 0.288501 0.048668 0.429030
O O3 0.085649 0.132588 0.467371
O O4 0.431816 0.594145 0.097689
O O5 0.123737 0.623737 0.806540
O O6 0.000000 0.500000 0.989158
O O7 0.213054 0.551049 0.048235
O O8 0.240377 0.259623 0.856609
O O9 0.000000 0.500000 0.625529
#
# Coordination Sequence:
#
# PCOD8308745 Si02
#       5
#     8   2   4   8   4
#     4  11  25  44  69 101 137 178 227 282 350 415
#     4  12  24  44  74 104 136 180 238 304 348 420
#     4   9  23  47  67 101 142 181 232 287 354 418
#     4  10  25  44  68 105 135 184 233 284 357 421
#     4  11  25  45  69 104 135 184 229 295 344 416
#
# _framework density 20.831305
#
# number of rings (size 3 to 8) (size 9 to 14) (size 15 to 20)
#    0.923    0.615    1.538    1.846   10.769    3.692 
#    0.000    0.000    0.000    0.000    0.000    0.000 
#    0.000    0.000    0.000    0.000    0.000    0.000 
#
# Total GULP energy -322238.958802 kJ/mol
# GULP energy per Si atom -12393.806108 kJ/mol
# Density = 2.078389 g / cm^3
# Si number density = 20.831305 Si / 1000 Ang^3
#
#
#
# Elastic Constant Matrix: (Units=GPa)
#
#
# Indices 1 2 3 4 5 6 
#
# 1 104.9274 42.9613 56.6608 0.0000 0.0000 0.0000
# 2 42.9613 104.9267 56.6611 0.0000 0.0000 0.0000
# 3 56.6608 56.6611 118.1338 0.0000 0.0000 0.0000
# 4 0.0000 0.0000 0.0000 13.2903 0.0000 0.0000
# 5 0.0000 0.0000 0.0000 0.0000 13.2889 0.0000
# 6 0.0000 0.0000 0.0000 0.0000 0.0000 33.5980
#
#
#
# Elastic Compliance Matrix: (Units=1/GPa)
#
#
# Indices 1 2 3 4 5 6 
#
# 1 0.013414 -0.002723 -0.005128 0.000000 0.000000 0.000000
# 2 -0.002723 0.013415 -0.005128 0.000000 0.000000 0.000000
# 3 -0.005128 -0.005128 0.013384 0.000000 0.000000 0.000000
# 4 0.000000 0.000000 0.000000 0.075243 0.000000 0.000000
# 5 0.000000 0.000000 0.000000 0.000000 0.075251 0.000000
# 6 0.000000 0.000000 0.000000 0.000000 0.000000 0.029764
#
#
# Mechanical properties :
#
#
# Convention : Reuss Voigt Hill
#
# Bulk Modulus (GPa) = 70.15134 71.17270 70.66202
# Shear Modulus (GPa) = 19.90604 23.48243 21.69423
#
# Velocity S-wave (km/s) = 3.09460 3.36112 3.23061
# Velocity P-wave (km/s) = 6.82040 7.02163 6.92174
#
# Compressibility (1/GPa) = 0.01425490
#
# Stress axis : x y z
#
# Youngs Moduli (GPa) = 74.54645 74.54545 74.71645
#
# Poissons Ratio (x) = 0.20302 0.38313
# Poissons Ratio (y) = 0.20302 0.38314
# Poissons Ratio (z) = 0.38226 0.38226
#
# Static dielectric constant tensor:
#      x y z
#    x 3.743440 0.000000 0.000000 
#    y 0.000000 3.743440 0.000000 
#    z 0.000000 0.000000 3.986080 
# 
# 
# High freq. dielectric constant tensor:
#      x y z
#    x 1.812590 0.000000 0.000000 
#    y 0.000000 1.812590 0.000000 
#    z 0.000000 0.000000 1.834590 
# 
# From -- ./inp_files/748.got.cif
#   From: 2010.03.12/outbox.cif.g09.slc.cpg/sg113_cif.got.tgz:748.got - 2010.04.14 02:06:34.
