data_PCOD8308295
_publ_section_title
;
Structure prediction by ZEFSAII (Michael W. Deem and Ramdas Pophale) SiO2 
 PCOD8308295
Probable space group: P -4 2 M 
;
_chemical_formula_sum "Si O2"
_cell_formula_units_Z 56
_cell_length_a 11.827476
_cell_length_b 11.827476
_cell_length_c 26.124880
_cell_angle_alpha 90.000000
_cell_angle_beta 90.000000
_cell_angle_gamma 90.000000
_cell_volume 3654.588264
_symmetry_space_group_name_H-M "P -4 2 M "
_symmetry_group_IT_number 111
_symmetry_cell_setting 'tetragonal'
loop_
_space_group_symop_operation_xyz
x,y,z
y,-x,-z
-x,-y,z
-y,x,-z
x,-y,-z
-x,y,-z
-y,-x,z
y,x,z
loop_
_atom_site_type_symbol
_atom_site_label
_atom_site_fract_x
_atom_site_fract_y
_atom_site_fract_z
Si Si1 0.184238 0.631381 0.726770
Si Si2 0.366294 1.000000 0.080290
Si Si3 0.184238 0.631381 0.273230
Si Si4 0.365497 0.000000 0.805733
Si Si5 0.816228 0.633320 0.000000
Si Si6 0.000001 0.816086 0.558939
Si Si7 1.000000 0.628839 0.642731
O O1 0.299932 0.700069 0.723640
O O2 0.216068 0.500000 0.732018
O O3 0.112311 0.674067 0.775801
O O4 0.111275 0.653640 0.676021
O O5 0.329155 0.112499 0.049950
O O6 0.500000 0.000000 0.084002
O O7 0.312778 1.000000 0.137157
O O8 0.329155 0.887501 0.049950
O O9 0.299932 0.700069 0.276359
O O10 0.112312 0.674066 0.224199
O O11 0.111276 0.653640 0.323979
O O12 0.500000 0.000000 0.806604
O O13 0.697130 0.697130 0.000000
O O14 0.790985 0.500000 0.000000
O O15 0.110829 0.889172 0.571490
O O16 0.000000 0.778436 0.500000
O O17 0.999999 0.704628 0.592661
O O18 0.889176 0.889176 0.571490
O O19 0.000000 0.500000 0.623902
#
# Coordination Sequence:
#
# PCOD8308295 Si02
#       7
#     8   8   8   8   8   8   8
#     4   9  17  28  43  64  87 111 139 170 207 248
#     4   8  15  29  45  59  79 110 145 170 192 238
#     4   9  17  28  43  64  87 111 139 170 207 248
#     4   8  15  28  44  60  79 107 142 174 200 235
#     4   9  17  28  44  66  87 109 138 170 208 251
#     4   9  17  28  43  64  87 110 138 176 223 264
#     4   9  17  29  44  61  84 115 148 177 202 240
#
# _framework density 15.323204
#
# number of rings (size 3 to 8) (size 9 to 14) (size 15 to 20)
#    0.000    3.286    0.000    3.857    0.000    1.857 
#    0.000    0.000    0.000    7.286    0.000   16.000 
#    0.000    0.000    0.000   26.571    0.000    0.000 
#
# Total GULP energy -694146.414755 kJ/mol
# GULP energy per Si atom -12395.471692 kJ/mol
# Density = 1.528833 g / cm^3
# Si number density = 15.323204 Si / 1000 Ang^3
#
#
#
# Elastic Constant Matrix: (Units=GPa)
#
#
# Indices 1 2 3 4 5 6 
#
# 1 87.4348 54.9756 51.2201 0.0000 0.0000 0.0000
# 2 54.9756 87.4379 51.2206 0.0000 0.0000 0.0000
# 3 51.2201 51.2206 120.7137 0.0000 0.0000 0.0000
# 4 0.0000 0.0000 0.0000 14.9345 0.0000 0.0000
# 5 0.0000 0.0000 0.0000 0.0000 14.9355 0.0000
# 6 0.0000 0.0000 0.0000 0.0000 0.0000 21.2338
#
#
#
# Elastic Compliance Matrix: (Units=1/GPa)
#
#
# Indices 1 2 3 4 5 6 
#
# 1 0.020457 -0.010350 -0.004288 0.000000 0.000000 0.000000
# 2 -0.010350 0.020456 -0.004288 0.000000 0.000000 0.000000
# 3 -0.004288 -0.004288 0.011923 0.000000 0.000000 0.000000
# 4 0.000000 0.000000 0.000000 0.066959 0.000000 0.000000
# 5 0.000000 0.000000 0.000000 0.000000 0.066955 0.000000
# 6 0.000000 0.000000 0.000000 0.000000 0.000000 0.047095
#
#
# Mechanical properties :
#
#
# Convention : Reuss Voigt Hill
#
# Bulk Modulus (GPa) = 66.74210 67.82436 67.28323
# Shear Modulus (GPa) = 18.07061 19.43210 18.75135
#
# Velocity S-wave (km/s) = 3.43782 3.56497 3.50197
# Velocity P-wave (km/s) = 7.70772 7.82968 7.76894
#
# Compressibility (1/GPa) = 0.01498305
#
# Stress axis : x y z
#
# Youngs Moduli (GPa) = 48.88309 48.88511 83.86946
#
# Poissons Ratio (x) = 0.50596 0.35967
# Poissons Ratio (y) = 0.50594 0.35965
# Poissons Ratio (z) = 0.20963 0.20963
#
# Static dielectric constant tensor:
#      x y z
#    x 2.698310 0.000000 0.000000 
#    y 0.000000 2.698310 0.000000 
#    z 0.000000 0.000000 3.171020 
# 
# 
# High freq. dielectric constant tensor:
#      x y z
#    x 1.571040 0.000000 0.000000 
#    y 0.000000 1.571040 0.000000 
#    z 0.000000 0.000000 1.591480 
# 
# From -- ./inp_files/4197.got.cif
#   From: 2010.03.12/outbox.cif.g09.slc.cpg/sg111_3_cif.got.tgz:4197.got - 2010.04.14 01:59:48.
