data_PCOD8308129
_publ_section_title
;
Structure prediction by ZEFSAII (Michael W. Deem and Ramdas Pophale) SiO2 
 PCOD8308129
Probable space group: P -4 2 M 
;
_chemical_formula_sum "Si O2"
_cell_formula_units_Z 40
_cell_length_a 13.889748
_cell_length_b 13.889748
_cell_length_c 12.954142
_cell_angle_alpha 90.000000
_cell_angle_beta 90.000000
_cell_angle_gamma 90.000000
_cell_volume 2499.179134
_symmetry_space_group_name_H-M "P -4 2 M "
_symmetry_group_IT_number 111
_symmetry_cell_setting 'tetragonal'
loop_
_space_group_symop_operation_xyz
x,y,z
y,-x,-z
-x,-y,z
-y,x,-z
x,-y,-z
-x,y,-z
-y,-x,z
y,x,z
loop_
_atom_site_type_symbol
_atom_site_label
_atom_site_fract_x
_atom_site_fract_y
_atom_site_fract_z
Si Si1 0.385819 0.107340 0.385580
Si Si2 0.892660 0.385819 0.385580
Si Si3 0.613841 0.107559 0.000000
Si Si4 0.768184 0.385997 0.195022
Si Si5 0.768184 0.614003 0.195021
O O1 0.353019 0.141670 0.500000
O O2 0.500000 0.102958 0.379419
O O3 0.348496 0.181554 0.299941
O O4 0.345193 0.000000 0.363250
O O5 0.818446 0.348496 0.299941
O O6 0.647959 0.164058 0.101421
O O7 0.500000 0.099095 0.000000
O O8 0.647959 0.164058 0.898580
O O9 0.658870 0.000000 0.000000
O O10 0.664916 0.335085 0.184985
O O11 0.749610 0.500000 0.193983
O O12 0.664915 0.664915 0.184985
#
# Coordination Sequence:
#
# PCOD8308129 Si02
#       5
#     8   8   8   8   8
#     4   8  14  26  44  63  82 107 142 186 231 260
#     4   8  14  26  44  63  82 107 142 186 231 260
#     4   9  17  30  47  63  79 103 139 185 231 260
#     4  10  19  29  42  62  90 122 150 173 201 245
#     4  10  19  29  42  62  90 122 150 173 201 245
#
# _framework density 16.005255999999999
#
# number of rings (size 3 to 8) (size 9 to 14) (size 15 to 20)
#    0.000    3.000    0.000    3.000    0.000    6.000 
#    0.000    0.000    0.000    3.600    0.000    5.600 
#    0.000   32.800    0.000   17.600    0.000    1.600 
#
# Total GULP energy -495762.205591 kJ/mol
# GULP energy per Si atom -12394.055140 kJ/mol
# Density = 1.596883 g / cm^3
# Si number density = 16.005256 Si / 1000 Ang^3
#
#
#
# Elastic Constant Matrix: (Units=GPa)
#
#
# Indices 1 2 3 4 5 6 
#
# 1 64.5633 39.2112 46.9167 0.0000 0.0000 0.0000
# 2 39.2112 64.5609 46.9160 0.0000 0.0000 0.0000
# 3 46.9167 46.9160 139.5269 0.0000 0.0000 0.0000
# 4 0.0000 0.0000 0.0000 12.4839 0.0000 0.0000
# 5 0.0000 0.0000 0.0000 0.0000 12.4828 0.0000
# 6 0.0000 0.0000 0.0000 0.0000 0.0000 5.3853
#
#
#
# Elastic Compliance Matrix: (Units=1/GPa)
#
#
# Indices 1 2 3 4 5 6 
#
# 1 0.026646 -0.012800 -0.004656 0.000000 0.000000 0.000000
# 2 -0.012800 0.026647 -0.004656 0.000000 0.000000 0.000000
# 3 -0.004656 -0.004656 0.010298 0.000000 0.000000 0.000000
# 4 0.000000 0.000000 0.000000 0.080103 0.000000 0.000000
# 5 0.000000 0.000000 0.000000 0.000000 0.080110 0.000000
# 6 0.000000 0.000000 0.000000 0.000000 0.000000 0.185691
#
#
# Mechanical properties :
#
#
# Convention : Reuss Voigt Hill
#
# Bulk Modulus (GPa) = 51.63348 59.41542 55.52445
# Shear Modulus (GPa) = 10.86545 15.11089 12.98817
#
# Velocity S-wave (km/s) = 2.60834 3.07599 2.85176
# Velocity P-wave (km/s) = 6.43441 7.05823 6.75353
#
# Compressibility (1/GPa) = 0.01936728
#
# Stress axis : x y z
#
# Youngs Moduli (GPa) = 37.52950 37.52801 97.10474
#
# Poissons Ratio (x) = 0.48036 0.45210
# Poissons Ratio (y) = 0.48038 0.45211
# Poissons Ratio (z) = 0.17473 0.17473
#
# Static dielectric constant tensor:
#      x y z
#    x 2.760700 0.000000 0.000000 
#    y 0.000000 2.760710 0.000000 
#    z 0.000000 0.000000 3.479320 
# 
# 
# High freq. dielectric constant tensor:
#      x y z
#    x 1.578370 0.000000 0.000000 
#    y 0.000000 1.578370 0.000000 
#    z 0.000000 0.000000 1.639710 
# 
# From -- ./inp_files/2477.got.cif
#   From: 2010.03.12/outbox.cif.g09.slc.cpg/sg111_2_cif.got.tgz:2477.got - 2010.04.14 01:59:48.
