data_PCOD8308553
_publ_section_title
;
Structure prediction by ZEFSAII (Michael W. Deem and Ramdas Pophale) SiO2 
 PCOD8308553
Probable space group: P -4 21 M 
;
_chemical_formula_sum "Si O2"
_cell_formula_units_Z 64
_cell_length_a 17.930277
_cell_length_b 17.930277
_cell_length_c 11.716332
_cell_angle_alpha 90.000000
_cell_angle_beta 90.000000
_cell_angle_gamma 90.000000
_cell_volume 3766.740203
_symmetry_space_group_name_H-M "P -4 21 M "
_symmetry_group_IT_number 113
_symmetry_cell_setting 'tetragonal'
loop_
_space_group_symop_operation_xyz
x,y,z
y,-x,-z
-x,-y,z
-y,x,-z
1/2+x,1/2-y,-z
1/2-x,1/2+y,-z
1/2-y,1/2-x,z
1/2+y,1/2+x,z
loop_
_atom_site_type_symbol
_atom_site_label
_atom_site_fract_x
_atom_site_fract_y
_atom_site_fract_z
Si Si1 0.385143 0.687923 0.027413
Si Si2 0.977544 0.077968 0.257606
Si Si3 0.114110 0.107755 0.399184
Si Si4 0.465022 0.309250 0.925947
Si Si5 0.082115 0.298275 0.788156
Si Si6 0.819677 0.200731 0.806498
Si Si7 0.948338 0.829117 0.617451
Si Si8 0.566231 0.812186 0.077156
O O1 0.354687 0.608835 0.058552
O O2 0.368288 0.748663 0.124669
O O3 0.474006 0.674618 0.023330
O O4 0.351560 0.714598 0.906320
O O5 0.995714 0.156507 0.192589
O O6 0.890803 0.073337 0.288614
O O7 0.030442 0.080569 0.368677
O O8 0.000000 0.000000 0.191550
O O9 0.150708 0.154756 0.298190
O O10 0.107773 0.160160 0.510607
O O11 0.163839 0.034285 0.423008
O O12 0.448992 0.220333 0.947098
O O13 0.130646 0.369355 0.750401
O O14 0.062926 0.251839 0.674007
O O15 0.008471 0.328753 0.852130
O O16 0.754965 0.254965 0.761842
O O17 0.888214 0.248641 0.855639
O O18 0.611329 0.888672 0.064333
#
# Coordination Sequence:
#
# PCOD8308553 Si02
#       8
#     8   8   8   8   8   8   8   8
#     4  10  20  30  47  76 108 134 170 206 260 315
#     4  10  20  29  47  74 109 145 177 207 250 308
#     4  11  20  34  53  74 104 142 179 211 247 308
#     4  10  19  29  47  74 105 142 169 206 254 314
#     4  11  22  36  54  77 108 134 169 226 277 315
#     4  10  19  33  52  72 100 135 170 210 256 309
#     4  11  21  35  50  77 106 141 178 215 256 307
#     4   9  20  37  54  74 101 135 178 220 263 312
#
# _framework density 16.990818999999998
#
# number of rings (size 3 to 8) (size 9 to 14) (size 15 to 20)
#    0.000    1.750    5.000    0.375    1.750    1.250 
#    0.000    0.000    0.000    0.000    0.000    0.000 
#    0.000    0.000    0.000    0.000    0.000    0.000 
#
# Total GULP energy -792939.311050 kJ/mol
# GULP energy per Si atom -12389.676735 kJ/mol
# Density = 1.695215 g / cm^3
# Si number density = 16.990819 Si / 1000 Ang^3
#
#
#
# Elastic Constant Matrix: (Units=GPa)
#
#
# Indices 1 2 3 4 5 6 
#
# 1 79.2391 45.1951 30.7758 0.0000 0.0000 0.0000
# 2 45.1951 79.2384 30.7752 0.0000 0.0000 0.0000
# 3 30.7758 30.7752 74.6527 0.0000 0.0000 0.0000
# 4 0.0000 0.0000 0.0000 11.4315 0.0000 0.0000
# 5 0.0000 0.0000 0.0000 0.0000 11.4341 0.0000
# 6 0.0000 0.0000 0.0000 0.0000 0.0000 31.8930
#
#
#
# Elastic Compliance Matrix: (Units=1/GPa)
#
#
# Indices 1 2 3 4 5 6 
#
# 1 0.019734 -0.009640 -0.004162 0.000000 0.000000 0.000000
# 2 -0.009640 0.019735 -0.004162 0.000000 0.000000 0.000000
# 3 -0.004162 -0.004162 0.016827 0.000000 0.000000 0.000000
# 4 0.000000 0.000000 0.000000 0.087478 0.000000 0.000000
# 5 0.000000 0.000000 0.000000 0.000000 0.087457 0.000000
# 6 0.000000 0.000000 0.000000 0.000000 0.000000 0.031355
#
#
# Mechanical properties :
#
#
# Convention : Reuss Voigt Hill
#
# Bulk Modulus (GPa) = 49.09182 49.62468 49.35825
# Shear Modulus (GPa) = 16.37726 19.37733 17.87730
#
# Velocity S-wave (km/s) = 3.10802 3.38073 3.24724
# Velocity P-wave (km/s) = 6.46805 6.67153 6.57058
#
# Compressibility (1/GPa) = 0.02036999
#
# Stress axis : x y z
#
# Youngs Moduli (GPa) = 50.67278 50.67266 59.42966
#
# Poissons Ratio (x) = 0.48846 0.24733
# Poissons Ratio (y) = 0.48846 0.24732
# Poissons Ratio (z) = 0.21089 0.21088
#
# Static dielectric constant tensor:
#      x y z
#    x 3.183790 0.000000 0.000000 
#    y 0.000000 3.183790 0.000000 
#    z 0.000000 0.000000 3.120960 
# 
# 
# High freq. dielectric constant tensor:
#      x y z
#    x 1.645150 0.000000 0.000000 
#    y 0.000000 1.645150 0.000000 
#    z 0.000000 0.000000 1.636470 
# 
# From -- ./inp_files/2043.got.cif
#   From: 2010.03.12/outbox.cif.g09.slc.cpg/sg113_cif.got.tgz:2043.got - 2010.04.14 02:06:34.
