data_PCOD8308939
_publ_section_title
;
Structure prediction by ZEFSAII (Michael W. Deem and Ramdas Pophale) SiO2 
 PCOD8308939
Probable space group: P -4 21 C
;
_chemical_formula_sum "Si O2"
_cell_formula_units_Z 52
_cell_length_a 16.616884
_cell_length_b 16.616884
_cell_length_c 8.869638
_cell_angle_alpha 90.000000
_cell_angle_beta 90.000000
_cell_angle_gamma 90.000000
_cell_volume 2449.091841
_symmetry_space_group_name_H-M "P -4 21 C"
_symmetry_group_IT_number 114
_symmetry_cell_setting 'tetragonal'
loop_
_space_group_symop_operation_xyz
x,y,z
y,-x,-z
-x,-y,z
-y,x,-z
1/2+x,1/2-y,1/2-z
1/2-x,1/2+y,1/2-z
1/2-y,1/2-x,1/2+z
1/2+y,1/2+x,1/2+z
loop_
_atom_site_type_symbol
_atom_site_label
_atom_site_fract_x
_atom_site_fract_y
_atom_site_fract_z
Si Si1 0.565932 0.151572 0.329627
Si Si2 0.338258 0.327838 0.413878
Si Si3 0.353333 0.071483 0.614375
Si Si4 0.106508 0.724868 0.691378
Si Si5 0.997122 0.773796 0.946445
Si Si6 0.240814 0.275304 0.692064
Si Si7 0.000000 0.500000 0.043002
O O1 0.541291 0.193174 0.485890
O O2 0.655468 0.174926 0.279419
O O3 0.557788 0.055290 0.352352
O O4 0.507658 0.180022 0.195844
O O5 0.429889 0.301840 0.445065
O O6 0.337886 0.424340 0.439056
O O7 0.274801 0.278533 0.520584
O O8 0.308557 0.303032 0.244472
O O9 0.290469 0.088705 0.482093
O O10 0.357608 0.144547 0.730722
O O11 0.443475 0.057944 0.553742
O O12 0.178591 0.790022 0.706346
O O13 0.027612 0.756719 0.777313
#
# Coordination Sequence:
#
# PCOD8308939 Si02
#       7
#     8   8   8   8   8   8   4
#     4  11  24  39  56  89 123 158 200 250 306 369
#     4  10  22  39  62  86 120 156 205 252 305 363
#     4  12  23  36  59  82 122 161 196 239 301 369
#     4  11  21  40  59  84 119 165 203 242 308 367
#     4  10  22  41  59  86 117 157 206 256 301 361
#     4  10  23  38  60  85 118 159 202 249 296 363
#     4  12  24  36  56  88 124 156 190 242 310 374
#
# _framework density 21.232361000000001
#
# number of rings (size 3 to 8) (size 9 to 14) (size 15 to 20)
#    0.000    1.231    3.077    3.231    6.462    0.308 
#    0.000    0.000    0.000    0.000    0.000    0.000 
#    0.000    2.462    0.000    0.000    0.000    0.000 
#
# Total GULP energy -644534.846730 kJ/mol
# GULP energy per Si atom -12394.900899 kJ/mol
# Density = 2.118404 g / cm^3
# Si number density = 21.232361 Si / 1000 Ang^3
#
#
#
# Elastic Constant Matrix: (Units=GPa)
#
#
# Indices 1 2 3 4 5 6 
#
# 1 78.6877 11.7788 5.3226 0.0000 0.0000 0.0000
# 2 11.7788 78.6877 5.3226 0.0000 0.0000 0.0000
# 3 5.3226 5.3226 59.4141 0.0000 0.0000 0.0000
# 4 0.0000 0.0000 0.0000 22.8468 0.0000 0.0000
# 5 0.0000 0.0000 0.0000 0.0000 22.8468 0.0000
# 6 0.0000 0.0000 0.0000 0.0000 0.0000 31.8582
#
#
#
# Elastic Compliance Matrix: (Units=1/GPa)
#
#
# Indices 1 2 3 4 5 6 
#
# 1 0.013059 -0.001887 -0.001001 0.000000 0.000000 0.000000
# 2 -0.001887 0.013059 -0.001001 0.000000 0.000000 0.000000
# 3 -0.001001 -0.001001 0.017010 0.000000 0.000000 0.000000
# 4 0.000000 0.000000 0.000000 0.043770 0.000000 0.000000
# 5 0.000000 0.000000 0.000000 0.000000 0.043770 0.000000
# 6 0.000000 0.000000 0.000000 0.000000 0.000000 0.031389
#
#
# Mechanical properties :
#
#
# Convention : Reuss Voigt Hill
#
# Bulk Modulus (GPa) = 28.28833 29.07084 28.67959
# Shear Modulus (GPa) = 27.53045 28.46805 27.99925
#
# Velocity S-wave (km/s) = 3.60478 3.66565 3.63534
# Velocity P-wave (km/s) = 5.53877 5.62472 5.58191
#
# Compressibility (1/GPa) = 0.03535026
#
# Stress axis : x y z
#
# Youngs Moduli (GPa) = 76.57765 76.57765 58.78779
#
# Poissons Ratio (x) = 0.14451 0.05884
# Poissons Ratio (y) = 0.14451 0.05884
# Poissons Ratio (z) = 0.07664 0.07664
#
# Static dielectric constant tensor:
#      x y z
#    x 3.948070 0.000000 0.000000 
#    y 0.000000 3.948070 0.000000 
#    z 0.000000 0.000000 3.873600 
# 
# 
# High freq. dielectric constant tensor:
#      x y z
#    x 1.822180 0.000000 0.000000 
#    y 0.000000 1.822180 0.000000 
#    z 0.000000 0.000000 1.832350 
# 
# From -- ./inp_files/979.got.cif
#   From: 2010.03.12/outbox.cif.g09.slc.cpg/sg114_1_cif.got.tgz:979.got - 2010.04.14 02:08:34.
