data_PCOD8308637
_publ_section_title
;
Structure prediction by ZEFSAII (Michael W. Deem and Ramdas Pophale) SiO2 
 PCOD8308637
Probable space group: P -4 21 M 
;
_chemical_formula_sum "Si O2"
_cell_formula_units_Z 64
_cell_length_a 12.530803
_cell_length_b 12.530803
_cell_length_c 22.829857
_cell_angle_alpha 90.000000
_cell_angle_beta 90.000000
_cell_angle_gamma 90.000000
_cell_volume 3584.767520
_symmetry_space_group_name_H-M "P -4 21 M "
_symmetry_group_IT_number 113
_symmetry_cell_setting 'tetragonal'
loop_
_space_group_symop_operation_xyz
x,y,z
y,-x,-z
-x,-y,z
-y,x,-z
1/2+x,1/2-y,-z
1/2-x,1/2+y,-z
1/2-y,1/2-x,z
1/2+y,1/2+x,z
loop_
_atom_site_type_symbol
_atom_site_label
_atom_site_fract_x
_atom_site_fract_y
_atom_site_fract_z
Si Si1 0.887131 0.788848 0.829990
Si Si2 0.804144 0.868255 0.186623
Si Si3 0.301250 0.628822 0.054073
Si Si4 0.617427 0.289771 0.936143
Si Si5 0.124685 0.801084 0.368516
Si Si6 0.517343 0.624133 0.749464
Si Si7 0.000289 0.663962 0.457252
Si Si8 0.147605 0.952362 0.472666
O O1 0.813330 0.686670 0.813456
O O2 0.879704 0.814784 0.898959
O O3 0.845904 0.895478 0.798189
O O4 0.008231 0.767372 0.808813
O O5 0.703437 0.796564 0.204766
O O6 0.838114 0.850558 0.120009
O O7 0.901562 0.833468 0.229474
O O8 0.188113 0.688113 0.052719
O O9 0.273750 0.508120 0.070681
O O10 0.358962 0.635138 0.991605
O O11 0.674674 0.174674 0.943646
O O12 0.235519 0.735519 0.358315
O O13 0.062802 0.824472 0.309249
O O14 0.040565 0.733860 0.404325
O O15 0.143367 0.909947 0.405953
O O16 0.500000 0.500000 0.739778
O O17 0.098616 0.598616 0.486003
O O18 0.915174 0.584827 0.428775
O O19 0.942368 0.730362 0.508046
O O20 0.076137 0.886708 0.520184
#
# Coordination Sequence:
#
# PCOD8308637 Si02
#       8
#     8   8   8   8   8   8   8   8
#     4  10  20  36  56  81 108 141 186 231 279 334
#     4  10  21  37  55  80 111 145 185 230 284 333
#     4  10  20  33  54  80 108 142 184 230 284 344
#     4  10  20  34  53  79 110 143 182 231 283 341
#     4  10  20  33  54  81 107 142 181 222 266 316
#     4  10  21  35  57  76 108 144 186 229 272 320
#     4   9  18  32  50  75 109 143 174 215 266 319
#     4   9  18  31  53  78 107 135 178 221 268 319
#
# _framework density 17.853318999999999
#
# number of rings (size 3 to 8) (size 9 to 14) (size 15 to 20)
#    0.000    2.250    1.250    1.500    3.500    2.750 
#    0.000    0.000    0.000    6.375    0.000    0.000 
#    0.000    0.000    0.000    0.000    0.000    0.000 
#
# Total GULP energy -793187.523046 kJ/mol
# GULP energy per Si atom -12393.555048 kJ/mol
# Density = 1.781268 g / cm^3
# Si number density = 17.853319 Si / 1000 Ang^3
#
#
#
# Elastic Constant Matrix: (Units=GPa)
#
#
# Indices 1 2 3 4 5 6 
#
# 1 87.4068 60.6742 39.2023 0.0000 0.0000 0.0000
# 2 60.6742 87.4057 39.1994 0.0000 0.0000 0.0000
# 3 39.2023 39.1994 91.2181 0.0000 0.0000 0.0000
# 4 0.0000 0.0000 0.0000 20.3009 0.0000 0.0000
# 5 0.0000 0.0000 0.0000 0.0000 20.3006 0.0000
# 6 0.0000 0.0000 0.0000 0.0000 0.0000 21.6051
#
#
#
# Elastic Compliance Matrix: (Units=1/GPa)
#
#
# Indices 1 2 3 4 5 6 
#
# 1 0.023075 -0.014333 -0.003758 0.000000 0.000000 0.000000
# 2 -0.014333 0.023075 -0.003756 0.000000 0.000000 0.000000
# 3 -0.003758 -0.003756 0.014192 0.000000 0.000000 0.000000
# 4 0.000000 0.000000 0.000000 0.049259 0.000000 0.000000
# 5 0.000000 0.000000 0.000000 0.000000 0.049260 0.000000
# 6 0.000000 0.000000 0.000000 0.000000 0.000000 0.046285
#
#
# Mechanical properties :
#
#
# Convention : Reuss Voigt Hill
#
# Bulk Modulus (GPa) = 60.06569 60.46472 60.26521
# Shear Modulus (GPa) = 19.65489 20.90496 20.27993
#
# Velocity S-wave (km/s) = 3.32160 3.42560 3.37400
# Velocity P-wave (km/s) = 6.95900 7.04182 7.00054
#
# Compressibility (1/GPa) = 0.01664844
#
# Stress axis : x y z
#
# Youngs Moduli (GPa) = 43.33606 43.33693 70.46313
#
# Poissons Ratio (x) = 0.62115 0.26478
# Poissons Ratio (y) = 0.62114 0.26468
# Poissons Ratio (z) = 0.16284 0.16278
#
# Static dielectric constant tensor:
#      x y z
#    x 3.432400 0.000000 0.000000 
#    y 0.000000 3.432400 0.000000 
#    z 0.000000 0.000000 3.269350 
# 
# 
# High freq. dielectric constant tensor:
#      x y z
#    x 1.692460 0.000000 0.000000 
#    y 0.000000 1.692460 0.000000 
#    z 0.000000 0.000000 1.680130 
# 
# From -- ./inp_files/2899.got.cif
#   From: 2010.03.12/outbox.cif.g09.slc.cpg/sg113_cif.got.tgz:2899.got - 2010.04.14 02:06:34.
