data_PCOD8308904
_publ_section_title
;
Structure prediction by ZEFSAII (Michael W. Deem and Ramdas Pophale) SiO2 
 PCOD8308904
Probable space group: P -4 21 C
;
_chemical_formula_sum "Si O2"
_cell_formula_units_Z 64
_cell_length_a 11.314517
_cell_length_b 11.314517
_cell_length_c 24.746490
_cell_angle_alpha 90.000000
_cell_angle_beta 90.000000
_cell_angle_gamma 90.000000
_cell_volume 3168.003456
_symmetry_space_group_name_H-M "P -4 21 C"
_symmetry_group_IT_number 114
_symmetry_cell_setting 'tetragonal'
loop_
_space_group_symop_operation_xyz
x,y,z
y,-x,-z
-x,-y,z
-y,x,-z
1/2+x,1/2-y,1/2-z
1/2-x,1/2+y,1/2-z
1/2-y,1/2-x,1/2+z
1/2+y,1/2+x,1/2+z
loop_
_atom_site_type_symbol
_atom_site_label
_atom_site_fract_x
_atom_site_fract_y
_atom_site_fract_z
Si Si1 0.130385 0.528277 0.091749
Si Si2 0.117973 0.117562 0.782571
Si Si3 0.231128 0.226164 0.347237
Si Si4 0.022530 0.870130 0.337255
Si Si5 0.085960 0.192821 0.930668
Si Si6 0.714869 0.265171 0.903195
Si Si7 0.095086 0.880721 0.845280
Si Si8 0.607081 0.787237 0.500799
O O1 0.201630 0.607876 0.134364
O O2 0.200034 0.406877 0.083529
O O3 0.000000 0.500000 0.114889
O O4 0.118535 0.594751 0.034530
O O5 0.224091 0.208637 0.792652
O O6 0.987406 0.172541 0.796485
O O7 0.119608 0.081149 0.721123
O O8 0.134989 0.011294 0.826407
O O9 0.097239 0.201881 0.331947
O O10 0.231822 0.328871 0.391912
O O11 0.105537 0.803920 0.379185
O O12 0.000000 0.000000 0.360950
O O13 0.986891 0.117003 0.899124
O O14 0.018271 0.288432 0.968308
O O15 0.168703 0.104055 0.964361
O O16 0.788095 0.193764 0.857614
O O17 0.782201 0.281257 0.959178
#
# Coordination Sequence:
#
# PCOD8308904 Si02
#       8
#     8   8   8   8   8   8   8   8
#     4  11  22  39  62  90 127 163 212 264 312 374
#     4  10  21  39  68  93 121 161 206 263 325 379
#     4  10  23  42  62  91 127 162 210 261 316 382
#     4  12  24  42  63  88 126 173 211 258 311 385
#     4   9  20  38  63  95 127 160 208 263 327 385
#     4  11  24  40  62  91 127 171 213 257 315 385
#     4   9  19  39  64  93 125 157 204 267 328 372
#     4  10  22  38  62  92 125 166 210 261 318 381
#
# _framework density 20.201996000000001
#
# number of rings (size 3 to 8) (size 9 to 14) (size 15 to 20)
#    0.000    1.750    2.500    1.500    1.750   12.250 
#    0.000    5.000    0.000    1.500    0.000    0.000 
#    0.000    0.000    0.000    0.000    0.000    0.000 
#
# Total GULP energy -793433.196188 kJ/mol
# GULP energy per Si atom -12397.393690 kJ/mol
# Density = 2.015602 g / cm^3
# Si number density = 20.201996 Si / 1000 Ang^3
#
#
#
# Elastic Constant Matrix: (Units=GPa)
#
#
# Indices 1 2 3 4 5 6 
#
# 1 102.3759 36.8937 16.7251 0.0000 0.0000 0.0000
# 2 36.8937 102.3759 16.7251 0.0000 0.0000 0.0000
# 3 16.7251 16.7251 60.2458 0.0000 0.0000 0.0000
# 4 0.0000 0.0000 0.0000 22.4764 0.0000 0.0000
# 5 0.0000 0.0000 0.0000 0.0000 22.4764 0.0000
# 6 0.0000 0.0000 0.0000 0.0000 0.0000 33.4572
#
#
#
# Elastic Compliance Matrix: (Units=1/GPa)
#
#
# Indices 1 2 3 4 5 6 
#
# 1 0.011482 -0.003789 -0.002136 0.000000 0.000000 0.000000
# 2 -0.003789 0.011482 -0.002136 0.000000 0.000000 0.000000
# 3 -0.002136 -0.002136 0.017785 0.000000 0.000000 0.000000
# 4 0.000000 0.000000 0.000000 0.044491 0.000000 0.000000
# 5 0.000000 0.000000 0.000000 0.000000 0.044491 0.000000
# 6 0.000000 0.000000 0.000000 0.000000 0.000000 0.029889
#
#
# Mechanical properties :
#
#
# Convention : Reuss Voigt Hill
#
# Bulk Modulus (GPa) = 40.60415 45.07614 42.84015
# Shear Modulus (GPa) = 27.18119 28.65891 27.92005
#
# Velocity S-wave (km/s) = 3.67205 3.77054 3.72162
# Velocity P-wave (km/s) = 6.17424 6.42784 6.30232
#
# Compressibility (1/GPa) = 0.02462802
#
# Stress axis : x y z
#
# Youngs Moduli (GPa) = 87.09049 87.09049 56.22872
#
# Poissons Ratio (x) = 0.32999 0.12009
# Poissons Ratio (y) = 0.32999 0.12009
# Poissons Ratio (z) = 0.18601 0.18601
#
# Static dielectric constant tensor:
#      x y z
#    x 3.762550 0.000000 0.000000 
#    y 0.000000 3.762550 0.000000 
#    z 0.000000 0.000000 3.704550 
# 
# 
# High freq. dielectric constant tensor:
#      x y z
#    x 1.789620 0.000000 0.000000 
#    y 0.000000 1.789620 0.000000 
#    z 0.000000 0.000000 1.787710 
# 
# From -- ./inp_files/3555.got.cif
#   From: 2010.03.12/outbox.cif.g09.slc.cpg/sg114_2_cif.got.tgz:3555.got - 2010.04.14 02:08:34.
