data_PCOD8308336
_publ_section_title
;
Structure prediction by ZEFSAII (Michael W. Deem and Ramdas Pophale) SiO2 
 PCOD8308336
Probable space group: P -4 2 C
;
_chemical_formula_sum "Si O2"
_cell_formula_units_Z 40
_cell_length_a 9.745213
_cell_length_b 9.745213
_cell_length_c 22.822432
_cell_angle_alpha 90.000000
_cell_angle_beta 90.000000
_cell_angle_gamma 90.000000
_cell_volume 2167.427571
_symmetry_space_group_name_H-M "P -4 2 C"
_symmetry_group_IT_number 112
_symmetry_cell_setting 'tetragonal'
loop_
_space_group_symop_operation_xyz
x,y,z
y,-x,-z
-x,-y,z
-y,x,-z
x,-y,1/2-z
-x,y,1/2-z
-y,-x,1/2+z
y,x,1/2+z
loop_
_atom_site_type_symbol
_atom_site_label
_atom_site_fract_x
_atom_site_fract_y
_atom_site_fract_z
Si Si1 0.216946 0.350263 0.123403
Si Si2 0.239534 0.670600 0.121926
Si Si3 0.339008 0.510261 0.813871
Si Si4 0.838241 0.989452 0.819292
Si Si5 0.660296 0.348453 0.499379
O O1 0.192104 0.513286 0.135505
O O2 0.347422 0.294541 0.158000
O O3 0.095925 0.255479 0.145791
O O4 0.236297 0.323440 0.054240
O O5 0.390248 0.707483 0.143786
O O6 0.242356 0.694931 0.051772
O O7 0.153030 0.783070 0.156277
O O8 0.500000 0.500000 0.806363
O O9 0.268120 0.500000 0.750000
O O10 0.811765 0.000000 0.750000
O O11 0.000000 0.000000 0.833838
O O12 0.504509 0.325268 0.477404
#
# Coordination Sequence:
#
# PCOD8308336 Si02
#       5
#     8   8   8   8   8
#     4  10  19  35  60  88 113 149 191 239 287 342
#     4  10  19  35  60  88 113 149 191 239 287 342
#     4   9  16  28  53  89 115 135 178 239 293 337
#     4  11  25  43  57  77 117 161 200 241 286 335
#     4   9  16  32  59  90 122 144 179 234 297 350
#
# _framework density 18.455057
#
# number of rings (size 3 to 8) (size 9 to 14) (size 15 to 20)
#    0.000    2.200    2.000    1.800    0.000    3.200 
#    3.600    1.000    0.000    3.600    0.000    0.000 
#    0.000    0.000    0.000    0.000    0.000    0.000 
#
# Total GULP energy -495720.937806 kJ/mol
# GULP energy per Si atom -12393.023445 kJ/mol
# Density = 1.841305 g / cm^3
# Si number density = 18.455057 Si / 1000 Ang^3
#
#
#
# Elastic Constant Matrix: (Units=GPa)
#
#
# Indices 1 2 3 4 5 6 
#
# 1 53.1490 14.2216 30.1188 0.0000 0.0000 0.0000
# 2 14.2216 53.1490 30.1188 0.0000 0.0000 0.0000
# 3 30.1188 30.1188 110.3716 0.0000 0.0000 0.0000
# 4 0.0000 0.0000 0.0000 23.0077 0.0000 0.0000
# 5 0.0000 0.0000 0.0000 0.0000 23.0077 0.0000
# 6 0.0000 0.0000 0.0000 0.0000 0.0000 21.9098
#
#
#
# Elastic Compliance Matrix: (Units=1/GPa)
#
#
# Indices 1 2 3 4 5 6 
#
# 1 0.022661 -0.003028 -0.005358 0.000000 0.000000 0.000000
# 2 -0.003028 0.022661 -0.005358 0.000000 0.000000 0.000000
# 3 -0.005358 -0.005358 0.011984 0.000000 0.000000 0.000000
# 4 0.000000 0.000000 0.000000 0.043464 0.000000 0.000000
# 5 0.000000 0.000000 0.000000 0.000000 0.043464 0.000000
# 6 0.000000 0.000000 0.000000 0.000000 0.000000 0.045642
#
#
# Mechanical properties :
#
#
# Convention : Reuss Voigt Hill
#
# Bulk Modulus (GPa) = 33.53357 40.62090 37.07724
# Shear Modulus (GPa) = 21.99712 23.06574 22.53143
#
# Velocity S-wave (km/s) = 3.45618 3.53913 3.49790
# Velocity P-wave (km/s) = 5.84266 6.22568 6.03721
#
# Compressibility (1/GPa) = 0.02982086
#
# Stress axis : x y z
#
# Youngs Moduli (GPa) = 44.12810 44.12810 83.44171
#
# Poissons Ratio (x) = 0.13360 0.44706
# Poissons Ratio (y) = 0.13360 0.44706
# Poissons Ratio (z) = 0.23643 0.23643
#
# Static dielectric constant tensor:
#      x y z
#    x 3.153070 0.000000 0.000000 
#    y 0.000000 3.153070 0.000000 
#    z 0.000000 0.000000 3.616350 
# 
# 
# High freq. dielectric constant tensor:
#      x y z
#    x 1.693670 0.000000 0.000000 
#    y 0.000000 1.693670 0.000000 
#    z 0.000000 0.000000 1.734300 
# 
# From -- ./inp_files/5325.got.cif
#   From: 2010.03.12/outbox.cif.g09.slc.cpg/sg112_3_cif.got.tgz:5325.got - 2010.04.14 02:02:48.
