data_PCOD8308093
_publ_section_title
;
Structure prediction by ZEFSAII (Michael W. Deem and Ramdas Pophale) SiO2 
 PCOD8308093
Probable space group: P -4 2 M 
;
_chemical_formula_sum "Si O2"
_cell_formula_units_Z 48
_cell_length_a 19.294080
_cell_length_b 19.294080
_cell_length_c 8.697984
_cell_angle_alpha 90.000000
_cell_angle_beta 90.000000
_cell_angle_gamma 90.000000
_cell_volume 3237.924771
_symmetry_space_group_name_H-M "P -4 2 M "
_symmetry_group_IT_number 111
_symmetry_cell_setting 'tetragonal'
loop_
_space_group_symop_operation_xyz
x,y,z
y,-x,-z
-x,-y,z
-y,x,-z
x,-y,-z
-x,y,-z
-y,-x,z
y,x,z
loop_
_atom_site_type_symbol
_atom_site_label
_atom_site_fract_x
_atom_site_fract_y
_atom_site_fract_z
Si Si1 0.600306 0.109189 0.070367
Si Si2 0.099875 0.337147 0.387730
Si Si3 0.947424 0.702985 0.698888
Si Si4 0.925696 0.529086 0.228122
Si Si5 0.823682 0.286781 0.897052
Si Si6 0.925207 0.185644 0.070008
O O1 0.650626 0.058572 0.160308
O O2 0.534193 0.127189 0.181846
O O3 0.576054 0.064949 0.923161
O O4 0.643632 0.175770 0.004888
O O5 0.109325 0.318475 0.567755
O O6 0.100934 0.421297 0.366016
O O7 0.159732 0.304576 0.281096
O O8 0.026352 0.302296 0.351738
O O9 0.930867 0.779840 0.760727
O O10 0.000000 0.500000 0.278691
O O11 0.747657 0.252344 0.906705
O O12 0.882291 0.234259 0.954613
O O13 0.887683 0.112318 0.091898
O O14 0.000000 0.171337 0.000000
#
# Coordination Sequence:
#
# PCOD8308093 Si02
#       6
#     8   8   8   8   8   8
#     4   9  17  26  42  58  86 110 142 174 204 256
#     4  10  19  28  42  61  87 112 136 171 215 276
#     4  10  19  29  40  61  86 110 134 171 219 273
#     4  10  17  25  41  63  85 119 140 164 216 260
#     4   9  18  30  46  61  77 108 144 180 220 266
#     4  10  19  32  49  62  75  99 139 189 240 283
#
# _framework density 14.824310000000001
#
# number of rings (size 3 to 8) (size 9 to 14) (size 15 to 20)
#    0.000    2.333    3.333    1.000    2.333    1.500 
#    0.000    0.000    0.000    0.000    0.000    0.000 
#    0.000    0.000    0.000    0.000    0.000  106.667 
#
# Total GULP energy -594639.399540 kJ/mol
# GULP energy per Si atom -12388.320824 kJ/mol
# Density = 1.479057 g / cm^3
# Si number density = 14.824310 Si / 1000 Ang^3
#
#
#
# Elastic Constant Matrix: (Units=GPa)
#
#
# Indices 1 2 3 4 5 6 
#
# 1 73.2764 39.4459 29.0386 0.0000 0.0000 0.0000
# 2 39.4459 73.2762 29.0381 0.0000 0.0000 0.0000
# 3 29.0386 29.0381 60.7683 0.0000 0.0000 0.0000
# 4 0.0000 0.0000 0.0000 15.2986 0.0000 0.0000
# 5 0.0000 0.0000 0.0000 0.0000 15.2989 0.0000
# 6 0.0000 0.0000 0.0000 0.0000 0.0000 19.2704
#
#
#
# Elastic Compliance Matrix: (Units=1/GPa)
#
#
# Indices 1 2 3 4 5 6 
#
# 1 0.020664 -0.008895 -0.005624 0.000000 0.000000 0.000000
# 2 -0.008895 0.020664 -0.005624 0.000000 0.000000 0.000000
# 3 -0.005624 -0.005624 0.021831 0.000000 0.000000 0.000000
# 4 0.000000 0.000000 0.000000 0.065365 0.000000 0.000000
# 5 0.000000 0.000000 0.000000 0.000000 0.065364 0.000000
# 6 0.000000 0.000000 0.000000 0.000000 0.000000 0.051893
#
#
# Mechanical properties :
#
#
# Convention : Reuss Voigt Hill
#
# Bulk Modulus (GPa) = 43.71928 44.70733 44.21330
# Shear Modulus (GPa) = 17.02470 17.29349 17.15909
#
# Velocity S-wave (km/s) = 3.39253 3.41920 3.40589
# Velocity P-wave (km/s) = 6.70084 6.76842 6.73472
#
# Compressibility (1/GPa) = 0.02287320
#
# Stress axis : x y z
#
# Youngs Moduli (GPa) = 48.39321 48.39343 45.80724
#
# Poissons Ratio (x) = 0.43047 0.25762
# Poissons Ratio (y) = 0.43047 0.25760
# Poissons Ratio (z) = 0.27216 0.27215
#
# Static dielectric constant tensor:
#      x y z
#    x 2.831800 0.000000 0.000000 
#    y 0.000000 2.831800 0.000000 
#    z 0.000000 0.000000 3.177300 
# 
# 
# High freq. dielectric constant tensor:
#      x y z
#    x 1.534350 0.000000 0.000000 
#    y 0.000000 1.534350 0.000000 
#    z 0.000000 0.000000 1.575150 
# 
# From -- ./inp_files/1907.got.cif
#   From: 2010.03.12/outbox.cif.g09.slc.cpg/sg111_1_cif.got.tgz:1907.got - 2010.04.14 01:59:48.
