data_PCOD8308042
_publ_section_title
;
Structure prediction by ZEFSAII (Michael W. Deem and Ramdas Pophale) SiO2 
 PCOD8308042
Probable space group: I 41 C D
;
_chemical_formula_sum "Si O2"
_cell_formula_units_Z 120
_cell_length_a 24.344897
_cell_length_b 24.344897
_cell_length_c 10.442129
_cell_angle_alpha 90.000000
_cell_angle_beta 90.000000
_cell_angle_gamma 90.000000
_cell_volume 6188.778467
_symmetry_space_group_name_H-M "I 41 C D"
_symmetry_group_IT_number 110
_symmetry_cell_setting 'tetragonal'
loop_
_space_group_symop_operation_xyz
x,y,z
-y,1/2+x,1/4+z
-x,-y,z
y,1/2-x,1/4+z
-x,y,1/2+z
x,-y,1/2+z
1/2-y,-x,1/4+z
1/2+y,x,1/4+z
1/2+x,1/2+y,1/2+z
1/2-y,x,3/4+z
1/2-x,1/2-y,1/2+z
1/2+y,-x,3/4+z
1/2-x,1/2+y,z
1/2+x,1/2-y,z
-y,1/2-x,3/4+z
y,1/2+x,3/4+z
loop_
_atom_site_type_symbol
_atom_site_label
_atom_site_fract_x
_atom_site_fract_y
_atom_site_fract_z
Si Si1 0.885571 0.719890 0.840350
Si Si2 0.000000 0.500000 0.556794
Si Si3 0.128145 0.837842 0.249036
Si Si4 0.587217 0.073173 0.446979
Si Si5 0.601639 0.441338 0.921329
Si Si6 0.665451 0.448986 0.360397
Si Si7 0.185480 0.506274 0.440066
Si Si8 0.992981 0.747858 0.944351
O O1 0.859386 0.781082 0.826075
O O2 0.841543 0.675414 0.890114
O O3 0.913906 0.701449 0.708019
O O4 0.932584 0.721456 0.948155
O O5 0.969137 0.540298 0.460756
O O6 0.958882 0.461521 0.640028
O O7 0.126235 0.893413 0.332197
O O8 0.069054 0.833374 0.183124
O O9 0.586887 0.101803 0.309769
O O10 0.590651 0.117884 0.559954
O O11 0.636291 0.032811 0.475817
O O12 0.641156 0.494874 0.921898
O O13 0.702885 0.462793 0.237006
O O14 0.203794 0.490876 0.297850
O O15 0.231329 0.495718 0.549464
#
# Coordination Sequence:
#
# PCOD8308042 Si02
#       8
#    16   8  16  16  16  16  16  16
#     4  11  24  42  68  92 123 175 221 275 326 390
#     4  10  22  34  54  88 132 172 194 248 314 406
#     4  11  23  42  69  87 124 174 223 268 327 383
#     4  11  23  35  56  91 130 159 206 257 325 388
#     4  11  22  38  58  93 129 170 205 255 326 396
#     4  11  23  37  62  95 126 166 210 264 324 401
#     4  11  24  38  66  92 126 165 215 268 320 388
#     4  11  21  42  62  93 120 168 215 260 317 393
#
# _framework density 19.389934
#
# number of rings (size 3 to 8) (size 9 to 14) (size 15 to 20)
#    0.000    1.067    5.333    2.800    3.733    1.067 
#    0.000    0.000    5.867    0.000    0.000    0.000 
#    0.000    0.000    0.000    0.000    0.000    0.000 
#
# Total GULP energy -743719.189336 kJ/mol
# GULP energy per Si atom -12395.319822 kJ/mol
# Density = 1.934580 g / cm^3
# Si number density = 19.389934 Si / 1000 Ang^3
#
#
#
# Elastic Constant Matrix: (Units=GPa)
#
#
# Indices 1 2 3 4 5 6 
#
# 1 89.2946 38.3580 16.9646 0.0000 0.0000 0.0000
# 2 38.3580 89.2946 16.9646 0.0000 0.0000 0.0000
# 3 16.9646 16.9646 51.1031 0.0000 0.0000 0.0000
# 4 0.0000 0.0000 0.0000 -17.7842 0.0000 0.0000
# 5 0.0000 0.0000 0.0000 0.0000 -17.7842 0.0000
# 6 0.0000 0.0000 0.0000 0.0000 0.0000 23.4442
#
#
#
# Elastic Compliance Matrix: (Units=1/GPa)
#
#
# Indices 1 2 3 4 5 6 
#
# 1 0.014112 -0.005520 -0.002852 0.000000 0.000000 0.000000
# 2 -0.005520 0.014112 -0.002852 0.000000 0.000000 0.000000
# 3 -0.002852 -0.002852 0.021462 0.000000 0.000000 0.000000
# 4 0.000000 0.000000 0.000000 -0.056230 0.000000 0.000000
# 5 0.000000 0.000000 0.000000 0.000000 -0.056230 0.000000
# 6 0.000000 0.000000 0.000000 0.000000 0.000000 0.042655
#
#
# Mechanical properties :
#
#
# Convention : Reuss Voigt Hill
#
# Bulk Modulus (GPa) = 36.71501 41.58518 39.15010
# Shear Modulus (GPa) = 438.23447 8.06883 223.15165
#
# Velocity S-wave (km/s) = 15.04998 2.04215 10.73947
# Velocity P-wave (km/s) = 17.91588 5.20133 13.19153
#
# Compressibility (1/GPa) = 0.02723682
#
# Stress axis : x y z
#
# Youngs Moduli (GPa) = 70.86135 70.86135 46.59404
#
# Poissons Ratio (x) = 0.39117 0.13290
# Poissons Ratio (y) = 0.39117 0.13290
# Poissons Ratio (z) = 0.20211 0.20211
#
# Static dielectric constant tensor:
#      x y z
#    x 3.648570 0.000000 0.000000 
#    y 0.000000 3.648570 0.000000 
#    z 0.000000 0.000000 3.431810 
# 
# 
# High freq. dielectric constant tensor:
#      x y z
#    x 1.752190 0.000000 0.000000 
#    y 0.000000 1.752190 0.000000 
#    z 0.000000 0.000000 1.754510 
# 
# From -- ./inp_files/556.got.cif
#   From: 2010.03.12/outbox.cif.g09.slc.cpg/sg110_1_cif.got.tgz:556.got - 2010.04.14 01:58:01.
