data_PCOD8308888
_publ_section_title
;
Structure prediction by ZEFSAII (Michael W. Deem and Ramdas Pophale) SiO2 
 PCOD8308888
Probable space group: P -4 21 C
;
_chemical_formula_sum "Si O2"
_cell_formula_units_Z 40
_cell_length_a 8.875388
_cell_length_b 8.875388
_cell_length_c 25.207075
_cell_angle_alpha 90.000000
_cell_angle_beta 90.000000
_cell_angle_gamma 90.000000
_cell_volume 1985.624622
_symmetry_space_group_name_H-M "P -4 21 C"
_symmetry_group_IT_number 114
_symmetry_cell_setting 'tetragonal'
loop_
_space_group_symop_operation_xyz
x,y,z
y,-x,-z
-x,-y,z
-y,x,-z
1/2+x,1/2-y,1/2-z
1/2-x,1/2+y,1/2-z
1/2-y,1/2-x,1/2+z
1/2+y,1/2+x,1/2+z
loop_
_atom_site_type_symbol
_atom_site_label
_atom_site_fract_x
_atom_site_fract_y
_atom_site_fract_z
Si Si1 0.189156 0.653339 0.695146
Si Si2 0.309135 0.657025 0.897036
Si Si3 0.661430 0.186619 0.790419
Si Si4 0.160027 0.812459 0.992134
Si Si5 0.688334 0.342131 0.089034
O O1 0.292143 0.751122 0.733602
O O2 0.231192 0.478441 0.700570
O O3 0.222333 0.703812 0.634992
O O4 0.017566 0.683862 0.709790
O O5 0.276803 0.705020 0.836607
O O6 0.191918 0.746130 0.933953
O O7 0.283146 0.479306 0.900261
O O8 0.477953 0.699717 0.914064
O O9 0.259446 0.718517 0.032853
O O10 0.985768 0.791000 0.006111
#
# Coordination Sequence:
#
# PCOD8308888 Si02
#       5
#     8   8   8   8   8
#     4  10  21  37  58  84 114 149 188 230 278 331
#     4  10  21  38  60  84 110 144 186 230 278 332
#     4  10  21  37  58  84 114 149 188 230 278 331
#     4  11  24  39  56  82 114 147 184 227 276 330
#     4  10  21  38  60  84 110 144 186 230 278 332
#
# _framework density 20.144795999999999
#
# number of rings (size 3 to 8) (size 9 to 14) (size 15 to 20)
#    0.000    1.800    0.000    3.600    0.000   10.400 
#    0.000    0.000    0.000    0.000    0.000    0.000 
#    0.000    0.000    0.000    0.000    0.000    0.000 
#
# Total GULP energy -496267.300617 kJ/mol
# GULP energy per Si atom -12406.682515 kJ/mol
# Density = 2.009895 g / cm^3
# Si number density = 20.144796 Si / 1000 Ang^3
#
#
#
# Elastic Constant Matrix: (Units=GPa)
#
#
# Indices 1 2 3 4 5 6 
#
# 1 60.9317 10.4675 4.7303 0.0000 0.0000 0.0000
# 2 10.4675 60.9317 4.7303 0.0000 0.0000 0.0000
# 3 4.7303 4.7303 65.7557 0.0000 0.0000 0.0000
# 4 0.0000 0.0000 0.0000 39.5651 0.0000 0.0000
# 5 0.0000 0.0000 0.0000 0.0000 39.5651 0.0000
# 6 0.0000 0.0000 0.0000 0.0000 0.0000 26.9607
#
#
#
# Elastic Compliance Matrix: (Units=1/GPa)
#
#
# Indices 1 2 3 4 5 6 
#
# 1 0.016978 -0.002838 -0.001017 0.000000 0.000000 0.000000
# 2 -0.002838 0.016978 -0.001017 0.000000 0.000000 0.000000
# 3 -0.001017 -0.001017 0.015354 0.000000 0.000000 0.000000
# 4 0.000000 0.000000 0.000000 0.025275 0.000000 0.000000
# 5 0.000000 0.000000 0.000000 0.000000 0.025275 0.000000
# 6 0.000000 0.000000 0.000000 0.000000 0.000000 0.037091
#
#
# Mechanical properties :
#
#
# Convention : Reuss Voigt Hill
#
# Bulk Modulus (GPa) = 25.27404 25.27504 25.27454
# Shear Modulus (GPa) = 31.27259 32.39761 31.83510
#
# Velocity S-wave (km/s) = 3.94431 4.01463 3.97963
# Velocity P-wave (km/s) = 5.77208 5.83641 5.80433
#
# Compressibility (1/GPa) = 0.03956630
#
# Stress axis : x y z
#
# Youngs Moduli (GPa) = 58.89877 58.89877 65.12897
#
# Poissons Ratio (x) = 0.16714 0.06625
# Poissons Ratio (y) = 0.16714 0.06625
# Poissons Ratio (z) = 0.05991 0.05991
#
# Static dielectric constant tensor:
#      x y z
#    x 3.657160 0.000000 0.000000 
#    y 0.000000 3.657160 0.000000 
#    z 0.000000 0.000000 3.654030 
# 
# 
# High freq. dielectric constant tensor:
#      x y z
#    x 1.787250 0.000000 0.000000 
#    y 0.000000 1.787250 0.000000 
#    z 0.000000 0.000000 1.798130 
# 
# From -- ./inp_files/3339.got.cif
#   From: 2010.03.12/outbox.cif.g09.slc.cpg/sg114_2_cif.got.tgz:3339.got - 2010.04.14 02:08:34.
