data_PCOD8308094
_publ_section_title
;
Structure prediction by ZEFSAII (Michael W. Deem and Ramdas Pophale) SiO2 
 PCOD8308094
Probable space group: P -4 2 M 
;
_chemical_formula_sum "Si O2"
_cell_formula_units_Z 56
_cell_length_a 27.615749
_cell_length_b 27.615749
_cell_length_c 5.096869
_cell_angle_alpha 90.000000
_cell_angle_beta 90.000000
_cell_angle_gamma 90.000000
_cell_volume 3887.023130
_symmetry_space_group_name_H-M "P -4 2 M "
_symmetry_group_IT_number 111
_symmetry_cell_setting 'tetragonal'
loop_
_space_group_symop_operation_xyz
x,y,z
y,-x,-z
-x,-y,z
-y,x,-z
x,-y,-z
-x,y,-z
-y,-x,z
y,x,z
loop_
_atom_site_type_symbol
_atom_site_label
_atom_site_fract_x
_atom_site_fract_y
_atom_site_fract_z
Si Si1 0.697632 0.775837 0.101967
Si Si2 0.553207 0.368373 0.030585
Si Si3 0.968636 0.110987 0.258387
Si Si4 0.812626 0.106091 0.391662
Si Si5 0.693196 0.554167 0.470700
Si Si6 0.346049 0.266418 0.615769
Si Si7 0.146367 0.771893 0.889522
O O1 0.741579 0.741579 0.015243
O O2 0.679086 0.764280 0.389891
O O3 0.717867 0.830707 0.109630
O O4 0.656745 0.765522 0.881810
O O5 0.590884 0.409117 0.956936
O O6 0.561392 0.323951 0.828906
O O7 0.500000 0.390840 0.000000
O O8 0.559183 0.351594 0.329566
O O9 0.927822 0.072179 0.180998
O O10 0.945734 0.161706 0.355971
O O11 0.000000 0.090287 0.500000
O O12 0.000000 0.120636 0.000000
O O13 0.853819 0.146182 0.404570
O O14 0.779770 0.108553 0.652017
O O15 0.776777 0.115585 0.151920
O O16 0.716627 0.500000 0.500000
O O17 0.729701 0.597246 0.544281
O O18 0.319218 0.319218 0.643689
O O19 0.188682 0.811319 0.866525
#
# Coordination Sequence:
#
# PCOD8308094 Si02
#       7
#     8   8   8   8   8   8   8
#     4   9  17  25  38  60  79  95 113 141 185 236
#     4  10  19  30  42  54  66  83 111 148 191 235
#     4  11  22  34  46  61  80 105 143 185 226 262
#     4   9  17  28  43  58  75 102 128 158 200 245
#     4  10  20  31  42  54  70  95 124 150 180 224
#     4  10  17  26  39  55  75  95 117 148 189 228
#     4   9  15  26  41  58  79  97 118 146 187 244
#
# _framework density 14.406910999999999
#
# number of rings (size 3 to 8) (size 9 to 14) (size 15 to 20)
#    0.000    2.286    0.000    4.286    0.000    7.857 
#    0.000    0.000    0.000    2.571    0.000    0.000 
#    0.000    0.000    0.000    0.000    0.000    0.000 
#
# Total GULP energy -694186.764954 kJ/mol
# GULP energy per Si atom -12396.192231 kJ/mol
# Density = 1.437412 g / cm^3
# Si number density = 14.406911 Si / 1000 Ang^3
#
#
#
# Elastic Constant Matrix: (Units=GPa)
#
#
# Indices 1 2 3 4 5 6 
#
# 1 39.4654 32.4567 8.3361 0.0000 0.0000 0.0000
# 2 32.4567 39.4655 8.3348 0.0000 0.0000 0.0000
# 3 8.3361 8.3348 70.6626 0.0000 0.0000 0.0000
# 4 0.0000 0.0000 0.0000 18.5706 0.0000 0.0000
# 5 0.0000 0.0000 0.0000 0.0000 18.5701 0.0000
# 6 0.0000 0.0000 0.0000 0.0000 0.0000 14.7378
#
#
#
# Elastic Compliance Matrix: (Units=1/GPa)
#
#
# Indices 1 2 3 4 5 6 
#
# 1 0.078487 -0.064192 -0.001688 0.000000 0.000000 0.000000
# 2 -0.064192 0.078486 -0.001685 0.000000 0.000000 0.000000
# 3 -0.001688 -0.001685 0.014550 0.000000 0.000000 0.000000
# 4 0.000000 0.000000 0.000000 0.053849 0.000000 0.000000
# 5 0.000000 0.000000 0.000000 0.000000 0.053850 0.000000
# 6 0.000000 0.000000 0.000000 0.000000 0.000000 0.067853
#
#
# Mechanical properties :
#
#
# Convention : Reuss Voigt Hill
#
# Bulk Modulus (GPa) = 27.47687 27.53872 27.50780
# Shear Modulus (GPa) = 10.11460 17.07342 13.59401
#
# Velocity S-wave (km/s) = 2.65253 3.44624 3.07510
# Velocity P-wave (km/s) = 5.33803 5.91539 5.63411
#
# Compressibility (1/GPa) = 0.03639424
#
# Stress axis : x y z
#
# Youngs Moduli (GPa) = 12.74093 12.74107 68.73055
#
# Poissons Ratio (x) = 0.81787 0.11599
# Poissons Ratio (y) = 0.81787 0.11580
# Poissons Ratio (z) = 0.02150 0.02147
#
# Static dielectric constant tensor:
#      x y z
#    x 2.651740 0.000000 0.000000 
#    y 0.000000 2.651740 0.000000 
#    z 0.000000 0.000000 3.040910 
# 
# 
# High freq. dielectric constant tensor:
#      x y z
#    x 1.511180 0.000000 0.000000 
#    y 0.000000 1.511180 0.000000 
#    z 0.000000 0.000000 1.578310 
# 
# From -- ./inp_files/768.got.cif
#   From: 2010.03.12/outbox.cif.g09.slc.cpg/sg111_1_cif.got.tgz:768.got - 2010.04.14 01:59:48.
