data_PCOD8308769
_publ_section_title
;
Structure prediction by ZEFSAII (Michael W. Deem and Ramdas Pophale) SiO2 
 PCOD8308769
Probable space group: P -4 21 M 
;
_chemical_formula_sum "Si O2"
_cell_formula_units_Z 64
_cell_length_a 20.587973
_cell_length_b 20.587973
_cell_length_c 8.737486
_cell_angle_alpha 90.000000
_cell_angle_beta 90.000000
_cell_angle_gamma 90.000000
_cell_volume 3703.511290
_symmetry_space_group_name_H-M "P -4 21 M "
_symmetry_group_IT_number 113
_symmetry_cell_setting 'tetragonal'
loop_
_space_group_symop_operation_xyz
x,y,z
y,-x,-z
-x,-y,z
-y,x,-z
1/2+x,1/2-y,-z
1/2-x,1/2+y,-z
1/2-y,1/2-x,z
1/2+y,1/2+x,z
loop_
_atom_site_type_symbol
_atom_site_label
_atom_site_fract_x
_atom_site_fract_y
_atom_site_fract_z
Si Si1 0.477847 0.400594 0.020833
Si Si2 0.926465 0.143487 0.659388
Si Si3 0.278306 0.674525 0.825227
Si Si4 0.662397 0.266113 0.297408
Si Si5 0.942805 0.824889 0.487058
Si Si6 0.363578 0.240607 0.843645
Si Si7 0.123981 0.273739 0.032129
Si Si8 0.503059 0.273600 0.822331
O O1 0.440813 0.385584 0.175820
O O2 0.431947 0.452766 0.934553
O O3 0.485179 0.339189 0.911888
O O4 0.874698 0.201993 0.688438
O O5 0.895174 0.088508 0.550203
O O6 0.992341 0.168676 0.585750
O O7 0.220438 0.720438 0.763080
O O8 0.340117 0.717371 0.873050
O O9 0.254809 0.636060 0.975190
O O10 0.712155 0.212155 0.362785
O O11 0.608969 0.280872 0.424291
O O12 0.701126 0.330900 0.251092
O O13 0.627104 0.238887 0.147883
O O14 0.959530 0.788004 0.332675
O O15 0.326417 0.173584 0.809476
O O16 0.437386 0.234141 0.787019
O O17 0.156954 0.343047 0.070124
O O18 0.048570 0.273448 0.077190
#
# Coordination Sequence:
#
# PCOD8308769 Si02
#       8
#     8   8   8   8   8   8   8   8
#     4  11  23  36  54  71 102 154 197 225 264 313
#     4  12  24  37  48  78 114 151 188 228 274 329
#     4   9  17  35  59  80 101 135 191 241 276 314
#     4   9  20  39  58  78 111 147 185 233 279 325
#     4  12  26  34  50  80 116 155 184 222 279 336
#     4   9  19  35  60  84 104 139 185 236 284 323
#     4   9  18  35  60  85 103 136 187 236 278 318
#     4  12  21  36  57  83 111 142 188 234 272 331
#
# _framework density 17.280897
#
# number of rings (size 3 to 8) (size 9 to 14) (size 15 to 20)
#    0.000    1.625    3.750    3.000    5.250    1.250 
#    0.000    0.625    0.000    0.375    0.000    0.000 
#    0.000    1.500    0.000    0.000    0.000    0.000 
#
# Total GULP energy -793604.626745 kJ/mol
# GULP energy per Si atom -12400.072293 kJ/mol
# Density = 1.724157 g / cm^3
# Si number density = 17.280897 Si / 1000 Ang^3
#
#
#
# Elastic Constant Matrix: (Units=GPa)
#
#
# Indices 1 2 3 4 5 6 
#
# 1 95.1153 52.4919 38.8653 0.0000 0.0000 0.0000
# 2 52.4919 95.1134 38.8645 0.0000 0.0000 0.0000
# 3 38.8653 38.8645 64.0280 0.0000 0.0000 0.0000
# 4 0.0000 0.0000 0.0000 29.1080 0.0000 0.0000
# 5 0.0000 0.0000 0.0000 0.0000 29.1077 0.0000
# 6 0.0000 0.0000 0.0000 0.0000 0.0000 25.0835
#
#
#
# Elastic Compliance Matrix: (Units=1/GPa)
#
#
# Indices 1 2 3 4 5 6 
#
# 1 0.016710 -0.006752 -0.006044 0.000000 0.000000 0.000000
# 2 -0.006752 0.016710 -0.006044 0.000000 0.000000 0.000000
# 3 -0.006044 -0.006044 0.022956 0.000000 0.000000 0.000000
# 4 0.000000 0.000000 0.000000 0.034355 0.000000 0.000000
# 5 0.000000 0.000000 0.000000 0.000000 0.034355 0.000000
# 6 0.000000 0.000000 0.000000 0.000000 0.000000 0.039867
#
#
# Mechanical properties :
#
#
# Convention : Reuss Voigt Hill
#
# Bulk Modulus (GPa) = 53.49274 57.18888 55.34081
# Shear Modulus (GPa) = 23.93888 24.92883 24.43385
#
# Velocity S-wave (km/s) = 3.72597 3.80223 3.76430
# Velocity P-wave (km/s) = 7.03794 7.24165 7.14052
#
# Compressibility (1/GPa) = 0.01869413
#
# Stress axis : x y z
#
# Youngs Moduli (GPa) = 59.84558 59.84477 43.56161
#
# Poissons Ratio (x) = 0.40407 0.26330
# Poissons Ratio (y) = 0.40408 0.26330
# Poissons Ratio (z) = 0.36173 0.36172
#
# Static dielectric constant tensor:
#      x y z
#    x 3.244830 0.000000 0.000000 
#    y 0.000000 3.244830 0.000000 
#    z 0.000000 0.000000 3.224290 
# 
# 
# High freq. dielectric constant tensor:
#      x y z
#    x 1.654720 0.000000 0.000000 
#    y 0.000000 1.654720 0.000000 
#    z 0.000000 0.000000 1.667570 
# 
# From -- ./inp_files/1374.got.cif
#   From: 2010.03.12/outbox.cif.g09.slc.cpg/sg113_cif.got.tgz:1374.got - 2010.04.14 02:06:34.
