data_PCOD8308072
_publ_section_title
;
Structure prediction by ZEFSAII (Michael W. Deem and Ramdas Pophale) SiO2 
 PCOD8308072
Probable space group: I 41 C D
;
_chemical_formula_sum "Si O2"
_cell_formula_units_Z 96
_cell_length_a 14.271455
_cell_length_b 14.271455
_cell_length_c 19.813979
_cell_angle_alpha 90.000000
_cell_angle_beta 90.000000
_cell_angle_gamma 90.000000
_cell_volume 4035.600836
_symmetry_space_group_name_H-M "I 41 C D"
_symmetry_group_IT_number 110
_symmetry_cell_setting 'tetragonal'
loop_
_space_group_symop_operation_xyz
x,y,z
-y,1/2+x,1/4+z
-x,-y,z
y,1/2-x,1/4+z
-x,y,1/2+z
x,-y,1/2+z
1/2-y,-x,1/4+z
1/2+y,x,1/4+z
1/2+x,1/2+y,1/2+z
1/2-y,x,3/4+z
1/2-x,1/2-y,1/2+z
1/2+y,-x,3/4+z
1/2-x,1/2+y,z
1/2+x,1/2-y,z
-y,1/2-x,3/4+z
y,1/2+x,3/4+z
loop_
_atom_site_type_symbol
_atom_site_label
_atom_site_fract_x
_atom_site_fract_y
_atom_site_fract_z
Si Si1 0.747835 0.157641 0.891380
Si Si2 0.716709 0.246961 0.263818
Si Si3 0.509296 0.110016 0.677397
Si Si4 0.887426 0.642770 0.057904
Si Si5 0.991175 0.277091 0.806190
Si Si6 0.544179 0.098059 0.924470
O O1 0.726626 0.183508 0.814016
O O2 0.657681 0.097935 0.914976
O O3 0.845631 0.101825 0.894472
O O4 0.763770 0.252404 0.936366
O O5 0.753084 0.143654 0.284930
O O6 0.608454 0.262966 0.281503
O O7 0.421351 0.150306 0.634981
O O8 0.510429 0.137113 0.755410
O O9 0.500000 0.000000 0.668218
O O10 0.803221 0.568187 0.050423
O O11 0.970716 0.614240 0.005142
O O12 0.993341 0.319935 0.881658
O O13 0.500000 0.000000 0.901950
#
# Coordination Sequence:
#
# PCOD8308072 Si02
#       6
#    16  16  16  16  16  16
#     4  11  23  47  68 104 150 187 244 311 377 450
#     4  11  24  43  72  99 141 189 235 305 371 443
#     4  12  25  45  72 105 150 197 248 312 380 462
#     4  11  25  47  69 107 152 190 249 317 383 455
#     4  12  25  44  75 108 143 195 256 306 383 460
#     4  11  24  44  70 102 144 192 249 309 371 463
#
# _framework density 23.78828
#
# number of rings (size 3 to 8) (size 9 to 14) (size 15 to 20)
#    0.000    0.667    5.000    3.000    4.667    2.667 
#    0.000    0.000    0.000    0.000    0.000    0.000 
#    0.000    0.000    0.000    0.000    0.000    0.000 
#
# Total GULP energy -594819.956873 kJ/mol
# GULP energy per Si atom -12392.082435 kJ/mol
# Density = 2.373414 g / cm^3
# Si number density = 23.788280 Si / 1000 Ang^3
#
#
#
# Elastic Constant Matrix: (Units=GPa)
#
#
# Indices 1 2 3 4 5 6 
#
# 1 84.5361 24.8922 21.9400 0.0000 0.0000 0.0000
# 2 24.8922 84.5361 21.9400 0.0000 0.0000 0.0000
# 3 21.9400 21.9400 76.2576 0.0000 0.0000 0.0000
# 4 0.0000 0.0000 0.0000 35.7153 0.0000 0.0000
# 5 0.0000 0.0000 0.0000 0.0000 35.7153 0.0000
# 6 0.0000 0.0000 0.0000 0.0000 0.0000 28.9208
#
#
#
# Elastic Compliance Matrix: (Units=1/GPa)
#
#
# Indices 1 2 3 4 5 6 
#
# 1 0.013548 -0.003218 -0.002972 0.000000 0.000000 0.000000
# 2 -0.003218 0.013548 -0.002972 0.000000 0.000000 0.000000
# 3 -0.002972 -0.002972 0.014824 0.000000 0.000000 0.000000
# 4 0.000000 0.000000 0.000000 0.027999 0.000000 0.000000
# 5 0.000000 0.000000 0.000000 0.000000 0.027999 0.000000
# 6 0.000000 0.000000 0.000000 0.000000 0.000000 0.034577
#
#
# Mechanical properties :
#
#
# Convention : Reuss Voigt Hill
#
# Bulk Modulus (GPa) = 42.38070 42.54161 42.46116
# Shear Modulus (GPa) = 31.50893 31.84079 31.67486
#
# Velocity S-wave (km/s) = 3.64339 3.66253 3.65298
# Velocity P-wave (km/s) = 5.96268 5.98396 5.97333
#
# Compressibility (1/GPa) = 0.02359565
#
# Stress axis : x y z
#
# Youngs Moduli (GPa) = 73.81065 73.81065 67.45982
#
# Poissons Ratio (x) = 0.23752 0.20050
# Poissons Ratio (y) = 0.23752 0.20050
# Poissons Ratio (z) = 0.21937 0.21937
#
# Static dielectric constant tensor:
#      x y z
#    x 4.171300 0.000000 0.000000 
#    y 0.000000 4.171300 0.000000 
#    z 0.000000 0.000000 4.734370 
# 
# 
# High freq. dielectric constant tensor:
#      x y z
#    x 1.931330 0.000000 0.000000 
#    y 0.000000 1.931330 0.000000 
#    z 0.000000 0.000000 1.964760 
# 
# From -- ./inp_files/2173.got.cif
#   From: 2010.03.12/outbox.cif.g09.slc.cpg/sg110_2_cif.got.tgz:2173.got - 2010.04.14 01:58:01.
