data_PCOD8308135
_publ_section_title
;
Structure prediction by ZEFSAII (Michael W. Deem and Ramdas Pophale) SiO2 
 PCOD8308135
Probable space group: P -4 2 M 
;
_chemical_formula_sum "Si O2"
_cell_formula_units_Z 32
_cell_length_a 17.583534
_cell_length_b 17.583534
_cell_length_c 6.709462
_cell_angle_alpha 90.000000
_cell_angle_beta 90.000000
_cell_angle_gamma 90.000000
_cell_volume 2074.435943
_symmetry_space_group_name_H-M "P -4 2 M "
_symmetry_group_IT_number 111
_symmetry_cell_setting 'tetragonal'
loop_
_space_group_symop_operation_xyz
x,y,z
y,-x,-z
-x,-y,z
-y,x,-z
x,-y,-z
-x,y,-z
-y,-x,z
y,x,z
loop_
_atom_site_type_symbol
_atom_site_label
_atom_site_fract_x
_atom_site_fract_y
_atom_site_fract_z
Si Si1 0.411534 0.088734 0.534074
Si Si2 0.288879 0.167507 0.286530
Si Si3 0.807947 0.924786 0.589988
Si Si4 0.678344 0.922061 0.901608
O O1 0.500000 0.099841 0.500000
O O2 0.370216 0.151112 0.391977
O O3 0.390053 0.109219 0.762475
O O4 0.386525 0.000000 0.500000
O O5 0.255038 0.255038 0.293781
O O6 0.229893 0.115049 0.400787
O O7 0.297497 0.142950 0.056636
O O8 0.873618 0.873618 0.685479
O O9 0.749231 0.943506 0.763386
O O10 0.845561 0.000000 0.500000
O O11 0.649252 0.000000 0.000000
#
# Coordination Sequence:
#
# PCOD8308135 Si02
#       4
#     8   8   8   8
#     4  10  20  33  48  73 102 126 157 197 245 295
#     4  10  19  32  49  68  91 125 162 195 234 286
#     4  10  19  30  44  61  85 117 159 207 247 282
#     4  11  17  31  49  66  89 121 160 197 238 287
#
# _framework density 15.425879999999999
#
# number of rings (size 3 to 8) (size 9 to 14) (size 15 to 20)
#    0.000    1.750    5.000    2.250    0.000    2.250 
#    0.000    0.000    0.000    0.000    0.000    0.000 
#    0.000    0.500    0.000    0.500    0.000    0.000 
#
# Total GULP energy -396484.146944 kJ/mol
# GULP energy per Si atom -12390.129592 kJ/mol
# Density = 1.539077 g / cm^3
# Si number density = 15.425880 Si / 1000 Ang^3
#
#
#
# Elastic Constant Matrix: (Units=GPa)
#
#
# Indices 1 2 3 4 5 6 
#
# 1 76.1646 38.4625 30.6310 0.0000 0.0000 0.0000
# 2 38.4625 76.1646 30.6310 0.0000 0.0000 0.0000
# 3 30.6310 30.6310 101.0017 0.0000 0.0000 0.0000
# 4 0.0000 0.0000 0.0000 9.8122 0.0000 0.0000
# 5 0.0000 0.0000 0.0000 0.0000 9.8122 0.0000
# 6 0.0000 0.0000 0.0000 0.0000 0.0000 16.5101
#
#
#
# Elastic Compliance Matrix: (Units=1/GPa)
#
#
# Indices 1 2 3 4 5 6 
#
# 1 0.018468 -0.008056 -0.003158 0.000000 0.000000 0.000000
# 2 -0.008056 0.018468 -0.003158 0.000000 0.000000 0.000000
# 3 -0.003158 -0.003158 0.011816 0.000000 0.000000 0.000000
# 4 0.000000 0.000000 0.000000 0.101914 0.000000 0.000000
# 5 0.000000 0.000000 0.000000 0.000000 0.101914 0.000000
# 6 0.000000 0.000000 0.000000 0.000000 0.000000 0.060569
#
#
# Mechanical properties :
#
#
# Convention : Reuss Voigt Hill
#
# Bulk Modulus (GPa) = 49.97782 50.30890 50.14336
# Shear Modulus (GPa) = 14.34475 17.46734 15.90605
#
# Velocity S-wave (km/s) = 3.05276 3.36868 3.21460
# Velocity P-wave (km/s) = 6.70036 6.91482 6.80843
#
# Compressibility (1/GPa) = 0.02000888
#
# Stress axis : x y z
#
# Youngs Moduli (GPa) = 54.14893 54.14893 84.63105
#
# Poissons Ratio (x) = 0.43623 0.26722
# Poissons Ratio (y) = 0.43623 0.26722
# Poissons Ratio (z) = 0.17098 0.17098
#
# Static dielectric constant tensor:
#      x y z
#    x 2.944590 0.000000 0.000000 
#    y 0.000000 2.944590 0.000000 
#    z 0.000000 0.000000 3.174680 
# 
# 
# High freq. dielectric constant tensor:
#      x y z
#    x 1.561880 0.000000 0.000000 
#    y 0.000000 1.561880 0.000000 
#    z 0.000000 0.000000 1.609530 
# 
# From -- ./inp_files/385.got.cif
#   From: 2010.03.12/outbox.cif.g09.slc.cpg/sg111_1_cif.got.tgz:385.got - 2010.04.14 01:59:48.
