data_PCOD8308406
_publ_section_title
;
Structure prediction by ZEFSAII (Michael W. Deem and Ramdas Pophale) SiO2 
 PCOD8308406
Probable space group: P -4 2 C
;
_chemical_formula_sum "Si O2"
_cell_formula_units_Z 34
_cell_length_a 10.878818
_cell_length_b 10.878818
_cell_length_c 12.945079
_cell_angle_alpha 90.000000
_cell_angle_beta 90.000000
_cell_angle_gamma 90.000000
_cell_volume 1532.033026
_symmetry_space_group_name_H-M "P -4 2 C"
_symmetry_group_IT_number 112
_symmetry_cell_setting 'tetragonal'
loop_
_space_group_symop_operation_xyz
x,y,z
y,-x,-z
-x,-y,z
-y,x,-z
x,-y,1/2-z
-x,y,1/2-z
-y,-x,1/2+z
y,x,1/2+z
loop_
_atom_site_type_symbol
_atom_site_label
_atom_site_fract_x
_atom_site_fract_y
_atom_site_fract_z
Si Si1 0.643105 0.714489 0.767877
Si Si2 0.000000 0.000000 0.250000
Si Si3 0.566269 0.672181 0.453476
Si Si4 0.090063 0.210086 0.389140
Si Si5 0.178691 0.737098 0.430783
O O1 0.500000 0.737821 0.750000
O O2 0.659245 0.584134 0.829298
O O3 0.689107 0.818934 0.844890
O O4 0.723399 0.721914 0.662836
O O5 0.088264 0.916092 0.177824
O O6 0.652573 0.573000 0.514310
O O7 0.621162 0.802347 0.491717
O O8 0.133251 0.186425 0.507682
O O9 0.956460 0.271640 0.383611
#
# Coordination Sequence:
#
# PCOD8308406 Si02
#       5
#     8   2   8   8   8
#     4  11  22  42  66  94 124 168 215 270 330 387
#     4  12  20  42  62  92 128 180 224 264 324 398
#     4  10  22  41  64  95 126 167 217 270 327 393
#     4  11  24  38  65  92 128 170 215 269 323 391
#     4  11  22  41  60  95 129 166 214 272 318 393
#
# _framework density 22.192734000000002
#
# number of rings (size 3 to 8) (size 9 to 14) (size 15 to 20)
#    0.000    1.176    4.706    1.412    0.000    2.824 
#    0.000    0.000    0.000    0.000    0.000    0.000 
#    0.000    0.000    0.000    0.000    0.000    0.000 
#
# Total GULP energy -421370.702142 kJ/mol
# GULP energy per Si atom -12393.255945 kJ/mol
# Density = 2.214222 g / cm^3
# Si number density = 22.192734 Si / 1000 Ang^3
#
#
#
# Elastic Constant Matrix: (Units=GPa)
#
#
# Indices 1 2 3 4 5 6 
#
# 1 35.8746 10.1117 29.0985 0.0000 0.0000 0.0000
# 2 10.1117 35.8746 29.0985 0.0000 0.0000 0.0000
# 3 29.0985 29.0985 154.4546 0.0000 0.0000 0.0000
# 4 0.0000 0.0000 0.0000 41.3398 0.0000 0.0000
# 5 0.0000 0.0000 0.0000 0.0000 41.3398 0.0000
# 6 0.0000 0.0000 0.0000 0.0000 0.0000 25.0424
#
#
#
# Elastic Compliance Matrix: (Units=1/GPa)
#
#
# Indices 1 2 3 4 5 6 
#
# 1 0.033684 -0.005131 -0.005379 0.000000 0.000000 0.000000
# 2 -0.005131 0.033684 -0.005379 0.000000 0.000000 0.000000
# 3 -0.005379 -0.005379 0.008501 0.000000 0.000000 0.000000
# 4 0.000000 0.000000 0.000000 0.024190 0.000000 0.000000
# 5 0.000000 0.000000 0.000000 0.000000 0.024190 0.000000
# 6 0.000000 0.000000 0.000000 0.000000 0.000000 0.039932
#
#
# Mechanical properties :
#
#
# Convention : Reuss Voigt Hill
#
# Bulk Modulus (GPa) = 22.68056 40.31345 31.49700
# Shear Modulus (GPa) = 23.73515 32.07073 27.90294
#
# Velocity S-wave (km/s) = 3.27387 3.80557 3.54969
# Velocity P-wave (km/s) = 4.95308 6.12490 5.56989
#
# Compressibility (1/GPa) = 0.04409063
#
# Stress axis : x y z
#
# Youngs Moduli (GPa) = 29.68736 29.68736 117.62962
#
# Poissons Ratio (x) = 0.15233 0.63276
# Poissons Ratio (y) = 0.15233 0.63276
# Poissons Ratio (z) = 0.15970 0.15970
#
# Static dielectric constant tensor:
#      x y z
#    x 3.904190 0.000000 0.000000 
#    y 0.000000 3.904190 0.000000 
#    z 0.000000 0.000000 4.592400 
# 
# 
# High freq. dielectric constant tensor:
#      x y z
#    x 1.855740 0.000000 0.000000 
#    y 0.000000 1.855740 0.000000 
#    z 0.000000 0.000000 1.902430 
# 
# From -- ./inp_files/2261.got.cif
#   From: 2010.03.12/outbox.cif.g09.slc.cpg/sg112_2_cif.got.tgz:2261.got - 2010.04.14 02:02:48.
