data_PCOD8308742
_publ_section_title
;
Structure prediction by ZEFSAII (Michael W. Deem and Ramdas Pophale) SiO2 
 PCOD8308742
Probable space group: P -4 21 M 
;
_chemical_formula_sum "Si O2"
_cell_formula_units_Z 40
_cell_length_a 13.845861
_cell_length_b 13.845861
_cell_length_c 9.634781
_cell_angle_alpha 90.000000
_cell_angle_beta 90.000000
_cell_angle_gamma 90.000000
_cell_volume 1847.063313
_symmetry_space_group_name_H-M "P -4 21 M "
_symmetry_group_IT_number 113
_symmetry_cell_setting 'tetragonal'
loop_
_space_group_symop_operation_xyz
x,y,z
y,-x,-z
-x,-y,z
-y,x,-z
1/2+x,1/2-y,-z
1/2-x,1/2+y,-z
1/2-y,1/2-x,z
1/2+y,1/2+x,z
loop_
_atom_site_type_symbol
_atom_site_label
_atom_site_fract_x
_atom_site_fract_y
_atom_site_fract_z
Si Si1 0.607101 0.452138 0.309282
Si Si2 0.346727 0.999639 0.279420
Si Si3 0.225529 0.875945 0.781001
Si Si4 0.273329 0.622156 0.546816
Si Si5 0.625914 0.280616 0.102251
O O1 0.500000 0.500000 0.319076
O O2 0.700109 0.521245 0.286809
O O3 0.631812 0.395789 0.452502
O O4 0.611435 0.380185 0.181400
O O5 0.406170 0.093831 0.230473
O O6 0.281424 0.022603 0.415304
O O7 0.416411 0.916411 0.335815
O O8 0.287995 0.963187 0.145354
O O9 0.337762 0.837762 0.767001
O O10 0.157448 0.801805 0.700223
O O11 0.194800 0.879228 0.940693
O O12 0.201398 0.701398 0.476100
O O13 0.727532 0.227532 0.138343
#
# Coordination Sequence:
#
# PCOD8308742 Si02
#       5
#     8   8   8   8   8
#     4  12  27  39  67 100 132 169 219 270 319 391
#     4   9  19  38  67  96 125 169 221 265 319 393
#     4  10  25  44  64  91 131 172 213 266 330 386
#     4  10  23  43  62  90 132 174 211 264 329 385
#     4  10  23  44  67  96 131 171 212 269 333 386
#
# _framework density 21.655999000000001
#
# number of rings (size 3 to 8) (size 9 to 14) (size 15 to 20)
#    0.000    1.800    0.000    1.800   11.200    0.800 
#    0.000    1.000    0.000    3.000    0.000    0.000 
#    0.000    0.000    0.000    0.000    0.000    0.000 
#
# Total GULP energy -495625.769731 kJ/mol
# GULP energy per Si atom -12390.644243 kJ/mol
# Density = 2.160671 g / cm^3
# Si number density = 21.655999 Si / 1000 Ang^3
#
#
#
# Elastic Constant Matrix: (Units=GPa)
#
#
# Indices 1 2 3 4 5 6 
#
# 1 101.8724 46.3481 47.5163 0.0000 0.0000 0.0000
# 2 46.3481 101.8716 47.5165 0.0000 0.0000 0.0000
# 3 47.5163 47.5165 124.0830 0.0000 0.0000 0.0000
# 4 0.0000 0.0000 0.0000 29.6252 0.0000 0.0000
# 5 0.0000 0.0000 0.0000 0.0000 29.6251 0.0000
# 6 0.0000 0.0000 0.0000 0.0000 0.0000 36.1392
#
#
#
# Elastic Compliance Matrix: (Units=1/GPa)
#
#
# Indices 1 2 3 4 5 6 
#
# 1 0.013476 -0.004534 -0.003424 0.000000 0.000000 0.000000
# 2 -0.004534 0.013476 -0.003424 0.000000 0.000000 0.000000
# 3 -0.003424 -0.003424 0.010682 0.000000 0.000000 0.000000
# 4 0.000000 0.000000 0.000000 0.033755 0.000000 0.000000
# 5 0.000000 0.000000 0.000000 0.000000 0.033755 0.000000
# 6 0.000000 0.000000 0.000000 0.000000 0.000000 0.027671
#
#
# Mechanical properties :
#
#
# Convention : Reuss Voigt Hill
#
# Bulk Modulus (GPa) = 67.25447 67.84319 67.54883
# Shear Modulus (GPa) = 31.14547 31.50765 31.32656
#
# Velocity S-wave (km/s) = 3.79646 3.81847 3.80748
# Velocity P-wave (km/s) = 7.09512 7.12998 7.11257
#
# Compressibility (1/GPa) = 0.01486890
#
# Stress axis : x y z
#
# Youngs Moduli (GPa) = 74.20494 74.20407 93.61739
#
# Poissons Ratio (x) = 0.33644 0.32058
# Poissons Ratio (y) = 0.33644 0.32058
# Poissons Ratio (z) = 0.25410 0.25410
#
# Static dielectric constant tensor:
#      x y z
#    x 4.191260 0.000000 0.000000 
#    y 0.000000 4.191260 0.000000 
#    z 0.000000 0.000000 3.724150 
# 
# 
# High freq. dielectric constant tensor:
#      x y z
#    x 1.856060 0.000000 0.000000 
#    y 0.000000 1.856060 0.000000 
#    z 0.000000 0.000000 1.840350 
# 
# From -- ./inp_files/1022.got.cif
#   From: 2010.03.12/outbox.cif.g09.slc.cpg/sg113_cif.got.tgz:1022.got - 2010.04.14 02:06:34.
