data_PCOD8308454
_publ_section_title
;
Structure prediction by ZEFSAII (Michael W. Deem and Ramdas Pophale) SiO2 
 PCOD8308454
Probable space group: P -4 2 C
;
_chemical_formula_sum "Si O2"
_cell_formula_units_Z 48
_cell_length_a 11.871960
_cell_length_b 11.871960
_cell_length_c 16.881957
_cell_angle_alpha 90.000000
_cell_angle_beta 90.000000
_cell_angle_gamma 90.000000
_cell_volume 2379.400996
_symmetry_space_group_name_H-M "P -4 2 C"
_symmetry_group_IT_number 112
_symmetry_cell_setting 'tetragonal'
loop_
_space_group_symop_operation_xyz
x,y,z
y,-x,-z
-x,-y,z
-y,x,-z
x,-y,1/2-z
-x,y,1/2-z
-y,-x,1/2+z
y,x,1/2+z
loop_
_atom_site_type_symbol
_atom_site_label
_atom_site_fract_x
_atom_site_fract_y
_atom_site_fract_z
Si Si1 0.255051 0.689440 0.858442
Si Si2 0.145380 0.895227 0.093641
Si Si3 0.878374 0.657257 0.790719
Si Si4 0.098251 0.844305 0.413761
Si Si5 0.503520 0.125797 0.433324
Si Si6 0.556056 0.338547 0.974219
O O1 0.226039 0.646177 0.770551
O O2 0.234706 0.823463 0.860000
O O3 0.167809 0.631665 0.921208
O O4 0.382406 0.660618 0.887810
O O5 0.235905 0.850519 0.155043
O O6 0.031863 0.822978 0.108057
O O7 0.124161 0.026707 0.105610
O O8 0.187858 0.876198 0.004473
O O9 0.878981 0.547041 0.844821
O O10 0.000000 0.671415 0.750000
O O11 0.436168 0.213036 0.489136
O O12 0.500000 0.000000 0.471188
O O13 0.426322 0.379373 0.966528
#
# Coordination Sequence:
#
# PCOD8308454 Si02
#       6
#     8   8   8   8   8   8
#     4  11  21  33  56  84 118 156 194 247 302 372
#     4   9  18  31  49  73 114 155 190 242 288 364
#     4  12  21  33  52  88 124 153 191 244 318 371
#     4   9  17  32  49  74 107 156 200 233 289 360
#     4  11  21  36  60  88 118 155 194 256 313 358
#     4   9  21  42  63  85 114 156 209 252 297 366
#
# _framework density 20.173144000000001
#
# number of rings (size 3 to 8) (size 9 to 14) (size 15 to 20)
#    0.000    1.833    3.333    2.500    0.000    2.000 
#    0.000    0.833    0.000    4.000    0.000    0.000 
#    0.000    0.000    0.000    0.000    0.000    0.000 
#
# Total GULP energy -594922.687028 kJ/mol
# GULP energy per Si atom -12394.222646 kJ/mol
# Density = 2.012723 g / cm^3
# Si number density = 20.173144 Si / 1000 Ang^3
#
#
#
# Elastic Constant Matrix: (Units=GPa)
#
#
# Indices 1 2 3 4 5 6 
#
# 1 102.1435 31.7666 35.4445 0.0000 0.0000 0.0000
# 2 31.7666 102.1435 35.4445 0.0000 0.0000 0.0000
# 3 35.4445 35.4445 70.1005 0.0000 0.0000 0.0000
# 4 0.0000 0.0000 0.0000 29.7971 0.0000 0.0000
# 5 0.0000 0.0000 0.0000 0.0000 29.7971 0.0000
# 6 0.0000 0.0000 0.0000 0.0000 0.0000 18.2642
#
#
#
# Elastic Compliance Matrix: (Units=1/GPa)
#
#
# Indices 1 2 3 4 5 6 
#
# 1 0.012203 -0.002006 -0.005156 0.000000 0.000000 0.000000
# 2 -0.002006 0.012203 -0.005156 0.000000 0.000000 0.000000
# 3 -0.005156 -0.005156 0.019479 0.000000 0.000000 0.000000
# 4 0.000000 0.000000 0.000000 0.033560 0.000000 0.000000
# 5 0.000000 0.000000 0.000000 0.000000 0.033560 0.000000
# 6 0.000000 0.000000 0.000000 0.000000 0.000000 0.054752
#
#
# Mechanical properties :
#
#
# Convention : Reuss Voigt Hill
#
# Bulk Modulus (GPa) = 51.94873 53.29984 52.62428
# Shear Modulus (GPa) = 25.40520 27.02050 26.21285
#
# Velocity S-wave (km/s) = 3.55259 3.66379 3.60862
# Velocity P-wave (km/s) = 6.52956 6.66156 6.59589
#
# Compressibility (1/GPa) = 0.01924975
#
# Stress axis : x y z
#
# Youngs Moduli (GPa) = 81.94600 81.94600 51.33698
#
# Poissons Ratio (x) = 0.16439 0.26469
# Poissons Ratio (y) = 0.16439 0.26469
# Poissons Ratio (z) = 0.42251 0.42251
#
# Static dielectric constant tensor:
#      x y z
#    x 3.802090 0.000000 0.000000 
#    y 0.000000 3.802090 0.000000 
#    z 0.000000 0.000000 3.497800 
# 
# 
# High freq. dielectric constant tensor:
#      x y z
#    x 1.782300 0.000000 0.000000 
#    y 0.000000 1.782300 0.000000 
#    z 0.000000 0.000000 1.753700 
# 
# From -- ./inp_files/4133.got.cif
#   From: 2010.03.12/outbox.cif.g09.slc.cpg/sg112_3_cif.got.tgz:4133.got - 2010.04.14 02:02:48.
