data_PCOD8308818
_publ_section_title
;
Structure prediction by ZEFSAII (Michael W. Deem and Ramdas Pophale) SiO2 
 PCOD8308818
Probable space group: P -4 21 C
;
_chemical_formula_sum "Si O2"
_cell_formula_units_Z 56
_cell_length_a 12.022824
_cell_length_b 12.022824
_cell_length_c 20.721340
_cell_angle_alpha 90.000000
_cell_angle_beta 90.000000
_cell_angle_gamma 90.000000
_cell_volume 2995.234407
_symmetry_space_group_name_H-M "P -4 21 C"
_symmetry_group_IT_number 114
_symmetry_cell_setting 'tetragonal'
loop_
_space_group_symop_operation_xyz
x,y,z
y,-x,-z
-x,-y,z
-y,x,-z
1/2+x,1/2-y,1/2-z
1/2-x,1/2+y,1/2-z
1/2-y,1/2-x,1/2+z
1/2+y,1/2+x,1/2+z
loop_
_atom_site_type_symbol
_atom_site_label
_atom_site_fract_x
_atom_site_fract_y
_atom_site_fract_z
Si Si1 0.536971 0.217237 0.694542
Si Si2 0.678030 0.912927 0.687498
Si Si3 0.645574 0.613910 0.997674
Si Si4 0.387999 0.950272 0.802841
Si Si5 0.534393 0.627372 0.797391
Si Si6 0.138587 0.258166 0.364917
Si Si7 0.851836 0.756460 0.630801
O O1 0.433092 0.150942 0.664783
O O2 0.583579 0.143138 0.751546
O O3 0.497433 0.335495 0.724270
O O4 0.640830 0.228138 0.644585
O O5 0.778405 0.827696 0.680636
O O6 0.678415 0.953439 0.763461
O O7 0.689268 0.015275 0.638195
O O8 0.713552 0.669546 0.056461
O O9 0.653787 0.480989 0.998671
O O10 0.701864 0.661343 0.933371
O O11 0.327702 0.877062 0.858981
O O12 0.500000 0.000000 0.833949
O O13 0.500000 0.500000 0.809352
O O14 0.666213 0.644718 0.807752
O O15 0.477180 0.705746 0.851332
#
# Coordination Sequence:
#
# PCOD8308818 Si02
#       7
#     8   8   8   8   8   8   8
#     4   9  22  34  53  80 112 156 184 228 296 354
#     4  10  19  34  55  80 114 150 186 236 290 352
#     4  11  20  34  54  83 113 148 192 251 294 335
#     4   8  18  36  49  77 117 147 180 233 291 343
#     4  11  20  32  52  86 114 141 190 240 289 345
#     4  11  20  35  55  78 117 149 191 243 287 350
#     4  11  20  32  57  86 112 153 191 236 306 349
#
# _framework density 18.696366999999999
#
# number of rings (size 3 to 8) (size 9 to 14) (size 15 to 20)
#    0.000    1.857    4.286    1.286    6.000    0.000 
#    0.000    1.429    0.000    0.000    0.000    0.000 
#    0.000    0.000    0.000    0.000    0.000    0.000 
#
# Total GULP energy -693848.195186 kJ/mol
# GULP energy per Si atom -12390.146343 kJ/mol
# Density = 1.865381 g / cm^3
# Si number density = 18.696367 Si / 1000 Ang^3
#
#
#
# Elastic Constant Matrix: (Units=GPa)
#
#
# Indices 1 2 3 4 5 6 
#
# 1 70.8778 24.1498 40.1644 0.0000 0.0000 0.0000
# 2 24.1498 70.8778 40.1644 0.0000 0.0000 0.0000
# 3 40.1644 40.1644 81.3123 0.0000 0.0000 0.0000
# 4 0.0000 0.0000 0.0000 21.5031 0.0000 0.0000
# 5 0.0000 0.0000 0.0000 0.0000 21.5031 0.0000
# 6 0.0000 0.0000 0.0000 0.0000 0.0000 26.2176
#
#
#
# Elastic Compliance Matrix: (Units=1/GPa)
#
#
# Indices 1 2 3 4 5 6 
#
# 1 0.019734 -0.001667 -0.008924 0.000000 0.000000 0.000000
# 2 -0.001667 0.019734 -0.008924 0.000000 0.000000 0.000000
# 3 -0.008924 -0.008924 0.021115 0.000000 0.000000 0.000000
# 4 0.000000 0.000000 0.000000 0.046505 0.000000 0.000000
# 5 0.000000 0.000000 0.000000 0.000000 0.046505 0.000000
# 6 0.000000 0.000000 0.000000 0.000000 0.000000 0.038142
#
#
# Mechanical properties :
#
#
# Convention : Reuss Voigt Hill
#
# Bulk Modulus (GPa) = 46.40005 48.00279 47.20142
# Shear Modulus (GPa) = 21.01293 21.75073 21.38183
#
# Velocity S-wave (km/s) = 3.35610 3.41452 3.38544
# Velocity P-wave (km/s) = 6.31581 6.42463 6.37045
#
# Compressibility (1/GPa) = 0.02155170
#
# Stress axis : x y z
#
# Youngs Moduli (GPa) = 50.67440 50.67440 47.36046
#
# Poissons Ratio (x) = 0.08446 0.42266
# Poissons Ratio (y) = 0.08446 0.42266
# Poissons Ratio (z) = 0.45224 0.45224
#
# Static dielectric constant tensor:
#      x y z
#    x 3.824870 0.000000 0.000000 
#    y 0.000000 3.824870 0.000000 
#    z 0.000000 0.000000 3.383180 
# 
# 
# High freq. dielectric constant tensor:
#      x y z
#    x 1.719180 0.000000 0.000000 
#    y 0.000000 1.719180 0.000000 
#    z 0.000000 0.000000 1.681980 
# 
# From -- ./inp_files/3542.got.cif
#   From: 2010.03.12/outbox.cif.g09.slc.cpg/sg114_2_cif.got.tgz:3542.got - 2010.04.14 02:08:34.
