data_PCOD8308915
_publ_section_title
;
Structure prediction by ZEFSAII (Michael W. Deem and Ramdas Pophale) SiO2 
 PCOD8308915
Probable space group: P -4 21 C
;
_chemical_formula_sum "Si O2"
_cell_formula_units_Z 48
_cell_length_a 8.658524
_cell_length_b 8.658524
_cell_length_c 28.385219
_cell_angle_alpha 90.000000
_cell_angle_beta 90.000000
_cell_angle_gamma 90.000000
_cell_volume 2128.040943
_symmetry_space_group_name_H-M "P -4 21 C"
_symmetry_group_IT_number 114
_symmetry_cell_setting 'tetragonal'
loop_
_space_group_symop_operation_xyz
x,y,z
y,-x,-z
-x,-y,z
-y,x,-z
1/2+x,1/2-y,1/2-z
1/2-x,1/2+y,1/2-z
1/2-y,1/2-x,1/2+z
1/2+y,1/2+x,1/2+z
loop_
_atom_site_type_symbol
_atom_site_label
_atom_site_fract_x
_atom_site_fract_y
_atom_site_fract_z
Si Si1 0.824103 0.829288 0.489100
Si Si2 0.889261 0.867375 0.056029
Si Si3 0.050881 0.678604 0.279174
Si Si4 0.267228 0.245327 0.311878
Si Si5 0.888633 0.362909 0.097399
Si Si6 0.957548 0.323753 0.862732
O O1 0.736834 0.684463 0.514104
O O2 0.759005 0.848735 0.436601
O O3 0.007164 0.795238 0.484271
O O4 0.744232 0.919745 0.086711
O O5 0.001050 0.783203 0.092611
O O6 0.000000 0.000000 0.034019
O O7 0.120954 0.752555 0.232742
O O8 0.172730 0.679860 0.323159
O O9 0.000000 0.500000 0.270508
O O10 0.905512 0.785836 0.293184
O O11 0.324541 0.116116 0.349263
O O12 0.275970 0.404529 0.340519
O O13 0.000000 0.500000 0.082032
O O14 0.000000 0.500000 0.873059
#
# Coordination Sequence:
#
# PCOD8308915 Si02
#       6
#     8   8   8   8   8   8
#     4  11  28  51  73 101 146 189 236 296 366 439
#     4  12  26  43  75 105 136 180 233 290 354 423
#     4   9  21  40  65  94 135 183 228 288 344 420
#     4  10  21  41  66  96 138 180 233 286 359 405
#     4  12  26  45  70 106 141 180 235 300 348 431
#     4   9  22  42  65  99 136 179 227 285 344 413
#
# _framework density 22.555958
#
# number of rings (size 3 to 8) (size 9 to 14) (size 15 to 20)
#    0.000    1.833    3.333    0.500    9.333    0.667 
#    0.000    0.000    7.333    0.000    0.000    0.000 
#    0.000    0.000    0.000    0.000    0.000    0.000 
#
# Total GULP energy -594779.686852 kJ/mol
# GULP energy per Si atom -12391.243476 kJ/mol
# Density = 2.250462 g / cm^3
# Si number density = 22.555958 Si / 1000 Ang^3
#
#
#
# Elastic Constant Matrix: (Units=GPa)
#
#
# Indices 1 2 3 4 5 6 
#
# 1 82.7212 40.9798 34.5821 0.0000 0.0000 0.0000
# 2 40.9798 82.7212 34.5821 0.0000 0.0000 0.0000
# 3 34.5821 34.5821 137.5881 0.0000 0.0000 0.0000
# 4 0.0000 0.0000 0.0000 32.2506 0.0000 0.0000
# 5 0.0000 0.0000 0.0000 0.0000 32.2506 0.0000
# 6 0.0000 0.0000 0.0000 0.0000 0.0000 35.5624
#
#
#
# Elastic Compliance Matrix: (Units=1/GPa)
#
#
# Indices 1 2 3 4 5 6 
#
# 1 0.016681 -0.007276 -0.002364 0.000000 0.000000 0.000000
# 2 -0.007276 0.016681 -0.002364 0.000000 0.000000 0.000000
# 3 -0.002364 -0.002364 0.008456 0.000000 0.000000 0.000000
# 4 0.000000 0.000000 0.000000 0.031007 0.000000 0.000000
# 5 0.000000 0.000000 0.000000 0.000000 0.031007 0.000000
# 6 0.000000 0.000000 0.000000 0.000000 0.000000 0.028120
#
#
# Mechanical properties :
#
#
# Convention : Reuss Voigt Hill
#
# Bulk Modulus (GPa) = 56.14282 58.14650 57.14466
# Shear Modulus (GPa) = 30.88362 32.87182 31.87772
#
# Velocity S-wave (km/s) = 3.70428 3.82166 3.76343
# Velocity P-wave (km/s) = 6.57572 6.73114 6.65388
#
# Compressibility (1/GPa) = 0.01781172
#
# Stress axis : x y z
#
# Youngs Moduli (GPa) = 59.94694 59.94694 118.25246
#
# Poissons Ratio (x) = 0.43615 0.27956
# Poissons Ratio (y) = 0.43615 0.27956
# Poissons Ratio (z) = 0.14172 0.14172
#
# Static dielectric constant tensor:
#      x y z
#    x 4.042020 0.000000 0.000000 
#    y 0.000000 4.042020 0.000000 
#    z 0.000000 0.000000 4.091270 
# 
# 
# High freq. dielectric constant tensor:
#      x y z
#    x 1.882390 0.000000 0.000000 
#    y 0.000000 1.882390 0.000000 
#    z 0.000000 0.000000 1.902780 
# 
# From -- ./inp_files/3911.got.cif
#   From: 2010.03.12/outbox.cif.g09.slc.cpg/sg114_2_cif.got.tgz:3911.got - 2010.04.14 02:08:34.
