data_PCOD8308291
_publ_section_title
;
Structure prediction by ZEFSAII (Michael W. Deem and Ramdas Pophale) SiO2 
 PCOD8308291
Probable space group: P -4 2 M 
;
_chemical_formula_sum "Si O2"
_cell_formula_units_Z 40
_cell_length_a 19.807723
_cell_length_b 19.807723
_cell_length_c 7.713037
_cell_angle_alpha 90.000000
_cell_angle_beta 90.000000
_cell_angle_gamma 90.000000
_cell_volume 3026.178370
_symmetry_space_group_name_H-M "P -4 2 M "
_symmetry_group_IT_number 111
_symmetry_cell_setting 'tetragonal'
loop_
_space_group_symop_operation_xyz
x,y,z
y,-x,-z
-x,-y,z
-y,x,-z
x,-y,-z
-x,y,-z
-y,-x,z
y,x,z
loop_
_atom_site_type_symbol
_atom_site_label
_atom_site_fract_x
_atom_site_fract_y
_atom_site_fract_z
Si Si1 0.576165 0.080643 0.999999
Si Si2 0.818503 0.075086 0.294082
Si Si3 0.080237 0.668348 0.307689
Si Si4 0.080237 0.668348 0.692309
Si Si5 0.181497 0.075086 0.294085
O O1 0.613811 0.108692 0.828645
O O2 0.500000 0.108553 0.000000
O O3 0.613812 0.108692 0.171353
O O4 0.577156 0.000000 0.000000
O O5 0.873332 0.126669 0.214230
O O6 0.743472 0.100739 0.244075
O O7 0.824260 0.072461 0.499999
O O8 0.832075 1.000000 0.218181
O O9 0.109792 0.652634 0.499999
O O10 0.000000 0.664894 0.316695
O O11 0.100739 0.743472 0.755922
O O12 0.126669 0.126669 0.214233
#
# Coordination Sequence:
#
# PCOD8308291 Si02
#       5
#     8   8   8   8   8
#     4   9  16  24  35  50  63  77 100 127 159 204
#     4   8  13  21  33  48  66  89 115 142 173 206
#     4   8  14  24  35  47  65  85 103 128 163 199
#     4   8  14  24  35  47  65  85 103 128 163 199
#     4   8  13  21  33  48  66  89 115 142 173 206
#
# _framework density 13.217991
#
# number of rings (size 3 to 8) (size 9 to 14) (size 15 to 20)
#    0.000    3.800    0.000    2.400    0.000    1.200 
#    0.000    7.000    0.000    0.000    0.000    0.000 
#    0.000    8.000    0.000    0.800    0.000    0.000 
#
# Total GULP energy -495604.236561 kJ/mol
# GULP energy per Si atom -12390.105914 kJ/mol
# Density = 1.318791 g / cm^3
# Si number density = 13.217991 Si / 1000 Ang^3
#
#
#
# Elastic Constant Matrix: (Units=GPa)
#
#
# Indices 1 2 3 4 5 6 
#
# 1 72.8163 38.1056 34.5824 0.0000 0.0000 0.0000
# 2 38.1056 72.8169 34.5827 0.0000 0.0000 0.0000
# 3 34.5824 34.5827 65.9385 0.0000 0.0000 0.0000
# 4 0.0000 0.0000 0.0000 8.2082 0.0000 0.0000
# 5 0.0000 0.0000 0.0000 0.0000 8.2083 0.0000
# 6 0.0000 0.0000 0.0000 0.0000 0.0000 0.9074
#
#
#
# Elastic Compliance Matrix: (Units=1/GPa)
#
#
# Indices 1 2 3 4 5 6 
#
# 1 0.021103 -0.007707 -0.007026 0.000000 0.000000 0.000000
# 2 -0.007707 0.021103 -0.007026 0.000000 0.000000 0.000000
# 3 -0.007026 -0.007026 0.022535 0.000000 0.000000 0.000000
# 4 0.000000 0.000000 0.000000 0.121829 0.000000 0.000000
# 5 0.000000 0.000000 0.000000 0.000000 0.121828 0.000000
# 6 0.000000 0.000000 0.000000 0.000000 0.000000 1.102050
#
#
# Mechanical properties :
#
#
# Convention : Reuss Voigt Hill
#
# Bulk Modulus (GPa) = 47.11578 47.34590 47.23084
# Shear Modulus (GPa) = 3.42222 10.41818 6.92020
#
# Velocity S-wave (km/s) = 1.61080 2.81050 2.29059
# Velocity P-wave (km/s) = 6.25956 6.81388 6.54259
#
# Compressibility (1/GPa) = 0.02122431
#
# Stress axis : x y z
#
# Youngs Moduli (GPa) = 47.38691 47.38715 44.37473
#
# Poissons Ratio (x) = 0.36519 0.31177
# Poissons Ratio (y) = 0.36519 0.31177
# Poissons Ratio (z) = 0.33293 0.33294
#
# Static dielectric constant tensor:
#      x y z
#    x 2.570360 0.000000 0.000000 
#    y 0.000000 2.570360 0.000000 
#    z 0.000000 0.000000 2.788390 
# 
# 
# High freq. dielectric constant tensor:
#      x y z
#    x 1.460390 0.000000 0.000000 
#    y 0.000000 1.460390 0.000000 
#    z 0.000000 0.000000 1.505190 
# 
# From -- ./inp_files/1688.got.cif
#   From: 2010.03.12/outbox.cif.g09.slc.cpg/sg111_1_cif.got.tgz:1688.got - 2010.04.14 01:59:48.
