data_PCOD8308401
_publ_section_title
;
Structure prediction by ZEFSAII (Michael W. Deem and Ramdas Pophale) SiO2 
 PCOD8308401
Probable space group: P -4 2 C
;
_chemical_formula_sum "Si O2"
_cell_formula_units_Z 48
_cell_length_a 8.850497
_cell_length_b 8.850497
_cell_length_c 26.142816
_cell_angle_alpha 90.000000
_cell_angle_beta 90.000000
_cell_angle_gamma 90.000000
_cell_volume 2047.800688
_symmetry_space_group_name_H-M "P -4 2 C"
_symmetry_group_IT_number 112
_symmetry_cell_setting 'tetragonal'
loop_
_space_group_symop_operation_xyz
x,y,z
y,-x,-z
-x,-y,z
-y,x,-z
x,-y,1/2-z
-x,y,1/2-z
-y,-x,1/2+z
y,x,1/2+z
loop_
_atom_site_type_symbol
_atom_site_label
_atom_site_fract_x
_atom_site_fract_y
_atom_site_fract_z
Si Si1 0.066660 0.159474 0.304162
Si Si2 0.582367 0.142134 0.617388
Si Si3 0.210230 0.612245 0.575777
Si Si4 0.892603 0.785471 0.013458
Si Si5 0.284630 0.282772 0.113327
Si Si6 0.001824 0.339525 0.829428
O O1 0.065133 0.305489 0.340702
O O2 0.000000 0.206994 0.250000
O O3 0.239882 0.110555 0.293962
O O4 0.000000 0.000000 0.327472
O O5 0.668032 0.253650 0.579975
O O6 0.444631 0.246217 0.639146
O O7 0.500000 0.000000 0.588925
O O8 0.146906 0.632233 0.518311
O O9 0.284323 0.449084 0.586028
O O10 0.072524 0.641301 0.614042
O O11 0.840613 0.764944 0.071695
O O12 0.072206 0.811022 0.013801
O O13 0.273549 0.166393 0.161077
O O14 0.000000 0.500000 0.801140
#
# Coordination Sequence:
#
# PCOD8308401 Si02
#       6
#     8   8   8   8   8   8
#     4  10  22  42  70 102 131 164 217 287 358 437
#     4  11  23  40  64  95 131 176 224 282 357 419
#     4  10  22  40  59  90 132 185 243 280 337 408
#     4  11  23  37  57  91 137 186 239 302 337 384
#     4  11  22  39  63  91 132 186 240 283 350 404
#     4   9  19  40  67  92 132 181 224 274 346 427
#
# _framework density 23.439782999999998
#
# number of rings (size 3 to 8) (size 9 to 14) (size 15 to 20)
#    0.000    1.667    1.667    2.500    2.333    1.667 
#    0.000    2.500    0.000    0.000    0.000   14.000 
#    0.000    0.000    0.000    0.000    0.000    0.000 
#
# Total GULP energy -594695.327267 kJ/mol
# GULP energy per Si atom -12389.485985 kJ/mol
# Density = 2.338643 g / cm^3
# Si number density = 23.439783 Si / 1000 Ang^3
#
#
#
# Elastic Constant Matrix: (Units=GPa)
#
#
# Indices 1 2 3 4 5 6 
#
# 1 121.1289 32.9786 25.4742 0.0000 0.0000 0.0000
# 2 32.9786 121.1289 25.4742 0.0000 0.0000 0.0000
# 3 25.4742 25.4742 66.6881 0.0000 0.0000 0.0000
# 4 0.0000 0.0000 0.0000 23.0130 0.0000 0.0000
# 5 0.0000 0.0000 0.0000 0.0000 23.0130 0.0000
# 6 0.0000 0.0000 0.0000 0.0000 0.0000 51.6100
#
#
#
# Elastic Compliance Matrix: (Units=1/GPa)
#
#
# Indices 1 2 3 4 5 6 
#
# 1 0.009386 -0.001959 -0.002837 0.000000 0.000000 0.000000
# 2 -0.001959 0.009386 -0.002837 0.000000 0.000000 0.000000
# 3 -0.002837 -0.002837 0.017163 0.000000 0.000000 0.000000
# 4 0.000000 0.000000 0.000000 0.043454 0.000000 0.000000
# 5 0.000000 0.000000 0.000000 0.000000 0.043454 0.000000
# 6 0.000000 0.000000 0.000000 0.000000 0.000000 0.019376
#
#
# Mechanical properties :
#
#
# Convention : Reuss Voigt Hill
#
# Bulk Modulus (GPa) = 48.38306 52.97775 50.68041
# Shear Modulus (GPa) = 30.41878 34.52845 32.47361
#
# Velocity S-wave (km/s) = 3.60633 3.84222 3.72614
# Velocity P-wave (km/s) = 6.16661 6.50648 6.33882
#
# Compressibility (1/GPa) = 0.02066839
#
# Stress axis : x y z
#
# Youngs Moduli (GPa) = 106.54642 106.54642 58.26625
#
# Poissons Ratio (x) = 0.20869 0.16530
# Poissons Ratio (y) = 0.20869 0.16530
# Poissons Ratio (z) = 0.30227 0.30227
#
# Static dielectric constant tensor:
#      x y z
#    x 4.747710 0.000000 0.000000 
#    y 0.000000 4.747710 0.000000 
#    z 0.000000 0.000000 3.497400 
# 
# 
# High freq. dielectric constant tensor:
#      x y z
#    x 1.948140 0.000000 0.000000 
#    y 0.000000 1.948140 0.000000 
#    z 0.000000 0.000000 1.880190 
# 
# From -- ./inp_files/6326.got.cif
#   From: 2010.03.12/outbox.cif.g09.slc.cpg/sg112_4_cif.got.tgz:6326.got - 2010.04.14 02:02:48.
