data_PCOD8308305
_publ_section_title
;
Structure prediction by ZEFSAII (Michael W. Deem and Ramdas Pophale) SiO2 
 PCOD8308305
Probable space group: P -4 2 C
;
_chemical_formula_sum "Si O2"
_cell_formula_units_Z 46
_cell_length_a 11.551584
_cell_length_b 11.551584
_cell_length_c 17.286239
_cell_angle_alpha 90.000000
_cell_angle_beta 90.000000
_cell_angle_gamma 90.000000
_cell_volume 2306.660052
_symmetry_space_group_name_H-M "P -4 2 C"
_symmetry_group_IT_number 112
_symmetry_cell_setting 'tetragonal'
loop_
_space_group_symop_operation_xyz
x,y,z
y,-x,-z
-x,-y,z
-y,x,-z
x,-y,1/2-z
-x,y,1/2-z
-y,-x,1/2+z
y,x,1/2+z
loop_
_atom_site_type_symbol
_atom_site_label
_atom_site_fract_x
_atom_site_fract_y
_atom_site_fract_z
Si Si1 0.638328 0.006737 0.661258
Si Si2 0.227726 0.124328 0.958628
Si Si3 0.414550 0.348263 0.119463
Si Si4 0.893621 0.437468 0.933982
Si Si5 0.500000 0.500000 0.500000
Si Si6 0.819695 0.642450 0.040045
Si Si7 0.000000 0.000000 0.500000
Si Si8 0.500000 0.500000 0.750000
O O1 0.689314 0.903820 0.607940
O O2 0.500000 0.000000 0.657626
O O3 0.680673 0.000000 0.750000
O O4 0.698916 0.119870 0.622073
O O5 0.110193 0.047634 0.951021
O O6 0.312446 0.075622 0.027889
O O7 0.197324 0.257608 0.975840
O O8 0.423668 0.209869 0.128006
O O9 0.512520 0.389158 0.057501
O O10 0.297193 0.391471 0.082218
O O11 0.421037 0.413516 0.200665
O O12 0.000000 0.500000 0.889149
O O13 0.865634 0.524178 0.004013
#
# Coordination Sequence:
#
# PCOD8308305 Si02
#       8
#     8   8   8   8   2   8   2   2
#     4  11  22  39  60  94 128 160 207 267 330 380
#     4  11  21  35  62  89 120 161 207 257 312 370
#     4  10  22  35  58  86 121 160 200 260 306 381
#     4  11  19  37  60  89 116 154 217 253 300 374
#     4  10  16  34  56  86 112 150 204 250 296 350
#     4  11  20  37  61  89 118 160 211 255 311 374
#     4  12  20  36  62  88 116 152 210 264 292 352
#     4  10  24  42  50  86 130 158 204 252 336 364
#
# _framework density 19.942253999999998
#
# number of rings (size 3 to 8) (size 9 to 14) (size 15 to 20)
#    0.000    1.217    6.957    0.000    0.000    1.391 
#    3.130    0.870    0.000    0.000    0.000    0.000 
#    0.000    0.000    0.000    0.000    0.000    0.000 
#
# Total GULP energy -569919.869351 kJ/mol
# GULP energy per Si atom -12389.562377 kJ/mol
# Density = 1.989686 g / cm^3
# Si number density = 19.942254 Si / 1000 Ang^3
#
#
#
# Elastic Constant Matrix: (Units=GPa)
#
#
# Indices 1 2 3 4 5 6 
#
# 1 97.9878 36.5229 41.4319 0.0000 0.0000 0.0000
# 2 36.5229 97.9878 41.4319 0.0000 0.0000 0.0000
# 3 41.4319 41.4319 118.2260 0.0000 0.0000 0.0000
# 4 0.0000 0.0000 0.0000 23.2004 0.0000 0.0000
# 5 0.0000 0.0000 0.0000 0.0000 23.2004 0.0000
# 6 0.0000 0.0000 0.0000 0.0000 0.0000 31.2071
#
#
#
# Elastic Compliance Matrix: (Units=1/GPa)
#
#
# Indices 1 2 3 4 5 6 
#
# 1 0.012875 -0.003394 -0.003323 0.000000 0.000000 0.000000
# 2 -0.003394 0.012875 -0.003323 0.000000 0.000000 0.000000
# 3 -0.003323 -0.003323 0.010787 0.000000 0.000000 0.000000
# 4 0.000000 0.000000 0.000000 0.043103 0.000000 0.000000
# 5 0.000000 0.000000 0.000000 0.000000 0.043103 0.000000
# 6 0.000000 0.000000 0.000000 0.000000 0.000000 0.032044
#
#
# Mechanical properties :
#
#
# Convention : Reuss Voigt Hill
#
# Bulk Modulus (GPa) = 60.75694 61.44166 61.09930
# Shear Modulus (GPa) = 27.72349 28.50925 28.11637
#
# Velocity S-wave (km/s) = 3.73257 3.78509 3.75892
# Velocity P-wave (km/s) = 7.00776 7.06960 7.03875
#
# Compressibility (1/GPa) = 0.01645903
#
# Stress axis : x y z
#
# Youngs Moduli (GPa) = 77.66788 77.66788 92.70235
#
# Poissons Ratio (x) = 0.26361 0.30802
# Poissons Ratio (y) = 0.26361 0.30802
# Poissons Ratio (z) = 0.25806 0.25806
#
# Static dielectric constant tensor:
#      x y z
#    x 3.913020 0.000000 0.000000 
#    y 0.000000 3.913020 0.000000 
#    z 0.000000 0.000000 3.331920 
# 
# 
# High freq. dielectric constant tensor:
#      x y z
#    x 1.786720 0.000000 0.000000 
#    y 0.000000 1.786720 0.000000 
#    z 0.000000 0.000000 1.732490 
# 
# From -- ./inp_files/4185.got.cif
#   From: 2010.03.12/outbox.cif.g09.slc.cpg/sg112_3_cif.got.tgz:4185.got - 2010.04.14 02:02:48.
