data_PCOD8308528
_publ_section_title
;
Structure prediction by ZEFSAII (Michael W. Deem and Ramdas Pophale) SiO2 
 PCOD8308528
Probable space group: P -4 21 M 
;
_chemical_formula_sum "Si O2"
_cell_formula_units_Z 56
_cell_length_a 16.322706
_cell_length_b 16.322706
_cell_length_c 12.960020
_cell_angle_alpha 90.000000
_cell_angle_beta 90.000000
_cell_angle_gamma 90.000000
_cell_volume 3452.947604
_symmetry_space_group_name_H-M "P -4 21 M "
_symmetry_group_IT_number 113
_symmetry_cell_setting 'tetragonal'
loop_
_space_group_symop_operation_xyz
x,y,z
y,-x,-z
-x,-y,z
-y,x,-z
1/2+x,1/2-y,-z
1/2-x,1/2+y,-z
1/2-y,1/2-x,z
1/2+y,1/2+x,z
loop_
_atom_site_type_symbol
_atom_site_label
_atom_site_fract_x
_atom_site_fract_y
_atom_site_fract_z
Si Si1 0.480971 0.253925 0.347991
Si Si2 0.498558 0.865214 0.539558
Si Si3 0.615739 0.555555 0.521104
Si Si4 0.691668 0.675795 0.362928
Si Si5 0.634867 0.998736 0.168708
Si Si6 0.937912 0.695914 0.256036
Si Si7 0.633668 0.996062 0.939439
O O1 0.484366 0.194235 0.445082
O O2 0.532882 0.336691 0.372710
O O3 0.387726 0.277449 0.323231
O O4 0.514419 0.209559 0.246571
O O5 0.572470 0.927531 0.550712
O O6 0.496153 0.810666 0.643534
O O7 0.413114 0.913114 0.520617
O O8 0.599268 0.471371 0.456076
O O9 0.673974 0.616000 0.458125
O O10 0.760121 0.739880 0.401335
O O11 0.726380 0.622263 0.267245
O O12 0.582777 0.917224 0.197682
O O13 0.576865 0.076865 0.176870
O O14 0.673005 0.989809 0.053734
O O15 0.888942 0.611059 0.251207
O O16 0.988186 0.702776 0.148413
O O17 0.588625 0.911376 0.910914
O O18 0.568325 0.068325 0.944299
#
# Coordination Sequence:
#
# PCOD8308528 Si02
#       7
#     8   8   8   8   8   8   8
#     4  11  19  29  45  68  97 124 153 190 236 280
#     4  10  18  26  40  66  98 125 148 181 230 286
#     4   9  19  34  49  64  88 126 166 195 222 271
#     4  10  19  30  46  69  93 120 156 197 239 279
#     4   9  17  28  44  69  98 127 157 187 229 288
#     4   9  16  27  42  63  86 115 153 189 223 265
#     4   8  14  26  44  64  88 119 155 189 220 269
#
# _framework density 16.218029000000001
#
# number of rings (size 3 to 8) (size 9 to 14) (size 15 to 20)
#    0.000    2.571    1.429    3.000    0.000    3.429 
#    0.000    0.000    0.000    1.714    0.000    2.000 
#    0.000    0.000    0.000    0.000    0.000    0.000 
#
# Total GULP energy -694065.386918 kJ/mol
# GULP energy per Si atom -12394.024766 kJ/mol
# Density = 1.618112 g / cm^3
# Si number density = 16.218029 Si / 1000 Ang^3
#
#
#
# Elastic Constant Matrix: (Units=GPa)
#
#
# Indices 1 2 3 4 5 6 
#
# 1 64.2852 28.7629 38.0326 0.0000 0.0000 0.0000
# 2 28.7629 64.2854 38.0322 0.0000 0.0000 0.0000
# 3 38.0326 38.0322 111.7787 0.0000 0.0000 0.0000
# 4 0.0000 0.0000 0.0000 9.5905 0.0000 0.0000
# 5 0.0000 0.0000 0.0000 0.0000 9.5902 0.0000
# 6 0.0000 0.0000 0.0000 0.0000 0.0000 21.9400
#
#
#
# Elastic Compliance Matrix: (Units=1/GPa)
#
#
# Indices 1 2 3 4 5 6 
#
# 1 0.021520 -0.006632 -0.005066 0.000000 0.000000 0.000000
# 2 -0.006632 0.021520 -0.005066 0.000000 0.000000 0.000000
# 3 -0.005066 -0.005066 0.012393 0.000000 0.000000 0.000000
# 4 0.000000 0.000000 0.000000 0.104270 0.000000 0.000000
# 5 0.000000 0.000000 0.000000 0.000000 0.104273 0.000000
# 6 0.000000 0.000000 0.000000 0.000000 0.000000 0.045579
#
#
# Mechanical properties :
#
#
# Convention : Reuss Voigt Hill
#
# Bulk Modulus (GPa) = 45.64725 50.00051 47.82388
# Shear Modulus (GPa) = 14.27011 17.25892 15.76452
#
# Velocity S-wave (km/s) = 2.96952 3.26572 3.12113
# Velocity P-wave (km/s) = 6.32174 6.71692 6.52233
#
# Compressibility (1/GPa) = 0.02190712
#
# Stress axis : x y z
#
# Youngs Moduli (GPa) = 46.46878 46.46922 80.68804
#
# Poissons Ratio (x) = 0.30816 0.40875
# Poissons Ratio (y) = 0.30816 0.40873
# Poissons Ratio (z) = 0.23540 0.23539
#
# Static dielectric constant tensor:
#      x y z
#    x 3.075940 0.000000 0.000000 
#    y 0.000000 3.075940 0.000000 
#    z 0.000000 0.000000 3.142540 
# 
# 
# High freq. dielectric constant tensor:
#      x y z
#    x 1.611280 0.000000 0.000000 
#    y 0.000000 1.611280 0.000000 
#    z 0.000000 0.000000 1.606500 
# 
# From -- ./inp_files/1984.got.cif
#   From: 2010.03.12/outbox.cif.g09.slc.cpg/sg113_cif.got.tgz:1984.got - 2010.04.14 02:06:34.
