data_PCOD8308890
_publ_section_title
;
Structure prediction by ZEFSAII (Michael W. Deem and Ramdas Pophale) SiO2 
 PCOD8308890
Probable space group: P -4 21 C
;
_chemical_formula_sum "Si O2"
_cell_formula_units_Z 60
_cell_length_a 11.356190
_cell_length_b 11.356190
_cell_length_c 24.786171
_cell_angle_alpha 90.000000
_cell_angle_beta 90.000000
_cell_angle_gamma 90.000000
_cell_volume 3196.500243
_symmetry_space_group_name_H-M "P -4 21 C"
_symmetry_group_IT_number 114
_symmetry_cell_setting 'tetragonal'
loop_
_space_group_symop_operation_xyz
x,y,z
y,-x,-z
-x,-y,z
-y,x,-z
1/2+x,1/2-y,1/2-z
1/2-x,1/2+y,1/2-z
1/2-y,1/2-x,1/2+z
1/2+y,1/2+x,1/2+z
loop_
_atom_site_type_symbol
_atom_site_label
_atom_site_fract_x
_atom_site_fract_y
_atom_site_fract_z
Si Si1 0.572268 0.616265 0.780870
Si Si2 0.154643 0.813751 0.833492
Si Si3 0.390771 0.796260 0.784188
Si Si4 0.471747 0.313641 0.495655
Si Si5 0.697020 0.211807 0.670758
Si Si6 0.357152 0.993420 0.093701
Si Si7 0.000000 0.500000 0.156308
Si Si8 0.051141 0.738766 0.119847
O O1 0.500000 0.500000 0.794148
O O2 0.581293 0.632424 0.716352
O O3 0.495645 0.718882 0.807462
O O4 0.695382 0.625710 0.812661
O O5 0.267225 0.747880 0.807401
O O6 0.085307 0.713690 0.867364
O O7 0.199206 0.925361 0.868410
O O8 0.394968 0.794139 0.719626
O O9 0.416053 0.926483 0.804272
O O10 0.378732 0.406109 0.520174
O O11 0.492726 0.201888 0.534910
O O12 0.412014 0.272678 0.440328
O O13 0.637487 0.163583 0.616490
O O14 0.724158 0.349957 0.663027
O O15 0.500000 0.000000 0.090713
O O16 0.941713 0.403461 0.117841
#
# Coordination Sequence:
#
# PCOD8308890 Si02
#       8
#     8   8   8   8   8   8   4   8
#     4  11  22  37  59  87 126 170 212 246 299 386
#     4  10  23  38  60  88 122 167 199 256 312 373
#     4  10  21  37  58  88 119 162 207 245 305 371
#     4  11  23  41  66  90 117 153 208 263 320 370
#     4  11  23  38  60  90 126 164 202 255 316 371
#     4  12  26  41  59  93 130 161 200 267 327 372
#     4  10  22  38  62  86 122 162 204 256 300 380
#     4  11  21  41  64  88 121 157 211 258 315 369
#
# _framework density 18.770527999999999
#
# number of rings (size 3 to 8) (size 9 to 14) (size 15 to 20)
#    0.000    1.200    5.333    0.800    3.733    0.000 
#    0.000    0.000    0.000    0.000    0.000    0.000 
#    0.000    0.000    0.000    0.000    0.000    0.000 
#
# Total GULP energy -743309.267089 kJ/mol
# GULP energy per Si atom -12388.487785 kJ/mol
# Density = 1.872781 g / cm^3
# Si number density = 18.770528 Si / 1000 Ang^3
#
#
#
# Elastic Constant Matrix: (Units=GPa)
#
#
# Indices 1 2 3 4 5 6 
#
# 1 96.0131 35.3800 24.4915 0.0000 0.0000 0.0000
# 2 35.3800 96.0131 24.4915 0.0000 0.0000 0.0000
# 3 24.4915 24.4915 77.6430 0.0000 0.0000 0.0000
# 4 0.0000 0.0000 0.0000 25.6360 0.0000 0.0000
# 5 0.0000 0.0000 0.0000 0.0000 25.6360 0.0000
# 6 0.0000 0.0000 0.0000 0.0000 0.0000 32.3774
#
#
#
# Elastic Compliance Matrix: (Units=1/GPa)
#
#
# Indices 1 2 3 4 5 6 
#
# 1 0.012559 -0.003934 -0.002721 0.000000 0.000000 0.000000
# 2 -0.003934 0.012559 -0.002721 0.000000 0.000000 0.000000
# 3 -0.002721 -0.002721 0.014596 0.000000 0.000000 0.000000
# 4 0.000000 0.000000 0.000000 0.039008 0.000000 0.000000
# 5 0.000000 0.000000 0.000000 0.000000 0.039008 0.000000
# 6 0.000000 0.000000 0.000000 0.000000 0.000000 0.030886
#
#
# Mechanical properties :
#
#
# Convention : Reuss Voigt Hill
#
# Bulk Modulus (GPa) = 47.70248 48.71055 48.20651
# Shear Modulus (GPa) = 28.67755 29.08364 28.88060
#
# Velocity S-wave (km/s) = 3.91294 3.94055 3.92677
# Velocity P-wave (km/s) = 6.77374 6.83453 6.80420
#
# Compressibility (1/GPa) = 0.02096327
#
# Stress axis : x y z
#
# Youngs Moduli (GPa) = 79.62530 79.62530 68.51265
#
# Poissons Ratio (x) = 0.31323 0.18640
# Poissons Ratio (y) = 0.31323 0.18640
# Poissons Ratio (z) = 0.21663 0.21663
#
# Static dielectric constant tensor:
#      x y z
#    x 3.540870 0.000000 0.000000 
#    y 0.000000 3.540870 0.000000 
#    z 0.000000 0.000000 3.275430 
# 
# 
# High freq. dielectric constant tensor:
#      x y z
#    x 1.732190 0.000000 0.000000 
#    y 0.000000 1.732190 0.000000 
#    z 0.000000 0.000000 1.715940 
# 
# From -- ./inp_files/3240.got.cif
#   From: 2010.03.12/outbox.cif.g09.slc.cpg/sg114_2_cif.got.tgz:3240.got - 2010.04.14 02:08:34.
