data_PCOD8308595
_publ_section_title
;
Structure prediction by ZEFSAII (Michael W. Deem and Ramdas Pophale) SiO2 
 PCOD8308595
Probable space group: P -4 21 M 
;
_chemical_formula_sum "Si O2"
_cell_formula_units_Z 64
_cell_length_a 16.467357
_cell_length_b 16.467357
_cell_length_c 14.249918
_cell_angle_alpha 90.000000
_cell_angle_beta 90.000000
_cell_angle_gamma 90.000000
_cell_volume 3864.205077
_symmetry_space_group_name_H-M "P -4 21 M "
_symmetry_group_IT_number 113
_symmetry_cell_setting 'tetragonal'
loop_
_space_group_symop_operation_xyz
x,y,z
y,-x,-z
-x,-y,z
-y,x,-z
1/2+x,1/2-y,-z
1/2-x,1/2+y,-z
1/2-y,1/2-x,z
1/2+y,1/2+x,z
loop_
_atom_site_type_symbol
_atom_site_label
_atom_site_fract_x
_atom_site_fract_y
_atom_site_fract_z
Si Si1 0.586360 0.461679 0.636451
Si Si2 0.938362 0.116967 0.987579
Si Si3 0.818969 0.183683 0.135662
Si Si4 0.660222 0.710008 0.658057
Si Si5 0.130179 0.498344 0.739006
Si Si6 0.176485 0.995716 0.552796
Si Si7 0.701510 0.499179 0.810639
Si Si8 0.090177 0.283221 0.578034
O O1 0.500000 0.500000 0.664836
O O2 0.616893 0.492885 0.535951
O O3 0.565791 0.365808 0.626932
O O4 0.653707 0.482961 0.713601
O O5 0.942235 0.158406 0.886401
O O6 0.887454 0.178049 0.054652
O O7 0.029709 0.104854 0.026940
O O8 0.741711 0.241711 0.106923
O O9 0.858697 0.218754 0.231098
O O10 0.792428 0.092253 0.157588
O O11 0.712110 0.787891 0.623693
O O12 0.578732 0.703816 0.599791
O O13 0.710071 0.626614 0.641252
O O14 0.076253 0.423748 0.781335
O O15 0.204097 0.525929 0.805278
O O16 0.166792 0.472735 0.639715
O O17 0.076155 0.576155 0.720407
O O18 0.257506 0.953835 0.516813
O O19 0.162928 0.337073 0.540514
#
# Coordination Sequence:
#
# PCOD8308595 Si02
#       8
#     8   8   8   8   8   8   8   8
#     4  12  21  29  48  77 110 141 173 210 259 316
#     4   9  21  35  51  79 108 136 172 213 275 333
#     4  10  19  35  57  76 100 136 176 219 263 315
#     4  10  20  33  53  75 101 136 178 223 258 303
#     4  10  20  34  53  76 103 139 182 222 264 311
#     4  12  19  33  47  78 106 139 179 212 258 312
#     4  11  21  34  52  78 107 139 170 219 269 323
#     4  10  19  34  50  70 102 138 177 217 257 303
#
# _framework density 16.562268
#
# number of rings (size 3 to 8) (size 9 to 14) (size 15 to 20)
#    0.000    1.500    5.000    1.125    5.250    1.000 
#    0.000    0.625    0.000    0.000    0.000    0.000 
#    0.000    5.000    0.000    0.000    0.000    0.000 
#
# Total GULP energy -793078.682363 kJ/mol
# GULP energy per Si atom -12391.854412 kJ/mol
# Density = 1.652457 g / cm^3
# Si number density = 16.562268 Si / 1000 Ang^3
#
#
#
# Elastic Constant Matrix: (Units=GPa)
#
#
# Indices 1 2 3 4 5 6 
#
# 1 92.3411 46.2454 47.0967 0.0000 0.0000 0.0000
# 2 46.2454 92.3456 47.0972 0.0000 0.0000 0.0000
# 3 47.0967 47.0972 78.8359 0.0000 0.0000 0.0000
# 4 0.0000 0.0000 0.0000 22.2510 0.0000 0.0000
# 5 0.0000 0.0000 0.0000 0.0000 22.2514 0.0000
# 6 0.0000 0.0000 0.0000 0.0000 0.0000 28.6447
#
#
#
# Elastic Compliance Matrix: (Units=1/GPa)
#
#
# Indices 1 2 3 4 5 6 
#
# 1 0.016921 -0.004772 -0.007258 0.000000 0.000000 0.000000
# 2 -0.004772 0.016920 -0.007257 0.000000 0.000000 0.000000
# 3 -0.007258 -0.007257 0.021356 0.000000 0.000000 0.000000
# 4 0.000000 0.000000 0.000000 0.044942 0.000000 0.000000
# 5 0.000000 0.000000 0.000000 0.000000 0.044941 0.000000
# 6 0.000000 0.000000 0.000000 0.000000 0.000000 0.034911
#
#
# Mechanical properties :
#
#
# Convention : Reuss Voigt Hill
#
# Bulk Modulus (GPa) = 60.15908 60.48904 60.32406
# Shear Modulus (GPa) = 22.31093 22.83496 22.57295
#
# Velocity S-wave (km/s) = 3.67426 3.71716 3.69577
# Velocity P-wave (km/s) = 7.37578 7.41785 7.39684
#
# Compressibility (1/GPa) = 0.01662259
#
# Stress axis : x y z
#
# Youngs Moduli (GPa) = 59.09782 59.10148 46.82570
#
# Poissons Ratio (x) = 0.28205 0.33984
# Poissons Ratio (y) = 0.28204 0.33982
# Poissons Ratio (z) = 0.42891 0.42891
#
# Static dielectric constant tensor:
#      x y z
#    x 3.232400 0.000000 0.000000 
#    y 0.000000 3.232390 0.000000 
#    z 0.000000 0.000000 3.084520 
# 
# 
# High freq. dielectric constant tensor:
#      x y z
#    x 1.635590 0.000000 0.000000 
#    y 0.000000 1.635590 0.000000 
#    z 0.000000 0.000000 1.618970 
# 
# From -- ./inp_files/2029.got.cif
#   From: 2010.03.12/outbox.cif.g09.slc.cpg/sg113_cif.got.tgz:2029.got - 2010.04.14 02:06:34.
