data_PCOD8308235
_publ_section_title
;
Structure prediction by ZEFSAII (Michael W. Deem and Ramdas Pophale) SiO2 
 PCOD8308235
Probable space group: P -4 2 M 
;
_chemical_formula_sum "Si O2"
_cell_formula_units_Z 40
_cell_length_a 17.089195
_cell_length_b 17.089195
_cell_length_c 7.778014
_cell_angle_alpha 90.000000
_cell_angle_beta 90.000000
_cell_angle_gamma 90.000000
_cell_volume 2271.495765
_symmetry_space_group_name_H-M "P -4 2 M "
_symmetry_group_IT_number 111
_symmetry_cell_setting 'tetragonal'
loop_
_space_group_symop_operation_xyz
x,y,z
y,-x,-z
-x,-y,z
-y,x,-z
x,-y,-z
-x,y,-z
-y,-x,z
y,x,z
loop_
_atom_site_type_symbol
_atom_site_label
_atom_site_fract_x
_atom_site_fract_y
_atom_site_fract_z
Si Si1 0.780105 0.911605 0.499998
Si Si2 0.164933 0.704240 0.190840
Si Si3 0.588142 0.712913 0.703931
Si Si4 0.411858 0.712913 0.703931
Si Si5 0.295761 0.164933 0.190835
O O1 0.855122 0.855122 0.499999
O O2 0.725448 0.900069 0.667776
O O3 0.725449 0.900069 0.332218
O O4 0.811766 0.000000 0.500000
O O5 0.233360 0.766641 0.210293
O O6 0.204381 0.619929 0.224135
O O7 0.127122 0.706088 0.000003
O O8 0.640151 0.640151 0.772096
O O9 0.500000 0.700969 0.771255
O O10 0.591601 0.716682 0.500000
O O11 0.359848 0.640153 0.772096
O O12 0.380071 0.795620 0.775865
O O13 0.233362 0.233362 0.210283
#
# Coordination Sequence:
#
# PCOD8308235 Si02
#       5
#     8   8   8   8   8
#     4  10  20  35  55  79 104 126 152 190 238 294
#     4   9  17  31  51  72  96 131 172 205 234 278
#     4   9  16  27  45  70 101 135 171 212 254 292
#     4   9  16  27  45  70 101 135 171 212 254 292
#     4   9  17  31  51  72  96 131 172 205 234 278
#
# _framework density 17.609542000000001
#
# number of rings (size 3 to 8) (size 9 to 14) (size 15 to 20)
#    0.000    2.800    2.000    0.000    0.000    2.200 
#    0.000    2.000    0.000    2.400    0.000   14.000 
#    0.000    0.000    0.000    0.000    0.000    0.000 
#
# Total GULP energy -495823.069040 kJ/mol
# GULP energy per Si atom -12395.576726 kJ/mol
# Density = 1.756946 g / cm^3
# Si number density = 17.609542 Si / 1000 Ang^3
#
#
#
# Elastic Constant Matrix: (Units=GPa)
#
#
# Indices 1 2 3 4 5 6 
#
# 1 75.7708 53.7098 40.1867 0.0000 0.0000 0.0000
# 2 53.7098 75.7716 40.1864 0.0000 0.0000 0.0000
# 3 40.1867 40.1864 101.7276 0.0000 0.0000 0.0000
# 4 0.0000 0.0000 0.0000 8.6014 0.0000 0.0000
# 5 0.0000 0.0000 0.0000 0.0000 8.6015 0.0000
# 6 0.0000 0.0000 0.0000 0.0000 0.0000 15.6112
#
#
#
# Elastic Compliance Matrix: (Units=1/GPa)
#
#
# Indices 1 2 3 4 5 6 
#
# 1 0.027780 -0.017548 -0.004042 0.000000 0.000000 0.000000
# 2 -0.017548 0.027780 -0.004042 0.000000 0.000000 0.000000
# 3 -0.004042 -0.004042 0.013024 0.000000 0.000000 0.000000
# 4 0.000000 0.000000 0.000000 0.116259 0.000000 0.000000
# 5 0.000000 0.000000 0.000000 0.000000 0.116259 0.000000
# 6 0.000000 0.000000 0.000000 0.000000 0.000000 0.064057
#
#
# Mechanical properties :
#
#
# Convention : Reuss Voigt Hill
#
# Bulk Modulus (GPa) = 57.73783 57.93733 57.83758
# Shear Modulus (GPa) = 11.84281 14.50862 13.17571
#
# Velocity S-wave (km/s) = 2.59612 2.87349 2.73832
# Velocity P-wave (km/s) = 6.46880 6.63188 6.55085
#
# Compressibility (1/GPa) = 0.01731967
#
# Stress axis : x y z
#
# Youngs Moduli (GPa) = 35.99666 35.99724 76.78243
#
# Poissons Ratio (x) = 0.63168 0.31038
# Poissons Ratio (y) = 0.63167 0.31035
# Poissons Ratio (z) = 0.14551 0.14550
#
# Static dielectric constant tensor:
#      x y z
#    x 3.078600 0.000000 0.000000 
#    y 0.000000 3.078600 0.000000 
#    z 0.000000 0.000000 3.412010 
# 
# 
# High freq. dielectric constant tensor:
#      x y z
#    x 1.652290 0.000000 0.000000 
#    y 0.000000 1.652290 0.000000 
#    z 0.000000 0.000000 1.691360 
# 
# From -- ./inp_files/1664.got.cif
#   From: 2010.03.12/outbox.cif.g09.slc.cpg/sg111_1_cif.got.tgz:1664.got - 2010.04.14 01:59:48.
