data_PCOD8308822
_publ_section_title
;
Structure prediction by ZEFSAII (Michael W. Deem and Ramdas Pophale) SiO2 
 PCOD8308822
Probable space group: P -4 21 C
;
_chemical_formula_sum "Si O2"
_cell_formula_units_Z 48
_cell_length_a 15.847772
_cell_length_b 15.847772
_cell_length_c 8.654657
_cell_angle_alpha 90.000000
_cell_angle_beta 90.000000
_cell_angle_gamma 90.000000
_cell_volume 2173.633353
_symmetry_space_group_name_H-M "P -4 21 C"
_symmetry_group_IT_number 114
_symmetry_cell_setting 'tetragonal'
loop_
_space_group_symop_operation_xyz
x,y,z
y,-x,-z
-x,-y,z
-y,x,-z
1/2+x,1/2-y,1/2-z
1/2-x,1/2+y,1/2-z
1/2-y,1/2-x,1/2+z
1/2+y,1/2+x,1/2+z
loop_
_atom_site_type_symbol
_atom_site_label
_atom_site_fract_x
_atom_site_fract_y
_atom_site_fract_z
Si Si1 0.559617 0.203063 0.801726
Si Si2 0.055102 0.148798 0.177279
Si Si3 0.893424 0.692187 0.372571
Si Si4 0.121643 0.133643 0.844043
Si Si5 0.221910 0.735209 0.011859
Si Si6 0.388592 0.267058 0.762438
O O1 0.606649 0.124902 0.721115
O O2 0.603828 0.296078 0.787764
O O3 0.469208 0.211894 0.718044
O O4 0.543157 0.181934 0.982897
O O5 0.070413 0.240607 0.251443
O O6 0.132245 0.090829 0.244367
O O7 0.962575 0.111543 0.220404
O O8 0.060308 0.151710 0.990983
O O9 0.806751 0.712446 0.462289
O O10 0.218670 0.144043 0.899472
O O11 0.195246 0.739597 0.832796
O O12 0.240777 0.639247 0.063795
#
# Coordination Sequence:
#
# PCOD8308822 Si02
#       6
#     8   8   8   8   8   8
#     4  11  22  36  60  85 113 149 193 243 295 342
#     4  10  21  35  58  87 118 151 190 229 284 346
#     4  10  21  39  58  83 115 156 199 235 279 352
#     4  10  19  35  58  85 116 154 186 233 285 344
#     4   9  18  35  56  79 110 147 194 226 273 348
#     4  10  21  36  58  85 110 149 192 238 288 336
#
# _framework density 22.082840000000001
#
# number of rings (size 3 to 8) (size 9 to 14) (size 15 to 20)
#    0.000    2.000    0.000    7.000    0.000    6.333 
#    0.000    0.000    0.000   14.000    0.000    0.000 
#    0.000    0.000    0.000    0.000    0.000    0.000 
#
# Total GULP energy -594681.519159 kJ/mol
# GULP energy per Si atom -12389.198316 kJ/mol
# Density = 2.203258 g / cm^3
# Si number density = 22.082840 Si / 1000 Ang^3
#
#
#
# Elastic Constant Matrix: (Units=GPa)
#
#
# Indices 1 2 3 4 5 6 
#
# 1 47.0286 0.0167 16.6386 0.0000 0.0000 0.0000
# 2 0.0167 47.0286 16.6386 0.0000 0.0000 0.0000
# 3 16.6386 16.6386 63.1206 0.0000 0.0000 0.0000
# 4 0.0000 0.0000 0.0000 23.1248 0.0000 0.0000
# 5 0.0000 0.0000 0.0000 0.0000 23.1248 0.0000
# 6 0.0000 0.0000 0.0000 0.0000 0.0000 13.3895
#
#
#
# Elastic Compliance Matrix: (Units=1/GPa)
#
#
# Indices 1 2 3 4 5 6 
#
# 1 0.023700 0.002428 -0.006887 0.000000 0.000000 0.000000
# 2 0.002428 0.023700 -0.006887 0.000000 0.000000 0.000000
# 3 -0.006887 -0.006887 0.019474 0.000000 0.000000 0.000000
# 4 0.000000 0.000000 0.000000 0.043244 0.000000 0.000000
# 5 0.000000 0.000000 0.000000 0.000000 0.043244 0.000000
# 6 0.000000 0.000000 0.000000 0.000000 0.000000 0.074686
#
#
# Mechanical properties :
#
#
# Convention : Reuss Voigt Hill
#
# Bulk Modulus (GPa) = 22.63461 24.86285 23.74873
# Shear Modulus (GPa) = 18.83490 20.18676 19.51083
#
# Velocity S-wave (km/s) = 2.92365 3.02675 2.97565
# Velocity P-wave (km/s) = 4.65500 4.84750 4.75223
#
# Compressibility (1/GPa) = 0.04418014
#
# Stress axis : x y z
#
# Youngs Moduli (GPa) = 42.19491 42.19491 51.35135
#
# Poissons Ratio (x) = -0.10246 0.35367
# Poissons Ratio (y) = -0.10246 0.35367
# Poissons Ratio (z) = 0.29061 0.29061
#
# Static dielectric constant tensor:
#      x y z
#    x 3.828130 0.000000 0.000000 
#    y 0.000000 3.828130 0.000000 
#    z 0.000000 0.000000 4.064600 
# 
# 
# High freq. dielectric constant tensor:
#      x y z
#    x 1.845160 0.000000 0.000000 
#    y 0.000000 1.845160 0.000000 
#    z 0.000000 0.000000 1.867570 
# 
# From -- ./inp_files/917.got.cif
#   From: 2010.03.12/outbox.cif.g09.slc.cpg/sg114_1_cif.got.tgz:917.got - 2010.04.14 02:08:34.
