data_PCOD8308893
_publ_section_title
;
Structure prediction by ZEFSAII (Michael W. Deem and Ramdas Pophale) SiO2 
 PCOD8308893
Probable space group: P -4 21 C
;
_chemical_formula_sum "Si O2"
_cell_formula_units_Z 48
_cell_length_a 9.117867
_cell_length_b 9.117867
_cell_length_c 29.186501
_cell_angle_alpha 90.000000
_cell_angle_beta 90.000000
_cell_angle_gamma 90.000000
_cell_volume 2426.434314
_symmetry_space_group_name_H-M "P -4 21 C"
_symmetry_group_IT_number 114
_symmetry_cell_setting 'tetragonal'
loop_
_space_group_symop_operation_xyz
x,y,z
y,-x,-z
-x,-y,z
-y,x,-z
1/2+x,1/2-y,1/2-z
1/2-x,1/2+y,1/2-z
1/2-y,1/2-x,1/2+z
1/2+y,1/2+x,1/2+z
loop_
_atom_site_type_symbol
_atom_site_label
_atom_site_fract_x
_atom_site_fract_y
_atom_site_fract_z
Si Si1 0.135214 0.894061 0.729210
Si Si2 0.823674 0.672699 0.034553
Si Si3 0.670595 0.839097 0.955258
Si Si4 0.179247 0.133990 0.369264
Si Si5 0.133130 0.608636 0.788079
Si Si6 0.807612 0.855794 0.620638
O O1 0.197186 0.819977 0.682332
O O2 0.094951 0.764498 0.764216
O O3 0.258945 0.011766 0.744662
O O4 0.000000 0.000000 0.717299
O O5 0.801072 0.498259 0.034114
O O6 0.734268 0.748825 0.076340
O O7 0.993356 0.713274 0.038397
O O8 0.769646 0.737906 0.986976
O O9 0.705744 0.801834 0.901923
O O10 0.024295 0.167905 0.393773
O O11 0.213353 0.961580 0.363617
O O12 0.195981 0.656342 0.837213
O O13 0.000000 0.500000 0.797000
#
# Coordination Sequence:
#
# PCOD8308893 Si02
#       6
#     8   8   8   8   8   8
#     4  11  21  41  61  89 127 161 209 257 307 367
#     4  10  21  38  59  88 117 151 193 247 295 360
#     4  10  21  37  61  89 114 150 198 241 303 354
#     4   9  17  36  62  83 113 155 199 247 288 350
#     4  11  23  37  61  93 121 164 202 253 311 364
#     4   9  18  37  59  83 117 151 202 242 286 350
#
# _framework density 19.782112999999999
#
# number of rings (size 3 to 8) (size 9 to 14) (size 15 to 20)
#    0.000    2.000    3.333    2.000    0.000    3.333 
#   12.000    0.000    0.000    0.000    0.000    0.000 
#    0.000    0.000    0.000    0.000    0.000    0.000 
#
# Total GULP energy -594848.530175 kJ/mol
# GULP energy per Si atom -12392.677712 kJ/mol
# Density = 1.973709 g / cm^3
# Si number density = 19.782113 Si / 1000 Ang^3
#
#
#
# Elastic Constant Matrix: (Units=GPa)
#
#
# Indices 1 2 3 4 5 6 
#
# 1 78.8606 38.4051 53.5256 0.0000 0.0000 0.0000
# 2 38.4051 78.8606 53.5256 0.0000 0.0000 0.0000
# 3 53.5256 53.5256 116.4277 0.0000 0.0000 0.0000
# 4 0.0000 0.0000 0.0000 26.7137 0.0000 0.0000
# 5 0.0000 0.0000 0.0000 0.0000 26.7137 0.0000
# 6 0.0000 0.0000 0.0000 0.0000 0.0000 23.5773
#
#
#
# Elastic Compliance Matrix: (Units=1/GPa)
#
#
# Indices 1 2 3 4 5 6 
#
# 1 0.019707 -0.005012 -0.006756 0.000000 0.000000 0.000000
# 2 -0.005012 0.019707 -0.006756 0.000000 0.000000 0.000000
# 3 -0.006756 -0.006756 0.014801 0.000000 0.000000 0.000000
# 4 0.000000 0.000000 0.000000 0.037434 0.000000 0.000000
# 5 0.000000 0.000000 0.000000 0.000000 0.037434 0.000000
# 6 0.000000 0.000000 0.000000 0.000000 0.000000 0.042414
#
#
# Mechanical properties :
#
#
# Convention : Reuss Voigt Hill
#
# Bulk Modulus (GPa) = 58.24928 62.78462 60.51695
# Shear Modulus (GPa) = 23.33561 23.98045 23.65803
#
# Velocity S-wave (km/s) = 3.43830 3.48548 3.46197
# Velocity P-wave (km/s) = 6.72844 6.92857 6.82924
#
# Compressibility (1/GPa) = 0.01716759
#
# Stress axis : x y z
#
# Youngs Moduli (GPa) = 50.74409 50.74409 67.56441
#
# Poissons Ratio (x) = 0.25432 0.45645
# Poissons Ratio (y) = 0.25432 0.45645
# Poissons Ratio (z) = 0.34281 0.34281
#
# Static dielectric constant tensor:
#      x y z
#    x 3.588280 0.000000 0.000000 
#    y 0.000000 3.588280 0.000000 
#    z 0.000000 0.000000 3.523640 
# 
# 
# High freq. dielectric constant tensor:
#      x y z
#    x 1.761630 0.000000 0.000000 
#    y 0.000000 1.761630 0.000000 
#    z 0.000000 0.000000 1.766790 
# 
# From -- ./inp_files/3920.got.cif
#   From: 2010.03.12/outbox.cif.g09.slc.cpg/sg114_2_cif.got.tgz:3920.got - 2010.04.14 02:08:34.
