data_PCOD8308622
_publ_section_title
;
Structure prediction by ZEFSAII (Michael W. Deem and Ramdas Pophale) SiO2 
 PCOD8308622
Probable space group: P -4 21 M 
;
_chemical_formula_sum "Si O2"
_cell_formula_units_Z 56
_cell_length_a 16.160918
_cell_length_b 16.160918
_cell_length_c 11.163752
_cell_angle_alpha 90.000000
_cell_angle_beta 90.000000
_cell_angle_gamma 90.000000
_cell_volume 2915.695950
_symmetry_space_group_name_H-M "P -4 21 M "
_symmetry_group_IT_number 113
_symmetry_cell_setting 'tetragonal'
loop_
_space_group_symop_operation_xyz
x,y,z
y,-x,-z
-x,-y,z
-y,x,-z
1/2+x,1/2-y,-z
1/2-x,1/2+y,-z
1/2-y,1/2-x,z
1/2+y,1/2+x,z
loop_
_atom_site_type_symbol
_atom_site_label
_atom_site_fract_x
_atom_site_fract_y
_atom_site_fract_z
Si Si1 0.201419 0.430608 0.182146
Si Si2 0.315233 0.054977 0.037269
Si Si3 0.339299 0.661504 0.955983
Si Si4 0.008322 0.181482 0.376399
Si Si5 0.234585 0.398331 0.834298
Si Si6 0.542252 0.579775 0.211638
Si Si7 0.161812 0.908437 0.373090
O O1 0.113937 0.386064 0.210452
O O2 0.234467 0.476990 0.301476
O O3 0.191132 0.501590 0.083592
O O4 0.264562 0.358800 0.137641
O O5 0.407942 0.092059 0.051786
O O6 0.293838 0.994022 0.148383
O O7 0.256449 0.136248 0.031899
O O8 0.377273 0.685100 0.084305
O O9 0.379823 0.578133 0.907024
O O10 0.054691 0.107487 0.312315
O O11 0.050994 0.191771 0.504554
O O12 0.910801 0.159354 0.391739
O O13 0.159029 0.340972 0.878270
O O14 0.257756 0.373119 0.696981
O O15 0.500000 0.500000 0.157714
O O16 0.478847 0.638640 0.278058
#
# Coordination Sequence:
#
# PCOD8308622 Si02
#       7
#     8   8   8   8   8   8   8
#     4  10  22  38  55  82 115 151 195 239 284 339
#     4  11  21  37  62  85 111 153 197 238 291 348
#     4  10  19  37  54  84 120 151 183 237 291 350
#     4  10  20  33  60  83 114 149 187 233 285 348
#     4  11  24  38  55  84 121 155 192 237 289 348
#     4   9  18  32  53  84 115 148 178 223 281 347
#     4  11  19  36  57  84 117 146 188 232 293 344
#
# _framework density 19.206392999999998
#
# number of rings (size 3 to 8) (size 9 to 14) (size 15 to 20)
#    0.000    1.714    2.857    3.429    0.000    2.857 
#    0.000    0.000    0.000    1.714    0.000    2.000 
#    0.000    0.000    0.000    0.000    0.000    0.000 
#
# Total GULP energy -693990.120183 kJ/mol
# GULP energy per Si atom -12392.680718 kJ/mol
# Density = 1.916268 g / cm^3
# Si number density = 19.206393 Si / 1000 Ang^3
#
#
#
# Elastic Constant Matrix: (Units=GPa)
#
#
# Indices 1 2 3 4 5 6 
#
# 1 71.1829 50.8987 41.8450 0.0000 0.0000 0.0000
# 2 50.8987 71.1834 41.8442 0.0000 0.0000 0.0000
# 3 41.8450 41.8442 114.9610 0.0000 0.0000 0.0000
# 4 0.0000 0.0000 0.0000 20.4958 0.0000 0.0000
# 5 0.0000 0.0000 0.0000 0.0000 20.4961 0.0000
# 6 0.0000 0.0000 0.0000 0.0000 0.0000 35.7136
#
#
#
# Elastic Compliance Matrix: (Units=1/GPa)
#
#
# Indices 1 2 3 4 5 6 
#
# 1 0.030107 -0.019192 -0.003973 0.000000 0.000000 0.000000
# 2 -0.019192 0.030106 -0.003973 0.000000 0.000000 0.000000
# 3 -0.003973 -0.003973 0.011591 0.000000 0.000000 0.000000
# 4 0.000000 0.000000 0.000000 0.048790 0.000000 0.000000
# 5 0.000000 0.000000 0.000000 0.000000 0.048790 0.000000
# 6 0.000000 0.000000 0.000000 0.000000 0.000000 0.028001
#
#
# Mechanical properties :
#
#
# Convention : Reuss Voigt Hill
#
# Bulk Modulus (GPa) = 57.04906 58.50034 57.77470
# Shear Modulus (GPa) = 19.41725 23.52375 21.47050
#
# Velocity S-wave (km/s) = 3.18304 3.50349 3.34710
# Velocity P-wave (km/s) = 6.57850 6.84769 6.71444
#
# Compressibility (1/GPa) = 0.01752877
#
# Stress axis : x y z
#
# Youngs Moduli (GPa) = 33.21490 33.21551 86.27590
#
# Poissons Ratio (x) = 0.63747 0.34278
# Poissons Ratio (y) = 0.63746 0.34274
# Poissons Ratio (z) = 0.13197 0.13195
#
# Static dielectric constant tensor:
#      x y z
#    x 3.464080 0.000000 0.000000 
#    y 0.000000 3.464080 0.000000 
#    z 0.000000 0.000000 3.426280 
# 
# 
# High freq. dielectric constant tensor:
#      x y z
#    x 1.739920 0.000000 0.000000 
#    y 0.000000 1.739920 0.000000 
#    z 0.000000 0.000000 1.736670 
# 
# From -- ./inp_files/1978.got.cif
#   From: 2010.03.12/outbox.cif.g09.slc.cpg/sg113_cif.got.tgz:1978.got - 2010.04.14 02:06:34.
