data_PCOD8308106
_publ_section_title
;
Structure prediction by ZEFSAII (Michael W. Deem and Ramdas Pophale) SiO2 
 PCOD8308106
Probable space group: P -4 2 M 
;
_chemical_formula_sum "Si O2"
_cell_formula_units_Z 64
_cell_length_a 12.211840
_cell_length_b 12.211840
_cell_length_c 26.538825
_cell_angle_alpha 90.000000
_cell_angle_beta 90.000000
_cell_angle_gamma 90.000000
_cell_volume 3957.709394
_symmetry_space_group_name_H-M "P -4 2 M "
_symmetry_group_IT_number 111
_symmetry_cell_setting 'tetragonal'
loop_
_space_group_symop_operation_xyz
x,y,z
y,-x,-z
-x,-y,z
-y,x,-z
x,-y,-z
-x,y,-z
-y,-x,z
y,x,z
loop_
_atom_site_type_symbol
_atom_site_label
_atom_site_fract_x
_atom_site_fract_y
_atom_site_fract_z
Si Si1 0.460288 0.885059 0.887434
Si Si2 0.322332 0.499204 0.700840
Si Si3 0.285557 0.110888 0.561025
Si Si4 0.502843 0.677228 0.818206
Si Si5 0.591467 0.754795 0.965710
Si Si6 0.730026 0.897895 0.037205
Si Si7 0.874344 0.510313 0.626134
Si Si8 0.135137 0.688216 0.552754
O O1 0.469248 0.788365 0.846706
O O2 0.544316 0.850423 0.931051
O O3 0.340091 0.911038 0.910948
O O4 0.500000 0.000000 0.863241
O O5 0.393351 0.606650 0.687969
O O6 0.391451 0.391451 0.685045
O O7 0.294109 0.495146 0.759549
O O8 0.207173 0.506828 0.672422
O O9 0.171485 0.171485 0.570715
O O10 0.370538 0.147922 0.603435
O O11 0.336159 0.142912 0.506751
O O12 0.259399 0.982556 0.565140
O O13 0.408927 0.591074 0.831316
O O14 0.620378 0.620378 0.832938
O O15 0.659491 0.659491 0.935905
O O16 0.500000 0.695743 0.000000
O O17 0.670825 0.807794 0.005201
O O18 0.850418 0.850418 0.052168
O O19 0.743995 0.000000 0.000000
O O20 0.848574 0.424459 0.582066
O O21 0.000000 0.500000 0.645059
O O22 0.226667 0.773334 0.570951
#
# Coordination Sequence:
#
# PCOD8308106 Si02
#       8
#     8   8   8   8   8   8   8   8
#     4  11  19  30  50  71  96 123 148 181 227 270
#     4   9  18  33  51  68  89 118 152 190 231 278
#     4   9  17  28  42  62  89 121 155 192 231 273
#     4   9  19  35  52  71  94 120 152 191 234 277
#     4   9  18  29  44  65  91 120 148 179 214 254
#     4  10  19  32  47  66  91 122 156 183 210 248
#     4  10  18  28  45  67  92 119 150 189 236 280
#     4   9  17  28  42  62  89 121 156 191 229 275
#
# _framework density 16.170971000000002
#
# number of rings (size 3 to 8) (size 9 to 14) (size 15 to 20)
#    0.000    2.500    1.250    2.625    0.000    3.000 
#    0.000    1.250    0.000    0.000    0.000    5.250 
#    0.000    0.000    0.000   19.750    0.000    0.125 
#
# Total GULP energy -792877.223140 kJ/mol
# GULP energy per Si atom -12388.706612 kJ/mol
# Density = 1.613416 g / cm^3
# Si number density = 16.170971 Si / 1000 Ang^3
#
#
#
# Elastic Constant Matrix: (Units=GPa)
#
#
# Indices 1 2 3 4 5 6 
#
# 1 82.8509 40.5483 31.5335 0.0000 0.0000 0.0000
# 2 40.5483 82.8534 31.5347 0.0000 0.0000 0.0000
# 3 31.5335 31.5347 58.0763 0.0000 0.0000 0.0000
# 4 0.0000 0.0000 0.0000 23.6173 0.0000 0.0000
# 5 0.0000 0.0000 0.0000 0.0000 23.6172 0.0000
# 6 0.0000 0.0000 0.0000 0.0000 0.0000 50.1910
#
#
#
# Elastic Compliance Matrix: (Units=1/GPa)
#
#
# Indices 1 2 3 4 5 6 
#
# 1 0.017428 -0.006211 -0.006090 0.000000 0.000000 0.000000
# 2 -0.006211 0.017427 -0.006090 0.000000 0.000000 0.000000
# 3 -0.006090 -0.006090 0.023832 0.000000 0.000000 0.000000
# 4 0.000000 0.000000 0.000000 0.042342 0.000000 0.000000
# 5 0.000000 0.000000 0.000000 0.000000 0.042342 0.000000
# 6 0.000000 0.000000 0.000000 0.000000 0.000000 0.019924
#
#
# Mechanical properties :
#
#
# Convention : Reuss Voigt Hill
#
# Bulk Modulus (GPa) = 45.65328 47.89038 46.77183
# Shear Modulus (GPa) = 24.11042 27.49606 25.80324
#
# Velocity S-wave (km/s) = 3.86550 4.12798 3.99889
# Velocity P-wave (km/s) = 6.94375 7.23876 7.09279
#
# Compressibility (1/GPa) = 0.02190423
#
# Stress axis : x y z
#
# Youngs Moduli (GPa) = 57.38041 57.38144 41.95975
#
# Poissons Ratio (x) = 0.35640 0.25554
# Poissons Ratio (y) = 0.35640 0.25555
# Poissons Ratio (z) = 0.34945 0.34947
#
# Static dielectric constant tensor:
#      x y z
#    x 3.319760 0.000000 0.000000 
#    y 0.000000 3.319770 0.000000 
#    z 0.000000 0.000000 2.829330 
# 
# 
# High freq. dielectric constant tensor:
#      x y z
#    x 1.621980 0.000000 0.000000 
#    y 0.000000 1.621980 0.000000 
#    z 0.000000 0.000000 1.599690 
# 
# From -- ./inp_files/4243.got.cif
#   From: 2010.03.12/outbox.cif.g09.slc.cpg/sg111_3_cif.got.tgz:4243.got - 2010.04.14 01:59:48.
