data_PCOD8308877
_publ_section_title
;
Structure prediction by ZEFSAII (Michael W. Deem and Ramdas Pophale) SiO2 
 PCOD8308877
Probable space group: P -4 21 C
;
_chemical_formula_sum "Si O2"
_cell_formula_units_Z 56
_cell_length_a 11.274004
_cell_length_b 11.274004
_cell_length_c 20.858457
_cell_angle_alpha 90.000000
_cell_angle_beta 90.000000
_cell_angle_gamma 90.000000
_cell_volume 2651.175927
_symmetry_space_group_name_H-M "P -4 21 C"
_symmetry_group_IT_number 114
_symmetry_cell_setting 'tetragonal'
loop_
_space_group_symop_operation_xyz
x,y,z
y,-x,-z
-x,-y,z
-y,x,-z
1/2+x,1/2-y,1/2-z
1/2-x,1/2+y,1/2-z
1/2-y,1/2-x,1/2+z
1/2+y,1/2+x,1/2+z
loop_
_atom_site_type_symbol
_atom_site_label
_atom_site_fract_x
_atom_site_fract_y
_atom_site_fract_z
Si Si1 0.140365 0.244266 0.962693
Si Si2 0.413897 0.779275 0.671970
Si Si3 0.997386 0.858831 0.078827
Si Si4 0.572848 0.890670 0.773727
Si Si5 0.142654 0.852326 0.675355
Si Si6 0.642681 0.592275 0.967611
Si Si7 0.164550 0.032019 0.782508
O O1 0.052244 0.284351 0.904412
O O2 0.234085 0.343728 0.979781
O O3 0.200085 0.127342 0.930956
O O4 0.083943 0.210325 0.029672
O O5 0.509432 0.861872 0.706348
O O6 0.282782 0.831361 0.681434
O O7 0.418366 0.645995 0.701827
O O8 0.955711 0.829688 0.151143
O O9 0.000000 0.000000 0.063930
O O10 0.571865 0.772187 0.817091
O O11 0.706220 0.929696 0.758483
O O12 0.500000 0.000000 0.806774
O O13 0.106149 0.904509 0.606811
O O14 0.104861 0.948632 0.728951
O O15 0.656537 0.456604 0.989338
#
# Coordination Sequence:
#
# PCOD8308877 Si02
#       7
#     8   8   8   8   8   8   8
#     4  10  20  41  66  95 128 170 219 271 327 397
#     4   9  21  39  62  93 132 168 209 270 323 386
#     4  11  21  40  66  97 133 165 214 280 332 387
#     4  11  22  41  65  93 138 169 211 273 331 388
#     4  10  22  42  64  94 131 167 222 271 317 407
#     4  10  24  47  64  89 131 180 223 273 328 399
#     4  10  23  39  63 100 127 170 221 263 334 398
#
# _framework density 21.122703000000001
#
# number of rings (size 3 to 8) (size 9 to 14) (size 15 to 20)
#    0.000    1.857    2.857    0.857    4.000    3.429 
#    7.714    0.714    0.000    0.000    0.000    0.000 
#    0.000    0.000    0.000    0.000    0.000    0.000 
#
# Total GULP energy -694062.208908 kJ/mol
# GULP energy per Si atom -12393.968016 kJ/mol
# Density = 2.107463 g / cm^3
# Si number density = 21.122703 Si / 1000 Ang^3
#
#
#
# Elastic Constant Matrix: (Units=GPa)
#
#
# Indices 1 2 3 4 5 6 
#
# 1 76.3393 23.1872 48.0210 0.0000 0.0000 0.0000
# 2 23.1872 76.3393 48.0210 0.0000 0.0000 0.0000
# 3 48.0210 48.0210 172.7280 0.0000 0.0000 0.0000
# 4 0.0000 0.0000 0.0000 34.3993 0.0000 0.0000
# 5 0.0000 0.0000 0.0000 0.0000 34.3993 0.0000
# 6 0.0000 0.0000 0.0000 0.0000 0.0000 27.3470
#
#
#
# Elastic Compliance Matrix: (Units=1/GPa)
#
#
# Indices 1 2 3 4 5 6 
#
# 1 0.016273 -0.002541 -0.003818 0.000000 0.000000 0.000000
# 2 -0.002541 0.016273 -0.003818 0.000000 0.000000 0.000000
# 3 -0.003818 -0.003818 0.007912 0.000000 0.000000 0.000000
# 4 0.000000 0.000000 0.000000 0.029070 0.000000 0.000000
# 5 0.000000 0.000000 0.000000 0.000000 0.029070 0.000000
# 6 0.000000 0.000000 0.000000 0.000000 0.000000 0.036567
#
#
# Mechanical properties :
#
#
# Convention : Reuss Voigt Hill
#
# Bulk Modulus (GPa) = 49.73923 62.65168 56.19545
# Shear Modulus (GPa) = 30.82240 32.97427 31.89833
#
# Velocity S-wave (km/s) = 3.82410 3.95534 3.89027
# Velocity P-wave (km/s) = 6.56485 7.11230 6.84405
#
# Compressibility (1/GPa) = 0.02010486
#
# Stress axis : x y z
#
# Youngs Moduli (GPa) = 61.45261 61.45261 126.38820
#
# Poissons Ratio (x) = 0.15616 0.48250
# Poissons Ratio (y) = 0.15616 0.48250
# Poissons Ratio (z) = 0.23460 0.23460
#
# Static dielectric constant tensor:
#      x y z
#    x 3.796390 0.000000 0.000000 
#    y 0.000000 3.796390 0.000000 
#    z 0.000000 0.000000 4.063270 
# 
# 
# High freq. dielectric constant tensor:
#      x y z
#    x 1.819780 0.000000 0.000000 
#    y 0.000000 1.819780 0.000000 
#    z 0.000000 0.000000 1.834300 
# 
# From -- ./inp_files/3141.got.cif
#   From: 2010.03.12/outbox.cif.g09.slc.cpg/sg114_2_cif.got.tgz:3141.got - 2010.04.14 02:08:34.
