data_PCOD8308636
_publ_section_title
;
Structure prediction by ZEFSAII (Michael W. Deem and Ramdas Pophale) SiO2 
 PCOD8308636
Probable space group: P -4 21 M 
;
_chemical_formula_sum "Si O2"
_cell_formula_units_Z 64
_cell_length_a 11.725618
_cell_length_b 11.725618
_cell_length_c 23.370989
_cell_angle_alpha 90.000000
_cell_angle_beta 90.000000
_cell_angle_gamma 90.000000
_cell_volume 3213.280023
_symmetry_space_group_name_H-M "P -4 21 M "
_symmetry_group_IT_number 113
_symmetry_cell_setting 'tetragonal'
loop_
_space_group_symop_operation_xyz
x,y,z
y,-x,-z
-x,-y,z
-y,x,-z
1/2+x,1/2-y,-z
1/2-x,1/2+y,-z
1/2-y,1/2-x,z
1/2+y,1/2+x,z
loop_
_atom_site_type_symbol
_atom_site_label
_atom_site_fract_x
_atom_site_fract_y
_atom_site_fract_z
Si Si1 0.334120 0.342526 0.328848
Si Si2 0.726232 0.408330 0.551578
Si Si3 0.256528 0.429043 0.870065
Si Si4 0.089262 0.769712 0.065785
Si Si5 0.850402 0.835186 0.565255
Si Si6 0.465837 0.625265 0.242949
Si Si7 0.667481 0.349796 0.940668
Si Si8 0.918297 0.233192 0.320510
O O1 0.272989 0.227012 0.309263
O O2 0.350578 0.345084 0.397341
O O3 0.452607 0.345619 0.295722
O O4 0.250343 0.446827 0.311700
O O5 0.848864 0.348864 0.543846
O O6 0.651584 0.406002 0.493654
O O7 0.746077 0.539567 0.567369
O O8 0.127786 0.372215 0.877154
O O9 0.347500 0.329591 0.881557
O O10 0.278283 0.474579 0.805909
O O11 0.287412 0.533492 0.912044
O O12 0.135667 0.635667 0.063873
O O13 0.955468 0.794972 0.075908
O O14 0.130566 0.832880 0.008378
O O15 0.740309 0.759692 0.566669
O O16 0.843732 0.912132 0.621860
O O17 0.500000 0.500000 0.218460
O O18 0.337633 0.630857 0.267106
O O19 0.755101 0.255101 0.920166
O O20 0.854231 0.354231 0.324291
#
# Coordination Sequence:
#
# PCOD8308636 Si02
#       8
#     8   8   8   8   8   8   8   8
#     4  10  21  36  55  81 113 151 193 239 298 354
#     4  10  20  34  52  78 111 145 187 238 290 350
#     4  11  23  39  62  92 122 160 205 251 301 358
#     4  10  21  37  60  90 123 161 205 249 301 362
#     4  10  20  33  53  79 108 145 189 236 292 352
#     4  10  20  37  61  83 114 155 199 250 296 347
#     4  11  22  37  60  89 124 164 202 250 305 361
#     4  10  20  35  56  83 112 146 192 243 292 351
#
# _framework density 19.917345000000001
#
# number of rings (size 3 to 8) (size 9 to 14) (size 15 to 20)
#    0.000    1.750    2.500    2.250    0.000    2.750 
#    0.000    1.250    0.000    5.625    0.000    3.500 
#    0.000    0.000    0.000    0.000    0.000    0.000 
#
# Total GULP energy -792894.925759 kJ/mol
# GULP energy per Si atom -12388.983215 kJ/mol
# Density = 1.987201 g / cm^3
# Si number density = 19.917345 Si / 1000 Ang^3
#
#
#
# Elastic Constant Matrix: (Units=GPa)
#
#
# Indices 1 2 3 4 5 6 
#
# 1 76.9259 32.3936 16.7374 0.0000 0.0000 0.0000
# 2 32.3936 76.9241 16.7386 0.0000 0.0000 0.0000
# 3 16.7374 16.7386 73.1916 0.0000 0.0000 0.0000
# 4 0.0000 0.0000 0.0000 18.6427 0.0000 0.0000
# 5 0.0000 0.0000 0.0000 0.0000 18.6428 0.0000
# 6 0.0000 0.0000 0.0000 0.0000 0.0000 26.8656
#
#
#
# Elastic Compliance Matrix: (Units=1/GPa)
#
#
# Indices 1 2 3 4 5 6 
#
# 1 0.016146 -0.006310 -0.002249 0.000000 0.000000 0.000000
# 2 -0.006310 0.016147 -0.002250 0.000000 0.000000 0.000000
# 3 -0.002249 -0.002250 0.014692 0.000000 0.000000 0.000000
# 4 0.000000 0.000000 0.000000 0.053640 0.000000 0.000000
# 5 0.000000 0.000000 0.000000 0.000000 0.053640 0.000000
# 6 0.000000 0.000000 0.000000 0.000000 0.000000 0.037222
#
#
# Mechanical properties :
#
#
# Convention : Reuss Voigt Hill
#
# Bulk Modulus (GPa) = 39.42193 39.86453 39.64323
# Shear Modulus (GPa) = 22.56725 23.57500 23.07112
#
# Velocity S-wave (km/s) = 3.36972 3.44414 3.40714
# Velocity P-wave (km/s) = 5.91403 5.98954 5.95191
#
# Compressibility (1/GPa) = 0.02536659
#
# Stress axis : x y z
#
# Youngs Moduli (GPa) = 61.93487 61.93290 68.06604
#
# Poissons Ratio (x) = 0.39079 0.15310
# Poissons Ratio (y) = 0.39080 0.15313
# Poissons Ratio (z) = 0.13931 0.13933
#
# Static dielectric constant tensor:
#      x y z
#    x 3.543670 0.000000 0.000000 
#    y 0.000000 3.543670 0.000000 
#    z 0.000000 0.000000 3.793050 
# 
# 
# High freq. dielectric constant tensor:
#      x y z
#    x 1.767080 0.000000 0.000000 
#    y 0.000000 1.767080 0.000000 
#    z 0.000000 0.000000 1.779470 
# 
# From -- ./inp_files/2904.got.cif
#   From: 2010.03.12/outbox.cif.g09.slc.cpg/sg113_cif.got.tgz:2904.got - 2010.04.14 02:06:34.
