data_PCOD8308610
_publ_section_title
;
Structure prediction by ZEFSAII (Michael W. Deem and Ramdas Pophale) SiO2 
 PCOD8308610
Probable space group: P -4 21 M 
;
_chemical_formula_sum "Si O2"
_cell_formula_units_Z 56
_cell_length_a 12.162200
_cell_length_b 12.162200
_cell_length_c 20.566900
_cell_angle_alpha 90.000000
_cell_angle_beta 90.000000
_cell_angle_gamma 90.000000
_cell_volume 3042.237520
_symmetry_space_group_name_H-M "P -4 21 M "
_symmetry_group_IT_number 113
_symmetry_cell_setting 'tetragonal'
loop_
_space_group_symop_operation_xyz
x,y,z
y,-x,-z
-x,-y,z
-y,x,-z
1/2+x,1/2-y,-z
1/2-x,1/2+y,-z
1/2-y,1/2-x,z
1/2+y,1/2+x,z
loop_
_atom_site_type_symbol
_atom_site_label
_atom_site_fract_x
_atom_site_fract_y
_atom_site_fract_z
Si Si1 0.142680 0.178767 0.419484
Si Si2 0.211293 0.109596 0.559978
Si Si3 0.773635 0.103461 0.081388
Si Si4 0.771166 0.441589 0.025551
Si Si5 0.154791 0.839683 0.217712
Si Si6 0.494001 0.821370 0.839376
Si Si7 0.374204 0.473471 0.654638
O O1 0.212864 0.287137 0.408724
O O2 0.168502 0.117991 0.486859
O O3 0.016996 0.221355 0.418001
O O4 0.179584 0.091576 0.363145
O O5 0.328267 0.171734 0.568757
O O6 0.121841 0.168380 0.606383
O O7 0.649751 0.149751 0.085883
O O8 0.845823 0.188507 0.042052
O O9 0.821813 0.088461 0.153522
O O10 0.772669 0.991664 0.041474
O O11 0.891922 0.391922 0.012532
O O12 0.776305 0.526119 0.087114
O O13 0.252226 0.752226 0.231351
O O14 0.147888 0.932243 0.272699
O O15 0.037165 0.775047 0.209311
O O16 0.382407 0.882407 0.813897
O O17 0.593624 0.906377 0.844800
O O18 0.500000 0.500000 0.640568
#
# Coordination Sequence:
#
# PCOD8308610 Si02
#       7
#     8   8   8   8   8   8   8
#     4  10  20  35  57  85 116 146 183 228 269 322
#     4  10  19  34  59  86 111 143 183 226 275 323
#     4   9  18  32  49  72 102 134 171 218 265 320
#     4   9  17  30  48  72 100 132 172 220 272 318
#     4   9  18  34  51  73 106 141 180 219 262 326
#     4   8  14  27  50  76 100 128 168 221 277 325
#     4  10  20  35  57  78 107 147 183 219 269 331
#
# _framework density 18.407503999999999
#
# number of rings (size 3 to 8) (size 9 to 14) (size 15 to 20)
#    0.000    2.714    1.429    2.571    0.000    1.429 
#    5.143    3.571    0.000    6.000    0.000    0.000 
#    0.000    0.000    0.000    0.000    0.000    0.000 
#
# Total GULP energy -693809.208824 kJ/mol
# GULP energy per Si atom -12389.450158 kJ/mol
# Density = 1.836561 g / cm^3
# Si number density = 18.407504 Si / 1000 Ang^3
#
#
#
# Elastic Constant Matrix: (Units=GPa)
#
#
# Indices 1 2 3 4 5 6 
#
# 1 64.4189 53.8276 44.9879 0.0000 0.0000 0.0000
# 2 53.8276 64.4178 44.9868 0.0000 0.0000 0.0000
# 3 44.9879 44.9868 108.2717 0.0000 0.0000 0.0000
# 4 0.0000 0.0000 0.0000 25.3336 0.0000 0.0000
# 5 0.0000 0.0000 0.0000 0.0000 25.3337 0.0000
# 6 0.0000 0.0000 0.0000 0.0000 0.0000 17.6948
#
#
#
# Elastic Compliance Matrix: (Units=1/GPa)
#
#
# Indices 1 2 3 4 5 6 
#
# 1 0.053394 -0.041027 -0.005139 0.000000 0.000000 0.000000
# 2 -0.041027 0.053394 -0.005138 0.000000 0.000000 0.000000
# 3 -0.005139 -0.005138 0.013506 0.000000 0.000000 0.000000
# 4 0.000000 0.000000 0.000000 0.039473 0.000000 0.000000
# 5 0.000000 0.000000 0.000000 0.000000 0.039473 0.000000
# 6 0.000000 0.000000 0.000000 0.000000 0.000000 0.056514
#
#
# Mechanical properties :
#
#
# Convention : Reuss Voigt Hill
#
# Bulk Modulus (GPa) = 56.54205 58.30145 57.42175
# Shear Modulus (GPa) = 13.72652 19.89285 16.80969
#
# Velocity S-wave (km/s) = 2.73372 3.29095 3.02519
# Velocity P-wave (km/s) = 6.38340 6.79573 6.59279
#
# Compressibility (1/GPa) = 0.01768595
#
# Stress axis : x y z
#
# Youngs Moduli (GPa) = 18.72868 18.72861 74.04025
#
# Poissons Ratio (x) = 0.76838 0.38049
# Poissons Ratio (y) = 0.76839 0.38042
# Poissons Ratio (z) = 0.09625 0.09623
#
# Static dielectric constant tensor:
#      x y z
#    x 3.326320 0.000000 0.000000 
#    y 0.000000 3.326320 0.000000 
#    z 0.000000 0.000000 3.340280 
# 
# 
# High freq. dielectric constant tensor:
#      x y z
#    x 1.697000 0.000000 0.000000 
#    y 0.000000 1.697000 0.000000 
#    z 0.000000 0.000000 1.709030 
# 
# From -- ./inp_files/2692.got.cif
#   From: 2010.03.12/outbox.cif.g09.slc.cpg/sg113_cif.got.tgz:2692.got - 2010.04.14 02:06:34.
