data_PCOD8308459
_publ_section_title
;
Structure prediction by ZEFSAII (Michael W. Deem and Ramdas Pophale) SiO2 
 PCOD8308459
Probable space group: P -4 2 C
;
_chemical_formula_sum "Si O2"
_cell_formula_units_Z 34
_cell_length_a 9.225709
_cell_length_b 9.225709
_cell_length_c 20.534630
_cell_angle_alpha 90.000000
_cell_angle_beta 90.000000
_cell_angle_gamma 90.000000
_cell_volume 1747.778472
_symmetry_space_group_name_H-M "P -4 2 C"
_symmetry_group_IT_number 112
_symmetry_cell_setting 'tetragonal'
loop_
_space_group_symop_operation_xyz
x,y,z
y,-x,-z
-x,-y,z
-y,x,-z
x,-y,1/2-z
-x,y,1/2-z
-y,-x,1/2+z
y,x,1/2+z
loop_
_atom_site_type_symbol
_atom_site_label
_atom_site_fract_x
_atom_site_fract_y
_atom_site_fract_z
Si Si1 0.345466 0.227888 0.923162
Si Si2 0.504273 0.839842 0.448556
Si Si3 0.328953 0.012217 0.677412
Si Si4 0.629061 0.675052 0.640813
Si Si5 0.500000 0.500000 0.250000
O O1 0.219102 0.330461 0.952197
O O2 0.465881 0.324518 0.887223
O O3 0.273781 0.112211 0.872632
O O4 0.429669 0.145785 0.980890
O O5 0.415958 0.731033 0.404858
O O6 0.500000 0.000000 0.417356
O O7 0.293849 0.169141 0.647804
O O8 0.500000 0.000000 0.683926
O O9 0.258704 0.000000 0.750000
O O10 0.611505 0.600695 0.710581
#
# Coordination Sequence:
#
# PCOD8308459 Si02
#       5
#     8   8   8   8   2
#     4  11  21  40  63  90 122 162 204 267 318 380
#     4  12  24  38  61  93 126 158 204 264 326 378
#     4   9  19  36  62  90 120 159 211 256 303 374
#     4  11  21  36  62  91 120 160 207 259 312 371
#     4  12  20  32  66  96 120 160 220 266 316 368
#
# _framework density 19.453265999999999
#
# number of rings (size 3 to 8) (size 9 to 14) (size 15 to 20)
#    0.000    1.176    4.706    4.941    0.000    0.000 
#    0.000    1.765    0.000    1.412    0.000    0.000 
#    0.000    0.000    0.000    0.000    0.000    0.000 
#
# Total GULP energy -421566.383372 kJ/mol
# GULP energy per Si atom -12399.011276 kJ/mol
# Density = 1.940899 g / cm^3
# Si number density = 19.453266 Si / 1000 Ang^3
#
#
#
# Elastic Constant Matrix: (Units=GPa)
#
#
# Indices 1 2 3 4 5 6 
#
# 1 82.6733 41.0680 31.6301 0.0000 0.0000 0.0000
# 2 41.0680 82.6733 31.6301 0.0000 0.0000 0.0000
# 3 31.6301 31.6301 116.1369 0.0000 0.0000 0.0000
# 4 0.0000 0.0000 0.0000 19.8567 0.0000 0.0000
# 5 0.0000 0.0000 0.0000 0.0000 19.8567 0.0000
# 6 0.0000 0.0000 0.0000 0.0000 0.0000 7.3955
#
#
#
# Elastic Compliance Matrix: (Units=1/GPa)
#
#
# Indices 1 2 3 4 5 6 
#
# 1 0.016712 -0.007323 -0.002557 0.000000 0.000000 0.000000
# 2 -0.007323 0.016712 -0.002557 0.000000 0.000000 0.000000
# 3 -0.002557 -0.002557 0.010003 0.000000 0.000000 0.000000
# 4 0.000000 0.000000 0.000000 0.050361 0.000000 0.000000
# 5 0.000000 0.000000 0.000000 0.000000 0.050361 0.000000
# 6 0.000000 0.000000 0.000000 0.000000 0.000000 0.135217
#
#
# Mechanical properties :
#
#
# Convention : Reuss Voigt Hill
#
# Bulk Modulus (GPa) = 53.90106 54.46000 54.18053
# Shear Modulus (GPa) = 16.10695 21.23213 18.66954
#
# Velocity S-wave (km/s) = 2.88059 3.30728 3.10128
# Velocity P-wave (km/s) = 6.23152 6.52995 6.38248
#
# Compressibility (1/GPa) = 0.01855251
#
# Stress axis : x y z
#
# Youngs Moduli (GPa) = 59.83721 59.83721 99.96665
#
# Poissons Ratio (x) = 0.43821 0.25561
# Poissons Ratio (y) = 0.43821 0.25561
# Poissons Ratio (z) = 0.15300 0.15300
#
# Static dielectric constant tensor:
#      x y z
#    x 3.496210 0.000000 0.000000 
#    y 0.000000 3.496210 0.000000 
#    z 0.000000 0.000000 3.961420 
# 
# 
# High freq. dielectric constant tensor:
#      x y z
#    x 1.736090 0.000000 0.000000 
#    y 0.000000 1.736090 0.000000 
#    z 0.000000 0.000000 1.771870 
# 
# From -- ./inp_files/4654.got.cif
#   From: 2010.03.12/outbox.cif.g09.slc.cpg/sg112_3_cif.got.tgz:4654.got - 2010.04.14 02:02:48.
