data_PCOD8308835
_publ_section_title
;
Structure prediction by ZEFSAII (Michael W. Deem and Ramdas Pophale) SiO2 
 PCOD8308835
Probable space group: P -4 21 C
;
_chemical_formula_sum "Si O2"
_cell_formula_units_Z 52
_cell_length_a 16.710086
_cell_length_b 16.710086
_cell_length_c 8.768572
_cell_angle_alpha 90.000000
_cell_angle_beta 90.000000
_cell_angle_gamma 90.000000
_cell_volume 2448.421827
_symmetry_space_group_name_H-M "P -4 21 C"
_symmetry_group_IT_number 114
_symmetry_cell_setting 'tetragonal'
loop_
_space_group_symop_operation_xyz
x,y,z
y,-x,-z
-x,-y,z
-y,x,-z
1/2+x,1/2-y,1/2-z
1/2-x,1/2+y,1/2-z
1/2-y,1/2-x,1/2+z
1/2+y,1/2+x,1/2+z
loop_
_atom_site_type_symbol
_atom_site_label
_atom_site_fract_x
_atom_site_fract_y
_atom_site_fract_z
Si Si1 0.569233 0.765252 0.650151
Si Si2 0.048054 0.357947 0.387901
Si Si3 0.897657 0.925859 0.994767
Si Si4 0.227940 0.886379 0.152749
Si Si5 0.820916 0.654707 0.629257
Si Si6 0.000000 0.500000 0.211155
Si Si7 0.363722 0.100646 0.441849
O O1 0.588466 0.671592 0.620576
O O2 0.472714 0.772202 0.657591
O O3 0.609180 0.814228 0.510005
O O4 0.608523 0.797022 0.808365
O O5 0.095307 0.363613 0.546375
O O6 0.089843 0.300700 0.262197
O O7 0.054940 0.447000 0.321114
O O8 0.956856 0.329359 0.422157
O O9 0.888041 0.868504 0.845771
O O10 0.983389 0.900584 0.068613
O O11 0.258211 0.831276 0.291457
O O12 0.249331 0.844296 0.990875
O O13 0.055599 0.557941 0.113142
#
# Coordination Sequence:
#
# PCOD8308835 Si02
#       7
#     8   8   8   8   8   4   8
#     4  11  23  35  54  88 119 154 205 229 280 341
#     4  11  19  28  43  75 124 173 189 204 246 323
#     4   9  21  44  68  81  97 138 200 272 311 338
#     4  10  20  37  57  86 117 152 198 229 287 346
#     4  10  20  31  50  83 123 157 184 222 265 343
#     4  12  20  26  46  72 130 178 196 190 236 322
#     4  12  22  30  49  84 132 167 186 220 259 346
#
# _framework density 21.238171000000001
#
# number of rings (size 3 to 8) (size 9 to 14) (size 15 to 20)
#    0.000    1.385    4.615    2.308    2.154    1.231 
#    0.000    0.000    0.000    0.000    0.000    0.000 
#    4.615    0.000    0.000    0.000    0.000    0.000 
#
# Total GULP energy -644311.426857 kJ/mol
# GULP energy per Si atom -12390.604363 kJ/mol
# Density = 2.118983 g / cm^3
# Si number density = 21.238171 Si / 1000 Ang^3
#
#
#
# Elastic Constant Matrix: (Units=GPa)
#
#
# Indices 1 2 3 4 5 6 
#
# 1 92.8505 20.8472 27.3862 0.0000 0.0000 0.0000
# 2 20.8472 92.8505 27.3862 0.0000 0.0000 0.0000
# 3 27.3862 27.3862 96.8540 0.0000 0.0000 0.0000
# 4 0.0000 0.0000 0.0000 10.9834 0.0000 0.0000
# 5 0.0000 0.0000 0.0000 0.0000 10.9834 0.0000
# 6 0.0000 0.0000 0.0000 0.0000 0.0000 19.5103
#
#
#
# Elastic Compliance Matrix: (Units=1/GPa)
#
#
# Indices 1 2 3 4 5 6 
#
# 1 0.012035 -0.001853 -0.002879 0.000000 0.000000 0.000000
# 2 -0.001853 0.012035 -0.002879 0.000000 0.000000 0.000000
# 3 -0.002879 -0.002879 0.011953 0.000000 0.000000 0.000000
# 4 0.000000 0.000000 0.000000 0.091047 0.000000 0.000000
# 5 0.000000 0.000000 0.000000 0.000000 0.091047 0.000000
# 6 0.000000 0.000000 0.000000 0.000000 0.000000 0.051255
#
#
# Mechanical properties :
#
#
# Convention : Reuss Voigt Hill
#
# Bulk Modulus (GPa) = 48.07452 48.19934 48.13693
# Shear Modulus (GPa) = 17.15099 22.09110 19.62104
#
# Velocity S-wave (km/s) = 2.84483 3.22865 3.04280
# Velocity P-wave (km/s) = 5.78583 6.05333 5.92109
#
# Compressibility (1/GPa) = 0.02080104
#
# Stress axis : x y z
#
# Youngs Moduli (GPa) = 83.08940 83.08940 83.66109
#
# Poissons Ratio (x) = 0.15397 0.24087
# Poissons Ratio (y) = 0.15397 0.24087
# Poissons Ratio (z) = 0.23922 0.23922
#
# Static dielectric constant tensor:
#      x y z
#    x 3.809920 0.000000 0.000000 
#    y 0.000000 3.809920 0.000000 
#    z 0.000000 0.000000 3.861510 
# 
# 
# High freq. dielectric constant tensor:
#      x y z
#    x 1.819290 0.000000 0.000000 
#    y 0.000000 1.819290 0.000000 
#    z 0.000000 0.000000 1.819180 
# 
# From -- ./inp_files/982.got.cif
#   From: 2010.03.12/outbox.cif.g09.slc.cpg/sg114_1_cif.got.tgz:982.got - 2010.04.14 02:08:34.
