data_PCOD8308020
_publ_section_title
;
Structure prediction by ZEFSAII (Michael W. Deem and Ramdas Pophale) SiO2 
 PCOD8308020
Probable space group: I 41 C D
;
_chemical_formula_sum "Si O2"
_cell_formula_units_Z 72
_cell_length_a 17.437260
_cell_length_b 17.437260
_cell_length_c 12.560190
_cell_angle_alpha 90.000000
_cell_angle_beta 90.000000
_cell_angle_gamma 90.000000
_cell_volume 3819.026707
_symmetry_space_group_name_H-M "I 41 C D"
_symmetry_group_IT_number 110
_symmetry_cell_setting 'tetragonal'
loop_
_space_group_symop_operation_xyz
x,y,z
-y,1/2+x,1/4+z
-x,-y,z
y,1/2-x,1/4+z
-x,y,1/2+z
x,-y,1/2+z
1/2-y,-x,1/4+z
1/2+y,x,1/4+z
1/2+x,1/2+y,1/2+z
1/2-y,x,3/4+z
1/2-x,1/2-y,1/2+z
1/2+y,-x,3/4+z
1/2-x,1/2+y,z
1/2+x,1/2-y,z
-y,1/2-x,3/4+z
y,1/2+x,3/4+z
loop_
_atom_site_type_symbol
_atom_site_label
_atom_site_fract_x
_atom_site_fract_y
_atom_site_fract_z
Si Si1 0.500000 0.500000 0.980850
Si Si2 0.637018 0.409251 0.579568
Si Si3 0.137019 0.409251 0.132134
Si Si4 0.271651 0.066516 0.434979
Si Si5 0.271652 0.566517 0.776724
O O1 0.550867 0.443943 0.907781
O O2 0.443943 0.449133 0.053920
O O3 0.627336 0.321716 0.618760
O O4 0.690741 0.400302 0.476221
O O5 0.677687 0.459104 0.673449
O O6 0.190742 0.400304 0.235482
O O7 0.127338 0.321717 0.092941
O O8 0.177688 0.459105 0.038254
O O9 0.249998 0.999999 0.355853
#
# Coordination Sequence:
#
# PCOD8308020 Si02
#       5
#     8  16  16  16  16
#     4  12  20  38  64 104 114 160 208 258 308 368
#     4  10  22  37  67  88 127 159 207 252 308 370
#     4  10  22  37  67  88 127 159 207 252 308 370
#     4  10  20  40  62  87 125 165 199 257 308 361
#     4  10  20  40  62  87 125 165 199 257 308 361
#
# _framework density 18.852972000000001
#
# number of rings (size 3 to 8) (size 9 to 14) (size 15 to 20)
#    0.000    1.778    4.444    0.000    0.000    3.556 
#    0.000    0.000   68.444    0.000    0.000    0.000 
#    0.000    0.000    0.000    0.000    0.000    0.000 
#
# Total GULP energy -446038.104996 kJ/mol
# GULP energy per Si atom -12389.947361 kJ/mol
# Density = 1.881006 g / cm^3
# Si number density = 18.852972 Si / 1000 Ang^3
#
#
#
# Elastic Constant Matrix: (Units=GPa)
#
#
# Indices 1 2 3 4 5 6 
#
# 1 117.9363 51.3489 65.6200 0.0000 0.0000 0.0000
# 2 51.3489 117.9363 65.6200 0.0000 0.0000 0.0000
# 3 65.6200 65.6200 115.8637 0.0000 0.0000 0.0000
# 4 0.0000 0.0000 0.0000 42.6196 0.0000 0.0000
# 5 0.0000 0.0000 0.0000 0.0000 42.6196 0.0000
# 6 0.0000 0.0000 0.0000 0.0000 0.0000 23.5919
#
#
#
# Elastic Compliance Matrix: (Units=1/GPa)
#
#
# Indices 1 2 3 4 5 6 
#
# 1 0.012774 -0.002243 -0.005964 0.000000 0.000000 0.000000
# 2 -0.002243 0.012774 -0.005964 0.000000 0.000000 0.000000
# 3 -0.005964 -0.005964 0.015387 0.000000 0.000000 0.000000
# 4 0.000000 0.000000 0.000000 0.023463 0.000000 0.000000
# 5 0.000000 0.000000 0.000000 0.000000 0.023463 0.000000
# 6 0.000000 0.000000 0.000000 0.000000 0.000000 0.042387
#
#
# Mechanical properties :
#
#
# Convention : Reuss Voigt Hill
#
# Bulk Modulus (GPa) = 79.41842 79.65712 79.53777
# Shear Modulus (GPa) = 30.71421 33.04273 31.87847
#
# Velocity S-wave (km/s) = 4.04064 4.19101 4.11652
# Velocity P-wave (km/s) = 7.99910 8.10943 8.05446
#
# Compressibility (1/GPa) = 0.01259154
#
# Stress axis : x y z
#
# Youngs Moduli (GPa) = 78.28108 78.28108 64.99123
#
# Poissons Ratio (x) = 0.17561 0.38763
# Poissons Ratio (y) = 0.17561 0.38763
# Poissons Ratio (z) = 0.46689 0.46689
#
# Static dielectric constant tensor:
#      x y z
#    x 3.680350 0.000000 0.000000 
#    y 0.000000 3.680350 0.000000 
#    z 0.000000 0.000000 3.748330 
# 
# 
# High freq. dielectric constant tensor:
#      x y z
#    x 1.723200 0.000000 0.000000 
#    y 0.000000 1.723200 0.000000 
#    z 0.000000 0.000000 1.748610 
# 
# From -- ./inp_files/797.got.cif
#   From: 2010.03.12/outbox.cif.g09.slc.cpg/sg110_1_cif.got.tgz:797.got - 2010.04.14 01:58:01.
