data_PCOD8308675
_publ_section_title
;
Structure prediction by ZEFSAII (Michael W. Deem and Ramdas Pophale) SiO2 
 PCOD8308675
Probable space group: P -4 21 M 
;
_chemical_formula_sum "Si O2"
_cell_formula_units_Z 48
_cell_length_a 14.827436
_cell_length_b 14.827436
_cell_length_c 11.528232
_cell_angle_alpha 90.000000
_cell_angle_beta 90.000000
_cell_angle_gamma 90.000000
_cell_volume 2534.514757
_symmetry_space_group_name_H-M "P -4 21 M "
_symmetry_group_IT_number 113
_symmetry_cell_setting 'tetragonal'
loop_
_space_group_symop_operation_xyz
x,y,z
y,-x,-z
-x,-y,z
-y,x,-z
1/2+x,1/2-y,-z
1/2-x,1/2+y,-z
1/2-y,1/2-x,z
1/2+y,1/2+x,z
loop_
_atom_site_type_symbol
_atom_site_label
_atom_site_fract_x
_atom_site_fract_y
_atom_site_fract_z
Si Si1 0.924672 0.424672 0.731734
Si Si2 0.193601 0.840180 0.250702
Si Si3 0.306561 0.956246 0.417209
Si Si4 0.563856 0.369856 0.017018
Si Si5 0.695825 0.049874 0.879419
Si Si6 0.551594 0.798907 0.652801
Si Si7 0.923773 0.423773 0.988883
O O1 0.838374 0.463567 0.666557
O O2 0.895125 0.395125 0.860038
O O3 0.000000 0.500000 0.743898
O O4 0.276953 0.776953 0.211566
O O5 0.224681 0.906200 0.353747
O O6 0.160481 0.896067 0.140249
O O7 0.112873 0.782668 0.303652
O O8 0.388362 0.888362 0.446673
O O9 0.271345 0.003262 0.533706
O O10 0.457683 0.387045 0.033267
O O11 0.578309 0.295105 0.918412
O O12 0.632255 0.132255 0.913001
O O13 0.687853 0.029282 0.743529
O O14 0.665774 0.959178 0.947396
O O15 0.609067 0.890934 0.637833
O O16 0.000000 0.500000 0.993833
#
# Coordination Sequence:
#
# PCOD8308675 Si02
#       7
#     4   8   8   8   8   8   4
#     4   9  16  29  53  85 115 154 201 241 298 367
#     4  10  22  42  64  88 124 166 208 256 312 373
#     4  10  20  36  60  86 120 164 205 253 308 369
#     4  11  23  42  63  87 123 167 212 249 308 384
#     4  11  21  36  62  93 124 157 201 262 319 373
#     4  11  21  38  63  93 125 159 205 257 320 374
#     4   9  18  31  55  93 127 154 193 247 314 375
#
# _framework density 18.938535999999999
#
# number of rings (size 3 to 8) (size 9 to 14) (size 15 to 20)
#    0.000    1.667    3.333    2.000    0.000    3.333 
#    4.500    0.000    0.000    0.000    0.000    0.000 
#    0.000    0.000    0.000    0.000    0.000    0.000 
#
# Total GULP energy -595317.954778 kJ/mol
# GULP energy per Si atom -12402.457391 kJ/mol
# Density = 1.889543 g / cm^3
# Si number density = 18.938536 Si / 1000 Ang^3
#
#
#
# Elastic Constant Matrix: (Units=GPa)
#
#
# Indices 1 2 3 4 5 6 
#
# 1 88.8419 41.1356 45.5617 0.0000 0.0000 0.0000
# 2 41.1356 88.8412 45.5614 0.0000 0.0000 0.0000
# 3 45.5617 45.5614 144.9642 0.0000 0.0000 0.0000
# 4 0.0000 0.0000 0.0000 31.2181 0.0000 0.0000
# 5 0.0000 0.0000 0.0000 0.0000 31.2181 0.0000
# 6 0.0000 0.0000 0.0000 0.0000 0.0000 21.1596
#
#
#
# Elastic Compliance Matrix: (Units=1/GPa)
#
#
# Indices 1 2 3 4 5 6 
#
# 1 0.015415 -0.005547 -0.003101 0.000000 0.000000 0.000000
# 2 -0.005547 0.015415 -0.003101 0.000000 0.000000 0.000000
# 3 -0.003101 -0.003101 0.008848 0.000000 0.000000 0.000000
# 4 0.000000 0.000000 0.000000 0.032033 0.000000 0.000000
# 5 0.000000 0.000000 0.000000 0.000000 0.032033 0.000000
# 6 0.000000 0.000000 0.000000 0.000000 0.000000 0.047260
#
#
# Mechanical properties :
#
#
# Convention : Reuss Voigt Hill
#
# Bulk Modulus (GPa) = 61.81250 65.24051 63.52651
# Shear Modulus (GPa) = 27.79396 29.41172 28.60284
#
# Velocity S-wave (km/s) = 3.83507 3.94510 3.89047
# Velocity P-wave (km/s) = 7.23323 7.43472 7.33467
#
# Compressibility (1/GPa) = 0.01617796
#
# Stress axis : x y z
#
# Youngs Moduli (GPa) = 64.87261 64.87213 113.02239
#
# Poissons Ratio (x) = 0.35984 0.35053
# Poissons Ratio (y) = 0.35984 0.35054
# Poissons Ratio (z) = 0.20120 0.20120
#
# Static dielectric constant tensor:
#      x y z
#    x 3.449670 0.000000 0.000000 
#    y 0.000000 3.449670 0.000000 
#    z 0.000000 0.000000 3.488370 
# 
# 
# High freq. dielectric constant tensor:
#      x y z
#    x 1.729310 0.000000 0.000000 
#    y 0.000000 1.729310 0.000000 
#    z 0.000000 0.000000 1.741690 
# 
# From -- ./inp_files/1884.got.cif
#   From: 2010.03.12/outbox.cif.g09.slc.cpg/sg113_cif.got.tgz:1884.got - 2010.04.14 02:06:34.
