data_PCOD8308991
_publ_section_title
;
Structure prediction by ZEFSAII (Michael W. Deem and Ramdas Pophale) SiO2 
 PCOD8308991
Probable space group: P -4 21 C
;
_chemical_formula_sum "Si O2"
_cell_formula_units_Z 32
_cell_length_a 8.072004
_cell_length_b 8.072004
_cell_length_c 19.455991
_cell_angle_alpha 90.000000
_cell_angle_beta 90.000000
_cell_angle_gamma 90.000000
_cell_volume 1267.698842
_symmetry_space_group_name_H-M "P -4 21 C"
_symmetry_group_IT_number 114
_symmetry_cell_setting 'tetragonal'
loop_
_space_group_symop_operation_xyz
x,y,z
y,-x,-z
-x,-y,z
-y,x,-z
1/2+x,1/2-y,1/2-z
1/2-x,1/2+y,1/2-z
1/2-y,1/2-x,1/2+z
1/2+y,1/2+x,1/2+z
loop_
_atom_site_type_symbol
_atom_site_label
_atom_site_fract_x
_atom_site_fract_y
_atom_site_fract_z
Si Si1 0.191257 0.053773 0.595717
Si Si2 0.714739 0.279394 0.652533
Si Si3 0.597933 0.827608 0.711519
Si Si4 0.128233 0.771455 0.013455
O O1 0.240633 0.168225 0.661604
O O2 0.250746 0.141711 0.525098
O O3 0.296125 0.888847 0.607559
O O4 0.000000 0.000000 0.592356
O O5 0.530022 0.310787 0.682587
O O6 0.846022 0.268069 0.713654
O O7 0.775783 0.408690 0.594005
O O8 0.500000 0.000000 0.719255
O O9 0.950124 0.781690 0.978869
#
# Coordination Sequence:
#
# PCOD8308991 Si02
#       4
#     8   8   8   8
#     4  11  25  46  74 110 149 198 261 317 391 462
#     4  11  24  45  72 106 149 199 257 320 376 476
#     4  10  23  47  71 110 155 200 255 322 392 459
#     4  11  26  48  73 105 155 204 250 319 391 468
#
# _framework density 25.242587
#
# number of rings (size 3 to 8) (size 9 to 14) (size 15 to 20)
#    0.000    1.250    2.500    1.500    3.500    6.000 
#    4.500    0.000    0.000    0.000    0.000    0.000 
#    0.000    0.000    0.000    0.000    0.000    0.000 
#
# Total GULP energy -396476.656982 kJ/mol
# GULP energy per Si atom -12389.895531 kJ/mol
# Density = 2.518513 g / cm^3
# Si number density = 25.242587 Si / 1000 Ang^3
#
#
#
# Elastic Constant Matrix: (Units=GPa)
#
#
# Indices 1 2 3 4 5 6 
#
# 1 105.2235 34.3653 55.2280 0.0000 0.0000 0.0000
# 2 34.3653 105.2235 55.2280 0.0000 0.0000 0.0000
# 3 55.2280 55.2280 220.5019 0.0000 0.0000 0.0000
# 4 0.0000 0.0000 0.0000 38.3430 0.0000 0.0000
# 5 0.0000 0.0000 0.0000 0.0000 38.3430 0.0000
# 6 0.0000 0.0000 0.0000 0.0000 0.0000 33.6549
#
#
#
# Elastic Compliance Matrix: (Units=1/GPa)
#
#
# Indices 1 2 3 4 5 6 
#
# 1 0.011524 -0.002589 -0.002238 0.000000 0.000000 0.000000
# 2 -0.002589 0.011524 -0.002238 0.000000 0.000000 0.000000
# 3 -0.002238 -0.002238 0.005656 0.000000 0.000000 0.000000
# 4 0.000000 0.000000 0.000000 0.026080 0.000000 0.000000
# 5 0.000000 0.000000 0.000000 0.000000 0.026080 0.000000
# 6 0.000000 0.000000 0.000000 0.000000 0.000000 0.029713
#
#
# Mechanical properties :
#
#
# Convention : Reuss Voigt Hill
#
# Bulk Modulus (GPa) = 68.61459 80.06573 74.34016
# Shear Modulus (GPa) = 38.59069 41.14336 39.86702
#
# Velocity S-wave (km/s) = 3.91422 4.04160 3.97842
# Velocity P-wave (km/s) = 6.90429 7.31893 7.11463
#
# Compressibility (1/GPa) = 0.01457416
#
# Stress axis : x y z
#
# Youngs Moduli (GPa) = 86.77779 86.77779 176.80022
#
# Poissons Ratio (x) = 0.22467 0.39565
# Poissons Ratio (y) = 0.22467 0.39565
# Poissons Ratio (z) = 0.19419 0.19419
#
# Static dielectric constant tensor:
#      x y z
#    x 4.430720 0.000000 0.000000 
#    y 0.000000 4.430720 0.000000 
#    z 0.000000 0.000000 4.927430 
# 
# 
# High freq. dielectric constant tensor:
#      x y z
#    x 1.993220 0.000000 0.000000 
#    y 0.000000 1.993220 0.000000 
#    z 0.000000 0.000000 2.037020 
# 
# From -- ./inp_files/3290.got.cif
#   From: 2010.03.12/outbox.cif.g09.slc.cpg/sg114_2_cif.got.tgz:3290.got - 2010.04.14 02:08:34.
