data_PCOD8308259
_publ_section_title
;
Structure prediction by ZEFSAII (Michael W. Deem and Ramdas Pophale) SiO2 
 PCOD8308259
Probable space group: P -4 2 M 
;
_chemical_formula_sum "Si O2"
_cell_formula_units_Z 40
_cell_length_a 13.664398
_cell_length_b 13.664398
_cell_length_c 10.912693
_cell_angle_alpha 90.000000
_cell_angle_beta 90.000000
_cell_angle_gamma 90.000000
_cell_volume 2037.571906
_symmetry_space_group_name_H-M "P -4 2 M "
_symmetry_group_IT_number 111
_symmetry_cell_setting 'tetragonal'
loop_
_space_group_symop_operation_xyz
x,y,z
y,-x,-z
-x,-y,z
-y,x,-z
x,-y,-z
-x,y,-z
-y,-x,z
y,x,z
loop_
_atom_site_type_symbol
_atom_site_label
_atom_site_fract_x
_atom_site_fract_y
_atom_site_fract_z
Si Si1 0.787855 0.631627 0.264380
Si Si2 0.697027 0.848331 0.762224
Si Si3 0.722284 0.881962 0.491400
Si Si4 0.701849 0.542752 0.862290
Si Si5 0.976270 0.604808 0.139460
O O1 0.730878 0.730878 0.248646
O O2 0.849791 0.639592 0.391313
O O3 0.713572 0.540172 0.244131
O O4 0.862620 0.627640 0.151861
O O5 0.804212 0.804212 0.792185
O O6 0.676672 0.840988 0.617392
O O7 0.616372 0.791527 0.841902
O O8 0.692607 0.961812 0.799411
O O9 0.827122 0.827122 0.466564
O O10 0.737810 0.000000 0.500000
O O11 0.598602 0.598602 0.842256
O O12 0.705860 0.500000 0.000000
O O13 0.000000 0.500000 0.203647
O O14 0.000000 0.597777 0.000000
#
# Coordination Sequence:
#
# PCOD8308259 Si02
#       5
#     8   8   8   8   8
#     4  11  23  38  59  91 123 155 204 258 303 359
#     4  10  21  38  60  87 120 158 204 253 305 362
#     4  10  21  39  62  89 121 161 206 256 313 368
#     4  11  23  40  61  87 122 166 208 246 297 364
#     4  11  21  36  58  87 120 156 201 253 307 363
#
# _framework density 19.631211
#
# number of rings (size 3 to 8) (size 9 to 14) (size 15 to 20)
#    0.000    1.400    4.000    1.800    0.000    4.800 
#    0.000    2.000    0.000    1.800    0.000   12.600 
#    0.000    0.000    0.000    0.000    0.000    0.000 
#
# Total GULP energy -495605.445006 kJ/mol
# GULP energy per Si atom -12390.136125 kJ/mol
# Density = 1.958653 g / cm^3
# Si number density = 19.631211 Si / 1000 Ang^3
#
#
#
# Elastic Constant Matrix: (Units=GPa)
#
#
# Indices 1 2 3 4 5 6 
#
# 1 101.4976 51.2207 47.2722 0.0000 0.0000 0.0000
# 2 51.2207 101.4976 47.2722 0.0000 0.0000 0.0000
# 3 47.2722 47.2722 84.5641 0.0000 0.0000 0.0000
# 4 0.0000 0.0000 0.0000 29.0832 0.0000 0.0000
# 5 0.0000 0.0000 0.0000 0.0000 29.0832 0.0000
# 6 0.0000 0.0000 0.0000 0.0000 0.0000 24.6671
#
#
#
# Elastic Compliance Matrix: (Units=1/GPa)
#
#
# Indices 1 2 3 4 5 6 
#
# 1 0.014952 -0.004938 -0.005598 0.000000 0.000000 0.000000
# 2 -0.004938 0.014952 -0.005598 0.000000 0.000000 0.000000
# 3 -0.005598 -0.005598 0.018084 0.000000 0.000000 0.000000
# 4 0.000000 0.000000 0.000000 0.034384 0.000000 0.000000
# 5 0.000000 0.000000 0.000000 0.000000 0.034384 0.000000
# 6 0.000000 0.000000 0.000000 0.000000 0.000000 0.040540
#
#
# Mechanical properties :
#
#
# Convention : Reuss Voigt Hill
#
# Bulk Modulus (GPa) = 63.61338 64.34329 63.97833
# Shear Modulus (GPa) = 25.66716 26.01965 25.84341
#
# Velocity S-wave (km/s) = 3.61981 3.64459 3.63222
# Velocity P-wave (km/s) = 7.06720 7.11040 7.08883
#
# Compressibility (1/GPa) = 0.01571996
#
# Stress axis : x y z
#
# Youngs Moduli (GPa) = 66.88252 66.88252 55.29899
#
# Poissons Ratio (x) = 0.33028 0.30954
# Poissons Ratio (y) = 0.33028 0.30954
# Poissons Ratio (z) = 0.37438 0.37438
#
# Static dielectric constant tensor:
#      x y z
#    x 3.837150 0.000000 0.000000 
#    y 0.000000 3.837150 0.000000 
#    z 0.000000 0.000000 3.684750 
# 
# 
# High freq. dielectric constant tensor:
#      x y z
#    x 1.761630 0.000000 0.000000 
#    y 0.000000 1.761630 0.000000 
#    z 0.000000 0.000000 1.766710 
# 
# From -- ./inp_files/1517.got.cif
#   From: 2010.03.12/outbox.cif.g09.slc.cpg/sg111_1_cif.got.tgz:1517.got - 2010.04.14 01:59:48.
