data_PCOD8308798
_publ_section_title
;
Structure prediction by ZEFSAII (Michael W. Deem and Ramdas Pophale) SiO2 
 PCOD8308798
Probable space group: P -4 21 C
;
_chemical_formula_sum "Si O2"
_cell_formula_units_Z 48
_cell_length_a 16.776666
_cell_length_b 16.776666
_cell_length_c 8.654368
_cell_angle_alpha 90.000000
_cell_angle_beta 90.000000
_cell_angle_gamma 90.000000
_cell_volume 2435.828318
_symmetry_space_group_name_H-M "P -4 21 C"
_symmetry_group_IT_number 114
_symmetry_cell_setting 'tetragonal'
loop_
_space_group_symop_operation_xyz
x,y,z
y,-x,-z
-x,-y,z
-y,x,-z
1/2+x,1/2-y,1/2-z
1/2-x,1/2+y,1/2-z
1/2-y,1/2-x,1/2+z
1/2+y,1/2+x,1/2+z
loop_
_atom_site_type_symbol
_atom_site_label
_atom_site_fract_x
_atom_site_fract_y
_atom_site_fract_z
Si Si1 0.493245 0.118398 0.567253
Si Si2 0.230333 0.390998 0.569690
Si Si3 0.069028 0.094461 0.071522
Si Si4 0.269667 0.890998 0.569690
Si Si5 0.930972 0.905539 0.428478
Si Si6 0.118398 0.506755 0.067253
O O1 0.525093 0.203817 0.509398
O O2 0.490106 0.115573 0.750000
O O3 0.556534 0.056534 0.500000
O O4 0.405884 0.094116 0.500000
O O5 0.324469 0.382257 0.538685
O O6 0.185910 0.314090 0.500000
O O7 0.210059 0.395875 0.750000
O O8 0.075078 0.070471 0.250000
O O9 0.975869 0.106936 0.029979
O O10 0.175531 0.882257 0.538685
O O11 0.296183 0.974907 0.490602
O O12 0.024131 0.893064 0.470021
#
# Coordination Sequence:
#
# PCOD8308798 Si02
#       6
#     8   8   8   8   8   8
#     4  10  17  27  45  69 100 138 175 213 255 308
#     4  10  20  34  53  80 109 140 176 218 267 318
#     4  10  21  37  59  82 106 138 179 220 263 313
#     4  10  20  34  53  80 109 140 176 218 267 318
#     4  10  21  37  59  82 106 138 179 220 263 313
#     4  10  17  27  45  69 100 138 175 213 255 308
#
# _framework density 19.705822999999999
#
# number of rings (size 3 to 8) (size 9 to 14) (size 15 to 20)
#    0.000    2.000    0.000    9.000    0.000    5.333 
#    0.000    1.667    0.000    4.000    0.000    0.000 
#    0.000    0.000    0.000    0.000    0.000    0.000 
#
# Total GULP energy -594959.051021 kJ/mol
# GULP energy per Si atom -12394.980230 kJ/mol
# Density = 1.966097 g / cm^3
# Si number density = 19.705823 Si / 1000 Ang^3
#
#
#
# Elastic Constant Matrix: (Units=GPa)
#
#
# Indices 1 2 3 4 5 6 
#
# 1 68.2468 27.5334 22.8624 0.0000 0.0000 0.0000
# 2 27.5334 68.2468 22.8624 0.0000 0.0000 0.0000
# 3 22.8624 22.8624 125.9511 0.0000 0.0000 0.0000
# 4 0.0000 0.0000 0.0000 18.2795 0.0000 0.0000
# 5 0.0000 0.0000 0.0000 0.0000 18.2795 0.0000
# 6 0.0000 0.0000 0.0000 0.0000 0.0000 19.3169
#
#
#
# Elastic Compliance Matrix: (Units=1/GPa)
#
#
# Indices 1 2 3 4 5 6 
#
# 1 0.017997 -0.006565 -0.002075 0.000000 0.000000 0.000000
# 2 -0.006565 0.017997 -0.002075 0.000000 0.000000 0.000000
# 3 -0.002075 -0.002075 0.008693 0.000000 0.000000 0.000000
# 4 0.000000 0.000000 0.000000 0.054706 0.000000 0.000000
# 5 0.000000 0.000000 0.000000 0.000000 0.054706 0.000000
# 6 0.000000 0.000000 0.000000 0.000000 0.000000 0.051768
#
#
# Mechanical properties :
#
#
# Convention : Reuss Voigt Hill
#
# Bulk Modulus (GPa) = 43.00092 45.44014 44.22053
# Shear Modulus (GPa) = 21.27219 23.78761 22.52990
#
# Velocity S-wave (km/s) = 3.28912 3.47816 3.38496
# Velocity P-wave (km/s) = 6.02438 6.26414 6.14543
#
# Compressibility (1/GPa) = 0.02325532
#
# Stress axis : x y z
#
# Youngs Moduli (GPa) = 55.56619 55.56619 115.03673
#
# Poissons Ratio (x) = 0.36481 0.23870
# Poissons Ratio (y) = 0.36481 0.23870
# Poissons Ratio (z) = 0.11530 0.11530
#
# Static dielectric constant tensor:
#      x y z
#    x 3.794190 0.000000 0.000000 
#    y 0.000000 3.794190 0.000000 
#    z 0.000000 0.000000 3.689490 
# 
# 
# High freq. dielectric constant tensor:
#      x y z
#    x 1.748850 0.000000 0.000000 
#    y 0.000000 1.748850 0.000000 
#    z 0.000000 0.000000 1.787530 
# 
# From -- ./inp_files/931.got.cif
#   From: 2010.03.12/outbox.cif.g09.slc.cpg/sg114_1_cif.got.tgz:931.got - 2010.04.14 02:08:34.
