data_PCOD8308624
_publ_section_title
;
Structure prediction by ZEFSAII (Michael W. Deem and Ramdas Pophale) SiO2 
 PCOD8308624
Probable space group: P -4 21 M 
;
_chemical_formula_sum "Si O2"
_cell_formula_units_Z 28
_cell_length_a 13.339693
_cell_length_b 13.339693
_cell_length_c 9.272341
_cell_angle_alpha 90.000000
_cell_angle_beta 90.000000
_cell_angle_gamma 90.000000
_cell_volume 1649.989059
_symmetry_space_group_name_H-M "P -4 21 M "
_symmetry_group_IT_number 113
_symmetry_cell_setting 'tetragonal'
loop_
_space_group_symop_operation_xyz
x,y,z
y,-x,-z
-x,-y,z
-y,x,-z
1/2+x,1/2-y,-z
1/2-x,1/2+y,-z
1/2-y,1/2-x,z
1/2+y,1/2+x,z
loop_
_atom_site_type_symbol
_atom_site_label
_atom_site_fract_x
_atom_site_fract_y
_atom_site_fract_z
Si Si1 0.856472 0.929127 0.464820
Si Si2 0.650409 0.150409 0.187522
Si Si3 0.070126 0.725881 0.800561
Si Si4 0.290338 0.209663 0.954270
Si Si5 0.219051 0.719051 0.364990
O O1 0.824602 0.940146 0.297650
O O2 0.768479 0.873145 0.550567
O O3 0.960556 0.868891 0.467567
O O4 0.533518 0.169404 0.178884
O O5 0.695845 0.195845 0.336679
O O6 0.704666 0.204666 0.051978
O O7 0.147871 0.647871 0.725816
O O8 0.113457 0.754639 0.959364
O O9 0.321313 0.178688 0.790690
#
# Coordination Sequence:
#
# PCOD8308624 Si02
#       5
#     8   4   8   4   4
#     4  11  21  35  59  88 116 148 192 244 296 351
#     4  10  19  38  59  78 116 152 188 241 290 338
#     4  10  20  37  59  83 110 155 194 234 294 352
#     4   8  21  33  53  82 105 152 187 237 275 343
#     4  10  19  38  54  80 113 152 189 238 289 337
#
# _framework density 16.969809999999999
#
# number of rings (size 3 to 8) (size 9 to 14) (size 15 to 20)
#    1.714    0.286    4.286    0.429    0.000    2.286 
#    0.000    0.000    0.000    1.714    0.000    0.000 
#    0.000    0.000    0.000    0.000    0.000    0.000 
#
# Total GULP energy -346914.902000 kJ/mol
# GULP energy per Si atom -12389.817929 kJ/mol
# Density = 1.693119 g / cm^3
# Si number density = 16.969810 Si / 1000 Ang^3
#
#
#
# Elastic Constant Matrix: (Units=GPa)
#
#
# Indices 1 2 3 4 5 6 
#
# 1 100.0007 43.0205 44.8224 0.0000 0.0000 0.0000
# 2 43.0205 100.0005 44.8221 0.0000 0.0000 0.0000
# 3 44.8224 44.8221 96.1641 0.0000 0.0000 0.0000
# 4 0.0000 0.0000 0.0000 27.2426 0.0000 0.0000
# 5 0.0000 0.0000 0.0000 0.0000 27.2428 0.0000
# 6 0.0000 0.0000 0.0000 0.0000 0.0000 31.8624
#
#
#
# Elastic Compliance Matrix: (Units=1/GPa)
#
#
# Indices 1 2 3 4 5 6 
#
# 1 0.013714 -0.003836 -0.004604 0.000000 0.000000 0.000000
# 2 -0.003836 0.013714 -0.004604 0.000000 0.000000 0.000000
# 3 -0.004604 -0.004604 0.014691 0.000000 0.000000 0.000000
# 4 0.000000 0.000000 0.000000 0.036707 0.000000 0.000000
# 5 0.000000 0.000000 0.000000 0.000000 0.036707 0.000000
# 6 0.000000 0.000000 0.000000 0.000000 0.000000 0.031385
#
#
# Mechanical properties :
#
#
# Convention : Reuss Voigt Hill
#
# Bulk Modulus (GPa) = 62.38249 62.38839 62.38544
# Shear Modulus (GPa) = 28.03487 28.16960 28.10223
#
# Velocity S-wave (km/s) = 4.06894 4.07871 4.07383
# Velocity P-wave (km/s) = 7.67566 7.68279 7.67923
#
# Compressibility (1/GPa) = 0.01603014
#
# Stress axis : x y z
#
# Youngs Moduli (GPa) = 72.91883 72.91896 68.06986
#
# Poissons Ratio (x) = 0.27973 0.31340
# Poissons Ratio (y) = 0.27973 0.31339
# Poissons Ratio (z) = 0.33572 0.33572
#
# Static dielectric constant tensor:
#      x y z
#    x 3.048600 0.000000 0.000000 
#    y 0.000000 3.048610 0.000000 
#    z 0.000000 0.000000 3.039200 
# 
# 
# High freq. dielectric constant tensor:
#      x y z
#    x 1.651310 0.000000 0.000000 
#    y 0.000000 1.651310 0.000000 
#    z 0.000000 0.000000 1.643800 
# 
# From -- ./inp_files/793.got.cif
#   From: 2010.03.12/outbox.cif.g09.slc.cpg/sg113_cif.got.tgz:793.got - 2010.04.14 02:06:34.
