data_PCOD8308303
_publ_section_title
;
Structure prediction by ZEFSAII (Michael W. Deem and Ramdas Pophale) SiO2 
 PCOD8308303
Probable space group: P -4 2 C
;
_chemical_formula_sum "Si O2"
_cell_formula_units_Z 24
_cell_length_a 8.647767
_cell_length_b 8.647767
_cell_length_c 17.144509
_cell_angle_alpha 90.000000
_cell_angle_beta 90.000000
_cell_angle_gamma 90.000000
_cell_volume 1282.132802
_symmetry_space_group_name_H-M "P -4 2 C"
_symmetry_group_IT_number 112
_symmetry_cell_setting 'tetragonal'
loop_
_space_group_symop_operation_xyz
x,y,z
y,-x,-z
-x,-y,z
-y,x,-z
x,-y,1/2-z
-x,y,1/2-z
-y,-x,1/2+z
y,x,1/2+z
loop_
_atom_site_type_symbol
_atom_site_label
_atom_site_fract_x
_atom_site_fract_y
_atom_site_fract_z
Si Si1 0.270054 0.584510 0.516965
Si Si2 0.154932 0.206303 0.374458
Si Si3 0.500000 0.000000 0.910214
Si Si4 0.000000 0.000000 0.250000
Si Si5 0.000000 0.000000 0.500000
O O1 0.406258 0.678798 0.471935
O O2 0.229252 0.663902 0.601165
O O3 0.120199 0.593435 0.463491
O O4 0.085414 0.375380 0.355717
O O5 0.122105 0.099920 0.299875
O O6 0.069960 0.137339 0.449345
#
# Coordination Sequence:
#
# PCOD8308303 Si02
#       5
#     8   8   4   2   2
#     4   9  18  31  53  85 109 136 188 248 284 325
#     4  10  19  34  51  81 111 146 187 233 283 342
#     4  10  18  31  60  81 104 146 192 246 280 325
#     4  10  24  32  52  80 120 148 180 228 296 364
#     4  10  16  30  52  78 104 142 192 246 260 318
#
# _framework density 18.718809
#
# number of rings (size 3 to 8) (size 9 to 14) (size 15 to 20)
#    0.000    2.333    3.333    0.000    0.000    0.667 
#    0.000    0.000    0.000    9.000    0.000   18.667 
#    0.000    0.000    0.000    0.000    0.000    0.000 
#
# Total GULP energy -297399.806895 kJ/mol
# GULP energy per Si atom -12391.658621 kJ/mol
# Density = 1.867620 g / cm^3
# Si number density = 18.718809 Si / 1000 Ang^3
#
#
#
# Elastic Constant Matrix: (Units=GPa)
#
#
# Indices 1 2 3 4 5 6 
#
# 1 105.9827 37.1721 45.3147 0.0000 0.0000 0.0000
# 2 37.1721 105.9827 45.3147 0.0000 0.0000 0.0000
# 3 45.3147 45.3147 88.0313 0.0000 0.0000 0.0000
# 4 0.0000 0.0000 0.0000 22.1572 0.0000 0.0000
# 5 0.0000 0.0000 0.0000 0.0000 22.1572 0.0000
# 6 0.0000 0.0000 0.0000 0.0000 0.0000 27.7889
#
#
#
# Elastic Compliance Matrix: (Units=1/GPa)
#
#
# Indices 1 2 3 4 5 6 
#
# 1 0.012448 -0.002085 -0.005334 0.000000 0.000000 0.000000
# 2 -0.002085 0.012448 -0.005334 0.000000 0.000000 0.000000
# 3 -0.005334 -0.005334 0.016851 0.000000 0.000000 0.000000
# 4 0.000000 0.000000 0.000000 0.045132 0.000000 0.000000
# 5 0.000000 0.000000 0.000000 0.000000 0.045132 0.000000
# 6 0.000000 0.000000 0.000000 0.000000 0.000000 0.035986
#
#
# Mechanical properties :
#
#
# Convention : Reuss Voigt Hill
#
# Bulk Modulus (GPa) = 61.57832 61.73329 61.65580
# Shear Modulus (GPa) = 25.13623 25.90031 25.51827
#
# Velocity S-wave (km/s) = 3.66844 3.72378 3.69622
# Velocity P-wave (km/s) = 7.13521 7.17911 7.15719
#
# Compressibility (1/GPa) = 0.01623948
#
# Stress axis : x y z
#
# Youngs Moduli (GPa) = 80.33719 80.33719 59.34310
#
# Poissons Ratio (x) = 0.16751 0.31654
# Poissons Ratio (y) = 0.16751 0.31654
# Poissons Ratio (z) = 0.42853 0.42853
#
# Static dielectric constant tensor:
#      x y z
#    x 3.680060 0.000000 0.000000 
#    y 0.000000 3.680060 0.000000 
#    z 0.000000 0.000000 2.977460 
# 
# 
# High freq. dielectric constant tensor:
#      x y z
#    x 1.742560 0.000000 0.000000 
#    y 0.000000 1.742560 0.000000 
#    z 0.000000 0.000000 1.669990 
# 
# From -- ./inp_files/3647.got.cif
#   From: 2010.03.12/outbox.cif.g09.slc.cpg/sg112_2_cif.got.tgz:3647.got - 2010.04.14 02:02:48.
