data_PCOD8308667
_publ_section_title
;
Structure prediction by ZEFSAII (Michael W. Deem and Ramdas Pophale) SiO2 
 PCOD8308667
Probable space group: P -4 21 M 
;
_chemical_formula_sum "Si O2"
_cell_formula_units_Z 56
_cell_length_a 12.556803
_cell_length_b 12.556803
_cell_length_c 19.861748
_cell_angle_alpha 90.000000
_cell_angle_beta 90.000000
_cell_angle_gamma 90.000000
_cell_volume 3131.667382
_symmetry_space_group_name_H-M "P -4 21 M "
_symmetry_group_IT_number 113
_symmetry_cell_setting 'tetragonal'
loop_
_space_group_symop_operation_xyz
x,y,z
y,-x,-z
-x,-y,z
-y,x,-z
1/2+x,1/2-y,-z
1/2-x,1/2+y,-z
1/2-y,1/2-x,z
1/2+y,1/2+x,z
loop_
_atom_site_type_symbol
_atom_site_label
_atom_site_fract_x
_atom_site_fract_y
_atom_site_fract_z
Si Si1 0.373850 0.299074 0.580042
Si Si2 0.070341 0.104506 0.710318
Si Si3 0.041447 0.155729 0.975449
Si Si4 0.357995 0.318177 0.849172
Si Si5 0.168391 0.497609 0.072797
Si Si6 0.327999 0.002289 0.335643
Si Si7 0.780604 0.548202 0.516190
O O1 0.278523 0.221478 0.602373
O O2 0.418315 0.354650 0.646658
O O3 0.466760 0.234242 0.544437
O O4 0.328616 0.387004 0.528283
O O5 0.143358 0.120395 0.774675
O O6 0.001063 0.212696 0.700112
O O7 0.000000 0.000000 0.721319
O O8 0.081605 0.158098 0.898809
O O9 0.920133 0.114412 0.977478
O O10 0.047301 0.273140 0.006656
O O11 0.252210 0.247791 0.851520
O O12 0.461991 0.251520 0.871401
O O13 0.095184 0.595184 0.048361
O O14 0.096633 0.403368 0.104550
O O15 0.394011 0.894011 0.319342
O O16 0.313086 0.012771 0.415774
O O17 0.394297 0.105704 0.310577
O O18 0.874108 0.625893 0.492171
#
# Coordination Sequence:
#
# PCOD8308667 Si02
#       7
#     8   8   8   8   8   8   8
#     4  10  21  36  54  79 110 141 180 229 274 330
#     4  11  24  37  55  79 113 153 186 225 271 329
#     4   9  18  31  56  82 108 134 172 231 276 321
#     4  10  20  36  58  78 106 148 185 220 270 324
#     4   9  18  33  54  81 111 143 180 220 268 328
#     4   9  18  37  62  83 107 142 187 239 290 335
#     4   9  19  33  56  84 107 138 179 229 285 332
#
# _framework density 17.881848000000002
#
# number of rings (size 3 to 8) (size 9 to 14) (size 15 to 20)
#    0.000    2.429    0.000    3.000    8.000    1.429 
#    0.000    2.143    0.000    4.286    0.000    0.000 
#    0.000    0.000    0.000    0.000    0.000    0.000 
#
# Total GULP energy -694369.098953 kJ/mol
# GULP energy per Si atom -12399.448196 kJ/mol
# Density = 1.784115 g / cm^3
# Si number density = 17.881848 Si / 1000 Ang^3
#
#
#
# Elastic Constant Matrix: (Units=GPa)
#
#
# Indices 1 2 3 4 5 6 
#
# 1 88.3932 34.2920 30.7781 0.0000 0.0000 0.0000
# 2 34.2920 88.3934 30.7787 0.0000 0.0000 0.0000
# 3 30.7781 30.7787 64.8446 0.0000 0.0000 0.0000
# 4 0.0000 0.0000 0.0000 20.9318 0.0000 0.0000
# 5 0.0000 0.0000 0.0000 0.0000 20.9317 0.0000
# 6 0.0000 0.0000 0.0000 0.0000 0.0000 22.9591
#
#
#
# Elastic Compliance Matrix: (Units=1/GPa)
#
#
# Indices 1 2 3 4 5 6 
#
# 1 0.014591 -0.003892 -0.005078 0.000000 0.000000 0.000000
# 2 -0.003892 0.014591 -0.005078 0.000000 0.000000 0.000000
# 3 -0.005078 -0.005078 0.020242 0.000000 0.000000 0.000000
# 4 0.000000 0.000000 0.000000 0.047774 0.000000 0.000000
# 5 0.000000 0.000000 0.000000 0.000000 0.047774 0.000000
# 6 0.000000 0.000000 0.000000 0.000000 0.000000 0.043556
#
#
# Mechanical properties :
#
#
# Convention : Reuss Voigt Hill
#
# Bulk Modulus (GPa) = 46.88857 48.14764 47.51811
# Shear Modulus (GPa) = 22.34775 22.68335 22.51555
#
# Velocity S-wave (km/s) = 3.53901 3.56548 3.55227
# Velocity P-wave (km/s) = 6.55574 6.62828 6.59211
#
# Compressibility (1/GPa) = 0.02132716
#
# Stress axis : x y z
#
# Youngs Moduli (GPa) = 68.53381 68.53344 49.40169
#
# Poissons Ratio (x) = 0.26676 0.25087
# Poissons Ratio (y) = 0.26677 0.25088
# Poissons Ratio (z) = 0.34802 0.34803
#
# Static dielectric constant tensor:
#      x y z
#    x 3.470950 0.000000 0.000000 
#    y 0.000000 3.470940 0.000000 
#    z 0.000000 0.000000 3.059520 
# 
# 
# High freq. dielectric constant tensor:
#      x y z
#    x 1.697370 0.000000 0.000000 
#    y 0.000000 1.697370 0.000000 
#    z 0.000000 0.000000 1.667800 
# 
# From -- ./inp_files/2664.got.cif
#   From: 2010.03.12/outbox.cif.g09.slc.cpg/sg113_cif.got.tgz:2664.got - 2010.04.14 02:06:34.
