data_PCOD8308105
_publ_section_title
;
Structure prediction by ZEFSAII (Michael W. Deem and Ramdas Pophale) SiO2 
 PCOD8308105
Probable space group: P -4 2 M 
;
_chemical_formula_sum "Si O2"
_cell_formula_units_Z 56
_cell_length_a 11.992586
_cell_length_b 11.992586
_cell_length_c 25.656330
_cell_angle_alpha 90.000000
_cell_angle_beta 90.000000
_cell_angle_gamma 90.000000
_cell_volume 3689.947746
_symmetry_space_group_name_H-M "P -4 2 M "
_symmetry_group_IT_number 111
_symmetry_cell_setting 'tetragonal'
loop_
_space_group_symop_operation_xyz
x,y,z
y,-x,-z
-x,-y,z
-y,x,-z
x,-y,-z
-x,y,-z
-y,-x,z
y,x,z
loop_
_atom_site_type_symbol
_atom_site_label
_atom_site_fract_x
_atom_site_fract_y
_atom_site_fract_z
Si Si1 0.859610 0.319972 0.052672
Si Si2 0.685262 0.128575 0.500010
Si Si3 0.127201 0.485741 0.131980
Si Si4 0.318962 0.499823 0.333780
Si Si5 0.715102 0.891737 0.063335
Si Si6 0.501114 0.319098 0.787049
Si Si7 0.128160 0.499965 0.416043
O O1 0.762854 0.237147 0.070670
O O2 0.844667 0.433902 0.083789
O O3 0.976944 0.262650 0.066609
O O4 0.856332 0.344515 0.990883
O O5 0.793606 0.206395 0.499969
O O6 0.610667 0.153546 0.550670
O O7 0.610451 0.153629 0.449424
O O8 0.725030 0.000000 0.500000
O O9 0.148336 0.361844 0.110813
O O10 0.205881 0.508105 0.180777
O O11 0.000000 0.500000 0.150857
O O12 0.388239 0.611762 0.345833
O O13 0.393199 0.393199 0.349534
O O14 0.286517 0.494035 0.273356
O O15 0.205034 0.500043 0.365533
O O16 0.834993 0.834993 0.068728
O O17 0.611004 0.388997 0.802762
O O18 0.392308 0.392308 0.799004
O O19 0.000000 0.500000 0.397636
#
# Coordination Sequence:
#
# PCOD8308105 Si02
#       7
#     8   8   8   8   8   8   8
#     4   9  17  28  42  60  81 105 132 162 197 237
#     4   9  17  28  42  62  87 115 144 170 200 237
#     4  10  18  28  43  61  82 106 132 164 200 239
#     4   9  17  29  45  63  82 106 136 170 207 244
#     4   9  17  28  42  60  81 105 132 162 197 237
#     4   9  18  31  45  61  81 106 136 168 202 241
#     4   9  17  28  43  63  87 112 137 170 207 242
#
# _framework density 15.176368
#
# number of rings (size 3 to 8) (size 9 to 14) (size 15 to 20)
#    0.000    2.857    0.000    3.857    0.000    2.714 
#    0.000    1.429    0.000    3.429    0.000    6.000 
#    0.000    0.000    0.000   53.143    0.000    0.286 
#
# Total GULP energy -694289.915204 kJ/mol
# GULP energy per Si atom -12398.034200 kJ/mol
# Density = 1.514183 g / cm^3
# Si number density = 15.176368 Si / 1000 Ang^3
#
#
#
# Elastic Constant Matrix: (Units=GPa)
#
#
# Indices 1 2 3 4 5 6 
#
# 1 79.8410 39.7143 37.7246 0.0000 0.0000 0.0000
# 2 39.7143 79.8395 37.7231 0.0000 0.0000 0.0000
# 3 37.7246 37.7231 66.7397 0.0000 0.0000 0.0000
# 4 0.0000 0.0000 0.0000 24.2877 0.0000 0.0000
# 5 0.0000 0.0000 0.0000 0.0000 24.2880 0.0000
# 6 0.0000 0.0000 0.0000 0.0000 0.0000 22.6375
#
#
#
# Elastic Compliance Matrix: (Units=1/GPa)
#
#
# Indices 1 2 3 4 5 6 
#
# 1 0.018962 -0.005960 -0.007350 0.000000 0.000000 0.000000
# 2 -0.005960 0.018962 -0.007349 0.000000 0.000000 0.000000
# 3 -0.007350 -0.007349 0.023292 0.000000 0.000000 0.000000
# 4 0.000000 0.000000 0.000000 0.041173 0.000000 0.000000
# 5 0.000000 0.000000 0.000000 0.000000 0.041173 0.000000
# 6 0.000000 0.000000 0.000000 0.000000 0.000000 0.044174
#
#
# Mechanical properties :
#
#
# Convention : Reuss Voigt Hill
#
# Bulk Modulus (GPa) = 50.25386 50.74935 50.50160
# Shear Modulus (GPa) = 21.21464 21.65984 21.43724
#
# Velocity S-wave (km/s) = 3.74287 3.78194 3.76246
# Velocity P-wave (km/s) = 7.20166 7.25142 7.22658
#
# Compressibility (1/GPa) = 0.01989897
#
# Stress axis : x y z
#
# Youngs Moduli (GPa) = 52.73705 52.73710 42.93312
#
# Poissons Ratio (x) = 0.31429 0.31555
# Poissons Ratio (y) = 0.31429 0.31553
# Poissons Ratio (z) = 0.38761 0.38758
#
# Static dielectric constant tensor:
#      x y z
#    x 2.839410 0.000000 0.000000 
#    y 0.000000 2.839410 0.000000 
#    z 0.000000 0.000000 2.747290 
# 
# 
# High freq. dielectric constant tensor:
#      x y z
#    x 1.579620 0.000000 0.000000 
#    y 0.000000 1.579620 0.000000 
#    z 0.000000 0.000000 1.570170 
# 
# From -- ./inp_files/4008.got.cif
#   From: 2010.03.12/outbox.cif.g09.slc.cpg/sg111_3_cif.got.tgz:4008.got - 2010.04.14 01:59:48.
