data_PCOD8308926
_publ_section_title
;
Structure prediction by ZEFSAII (Michael W. Deem and Ramdas Pophale) SiO2 
 PCOD8308926
Probable space group: P -4 21 C
;
_chemical_formula_sum "Si O2"
_cell_formula_units_Z 56
_cell_length_a 11.165991
_cell_length_b 11.165991
_cell_length_c 19.106900
_cell_angle_alpha 90.000000
_cell_angle_beta 90.000000
_cell_angle_gamma 90.000000
_cell_volume 2382.235968
_symmetry_space_group_name_H-M "P -4 21 C"
_symmetry_group_IT_number 114
_symmetry_cell_setting 'tetragonal'
loop_
_space_group_symop_operation_xyz
x,y,z
y,-x,-z
-x,-y,z
-y,x,-z
1/2+x,1/2-y,1/2-z
1/2-x,1/2+y,1/2-z
1/2-y,1/2-x,1/2+z
1/2+y,1/2+x,1/2+z
loop_
_atom_site_type_symbol
_atom_site_label
_atom_site_fract_x
_atom_site_fract_y
_atom_site_fract_z
Si Si1 0.070558 0.822039 0.483265
Si Si2 0.872266 0.554475 0.445917
Si Si3 0.257260 0.610138 0.347077
Si Si4 0.170394 0.587143 0.110583
Si Si5 0.915097 0.672497 0.100056
Si Si6 0.915035 0.108889 0.713894
Si Si7 0.288544 0.014046 0.656091
O O1 0.107568 0.707434 0.529407
O O2 0.932712 0.845532 0.501057
O O3 0.083062 0.793348 0.401485
O O4 0.768101 0.467678 0.416059
O O5 0.817128 0.609761 0.516313
O O6 0.905282 0.643529 0.382597
O O7 0.000000 0.500000 0.469760
O O8 0.337667 0.724485 0.364659
O O9 0.333310 0.541478 0.286911
O O10 0.124449 0.633918 0.313291
O O11 0.131416 0.453173 0.128865
O O12 0.288801 0.608529 0.156494
O O13 0.057780 0.678710 0.120038
O O14 0.785262 0.043925 0.719747
O O15 0.000000 0.000000 0.688628
#
# Coordination Sequence:
#
# PCOD8308926 Si02
#       7
#     8   8   8   8   8   8   8
#     4  11  19  33  65 109 137 162 222 300 376 416
#     4  10  21  45  69 104 138 179 238 302 361 432
#     4  11  27  45  68  98 142 191 237 293 358 443
#     4  11  22  40  69 103 137 181 227 302 361 429
#     4  11  22  44  72 102 138 182 244 293 365 442
#     4  12  27  47  65 103 144 184 243 302 357 437
#     4  11  23  41  75  98 136 183 230 295 373 425
#
# _framework density 23.507325999999999
#
# number of rings (size 3 to 8) (size 9 to 14) (size 15 to 20)
#    0.000    1.000    4.286    3.429    2.000    3.429 
#    7.714    0.000    0.000    0.000    0.000    0.000 
#    0.000    0.000    0.000    0.000    0.000    0.000 
#
# Total GULP energy -693829.077203 kJ/mol
# GULP energy per Si atom -12389.804950 kJ/mol
# Density = 2.345382 g / cm^3
# Si number density = 23.507326 Si / 1000 Ang^3
#
#
#
# Elastic Constant Matrix: (Units=GPa)
#
#
# Indices 1 2 3 4 5 6 
#
# 1 86.6416 27.8394 17.2671 0.0000 0.0000 0.0000
# 2 27.8394 86.6416 17.2671 0.0000 0.0000 0.0000
# 3 17.2671 17.2671 60.9574 0.0000 0.0000 0.0000
# 4 0.0000 0.0000 0.0000 29.8011 0.0000 0.0000
# 5 0.0000 0.0000 0.0000 0.0000 29.8011 0.0000
# 6 0.0000 0.0000 0.0000 0.0000 0.0000 43.0287
#
#
#
# Elastic Compliance Matrix: (Units=1/GPa)
#
#
# Indices 1 2 3 4 5 6 
#
# 1 0.013279 -0.003727 -0.002706 0.000000 0.000000 0.000000
# 2 -0.003727 0.013279 -0.002706 0.000000 0.000000 0.000000
# 3 -0.002706 -0.002706 0.017938 0.000000 0.000000 0.000000
# 4 0.000000 0.000000 0.000000 0.033556 0.000000 0.000000
# 5 0.000000 0.000000 0.000000 0.000000 0.033556 0.000000
# 6 0.000000 0.000000 0.000000 0.000000 0.000000 0.023240
#
#
# Mechanical properties :
#
#
# Convention : Reuss Voigt Hill
#
# Bulk Modulus (GPa) = 38.14177 39.88755 39.01466
# Shear Modulus (GPa) = 30.89028 31.98401 31.43715
#
# Velocity S-wave (km/s) = 3.62894 3.69263 3.66093
# Velocity P-wave (km/s) = 5.81547 5.93175 5.87390
#
# Compressibility (1/GPa) = 0.02621798
#
# Stress axis : x y z
#
# Youngs Moduli (GPa) = 75.30867 75.30867 55.74863
#
# Poissons Ratio (x) = 0.28071 0.15083
# Poissons Ratio (y) = 0.28071 0.15083
# Poissons Ratio (z) = 0.20375 0.20375
#
# Static dielectric constant tensor:
#      x y z
#    x 4.328830 0.000000 0.000000 
#    y 0.000000 4.328830 0.000000 
#    z 0.000000 0.000000 4.010200 
# 
# 
# High freq. dielectric constant tensor:
#      x y z
#    x 1.927770 0.000000 0.000000 
#    y 0.000000 1.927770 0.000000 
#    z 0.000000 0.000000 1.914290 
# 
# From -- ./inp_files/3138.got.cif
#   From: 2010.03.12/outbox.cif.g09.slc.cpg/sg114_2_cif.got.tgz:3138.got - 2010.04.14 02:08:34.
