data_PCOD8308696
_publ_section_title
;
Structure prediction by ZEFSAII (Michael W. Deem and Ramdas Pophale) SiO2 
 PCOD8308696
Probable space group: P -4 21 M 
;
_chemical_formula_sum "Si O2"
_cell_formula_units_Z 56
_cell_length_a 11.143314
_cell_length_b 11.143314
_cell_length_c 21.530744
_cell_angle_alpha 90.000000
_cell_angle_beta 90.000000
_cell_angle_gamma 90.000000
_cell_volume 2673.546697
_symmetry_space_group_name_H-M "P -4 21 M "
_symmetry_group_IT_number 113
_symmetry_cell_setting 'tetragonal'
loop_
_space_group_symop_operation_xyz
x,y,z
y,-x,-z
-x,-y,z
-y,x,-z
1/2+x,1/2-y,-z
1/2-x,1/2+y,-z
1/2-y,1/2-x,z
1/2+y,1/2+x,z
loop_
_atom_site_type_symbol
_atom_site_label
_atom_site_fract_x
_atom_site_fract_y
_atom_site_fract_z
Si Si1 0.251385 0.060385 0.937549
Si Si2 0.502067 0.808675 0.807086
Si Si3 0.191323 0.497935 0.807043
Si Si4 0.251444 0.939670 0.062472
Si Si5 0.500445 0.802576 0.500244
Si Si6 0.348210 0.349495 0.409890
Si Si7 0.852094 0.147934 0.728456
O O1 0.376187 0.123814 0.955684
O O2 0.271368 0.973595 0.878603
O O3 0.154309 0.154352 0.913537
O O4 0.202357 0.000047 0.000020
O O5 0.639431 0.860570 0.800596
O O6 0.473278 0.695883 0.762349
O O7 0.414023 0.914023 0.787174
O O8 0.085941 0.585941 0.787112
O O9 0.228541 0.526424 0.878579
O O10 0.304280 0.526619 0.762382
O O11 0.139444 0.360557 0.800570
O O12 0.376212 0.876212 0.044295
O O13 0.386977 0.886977 0.480585
O O14 0.463646 0.708847 0.554163
O O15 0.540343 0.716196 0.443850
O O16 0.612035 0.887966 0.521578
O O17 0.243525 0.256476 0.400574
O O18 0.389758 0.389654 0.341416
O O19 0.750414 0.250414 0.731415
#
# Coordination Sequence:
#
# PCOD8308696 Si02
#       7
#     8   8   8   8   8   8   8
#     4  10  21  35  52  74 101 135 175 224 276 326
#     4   9  18  33  53  76 105 142 182 227 276 327
#     4   9  18  33  53  76 105 142 182 227 276 327
#     4  10  21  35  52  74 101 135 175 224 276 326
#     4   9  18  33  56  84 116 153 188 229 280 328
#     4   9  18  33  55  85 116 145 184 230 272 326
#     4   9  18  32  54  82 108 139 182 227 269 324
#
# _framework density 20.945958999999998
#
# number of rings (size 3 to 8) (size 9 to 14) (size 15 to 20)
#    0.000    2.714    0.000    0.857    2.000    3.143 
#    0.000    5.714    6.286    0.000    0.000    0.000 
#    0.000    0.000    0.000    0.000    0.000    0.000 
#
# Total GULP energy -693817.836447 kJ/mol
# GULP energy per Si atom -12389.604222 kJ/mol
# Density = 2.089829 g / cm^3
# Si number density = 20.945959 Si / 1000 Ang^3
#
#
#
# Elastic Constant Matrix: (Units=GPa)
#
#
# Indices 1 2 3 4 5 6 
#
# 1 63.4234 41.6361 52.7318 0.0000 0.0000 0.0000
# 2 41.6361 63.4239 52.7314 0.0000 0.0000 0.0000
# 3 52.7318 52.7314 164.9025 0.0000 0.0000 0.0000
# 4 0.0000 0.0000 0.0000 13.0772 0.0000 0.0000
# 5 0.0000 0.0000 0.0000 0.0000 13.0762 0.0000
# 6 0.0000 0.0000 0.0000 0.0000 0.0000 26.1838
#
#
#
# Elastic Compliance Matrix: (Units=1/GPa)
#
#
# Indices 1 2 3 4 5 6 
#
# 1 0.029958 -0.015940 -0.004483 0.000000 0.000000 0.000000
# 2 -0.015940 0.029958 -0.004483 0.000000 0.000000 0.000000
# 3 -0.004483 -0.004483 0.008931 0.000000 0.000000 0.000000
# 4 0.000000 0.000000 0.000000 0.076469 0.000000 0.000000
# 5 0.000000 0.000000 0.000000 0.000000 0.076475 0.000000
# 6 0.000000 0.000000 0.000000 0.000000 0.000000 0.038192
#
#
# Mechanical properties :
#
#
# Convention : Reuss Voigt Hill
#
# Bulk Modulus (GPa) = 52.52953 65.10538 58.81746
# Shear Modulus (GPa) = 15.81586 20.11081 17.96333
#
# Velocity S-wave (km/s) = 2.75085 3.10196 2.93166
# Velocity P-wave (km/s) = 5.93487 6.63171 6.29294
#
# Compressibility (1/GPa) = 0.01903691
#
# Stress axis : x y z
#
# Youngs Moduli (GPa) = 33.37979 33.38034 111.96842
#
# Poissons Ratio (x) = 0.53207 0.50194
# Poissons Ratio (y) = 0.53206 0.50190
# Poissons Ratio (z) = 0.14964 0.14963
#
# Static dielectric constant tensor:
#      x y z
#    x 3.737540 0.000000 0.000000 
#    y 0.000000 3.737530 0.000000 
#    z 0.000000 0.000000 3.824900 
# 
# 
# High freq. dielectric constant tensor:
#      x y z
#    x 1.806900 0.000000 0.000000 
#    y 0.000000 1.806900 0.000000 
#    z 0.000000 0.000000 1.807730 
# 
# From -- ./inp_files/2701.got.cif
#   From: 2010.03.12/outbox.cif.g09.slc.cpg/sg113_cif.got.tgz:2701.got - 2010.04.14 02:06:34.
