data_PCOD8308453
_publ_section_title
;
Structure prediction by ZEFSAII (Michael W. Deem and Ramdas Pophale) SiO2 
 PCOD8308453
Probable space group: P -4 2 C
;
_chemical_formula_sum "Si O2"
_cell_formula_units_Z 40
_cell_length_a 11.662866
_cell_length_b 11.662866
_cell_length_c 15.029629
_cell_angle_alpha 90.000000
_cell_angle_beta 90.000000
_cell_angle_gamma 90.000000
_cell_volume 2044.366859
_symmetry_space_group_name_H-M "P -4 2 C"
_symmetry_group_IT_number 112
_symmetry_cell_setting 'tetragonal'
loop_
_space_group_symop_operation_xyz
x,y,z
y,-x,-z
-x,-y,z
-y,x,-z
x,-y,1/2-z
-x,y,1/2-z
-y,-x,1/2+z
y,x,1/2+z
loop_
_atom_site_type_symbol
_atom_site_label
_atom_site_fract_x
_atom_site_fract_y
_atom_site_fract_z
Si Si1 0.118746 0.249459 0.796990
Si Si2 0.869264 0.130989 0.017203
Si Si3 0.557114 0.668212 0.522424
Si Si4 0.478851 0.125293 0.398480
Si Si5 0.241114 0.712152 0.868331
O O1 0.145118 0.170978 0.881576
O O2 0.115619 0.382941 0.822717
O O3 0.220361 0.223369 0.725156
O O4 0.000000 0.213019 0.750000
O O5 0.803954 0.219217 0.953843
O O6 0.003597 0.158476 0.016283
O O7 0.625593 0.573061 0.462522
O O8 0.563886 0.790364 0.475413
O O9 0.624360 0.682224 0.616253
O O10 0.595770 0.169759 0.355920
O O11 0.500000 0.000000 0.441262
#
# Coordination Sequence:
#
# PCOD8308453 Si02
#       5
#     8   8   8   8   8
#     4  12  22  38  62  95 119 153 213 263 307 371
#     4  11  23  40  59  84 127 167 203 251 326 382
#     4   9  20  39  61  87 125 168 204 249 319 381
#     4  11  20  35  65  93 121 153 207 262 312 360
#     4  11  22  37  60  91 122 159 204 263 307 371
#
# _framework density 19.565961999999999
#
# number of rings (size 3 to 8) (size 9 to 14) (size 15 to 20)
#    0.000    1.200    6.000    0.600    0.000    0.800 
#    0.000    1.000    0.000    4.800    0.000    1.400 
#    0.000    0.000    0.000    0.000    0.000    0.000 
#
# Total GULP energy -495888.052473 kJ/mol
# GULP energy per Si atom -12397.201312 kJ/mol
# Density = 1.952143 g / cm^3
# Si number density = 19.565962 Si / 1000 Ang^3
#
#
#
# Elastic Constant Matrix: (Units=GPa)
#
#
# Indices 1 2 3 4 5 6 
#
# 1 75.0400 8.6363 44.2632 0.0000 0.0000 0.0000
# 2 8.6363 75.0400 44.2632 0.0000 0.0000 0.0000
# 3 44.2632 44.2632 134.6840 0.0000 0.0000 0.0000
# 4 0.0000 0.0000 0.0000 30.9467 0.0000 0.0000
# 5 0.0000 0.0000 0.0000 0.0000 30.9467 0.0000
# 6 0.0000 0.0000 0.0000 0.0000 0.0000 22.8929
#
#
#
# Elastic Compliance Matrix: (Units=1/GPa)
#
#
# Indices 1 2 3 4 5 6 
#
# 1 0.016690 0.001631 -0.006021 0.000000 0.000000 0.000000
# 2 0.001631 0.016690 -0.006021 0.000000 0.000000 0.000000
# 3 -0.006021 -0.006021 0.011382 0.000000 0.000000 0.000000
# 4 0.000000 0.000000 0.000000 0.032314 0.000000 0.000000
# 5 0.000000 0.000000 0.000000 0.000000 0.032314 0.000000
# 6 0.000000 0.000000 0.000000 0.000000 0.000000 0.043682
#
#
# Mechanical properties :
#
#
# Convention : Reuss Voigt Hill
#
# Bulk Modulus (GPa) = 41.77132 53.23216 47.50174
# Shear Modulus (GPa) = 27.49153 29.46402 28.47777
#
# Velocity S-wave (km/s) = 3.75249 3.88478 3.81921
# Velocity P-wave (km/s) = 6.33800 6.88386 6.61656
#
# Compressibility (1/GPa) = 0.02393987
#
# Stress axis : x y z
#
# Youngs Moduli (GPa) = 59.91561 59.91561 87.85516
#
# Poissons Ratio (x) = -0.09771 0.52898
# Poissons Ratio (y) = -0.09771 0.52898
# Poissons Ratio (z) = 0.36076 0.36076
#
# Static dielectric constant tensor:
#      x y z
#    x 3.734450 0.000000 0.000000 
#    y 0.000000 3.734450 0.000000 
#    z 0.000000 0.000000 3.411820 
# 
# 
# High freq. dielectric constant tensor:
#      x y z
#    x 1.767280 0.000000 0.000000 
#    y 0.000000 1.767280 0.000000 
#    z 0.000000 0.000000 1.742030 
# 
# From -- ./inp_files/3275.got.cif
#   From: 2010.03.12/outbox.cif.g09.slc.cpg/sg112_2_cif.got.tgz:3275.got - 2010.04.14 02:02:48.
