data_PCOD8308565
_publ_section_title
;
Structure prediction by ZEFSAII (Michael W. Deem and Ramdas Pophale) SiO2 
 PCOD8308565
Probable space group: P -4 21 M 
;
_chemical_formula_sum "Si O2"
_cell_formula_units_Z 56
_cell_length_a 16.794486
_cell_length_b 16.794486
_cell_length_c 10.757944
_cell_angle_alpha 90.000000
_cell_angle_beta 90.000000
_cell_angle_gamma 90.000000
_cell_volume 3034.329313
_symmetry_space_group_name_H-M "P -4 21 M "
_symmetry_group_IT_number 113
_symmetry_cell_setting 'tetragonal'
loop_
_space_group_symop_operation_xyz
x,y,z
y,-x,-z
-x,-y,z
-y,x,-z
1/2+x,1/2-y,-z
1/2-x,1/2+y,-z
1/2-y,1/2-x,z
1/2+y,1/2+x,z
loop_
_atom_site_type_symbol
_atom_site_label
_atom_site_fract_x
_atom_site_fract_y
_atom_site_fract_z
Si Si1 0.890939 0.936507 0.463755
Si Si2 0.375506 0.996164 0.662382
Si Si3 0.760413 0.385898 0.097852
Si Si4 0.884973 0.258151 0.392134
Si Si5 0.910187 0.846750 0.989680
Si Si6 0.551308 0.177005 0.922344
Si Si7 0.967158 0.083870 0.804150
O O1 0.824370 0.885862 0.535481
O O2 0.869219 0.936291 0.317208
O O3 0.973924 0.891676 0.485024
O O4 0.431059 0.931059 0.591315
O O5 0.329690 0.950183 0.772797
O O6 0.432736 0.067265 0.718108
O O7 0.312832 0.038215 0.568871
O O8 0.804990 0.304990 0.064748
O O9 0.746440 0.394066 0.244747
O O10 0.811837 0.458848 0.038756
O O11 0.675769 0.384340 0.032967
O O12 0.802393 0.302393 0.425497
O O13 0.902011 0.754456 0.027380
O O14 0.943793 0.895589 0.106569
O O15 0.967301 0.860966 0.871692
O O16 0.598076 0.098076 0.975020
O O17 0.000000 0.000000 0.752807
#
# Coordination Sequence:
#
# PCOD8308565 Si02
#       7
#     8   8   8   8   8   8   8
#     4  11  23  36  57  83 110 143 184 229 280 338
#     4   8  15  30  56  85 110 143 186 228 271 323
#     4  10  20  35  58  84 111 147 187 230 280 334
#     4   9  19  37  58  80 112 148 184 231 280 331
#     4  12  21  35  55  81 114 144 188 229 280 335
#     4  10  19  31  50  80 112 142 178 226 273 321
#     4  12  21  36  56  82 110 152 184 227 279 343
#
# _framework density 18.455477999999999
#
# number of rings (size 3 to 8) (size 9 to 14) (size 15 to 20)
#    0.000    1.714    4.286    2.571    4.000    0.857 
#    0.000    2.143    0.000    1.714    0.000    0.000 
#    0.000    0.000    0.000    0.000    0.000    0.000 
#
# Total GULP energy -693922.061400 kJ/mol
# GULP energy per Si atom -12391.465382 kJ/mol
# Density = 1.841347 g / cm^3
# Si number density = 18.455478 Si / 1000 Ang^3
#
#
#
# Elastic Constant Matrix: (Units=GPa)
#
#
# Indices 1 2 3 4 5 6 
#
# 1 81.4873 27.5198 27.2253 0.0000 0.0000 0.0000
# 2 27.5198 81.4872 27.2254 0.0000 0.0000 0.0000
# 3 27.2253 27.2254 60.8665 0.0000 0.0000 0.0000
# 4 0.0000 0.0000 0.0000 20.2506 0.0000 0.0000
# 5 0.0000 0.0000 0.0000 0.0000 20.2505 0.0000
# 6 0.0000 0.0000 0.0000 0.0000 0.0000 31.6549
#
#
#
# Elastic Compliance Matrix: (Units=1/GPa)
#
#
# Indices 1 2 3 4 5 6 
#
# 1 0.015171 -0.003358 -0.005284 0.000000 0.000000 0.000000
# 2 -0.003358 0.015171 -0.005284 0.000000 0.000000 0.000000
# 3 -0.005284 -0.005284 0.021156 0.000000 0.000000 0.000000
# 4 0.000000 0.000000 0.000000 0.049381 0.000000 0.000000
# 5 0.000000 0.000000 0.000000 0.000000 0.049382 0.000000
# 6 0.000000 0.000000 0.000000 0.000000 0.000000 0.031591
#
#
# Mechanical properties :
#
#
# Convention : Reuss Voigt Hill
#
# Bulk Modulus (GPa) = 42.28903 43.08690 42.68796
# Shear Modulus (GPa) = 22.97925 23.88922 23.43424
#
# Velocity S-wave (km/s) = 3.53245 3.60171 3.56725
# Velocity P-wave (km/s) = 6.29297 6.37915 6.33620
#
# Compressibility (1/GPa) = 0.02364679
#
# Stress axis : x y z
#
# Youngs Moduli (GPa) = 65.91352 65.91334 47.26699
#
# Poissons Ratio (x) = 0.22135 0.24976
# Poissons Ratio (y) = 0.22136 0.24976
# Poissons Ratio (z) = 0.34828 0.34829
#
# Static dielectric constant tensor:
#      x y z
#    x 3.506500 0.000000 0.000000 
#    y 0.000000 3.506500 0.000000 
#    z 0.000000 0.000000 3.035440 
# 
# 
# High freq. dielectric constant tensor:
#      x y z
#    x 1.719240 0.000000 0.000000 
#    y 0.000000 1.719240 0.000000 
#    z 0.000000 0.000000 1.672030 
# 
# From -- ./inp_files/1992.got.cif
#   From: 2010.03.12/outbox.cif.g09.slc.cpg/sg113_cif.got.tgz:1992.got - 2010.04.14 02:06:34.
