data_PCOD8308801
_publ_section_title
;
Structure prediction by ZEFSAII (Michael W. Deem and Ramdas Pophale) SiO2 
 PCOD8308801
Probable space group: P -4 21 C
;
_chemical_formula_sum "Si O2"
_cell_formula_units_Z 64
_cell_length_a 11.709127
_cell_length_b 11.709127
_cell_length_c 26.152568
_cell_angle_alpha 90.000000
_cell_angle_beta 90.000000
_cell_angle_gamma 90.000000
_cell_volume 3585.612663
_symmetry_space_group_name_H-M "P -4 21 C"
_symmetry_group_IT_number 114
_symmetry_cell_setting 'tetragonal'
loop_
_space_group_symop_operation_xyz
x,y,z
y,-x,-z
-x,-y,z
-y,x,-z
1/2+x,1/2-y,1/2-z
1/2-x,1/2+y,1/2-z
1/2-y,1/2-x,1/2+z
1/2+y,1/2+x,1/2+z
loop_
_atom_site_type_symbol
_atom_site_label
_atom_site_fract_x
_atom_site_fract_y
_atom_site_fract_z
Si Si1 0.276715 0.395754 0.294738
Si Si2 0.610237 0.282332 0.162613
Si Si3 0.258248 0.145538 0.177099
Si Si4 0.901212 0.240456 0.402241
Si Si5 0.863145 0.628204 0.194452
Si Si6 0.052092 0.824296 0.507664
Si Si7 0.231059 0.553557 0.747260
Si Si8 0.494801 0.720166 0.881330
O O1 0.204954 0.315512 0.332672
O O2 0.293708 0.518861 0.320993
O O3 0.218028 0.414281 0.239892
O O4 0.398283 0.334596 0.286796
O O5 0.531007 0.243684 0.115801
O O6 0.538754 0.288288 0.215084
O O7 0.665943 0.405818 0.153027
O O8 0.321972 0.162932 0.122809
O O9 0.159088 0.238506 0.181396
O O10 0.347385 0.164727 0.223072
O O11 0.893377 0.255872 0.463619
O O12 0.865838 0.112617 0.383794
O O13 0.838201 0.547620 0.145319
O O14 0.995619 0.631600 0.211945
O O15 0.932334 0.866112 0.483733
O O16 0.038903 0.755740 0.560875
#
# Coordination Sequence:
#
# PCOD8308801 Si02
#       8
#     8   8   8   8   8   8   8   8
#     4  10  21  34  48  69  97 143 180 208 244 303
#     4  10  19  32  48  74 101 138 172 203 253 303
#     4   9  19  35  47  73 101 130 180 211 252 297
#     4   9  17  30  49  76 104 131 163 215 262 306
#     4   9  20  32  48  73 103 137 169 213 254 294
#     4   9  15  26  48  78 106 130 160 200 263 321
#     4   9  20  35  47  73 100 142 176 209 252 296
#     4  10  18  30  49  78 108 133 166 209 260 320
#
# _framework density 17.849112999999999
#
# number of rings (size 3 to 8) (size 9 to 14) (size 15 to 20)
#    0.000    2.625    1.250    1.125    5.250    5.000 
#    4.500    0.000    0.000    0.000    6.500    0.000 
#    0.000    0.000    0.000    0.000    0.000    0.000 
#
# Total GULP energy -793310.982817 kJ/mol
# GULP energy per Si atom -12395.484107 kJ/mol
# Density = 1.780849 g / cm^3
# Si number density = 17.849113 Si / 1000 Ang^3
#
#
#
# Elastic Constant Matrix: (Units=GPa)
#
#
# Indices 1 2 3 4 5 6 
#
# 1 40.2497 -7.7340 14.3446 0.0000 0.0000 0.0000
# 2 -7.7340 40.2497 14.3446 0.0000 0.0000 0.0000
# 3 14.3446 14.3446 85.2728 0.0000 0.0000 0.0000
# 4 0.0000 0.0000 0.0000 22.2449 0.0000 0.0000
# 5 0.0000 0.0000 0.0000 0.0000 22.2449 0.0000
# 6 0.0000 0.0000 0.0000 0.0000 0.0000 18.5800
#
#
#
# Elastic Compliance Matrix: (Units=1/GPa)
#
#
# Indices 1 2 3 4 5 6 
#
# 1 0.028477 0.007637 -0.006075 0.000000 0.000000 0.000000
# 2 0.007637 0.028477 -0.006075 0.000000 0.000000 0.000000
# 3 -0.006075 -0.006075 0.013771 0.000000 0.000000 0.000000
# 4 0.000000 0.000000 0.000000 0.044954 0.000000 0.000000
# 5 0.000000 0.000000 0.000000 0.000000 0.044954 0.000000
# 6 0.000000 0.000000 0.000000 0.000000 0.000000 0.053821
#
#
# Mechanical properties :
#
#
# Convention : Reuss Voigt Hill
#
# Bulk Modulus (GPa) = 16.20762 23.07585 19.64174
# Shear Modulus (GPa) = 20.48773 22.26844 21.37808
#
# Velocity S-wave (km/s) = 3.39164 3.53596 3.46455
# Velocity P-wave (km/s) = 4.94345 5.44307 5.19927
#
# Compressibility (1/GPa) = 0.06169936
#
# Stress axis : x y z
#
# Youngs Moduli (GPa) = 35.11547 35.11547 72.61641
#
# Poissons Ratio (x) = -0.26818 0.44116
# Poissons Ratio (y) = -0.26818 0.44116
# Poissons Ratio (z) = 0.21333 0.21333
#
# Static dielectric constant tensor:
#      x y z
#    x 3.182390 0.000000 0.000000 
#    y 0.000000 3.182390 0.000000 
#    z 0.000000 0.000000 3.303370 
# 
# 
# High freq. dielectric constant tensor:
#      x y z
#    x 1.672120 0.000000 0.000000 
#    y 0.000000 1.672120 0.000000 
#    z 0.000000 0.000000 1.673840 
# 
# From -- ./inp_files/3771.got.cif
#   From: 2010.03.12/outbox.cif.g09.slc.cpg/sg114_2_cif.got.tgz:3771.got - 2010.04.14 02:08:34.
