data_PCOD8308585
_publ_section_title
;
Structure prediction by ZEFSAII (Michael W. Deem and Ramdas Pophale) SiO2 
 PCOD8308585
Probable space group: P -4 21 M 
;
_chemical_formula_sum "Si O2"
_cell_formula_units_Z 56
_cell_length_a 13.862710
_cell_length_b 13.862710
_cell_length_c 16.930494
_cell_angle_alpha 90.000000
_cell_angle_beta 90.000000
_cell_angle_gamma 90.000000
_cell_volume 3253.613089
_symmetry_space_group_name_H-M "P -4 21 M "
_symmetry_group_IT_number 113
_symmetry_cell_setting 'tetragonal'
loop_
_space_group_symop_operation_xyz
x,y,z
y,-x,-z
-x,-y,z
-y,x,-z
1/2+x,1/2-y,-z
1/2-x,1/2+y,-z
1/2-y,1/2-x,z
1/2+y,1/2+x,z
loop_
_atom_site_type_symbol
_atom_site_label
_atom_site_fract_x
_atom_site_fract_y
_atom_site_fract_z
Si Si1 0.603145 0.535037 0.720205
Si Si2 0.489921 0.635012 0.459931
Si Si3 0.193320 0.455123 0.906434
Si Si4 0.440904 0.207885 0.249766
Si Si5 0.347058 0.526800 0.018586
Si Si6 0.344639 0.309032 0.839198
Si Si7 0.653522 0.000355 0.418942
O O1 0.500000 0.500000 0.751297
O O2 0.605393 0.546590 0.626480
O O3 0.676233 0.450835 0.750516
O O4 0.628985 0.640004 0.756134
O O5 0.594257 0.586845 0.476631
O O6 0.499739 0.749044 0.469553
O O7 0.096124 0.403877 0.941029
O O8 0.162515 0.515450 0.829514
O O9 0.265918 0.371509 0.883240
O O10 0.247439 0.523787 0.968888
O O11 0.329835 0.170166 0.257105
O O12 0.501870 0.170983 0.324951
O O13 0.311672 0.560359 0.105289
O O14 0.421618 0.601939 0.977237
O O15 0.298635 0.201366 0.825319
O O16 0.593797 0.906204 0.444398
O O17 0.596711 0.096711 0.441580
#
# Coordination Sequence:
#
# PCOD8308585 Si02
#       7
#     8   8   8   8   8   8   8
#     4  10  19  32  57  72  99 134 167 205 254 311
#     4  10  19  34  51  77 107 130 161 212 265 303
#     4   9  17  29  46  72 103 134 168 213 264 302
#     4   9  18  30  48  76 105 130 168 215 258 304
#     4   9  18  30  48  70  97 137 181 216 259 305
#     4   9  19  32  48  72 101 129 170 217 251 303
#     4   9  18  32  50  74 105 141 175 205 248 312
#
# _framework density 17.211634
#
# number of rings (size 3 to 8) (size 9 to 14) (size 15 to 20)
#    0.000    2.714    1.429    0.429    6.000    5.429 
#    0.000    0.000    0.000    0.000    0.000    0.000 
#    0.000    0.000    0.000    0.000    0.000    0.000 
#
# Total GULP energy -693922.875728 kJ/mol
# GULP energy per Si atom -12391.479924 kJ/mol
# Density = 1.717246 g / cm^3
# Si number density = 17.211634 Si / 1000 Ang^3
#
#
#
# Elastic Constant Matrix: (Units=GPa)
#
#
# Indices 1 2 3 4 5 6 
#
# 1 103.7314 65.1929 41.2329 0.0000 0.0000 0.0000
# 2 65.1929 103.7313 41.2326 0.0000 0.0000 0.0000
# 3 41.2329 41.2326 88.6204 0.0000 0.0000 0.0000
# 4 0.0000 0.0000 0.0000 21.5737 0.0000 0.0000
# 5 0.0000 0.0000 0.0000 0.0000 21.5739 0.0000
# 6 0.0000 0.0000 0.0000 0.0000 0.0000 23.9627
#
#
#
# Elastic Compliance Matrix: (Units=1/GPa)
#
#
# Indices 1 2 3 4 5 6 
#
# 1 0.016804 -0.009144 -0.003564 0.000000 0.000000 0.000000
# 2 -0.009144 0.016804 -0.003564 0.000000 0.000000 0.000000
# 3 -0.003564 -0.003564 0.014600 0.000000 0.000000 0.000000
# 4 0.000000 0.000000 0.000000 0.046353 0.000000 0.000000
# 5 0.000000 0.000000 0.000000 0.000000 0.046352 0.000000
# 6 0.000000 0.000000 0.000000 0.000000 0.000000 0.041732
#
#
# Mechanical properties :
#
#
# Convention : Reuss Voigt Hill
#
# Bulk Modulus (GPa) = 63.83929 65.71109 64.77519
# Shear Modulus (GPa) = 22.68501 23.31704 23.00103
#
# Velocity S-wave (km/s) = 3.63437 3.68465 3.65960
# Velocity P-wave (km/s) = 7.40154 7.50756 7.45474
#
# Compressibility (1/GPa) = 0.01566433
#
# Stress axis : x y z
#
# Youngs Moduli (GPa) = 59.51009 59.51018 68.49134
#
# Poissons Ratio (x) = 0.54418 0.24409
# Poissons Ratio (y) = 0.54418 0.24409
# Poissons Ratio (z) = 0.21209 0.21208
#
# Static dielectric constant tensor:
#      x y z
#    x 3.332200 0.000000 0.000000 
#    y 0.000000 3.332190 0.000000 
#    z 0.000000 0.000000 3.093110 
# 
# 
# High freq. dielectric constant tensor:
#      x y z
#    x 1.653040 0.000000 0.000000 
#    y 0.000000 1.653040 0.000000 
#    z 0.000000 0.000000 1.646570 
# 
# From -- ./inp_files/2312.got.cif
#   From: 2010.03.12/outbox.cif.g09.slc.cpg/sg113_cif.got.tgz:2312.got - 2010.04.14 02:06:34.
