data_PCOD8308947
_publ_section_title
;
Structure prediction by ZEFSAII (Michael W. Deem and Ramdas Pophale) SiO2 
 PCOD8308947
Probable space group: P -4 21 C
;
_chemical_formula_sum "Si O2"
_cell_formula_units_Z 48
_cell_length_a 13.372038
_cell_length_b 13.372038
_cell_length_c 13.115569
_cell_angle_alpha 90.000000
_cell_angle_beta 90.000000
_cell_angle_gamma 90.000000
_cell_volume 2345.213258
_symmetry_space_group_name_H-M "P -4 21 C"
_symmetry_group_IT_number 114
_symmetry_cell_setting 'tetragonal'
loop_
_space_group_symop_operation_xyz
x,y,z
y,-x,-z
-x,-y,z
-y,x,-z
1/2+x,1/2-y,1/2-z
1/2-x,1/2+y,1/2-z
1/2-y,1/2-x,1/2+z
1/2+y,1/2+x,1/2+z
loop_
_atom_site_type_symbol
_atom_site_label
_atom_site_fract_x
_atom_site_fract_y
_atom_site_fract_z
Si Si1 0.500000 0.500000 0.000000
Si Si2 0.224277 0.510036 0.501729
Si Si3 0.143764 0.133691 0.359125
Si Si4 0.360054 0.057811 0.401137
Si Si5 0.870361 0.879942 0.118892
Si Si6 0.500000 0.500000 0.500000
Si Si7 0.000000 0.500000 0.267191
Si Si8 0.145303 0.413513 0.915162
O O1 0.571219 0.435705 0.073724
O O2 0.131609 0.551006 0.566607
O O3 0.263336 0.610725 0.439734
O O4 0.297114 0.449992 0.580674
O O5 0.182289 0.427839 0.422781
O O6 0.257459 0.116384 0.388986
O O7 0.132507 0.113855 0.239375
O O8 0.121860 0.248583 0.376227
O O9 0.397484 0.008896 0.296257
O O10 0.341675 0.966299 0.476718
O O11 0.906868 0.988265 0.076416
O O12 0.992748 0.599243 0.336261
#
# Coordination Sequence:
#
# PCOD8308947 Si02
#       8
#     2   8   8   8   8   2   4   8
#     4  12  26  48  64  86 148 168 226 288 340 390
#     4  11  21  45  65 102 136 174 221 290 330 403
#     4  12  26  44  66 101 128 186 225 277 336 413
#     4  12  24  43  67  97 138 175 226 281 337 395
#     4  10  22  40  68  94 131 167 226 267 339 398
#     4   8  18  40  68  90 124 164 194 288 328 390
#     4  12  22  44  72  98 136 184 222 280 332 410
#     4  12  24  43  67  97 138 175 226 281 337 395
#
# _framework density 20.467220999999999
#
# number of rings (size 3 to 8) (size 9 to 14) (size 15 to 20)
#    0.000    0.667    5.000    3.500    0.000    0.000 
#    0.000    5.000    0.000    0.000    0.000    0.000 
#    0.000    0.000    0.000    0.000    0.000    0.000 
#
# Total GULP energy -594769.438687 kJ/mol
# GULP energy per Si atom -12391.029973 kJ/mol
# Density = 2.042064 g / cm^3
# Si number density = 20.467221 Si / 1000 Ang^3
#
#
#
# Elastic Constant Matrix: (Units=GPa)
#
#
# Indices 1 2 3 4 5 6 
#
# 1 94.1377 26.0796 36.2898 0.0000 0.0000 0.0000
# 2 26.0796 94.1377 36.2898 0.0000 0.0000 0.0000
# 3 36.2898 36.2898 123.0715 0.0000 0.0000 0.0000
# 4 0.0000 0.0000 0.0000 32.8097 0.0000 0.0000
# 5 0.0000 0.0000 0.0000 0.0000 32.8097 0.0000
# 6 0.0000 0.0000 0.0000 0.0000 0.0000 44.4504
#
#
#
# Elastic Compliance Matrix: (Units=1/GPa)
#
#
# Indices 1 2 3 4 5 6 
#
# 1 0.012407 -0.002287 -0.002984 0.000000 0.000000 0.000000
# 2 -0.002287 0.012407 -0.002984 0.000000 0.000000 0.000000
# 3 -0.002984 -0.002984 0.009885 0.000000 0.000000 0.000000
# 4 0.000000 0.000000 0.000000 0.030479 0.000000 0.000000
# 5 0.000000 0.000000 0.000000 0.000000 0.030479 0.000000
# 6 0.000000 0.000000 0.000000 0.000000 0.000000 0.022497
#
#
# Mechanical properties :
#
#
# Convention : Reuss Voigt Hill
#
# Bulk Modulus (GPa) = 54.97904 56.51838 55.74871
# Shear Modulus (GPa) = 35.53018 36.19311 35.86164
#
# Velocity S-wave (km/s) = 4.17100 4.20973 4.19041
# Velocity P-wave (km/s) = 7.07931 7.16262 7.12109
#
# Compressibility (1/GPa) = 0.01818875
#
# Stress axis : x y z
#
# Youngs Moduli (GPa) = 80.60234 80.60234 101.16199
#
# Poissons Ratio (x) = 0.18432 0.30187
# Poissons Ratio (y) = 0.18432 0.30187
# Poissons Ratio (z) = 0.24052 0.24052
#
# Static dielectric constant tensor:
#      x y z
#    x 3.679030 0.000000 0.000000 
#    y 0.000000 3.679030 0.000000 
#    z 0.000000 0.000000 3.761990 
# 
# 
# High freq. dielectric constant tensor:
#      x y z
#    x 1.807220 0.000000 0.000000 
#    y 0.000000 1.807220 0.000000 
#    z 0.000000 0.000000 1.809810 
# 
# From -- ./inp_files/1721.got.cif
#   From: 2010.03.12/outbox.cif.g09.slc.cpg/sg114_1_cif.got.tgz:1721.got - 2010.04.14 02:08:34.
