data_PCOD8308398
_publ_section_title
;
Structure prediction by ZEFSAII (Michael W. Deem and Ramdas Pophale) SiO2 
 PCOD8308398
Probable space group: P -4 2 C
;
_chemical_formula_sum "Si O2"
_cell_formula_units_Z 22
_cell_length_a 9.804443
_cell_length_b 9.804443
_cell_length_c 12.361814
_cell_angle_alpha 90.000000
_cell_angle_beta 90.000000
_cell_angle_gamma 90.000000
_cell_volume 1188.305362
_symmetry_space_group_name_H-M "P -4 2 C"
_symmetry_group_IT_number 112
_symmetry_cell_setting 'tetragonal'
loop_
_space_group_symop_operation_xyz
x,y,z
y,-x,-z
-x,-y,z
-y,x,-z
x,-y,1/2-z
-x,y,1/2-z
-y,-x,1/2+z
y,x,1/2+z
loop_
_atom_site_type_symbol
_atom_site_label
_atom_site_fract_x
_atom_site_fract_y
_atom_site_fract_z
Si Si1 0.748067 0.907810 0.854552
Si Si2 0.000000 0.000000 0.000000
Si Si3 0.000000 0.500000 0.491188
Si Si4 0.373702 0.139096 0.313096
O O1 0.758952 0.752511 0.814077
O O2 0.743611 0.000000 0.750000
O O3 0.877340 0.946428 0.926921
O O4 0.607081 0.918433 0.918361
O O5 0.892347 0.417545 0.564089
O O6 0.500000 0.209954 0.250000
O O7 0.333926 0.000000 0.250000
#
# Coordination Sequence:
#
# PCOD8308398 Si02
#       4
#     8   2   4   8
#     4  12  23  37  62  96 123 156 210 258 305 367
#     4  12  22  36  64  98 120 156 198 264 312 362
#     4  10  22  38  58  90 128 160 194 258 314 356
#     4   9  20  38  60  88 125 165 199 249 315 370
#
# _framework density 18.513760999999999
#
# number of rings (size 3 to 8) (size 9 to 14) (size 15 to 20)
#    0.000    1.818    3.636    3.273    5.091    0.000 
#    0.000    0.000    0.000   14.182    0.000    0.000 
#    0.000    0.000    0.000    0.000    0.000    0.000 
#
# Total GULP energy -272820.904477 kJ/mol
# GULP energy per Si atom -12400.950204 kJ/mol
# Density = 1.847162 g / cm^3
# Si number density = 18.513761 Si / 1000 Ang^3
#
#
#
# Elastic Constant Matrix: (Units=GPa)
#
#
# Indices 1 2 3 4 5 6 
#
# 1 130.6809 65.8947 60.9114 0.0000 0.0000 0.0000
# 2 65.8947 130.6809 60.9114 0.0000 0.0000 0.0000
# 3 60.9114 60.9114 119.5396 0.0000 0.0000 0.0000
# 4 0.0000 0.0000 0.0000 43.6896 0.0000 0.0000
# 5 0.0000 0.0000 0.0000 0.0000 43.6896 0.0000
# 6 0.0000 0.0000 0.0000 0.0000 0.0000 18.8720
#
#
#
# Elastic Compliance Matrix: (Units=1/GPa)
#
#
# Indices 1 2 3 4 5 6 
#
# 1 0.011435 -0.004000 -0.003788 0.000000 0.000000 0.000000
# 2 -0.004000 0.011435 -0.003788 0.000000 0.000000 0.000000
# 3 -0.003788 -0.003788 0.012226 0.000000 0.000000 0.000000
# 4 0.000000 0.000000 0.000000 0.022889 0.000000 0.000000
# 5 0.000000 0.000000 0.000000 0.000000 0.022889 0.000000
# 6 0.000000 0.000000 0.000000 0.000000 0.000000 0.052988
#
#
# Mechanical properties :
#
#
# Convention : Reuss Voigt Hill
#
# Bulk Modulus (GPa) = 83.73644 84.03736 83.88690
# Shear Modulus (GPa) = 31.05640 34.12919 32.59279
#
# Velocity S-wave (km/s) = 4.10014 4.29820 4.20034
# Velocity P-wave (km/s) = 8.23058 8.37395 8.30257
#
# Compressibility (1/GPa) = 0.01194223
#
# Stress axis : x y z
#
# Youngs Moduli (GPa) = 87.44971 87.44971 81.79137
#
# Poissons Ratio (x) = 0.34982 0.30986
# Poissons Ratio (y) = 0.34982 0.30986
# Poissons Ratio (z) = 0.33130 0.33130
#
# Static dielectric constant tensor:
#      x y z
#    x 3.175850 0.000000 0.000000 
#    y 0.000000 3.175850 0.000000 
#    z 0.000000 0.000000 3.664670 
# 
# 
# High freq. dielectric constant tensor:
#      x y z
#    x 1.705300 0.000000 0.000000 
#    y 0.000000 1.705300 0.000000 
#    z 0.000000 0.000000 1.740790 
# 
# From -- ./inp_files/2919.got.cif
#   From: 2010.03.12/outbox.cif.g09.slc.cpg/sg112_2_cif.got.tgz:2919.got - 2010.04.14 02:02:48.
