data_PCOD8308509
_publ_section_title
;
Structure prediction by ZEFSAII (Michael W. Deem and Ramdas Pophale) SiO2 
 PCOD8308509
Probable space group: P -4 2 C
;
_chemical_formula_sum "Si O2"
_cell_formula_units_Z 24
_cell_length_a 8.361195
_cell_length_b 8.361195
_cell_length_c 13.524242
_cell_angle_alpha 90.000000
_cell_angle_beta 90.000000
_cell_angle_gamma 90.000000
_cell_volume 945.474103
_symmetry_space_group_name_H-M "P -4 2 C"
_symmetry_group_IT_number 112
_symmetry_cell_setting 'tetragonal'
loop_
_space_group_symop_operation_xyz
x,y,z
y,-x,-z
-x,-y,z
-y,x,-z
x,-y,1/2-z
-x,y,1/2-z
-y,-x,1/2+z
y,x,1/2+z
loop_
_atom_site_type_symbol
_atom_site_label
_atom_site_fract_x
_atom_site_fract_y
_atom_site_fract_z
Si Si1 0.273094 0.792001 0.408013
Si Si2 0.500000 0.000000 0.750000
Si Si3 0.577383 0.746907 0.881065
Si Si4 0.000000 0.000000 0.500000
Si Si5 0.500000 0.241082 0.250000
O O1 0.374667 0.773204 0.507133
O O2 0.238040 0.614375 0.370379
O O3 0.380034 0.867649 0.317676
O O4 0.119756 0.902568 0.428599
O O5 0.372005 0.101549 0.815500
O O6 0.647347 0.586205 0.832992
#
# Coordination Sequence:
#
# PCOD8308509 Si02
#       5
#     8   2   8   2   4
#     4  12  25  50  78 119 157 212 268 338 403 495
#     4  12  24  38  72 112 164 202 244 326 424 452
#     4  12  24  44  83 116 154 204 275 342 395 486
#     4  12  32  52  74 112 180 226 252 318 432 504
#     4  12  25  48  89 126 149 206 289 354 403 469
#
# _framework density 25.384088999999999
#
# number of rings (size 3 to 8) (size 9 to 14) (size 15 to 20)
#    0.000    0.000    6.667    4.000    0.000    0.000 
#    0.000    5.000    0.000    0.000    0.000    0.000 
#    0.000    0.000    0.000    0.000    0.000    0.000 
#
# Total GULP energy -297338.976916 kJ/mol
# GULP energy per Si atom -12389.124038 kJ/mol
# Density = 2.532631 g / cm^3
# Si number density = 25.384089 Si / 1000 Ang^3
#
#
#
# Elastic Constant Matrix: (Units=GPa)
#
#
# Indices 1 2 3 4 5 6 
#
# 1 98.7733 53.4679 56.3232 0.0000 0.0000 0.0000
# 2 53.4679 98.7733 56.3232 0.0000 0.0000 0.0000
# 3 56.3232 56.3232 197.8973 0.0000 0.0000 0.0000
# 4 0.0000 0.0000 0.0000 33.4103 0.0000 0.0000
# 5 0.0000 0.0000 0.0000 0.0000 33.4103 0.0000
# 6 0.0000 0.0000 0.0000 0.0000 0.0000 23.3630
#
#
#
# Elastic Compliance Matrix: (Units=1/GPa)
#
#
# Indices 1 2 3 4 5 6 
#
# 1 0.015197 -0.006876 -0.002368 0.000000 0.000000 0.000000
# 2 -0.006876 0.015197 -0.002368 0.000000 0.000000 0.000000
# 3 -0.002368 -0.002368 0.006401 0.000000 0.000000 0.000000
# 4 0.000000 0.000000 0.000000 0.029931 0.000000 0.000000
# 5 0.000000 0.000000 0.000000 0.000000 0.029931 0.000000
# 6 0.000000 0.000000 0.000000 0.000000 0.000000 0.042803
#
#
# Mechanical properties :
#
#
# Convention : Reuss Voigt Hill
#
# Bulk Modulus (GPa) = 73.69182 80.85251 77.27216
# Shear Modulus (GPa) = 29.90314 33.32535 31.61424
#
# Velocity S-wave (km/s) = 3.43596 3.62725 3.53290
# Velocity P-wave (km/s) = 6.69588 7.03302 6.86652
#
# Compressibility (1/GPa) = 0.01357003
#
# Stress axis : x y z
#
# Youngs Moduli (GPa) = 65.80420 65.80420 156.22262
#
# Poissons Ratio (x) = 0.45246 0.36996
# Poissons Ratio (y) = 0.45246 0.36996
# Poissons Ratio (z) = 0.15583 0.15583
#
# Static dielectric constant tensor:
#      x y z
#    x 4.736500 0.000000 0.000000 
#    y 0.000000 4.736500 0.000000 
#    z 0.000000 0.000000 5.400910 
# 
# 
# High freq. dielectric constant tensor:
#      x y z
#    x 2.002510 0.000000 0.000000 
#    y 0.000000 2.002510 0.000000 
#    z 0.000000 0.000000 2.049540 
# 
# From -- ./inp_files/2955.got.cif
#   From: 2010.03.12/outbox.cif.g09.slc.cpg/sg112_2_cif.got.tgz:2955.got - 2010.04.14 02:02:48.
