data_PCOD8308125
_publ_section_title
;
Structure prediction by ZEFSAII (Michael W. Deem and Ramdas Pophale) SiO2 
 PCOD8308125
Probable space group: P -4 2 M 
;
_chemical_formula_sum "Si O2"
_cell_formula_units_Z 48
_cell_length_a 14.097406
_cell_length_b 14.097406
_cell_length_c 15.546796
_cell_angle_alpha 90.000000
_cell_angle_beta 90.000000
_cell_angle_gamma 90.000000
_cell_volume 3089.721357
_symmetry_space_group_name_H-M "P -4 2 M "
_symmetry_group_IT_number 111
_symmetry_cell_setting 'tetragonal'
loop_
_space_group_symop_operation_xyz
x,y,z
y,-x,-z
-x,-y,z
-y,x,-z
x,-y,-z
-x,y,-z
-y,-x,z
y,x,z
loop_
_atom_site_type_symbol
_atom_site_label
_atom_site_fract_x
_atom_site_fract_y
_atom_site_fract_z
Si Si1 0.105340 0.387459 0.655200
Si Si2 0.764327 0.612540 0.500000
Si Si3 0.887460 0.264327 1.000000
Si Si4 0.112541 0.394660 0.844800
Si Si5 0.387459 0.894660 0.655200
Si Si6 0.112541 0.605340 0.844800
O O1 0.177944 0.351304 0.583269
O O2 0.142780 0.357220 0.750000
O O3 0.097980 0.500000 0.651440
O O4 1.000000 0.345045 0.637479
O O5 0.748001 0.500000 0.500000
O O6 0.661854 0.661854 0.500000
O O7 0.822056 0.648696 0.416731
O O8 0.838146 0.161855 1.000000
O O9 0.851304 0.322056 0.916731
O O10 0.851304 0.322056 0.083269
O O11 0.000000 0.248001 0.000000
O O12 0.154955 0.500000 0.862521
O O13 1.000000 0.402020 0.848559
O O14 0.357220 0.857220 0.750000
#
# Coordination Sequence:
#
# PCOD8308125 Si02
#       6
#     8   8   8   8   8   8
#     4   8  14  26  44  63  80  97 122 164 213 246
#     4  10  19  28  39  57  82 112 139 159 184 225
#     4  10  19  28  39  57  82 112 139 159 184 225
#     4   8  14  26  44  63  80  97 122 164 213 246
#     4   8  14  26  44  63  80  97 122 164 213 246
#     4   8  14  26  44  63  80  97 122 164 213 246
#
# _framework density 15.535380999999999
#
# number of rings (size 3 to 8) (size 9 to 14) (size 15 to 20)
#    0.000    3.333    0.000    3.000    0.000    5.667 
#    0.000    0.000    0.000    0.000    0.000    0.000 
#    0.000   10.667    0.000    0.000    0.000    2.000 
#
# Total GULP energy -594824.164445 kJ/mol
# GULP energy per Si atom -12392.170093 kJ/mol
# Density = 1.550002 g / cm^3
# Si number density = 15.535381 Si / 1000 Ang^3
#
#
#
# Elastic Constant Matrix: (Units=GPa)
#
#
# Indices 1 2 3 4 5 6 
#
# 1 52.9456 33.5205 43.8049 0.0000 0.0000 0.0000
# 2 33.5205 52.9475 43.8056 0.0000 0.0000 0.0000
# 3 43.8049 43.8056 138.9104 0.0000 0.0000 0.0000
# 4 0.0000 0.0000 0.0000 5.5903 0.0000 0.0000
# 5 0.0000 0.0000 0.0000 0.0000 5.5920 0.0000
# 6 0.0000 0.0000 0.0000 0.0000 0.0000 17.9483
#
#
#
# Elastic Compliance Matrix: (Units=1/GPa)
#
#
# Indices 1 2 3 4 5 6 
#
# 1 0.034237 -0.017241 -0.005360 0.000000 0.000000 0.000000
# 2 -0.017241 0.034236 -0.005359 0.000000 0.000000 0.000000
# 3 -0.005360 -0.005359 0.010579 0.000000 0.000000 0.000000
# 4 0.000000 0.000000 0.000000 0.178882 0.000000 0.000000
# 5 0.000000 0.000000 0.000000 0.000000 0.178826 0.000000
# 6 0.000000 0.000000 0.000000 0.000000 0.000000 0.055716
#
#
# Mechanical properties :
#
#
# Convention : Reuss Voigt Hill
#
# Bulk Modulus (GPa) = 43.23009 54.11840 48.67424
# Shear Modulus (GPa) = 8.99109 14.07096 11.53103
#
# Velocity S-wave (km/s) = 2.40833 3.01281 2.72737
# Velocity P-wave (km/s) = 5.96831 6.85667 6.42785
#
# Compressibility (1/GPa) = 0.02313204
#
# Stress axis : x y z
#
# Youngs Moduli (GPa) = 29.20820 29.20926 94.52589
#
# Poissons Ratio (x) = 0.50359 0.50662
# Poissons Ratio (y) = 0.50357 0.50661
# Poissons Ratio (z) = 0.15654 0.15655
#
# Static dielectric constant tensor:
#      x y z
#    x 2.650460 0.000000 0.000000 
#    y 0.000000 2.650460 0.000000 
#    z 0.000000 0.000000 3.582780 
# 
# 
# High freq. dielectric constant tensor:
#      x y z
#    x 1.555250 0.000000 0.000000 
#    y 0.000000 1.555250 0.000000 
#    z 0.000000 0.000000 1.619710 
# 
# From -- ./inp_files/3287.got.cif
#   From: 2010.03.12/outbox.cif.g09.slc.cpg/sg111_2_cif.got.tgz:3287.got - 2010.04.14 01:59:48.
