data_PCOD8308255
_publ_section_title
;
Structure prediction by ZEFSAII (Michael W. Deem and Ramdas Pophale) SiO2 
 PCOD8308255
Probable space group: P -4 2 M 
;
_chemical_formula_sum "Si O2"
_cell_formula_units_Z 40
_cell_length_a 14.635290
_cell_length_b 14.635290
_cell_length_c 8.944525
_cell_angle_alpha 90.000000
_cell_angle_beta 90.000000
_cell_angle_gamma 90.000000
_cell_volume 1915.843135
_symmetry_space_group_name_H-M "P -4 2 M "
_symmetry_group_IT_number 111
_symmetry_cell_setting 'tetragonal'
loop_
_space_group_symop_operation_xyz
x,y,z
y,-x,-z
-x,-y,z
-y,x,-z
x,-y,-z
-x,y,-z
-y,-x,z
y,x,z
loop_
_atom_site_type_symbol
_atom_site_label
_atom_site_fract_x
_atom_site_fract_y
_atom_site_fract_z
Si Si1 0.926857 0.781522 0.208783
Si Si2 0.261786 0.118408 0.881982
Si Si3 0.533282 0.850611 0.831693
Si Si4 0.728946 0.580247 0.588648
Si Si5 0.088002 0.609487 0.599406
O O1 0.878270 0.878270 0.244251
O O2 0.909909 0.713416 0.345590
O O3 0.034776 0.797754 0.184275
O O4 0.883213 0.736435 0.061096
O O5 0.212874 0.212874 0.828401
O O6 0.365173 0.105275 0.824069
O O7 0.544314 0.750391 0.756350
O O8 0.460829 0.911465 0.739734
O O9 0.500000 0.838414 0.000000
O O10 0.675110 0.500000 0.500000
O O11 0.671731 0.671731 0.593072
O O12 0.824807 0.596879 0.505738
O O13 0.000000 0.588161 0.500000
#
# Coordination Sequence:
#
# PCOD8308255 Si02
#       5
#     8   8   8   8   8
#     4  10  21  38  60  88 122 164 209 254 306 368
#     4  10  21  37  60  91 125 162 203 257 318 370
#     4  11  22  40  62  94 129 164 208 270 325 381
#     4  10  23  41  63  90 123 167 210 256 315 383
#     4  11  23  41  61  93 130 169 208 255 321 388
#
# _framework density 20.878534999999999
#
# number of rings (size 3 to 8) (size 9 to 14) (size 15 to 20)
#    0.000    1.600    2.000    2.400    0.000    9.800 
#    0.000    4.000    0.000    0.000    0.000    0.000 
#    0.000    0.000    0.000    0.000    0.000    0.000 
#
# Total GULP energy -495848.483895 kJ/mol
# GULP energy per Si atom -12396.212097 kJ/mol
# Density = 2.083101 g / cm^3
# Si number density = 20.878535 Si / 1000 Ang^3
#
#
#
# Elastic Constant Matrix: (Units=GPa)
#
#
# Indices 1 2 3 4 5 6 
#
# 1 110.1224 59.5807 54.4870 0.0000 0.0000 0.0000
# 2 59.5807 110.1224 54.4870 0.0000 0.0000 0.0000
# 3 54.4870 54.4870 126.5718 0.0000 0.0000 0.0000
# 4 0.0000 0.0000 0.0000 19.3332 0.0000 0.0000
# 5 0.0000 0.0000 0.0000 0.0000 19.3332 0.0000
# 6 0.0000 0.0000 0.0000 0.0000 0.0000 -125.5982
#
#
#
# Elastic Compliance Matrix: (Units=1/GPa)
#
#
# Indices 1 2 3 4 5 6 
#
# 1 0.013965 -0.005821 -0.003506 0.000000 0.000000 0.000000
# 2 -0.005821 0.013965 -0.003506 0.000000 0.000000 0.000000
# 3 -0.003506 -0.003506 0.010919 0.000000 0.000000 0.000000
# 4 0.000000 0.000000 0.000000 0.051724 0.000000 0.000000
# 5 0.000000 0.000000 0.000000 0.000000 0.051724 0.000000
# 6 0.000000 0.000000 0.000000 0.000000 0.000000 -0.007962
#
#
# Mechanical properties :
#
#
# Convention : Reuss Voigt Hill
#
# Bulk Modulus (GPa) = 75.85193 75.99179 75.92186
# Shear Modulus (GPa) = 30.41454 -5.50222 12.45616
#
# Velocity S-wave (km/s) = 3.82086 -1.62514 2.44519
# Velocity P-wave (km/s) = 7.47491 5.74062 6.66442
#
# Compressibility (1/GPa) = 0.01318358
#
# Stress axis : x y z
#
# Youngs Moduli (GPa) = 71.60883 71.60883 91.58322
#
# Poissons Ratio (x) = 0.41683 0.32107
# Poissons Ratio (y) = 0.41683 0.32107
# Poissons Ratio (z) = 0.25105 0.25105
#
# Static dielectric constant tensor:
#      x y z
#    x 3.820960 0.000000 0.000000 
#    y 0.000000 3.820960 0.000000 
#    z 0.000000 0.000000 4.008510 
# 
# 
# High freq. dielectric constant tensor:
#      x y z
#    x 1.808530 0.000000 0.000000 
#    y 0.000000 1.808530 0.000000 
#    z 0.000000 0.000000 1.825150 
# 
# From -- ./inp_files/1532.got.cif
#   From: 2010.03.12/outbox.cif.g09.slc.cpg/sg111_1_cif.got.tgz:1532.got - 2010.04.14 01:59:48.
