data_PCOD8308316
_publ_section_title
;
Structure prediction by ZEFSAII (Michael W. Deem and Ramdas Pophale) SiO2 
 PCOD8308316
Probable space group: P -4 2 C
;
_chemical_formula_sum "Si O2"
_cell_formula_units_Z 56
_cell_length_a 14.777887
_cell_length_b 14.777887
_cell_length_c 14.555501
_cell_angle_alpha 90.000000
_cell_angle_beta 90.000000
_cell_angle_gamma 90.000000
_cell_volume 3178.716829
_symmetry_space_group_name_H-M "P -4 2 C"
_symmetry_group_IT_number 112
_symmetry_cell_setting 'tetragonal'
loop_
_space_group_symop_operation_xyz
x,y,z
y,-x,-z
-x,-y,z
-y,x,-z
x,-y,1/2-z
-x,y,1/2-z
-y,-x,1/2+z
y,x,1/2+z
loop_
_atom_site_type_symbol
_atom_site_label
_atom_site_fract_x
_atom_site_fract_y
_atom_site_fract_z
Si Si1 0.272435 0.340075 0.144867
Si Si2 0.099645 0.396210 0.043135
Si Si3 0.828493 0.601344 0.851241
Si Si4 0.340075 0.727565 0.644867
Si Si5 0.603790 0.900355 0.956865
Si Si6 0.601968 0.500000 0.359486
Si Si7 0.601344 0.171507 0.351241
O O1 0.178637 0.336794 0.088582
O O2 0.247999 0.362096 0.250000
O O3 0.342135 0.413685 0.104543
O O4 0.321853 0.245504 0.133623
O O5 0.115571 0.500000 0.072774
O O6 0.000000 0.363645 0.076402
O O7 0.099076 0.386862 0.932244
O O8 0.754496 0.678147 0.866377
O O9 0.873630 0.614088 0.750000
O O10 0.784955 0.500000 0.856606
O O11 0.336794 0.821363 0.588582
O O12 0.413685 0.657865 0.604543
O O13 0.613138 0.900924 0.067756
O O14 0.500000 0.500000 0.400952
O O15 0.595173 0.500000 0.250000
#
# Coordination Sequence:
#
# PCOD8308316 Si02
#       7
#     8   8   8   8   8   8   8
#     4  10  18  30  47  68  97 129 161 202 243 289
#     4  10  20  32  46  65  94 131 169 207 243 288
#     4   9  18  32  50  69  91 123 162 205 251 289
#     4  10  18  30  47  68  97 129 161 202 243 289
#     4  10  20  32  46  65  94 131 169 207 243 288
#     4   9  16  26  43  67  94 127 163 195 235 282
#     4   9  18  32  50  69  91 123 162 205 251 289
#
# _framework density 17.617172
#
# number of rings (size 3 to 8) (size 9 to 14) (size 15 to 20)
#    0.000    2.429    1.429    1.714    0.000    4.571 
#    0.000    4.286    0.000    0.000    0.000    0.000 
#    0.000    9.143    0.000   25.143    0.000    0.571 
#
# Total GULP energy -694016.979235 kJ/mol
# GULP energy per Si atom -12393.160343 kJ/mol
# Density = 1.757707 g / cm^3
# Si number density = 17.617172 Si / 1000 Ang^3
#
#
#
# Elastic Constant Matrix: (Units=GPa)
#
#
# Indices 1 2 3 4 5 6 
#
# 1 84.3687 20.9834 25.2449 0.0000 0.0000 0.0000
# 2 20.9834 84.3687 25.2449 0.0000 0.0000 0.0000
# 3 25.2449 25.2449 63.7873 0.0000 0.0000 0.0000
# 4 0.0000 0.0000 0.0000 18.0139 0.0000 0.0000
# 5 0.0000 0.0000 0.0000 0.0000 18.0139 0.0000
# 6 0.0000 0.0000 0.0000 0.0000 0.0000 10.1666
#
#
#
# Elastic Compliance Matrix: (Units=1/GPa)
#
#
# Indices 1 2 3 4 5 6 
#
# 1 0.013745 -0.002031 -0.004636 0.000000 0.000000 0.000000
# 2 -0.002031 0.013745 -0.004636 0.000000 0.000000 0.000000
# 3 -0.004636 -0.004636 0.019347 0.000000 0.000000 0.000000
# 4 0.000000 0.000000 0.000000 0.055513 0.000000 0.000000
# 5 0.000000 0.000000 0.000000 0.000000 0.055513 0.000000
# 6 0.000000 0.000000 0.000000 0.000000 0.000000 0.098361
#
#
# Mechanical properties :
#
#
# Convention : Reuss Voigt Hill
#
# Bulk Modulus (GPa) = 41.27042 41.71898 41.49470
# Shear Modulus (GPa) = 17.42727 19.97565 18.70146
#
# Velocity S-wave (km/s) = 3.14860 3.37096 3.26167
# Velocity P-wave (km/s) = 6.05767 6.23566 6.14731
#
# Compressibility (1/GPa) = 0.02423043
#
# Stress axis : x y z
#
# Youngs Moduli (GPa) = 72.75303 72.75303 51.68877
#
# Poissons Ratio (x) = 0.14779 0.23962
# Poissons Ratio (y) = 0.14779 0.23962
# Poissons Ratio (z) = 0.33728 0.33728
#
# Static dielectric constant tensor:
#      x y z
#    x 3.002880 0.000000 0.000000 
#    y 0.000000 3.002880 0.000000 
#    z 0.000000 0.000000 3.409000 
# 
# 
# High freq. dielectric constant tensor:
#      x y z
#    x 1.650240 0.000000 0.000000 
#    y 0.000000 1.650240 0.000000 
#    z 0.000000 0.000000 1.690430 
# 
# From -- ./inp_files/3426.got.cif
#   From: 2010.03.12/outbox.cif.g09.slc.cpg/sg112_2_cif.got.tgz:3426.got - 2010.04.14 02:02:48.
