data_PCOD8308564
_publ_section_title
;
Structure prediction by ZEFSAII (Michael W. Deem and Ramdas Pophale) SiO2 
 PCOD8308564
Probable space group: P -4 21 M 
;
_chemical_formula_sum "Si O2"
_cell_formula_units_Z 48
_cell_length_a 14.880728
_cell_length_b 14.880728
_cell_length_c 10.610035
_cell_angle_alpha 90.000000
_cell_angle_beta 90.000000
_cell_angle_gamma 90.000000
_cell_volume 2349.444409
_symmetry_space_group_name_H-M "P -4 21 M "
_symmetry_group_IT_number 113
_symmetry_cell_setting 'tetragonal'
loop_
_space_group_symop_operation_xyz
x,y,z
y,-x,-z
-x,-y,z
-y,x,-z
1/2+x,1/2-y,-z
1/2-x,1/2+y,-z
1/2-y,1/2-x,z
1/2+y,1/2+x,z
loop_
_atom_site_type_symbol
_atom_site_label
_atom_site_fract_x
_atom_site_fract_y
_atom_site_fract_z
Si Si1 0.901331 0.811416 0.821922
Si Si2 0.597792 0.762497 0.908189
Si Si3 0.751846 0.893717 0.453354
Si Si4 0.098679 0.811417 0.821920
Si Si5 0.393718 0.748155 0.453351
Si Si6 0.262504 0.902218 0.908189
O O1 0.830114 0.892113 0.830780
O O2 0.889796 0.751768 0.697905
O O3 0.000005 0.855928 0.826610
O O4 0.886123 0.747653 0.942549
O O5 0.668427 0.831574 0.850515
O O6 0.500007 0.801547 0.880572
O O7 0.613889 0.752344 0.057451
O O8 0.662902 0.837099 0.498809
O O9 0.751769 0.889789 0.302098
O O10 0.843493 0.843492 0.500002
O O11 0.748808 0.999999 0.497738
O O12 0.169898 0.892114 0.830773
O O13 0.337099 0.837099 0.498805
O O14 0.331590 0.831590 0.850522
#
# Coordination Sequence:
#
# PCOD8308564 Si02
#       6
#     8   8   8   8   8   8
#     4   9  18  34  55  76  99 130 170 215 261 303
#     4  10  19  31  50  75 105 139 170 205 249 298
#     4  10  21  37  57  80 106 137 174 217 264 313
#     4   9  18  34  55  76  99 130 170 215 261 303
#     4  10  21  37  57  80 106 137 174 217 264 313
#     4  10  19  31  50  75 105 139 170 205 249 298
#
# _framework density 20.430361000000001
#
# number of rings (size 3 to 8) (size 9 to 14) (size 15 to 20)
#    0.000    2.333    0.000    4.000    0.000    3.000 
#    0.000    6.667    0.000    6.000    0.000    4.667 
#    0.000    0.000    0.000    0.000    0.000    0.000 
#
# Total GULP energy -594692.211113 kJ/mol
# GULP energy per Si atom -12389.421065 kJ/mol
# Density = 2.038386 g / cm^3
# Si number density = 20.430361 Si / 1000 Ang^3
#
#
#
# Elastic Constant Matrix: (Units=GPa)
#
#
# Indices 1 2 3 4 5 6 
#
# 1 144.6764 96.2781 20.3774 0.0000 0.0000 0.0000
# 2 96.2781 144.6774 20.3773 0.0000 0.0000 0.0000
# 3 20.3774 20.3773 32.1986 0.0000 0.0000 0.0000
# 4 0.0000 0.0000 0.0000 18.9025 0.0000 0.0000
# 5 0.0000 0.0000 0.0000 0.0000 18.9023 0.0000
# 6 0.0000 0.0000 0.0000 0.0000 0.0000 12.3162
#
#
#
# Elastic Compliance Matrix: (Units=1/GPa)
#
#
# Indices 1 2 3 4 5 6 
#
# 1 0.012655 -0.008007 -0.002941 0.000000 0.000000 0.000000
# 2 -0.008007 0.012655 -0.002941 0.000000 0.000000 0.000000
# 3 -0.002941 -0.002941 0.034780 0.000000 0.000000 0.000000
# 4 0.000000 0.000000 0.000000 0.052903 0.000000 0.000000
# 5 0.000000 0.000000 0.000000 0.000000 0.052904 0.000000
# 6 0.000000 0.000000 0.000000 0.000000 0.000000 0.081194
#
#
# Mechanical properties :
#
#
# Convention : Reuss Voigt Hill
#
# Bulk Modulus (GPa) = 30.94999 66.17978 48.56489
# Shear Modulus (GPa) = 17.50458 22.32549 19.91503
#
# Velocity S-wave (km/s) = 2.93028 3.30928 3.12553
# Velocity P-wave (km/s) = 5.16048 6.86039 6.07024
#
# Compressibility (1/GPa) = 0.03231019
#
# Stress axis : x y z
#
# Youngs Moduli (GPa) = 79.02190 79.02252 28.75196
#
# Poissons Ratio (x) = 0.63274 0.08457
# Poissons Ratio (y) = 0.63273 0.08457
# Poissons Ratio (z) = 0.23243 0.23243
#
# Static dielectric constant tensor:
#      x y z
#    x 3.707960 0.000000 0.000000 
#    y 0.000000 3.707960 0.000000 
#    z 0.000000 0.000000 3.628060 
# 
# 
# High freq. dielectric constant tensor:
#      x y z
#    x 1.788860 0.000000 0.000000 
#    y 0.000000 1.788860 0.000000 
#    z 0.000000 0.000000 1.788240 
# 
# From -- ./inp_files/1851.got.cif
#   From: 2010.03.12/outbox.cif.g09.slc.cpg/sg113_cif.got.tgz:1851.got - 2010.04.14 02:06:34.
