data_PCOD8308095
_publ_section_title
;
Structure prediction by ZEFSAII (Michael W. Deem and Ramdas Pophale) SiO2 
 PCOD8308095
Probable space group: P -4 2 M 
;
_chemical_formula_sum "Si O2"
_cell_formula_units_Z 40
_cell_length_a 21.160391
_cell_length_b 21.160391
_cell_length_c 5.013973
_cell_angle_alpha 90.000000
_cell_angle_beta 90.000000
_cell_angle_gamma 90.000000
_cell_volume 2245.067317
_symmetry_space_group_name_H-M "P -4 2 M "
_symmetry_group_IT_number 111
_symmetry_cell_setting 'tetragonal'
loop_
_space_group_symop_operation_xyz
x,y,z
y,-x,-z
-x,-y,z
-y,x,-z
x,-y,-z
-x,y,-z
-y,-x,z
y,x,z
loop_
_atom_site_type_symbol
_atom_site_label
_atom_site_fract_x
_atom_site_fract_y
_atom_site_fract_z
Si Si1 0.140314 0.758949 0.885943
Si Si2 0.958463 0.145719 0.759977
Si Si3 0.430681 0.671457 0.033664
Si Si4 0.299449 0.803613 0.368108
Si Si5 0.247131 0.429473 0.468269
O O1 0.184446 0.815555 0.989225
O O2 0.069664 0.787020 0.863825
O O3 0.159047 0.736178 0.596039
O O4 0.151798 0.703968 0.104910
O O5 0.903181 0.096820 0.682838
O O6 0.000000 0.158188 0.500000
O O7 0.000000 0.117065 0.000000
O O8 0.381011 0.618990 0.955098
O O9 0.423741 0.692414 0.338906
O O10 0.500000 0.641972 0.000000
O O11 0.419973 0.731282 0.837370
O O12 0.265897 0.734104 0.326484
O O13 0.373164 0.799609 0.447938
O O14 0.216200 0.500000 0.500000
#
# Coordination Sequence:
#
# PCOD8308095 Si02
#       5
#     8   8   8   8   8
#     4   9  19  32  48  72  96 125 165 206 240 274
#     4  11  22  36  53  75 108 143 175 208 236 269
#     4  10  19  30  42  58  83 116 156 197 239 290
#     4  10  17  29  49  68  92 125 161 199 248 303
#     4  10  20  31  45  67  93 119 151 198 252 308
#
# _framework density 17.816835999999999
#
# number of rings (size 3 to 8) (size 9 to 14) (size 15 to 20)
#    0.000    2.000    0.000    4.800    0.000    6.200 
#    0.000    0.000    0.000    3.600    0.000    0.000 
#    0.000   12.000    0.000    0.000    0.000    0.000 
#
# Total GULP energy -495836.493258 kJ/mol
# GULP energy per Si atom -12395.912331 kJ/mol
# Density = 1.777628 g / cm^3
# Si number density = 17.816836 Si / 1000 Ang^3
#
#
#
# Elastic Constant Matrix: (Units=GPa)
#
#
# Indices 1 2 3 4 5 6 
#
# 1 70.7951 44.5401 18.5203 0.0000 0.0000 0.0000
# 2 44.5401 70.7972 18.5214 0.0000 0.0000 0.0000
# 3 18.5203 18.5214 87.2229 0.0000 0.0000 0.0000
# 4 0.0000 0.0000 0.0000 24.0027 0.0000 0.0000
# 5 0.0000 0.0000 0.0000 0.0000 24.0031 0.0000
# 6 0.0000 0.0000 0.0000 0.0000 0.0000 16.0845
#
#
#
# Elastic Compliance Matrix: (Units=1/GPa)
#
#
# Indices 1 2 3 4 5 6 
#
# 1 0.023696 -0.014391 -0.001976 0.000000 0.000000 0.000000
# 2 -0.014391 0.023695 -0.001976 0.000000 0.000000 0.000000
# 3 -0.001976 -0.001976 0.012304 0.000000 0.000000 0.000000
# 4 0.000000 0.000000 0.000000 0.041662 0.000000 0.000000
# 5 0.000000 0.000000 0.000000 0.000000 0.041661 0.000000
# 6 0.000000 0.000000 0.000000 0.000000 0.000000 0.062172
#
#
# Mechanical properties :
#
#
# Convention : Reuss Voigt Hill
#
# Bulk Modulus (GPa) = 43.45841 43.55321 43.50581
# Shear Modulus (GPa) = 20.03644 22.63361 21.33502
#
# Velocity S-wave (km/s) = 3.35711 3.56806 3.46419
# Velocity P-wave (km/s) = 6.28265 6.43994 6.36178
#
# Compressibility (1/GPa) = 0.02301050
#
# Stress axis : x y z
#
# Youngs Moduli (GPa) = 42.20125 42.20229 81.27473
#
# Poissons Ratio (x) = 0.60733 0.16057
# Poissons Ratio (y) = 0.60731 0.16060
# Poissons Ratio (z) = 0.08337 0.08339
#
# Static dielectric constant tensor:
#      x y z
#    x 3.197370 0.000000 0.000000 
#    y 0.000000 3.197360 0.000000 
#    z 0.000000 0.000000 3.507520 
# 
# 
# High freq. dielectric constant tensor:
#      x y z
#    x 1.658890 0.000000 0.000000 
#    y 0.000000 1.658890 0.000000 
#    z 0.000000 0.000000 1.716000 
# 
# From -- ./inp_files/486.got.cif
#   From: 2010.03.12/outbox.cif.g09.slc.cpg/sg111_1_cif.got.tgz:486.got - 2010.04.14 01:59:48.
