data_PCOD8308586
_publ_section_title
;
Structure prediction by ZEFSAII (Michael W. Deem and Ramdas Pophale) SiO2 
 PCOD8308586
Probable space group: P -4 21 M 
;
_chemical_formula_sum "Si O2"
_cell_formula_units_Z 56
_cell_length_a 12.234523
_cell_length_b 12.234523
_cell_length_c 20.435379
_cell_angle_alpha 90.000000
_cell_angle_beta 90.000000
_cell_angle_gamma 90.000000
_cell_volume 3058.840136
_symmetry_space_group_name_H-M "P -4 21 M "
_symmetry_group_IT_number 113
_symmetry_cell_setting 'tetragonal'
loop_
_space_group_symop_operation_xyz
x,y,z
y,-x,-z
-x,-y,z
-y,x,-z
1/2+x,1/2-y,-z
1/2-x,1/2+y,-z
1/2-y,1/2-x,z
1/2+y,1/2+x,z
loop_
_atom_site_type_symbol
_atom_site_label
_atom_site_fract_x
_atom_site_fract_y
_atom_site_fract_z
Si Si1 0.140188 0.182095 0.419860
Si Si2 0.209350 0.112329 0.561101
Si Si3 0.796648 0.121872 0.075574
Si Si4 0.778992 0.457272 0.026400
Si Si5 0.086296 0.907956 0.204611
Si Si6 0.495920 0.823839 0.828600
Si Si7 0.373596 0.476859 0.654810
O O1 0.208953 0.291048 0.409057
O O2 0.167482 0.121734 0.487381
O O3 0.014167 0.221305 0.418172
O O4 0.177165 0.095442 0.363214
O O5 0.324653 0.175348 0.570680
O O6 0.117990 0.169471 0.606843
O O7 0.732111 0.232111 0.090094
O O8 0.902872 0.159044 0.034197
O O9 0.826485 0.078158 0.146971
O O10 0.724585 0.038048 0.034801
O O11 0.871583 0.371583 0.007139
O O12 0.806901 0.519242 0.093659
O O13 0.149730 0.934901 0.271783
O O14 0.022926 0.790696 0.207413
O O15 0.000000 0.000000 0.189934
O O16 0.383622 0.883622 0.803541
O O17 0.598419 0.901582 0.814363
O O18 0.500000 0.500000 0.642122
#
# Coordination Sequence:
#
# PCOD8308586 Si02
#       7
#     8   8   8   8   8   8   8
#     4  10  19  34  57  84 114 146 183 228 271 322
#     4  10  19  32  57  87 110 142 183 227 277 320
#     4  10  21  34  52  78 106 141 180 224 272 327
#     4   9  19  33  52  78 105 137 178 228 282 327
#     4  10  21  36  52  79 110 146 185 221 269 332
#     4   9  18  35  59  82 107 139 179 235 292 332
#     4   9  19  36  56  76 108 147 184 220 267 329
#
# _framework density 18.307593000000001
#
# number of rings (size 3 to 8) (size 9 to 14) (size 15 to 20)
#    0.000    2.429    1.429    1.714    4.000    2.286 
#    0.000    7.143    0.000    0.429    0.000    0.000 
#    0.000    0.000    0.000    0.000    0.000    0.000 
#
# Total GULP energy -694008.776660 kJ/mol
# GULP energy per Si atom -12393.013869 kJ/mol
# Density = 1.826592 g / cm^3
# Si number density = 18.307593 Si / 1000 Ang^3
#
#
#
# Elastic Constant Matrix: (Units=GPa)
#
#
# Indices 1 2 3 4 5 6 
#
# 1 93.9471 40.1208 36.9149 0.0000 0.0000 0.0000
# 2 40.1208 93.9463 36.9138 0.0000 0.0000 0.0000
# 3 36.9149 36.9138 92.5709 0.0000 0.0000 0.0000
# 4 0.0000 0.0000 0.0000 13.9909 0.0000 0.0000
# 5 0.0000 0.0000 0.0000 0.0000 13.9921 0.0000
# 6 0.0000 0.0000 0.0000 0.0000 0.0000 21.8610
#
#
#
# Elastic Compliance Matrix: (Units=1/GPa)
#
#
# Indices 1 2 3 4 5 6 
#
# 1 0.014068 -0.004510 -0.003811 0.000000 0.000000 0.000000
# 2 -0.004510 0.014068 -0.003811 0.000000 0.000000 0.000000
# 3 -0.003811 -0.003811 0.013842 0.000000 0.000000 0.000000
# 4 0.000000 0.000000 0.000000 0.071475 0.000000 0.000000
# 5 0.000000 0.000000 0.000000 0.000000 0.071469 0.000000
# 6 0.000000 0.000000 0.000000 0.000000 0.000000 0.045744
#
#
# Mechanical properties :
#
#
# Convention : Reuss Voigt Hill
#
# Bulk Modulus (GPa) = 56.45760 56.48480 56.47120
# Shear Modulus (GPa) = 19.16914 21.06979 20.11946
#
# Velocity S-wave (km/s) = 3.23934 3.39614 3.31867
# Velocity P-wave (km/s) = 6.70048 6.80430 6.75259
#
# Compressibility (1/GPa) = 0.01771241
#
# Stress axis : x y z
#
# Youngs Moduli (GPa) = 71.08283 71.08287 72.24279
#
# Poissons Ratio (x) = 0.32061 0.27535
# Poissons Ratio (y) = 0.32061 0.27533
# Poissons Ratio (z) = 0.27093 0.27091
#
# Static dielectric constant tensor:
#      x y z
#    x 3.395170 0.000000 0.000000 
#    y 0.000000 3.395160 0.000000 
#    z 0.000000 0.000000 3.308660 
# 
# 
# High freq. dielectric constant tensor:
#      x y z
#    x 1.702010 0.000000 0.000000 
#    y 0.000000 1.702010 0.000000 
#    z 0.000000 0.000000 1.702220 
# 
# From -- ./inp_files/2845.got.cif
#   From: 2010.03.12/outbox.cif.g09.slc.cpg/sg113_cif.got.tgz:2845.got - 2010.04.14 02:06:34.
