data_PCOD8308134
_publ_section_title
;
Structure prediction by ZEFSAII (Michael W. Deem and Ramdas Pophale) SiO2 
 PCOD8308134
Probable space group: P -4 2 M 
;
_chemical_formula_sum "Si O2"
_cell_formula_units_Z 40
_cell_length_a 22.000982
_cell_length_b 22.000982
_cell_length_c 5.118279
_cell_angle_alpha 90.000000
_cell_angle_beta 90.000000
_cell_angle_gamma 90.000000
_cell_volume 2477.468192
_symmetry_space_group_name_H-M "P -4 2 M "
_symmetry_group_IT_number 111
_symmetry_cell_setting 'tetragonal'
loop_
_space_group_symop_operation_xyz
x,y,z
y,-x,-z
-x,-y,z
-y,x,-z
x,-y,-z
-x,y,-z
-y,-x,z
y,x,z
loop_
_atom_site_type_symbol
_atom_site_label
_atom_site_fract_x
_atom_site_fract_y
_atom_site_fract_z
Si Si1 0.317792 0.784691 0.906586
Si Si2 0.361539 0.538813 0.259813
Si Si3 0.220462 0.878230 0.940928
Si Si4 0.631765 0.733702 0.591372
Si Si5 0.167071 0.931818 0.425841
O O1 0.264462 0.735539 0.880369
O O2 0.289023 0.852377 0.919736
O O3 0.364768 0.775693 0.666631
O O4 0.356531 0.777571 0.166630
O O5 0.388974 0.500000 0.500000
O O6 0.409245 0.590756 0.178789
O O7 0.298371 0.566708 0.368398
O O8 0.348785 0.500000 0.000000
O O9 0.176968 0.823033 0.024180
O O10 0.205525 0.903694 0.658831
O O11 0.210020 0.928853 0.167228
O O12 0.681808 0.681808 0.572548
O O13 0.103886 0.896115 0.382115
O O14 0.149202 0.000000 0.500000
#
# Coordination Sequence:
#
# PCOD8308134 Si02
#       5
#     8   8   8   8   8
#     4   9  15  26  44  63  81  99 127 172 224 273
#     4  11  22  34  46  61  84 116 156 194 222 249
#     4   9  17  28  43  62  81 104 138 181 224 266
#     4   9  17  28  43  62  81 103 134 175 220 265
#     4  10  19  30  42  58  83 116 155 191 218 246
#
# _framework density 16.145516000000001
#
# number of rings (size 3 to 8) (size 9 to 14) (size 15 to 20)
#    0.000    2.400    0.000    3.600    0.000    9.400 
#    0.000    0.000    0.000    3.600    0.000    0.000 
#    0.000    0.000    0.000    0.000    0.000  210.000 
#
# Total GULP energy -495838.699941 kJ/mol
# GULP energy per Si atom -12395.967499 kJ/mol
# Density = 1.610877 g / cm^3
# Si number density = 16.145516 Si / 1000 Ang^3
#
#
#
# Elastic Constant Matrix: (Units=GPa)
#
#
# Indices 1 2 3 4 5 6 
#
# 1 41.7534 38.1396 16.3633 0.0000 0.0000 0.0000
# 2 38.1396 41.7539 16.3643 0.0000 0.0000 0.0000
# 3 16.3633 16.3643 95.7899 0.0000 0.0000 0.0000
# 4 0.0000 0.0000 0.0000 23.1595 0.0000 0.0000
# 5 0.0000 0.0000 0.0000 0.0000 23.1600 0.0000
# 6 0.0000 0.0000 0.0000 0.0000 0.0000 14.6768
#
#
#
# Elastic Compliance Matrix: (Units=1/GPa)
#
#
# Indices 1 2 3 4 5 6 
#
# 1 0.145076 -0.131618 -0.002298 0.000000 0.000000 0.000000
# 2 -0.131618 0.145076 -0.002301 0.000000 0.000000 0.000000
# 3 -0.002298 -0.002301 0.011225 0.000000 0.000000 0.000000
# 4 0.000000 0.000000 0.000000 0.043179 0.000000 0.000000
# 5 0.000000 0.000000 0.000000 0.000000 0.043178 0.000000
# 6 0.000000 0.000000 0.000000 0.000000 0.000000 0.068135
#
#
# Mechanical properties :
#
#
# Convention : Reuss Voigt Hill
#
# Bulk Modulus (GPa) = 34.54757 35.67017 35.10887
# Shear Modulus (GPa) = 6.77553 19.42792 13.10173
#
# Velocity S-wave (km/s) = 2.05077 3.47263 2.85174
# Velocity P-wave (km/s) = 5.20112 6.18221 5.71276
#
# Compressibility (1/GPa) = 0.02894559
#
# Stress axis : x y z
#
# Youngs Moduli (GPa) = 6.89292 6.89294 89.08659
#
# Poissons Ratio (x) = 0.90723 0.20469
# Poissons Ratio (y) = 0.90723 0.20495
# Poissons Ratio (z) = 0.01584 0.01586
#
# Static dielectric constant tensor:
#      x y z
#    x 2.887390 0.000000 0.000000 
#    y 0.000000 2.887400 0.000000 
#    z 0.000000 0.000000 3.268960 
# 
# 
# High freq. dielectric constant tensor:
#      x y z
#    x 1.582890 0.000000 0.000000 
#    y 0.000000 1.582890 0.000000 
#    z 0.000000 0.000000 1.647530 
# 
# From -- ./inp_files/479.got.cif
#   From: 2010.03.12/outbox.cif.g09.slc.cpg/sg111_1_cif.got.tgz:479.got - 2010.04.14 01:59:48.
