data_PCOD8308706
_publ_section_title
;
Structure prediction by ZEFSAII (Michael W. Deem and Ramdas Pophale) SiO2 
 PCOD8308706
Probable space group: P -4 21 M 
;
_chemical_formula_sum "Si O2"
_cell_formula_units_Z 56
_cell_length_a 11.954870
_cell_length_b 11.954870
_cell_length_c 20.621015
_cell_angle_alpha 90.000000
_cell_angle_beta 90.000000
_cell_angle_gamma 90.000000
_cell_volume 2947.133125
_symmetry_space_group_name_H-M "P -4 21 M "
_symmetry_group_IT_number 113
_symmetry_cell_setting 'tetragonal'
loop_
_space_group_symop_operation_xyz
x,y,z
y,-x,-z
-x,-y,z
-y,x,-z
1/2+x,1/2-y,-z
1/2-x,1/2+y,-z
1/2-y,1/2-x,z
1/2+y,1/2+x,z
loop_
_atom_site_type_symbol
_atom_site_label
_atom_site_fract_x
_atom_site_fract_y
_atom_site_fract_z
Si Si1 0.126361 0.020352 0.891124
Si Si2 0.741804 0.061372 0.135666
Si Si3 0.895874 0.080189 0.653063
Si Si4 0.825875 0.855733 0.208695
Si Si5 0.999155 0.317835 0.006491
Si Si6 0.319655 0.002116 0.587052
Si Si7 0.028767 0.833324 0.522895
O O1 0.139832 0.148560 0.868675
O O2 0.154376 0.941602 0.830307
O O3 0.208360 0.993497 0.949909
O O4 0.000000 0.000000 0.915572
O O5 0.637249 0.137249 0.156399
O O6 0.756774 0.965978 0.189182
O O7 0.720018 0.999665 0.067736
O O8 0.863778 0.150745 0.715482
O O9 0.925220 0.169511 0.596233
O O10 0.790062 0.005370 0.631692
O O11 0.000000 0.000000 0.668495
O O12 0.754221 0.745780 0.193843
O O13 0.106386 0.393615 0.022355
O O14 0.885256 0.385256 0.020652
O O15 0.395175 0.104826 0.612008
O O16 0.287719 0.022646 0.511159
O O17 0.386545 0.886545 0.591977
O O18 0.906783 0.889962 0.523223
#
# Coordination Sequence:
#
# PCOD8308706 Si02
#       7
#     8   8   8   8   8   8   8
#     4  10  22  37  58  86 116 148 195 242 290 352
#     4  10  22  39  60  85 116 154 196 245 298 353
#     4  11  20  40  62  86 119 158 204 241 287 352
#     4  11  24  40  61  86 116 160 199 243 294 350
#     4  10  21  37  59  86 116 150 188 242 304 354
#     4  10  21  36  58  90 124 155 193 246 302 349
#     4   9  16  34  58  88 115 151 192 233 286 342
#
# _framework density 19.001517
#
# number of rings (size 3 to 8) (size 9 to 14) (size 15 to 20)
#    0.000    1.857    2.857    3.000    4.000    3.714 
#    0.000    4.286    0.000    3.429    0.000    0.000 
#    0.000    0.000    0.000    0.000    0.000    0.000 
#
# Total GULP energy -694436.347922 kJ/mol
# GULP energy per Si atom -12400.649070 kJ/mol
# Density = 1.895827 g / cm^3
# Si number density = 19.001517 Si / 1000 Ang^3
#
#
#
# Elastic Constant Matrix: (Units=GPa)
#
#
# Indices 1 2 3 4 5 6 
#
# 1 97.5218 40.5656 43.5702 0.0000 0.0000 0.0000
# 2 40.5656 97.5228 43.5697 0.0000 0.0000 0.0000
# 3 43.5702 43.5697 103.3473 0.0000 0.0000 0.0000
# 4 0.0000 0.0000 0.0000 22.1126 0.0000 0.0000
# 5 0.0000 0.0000 0.0000 0.0000 22.1125 0.0000
# 6 0.0000 0.0000 0.0000 0.0000 0.0000 23.7632
#
#
#
# Elastic Compliance Matrix: (Units=1/GPa)
#
#
# Indices 1 2 3 4 5 6 
#
# 1 0.013712 -0.003845 -0.004160 0.000000 0.000000 0.000000
# 2 -0.003845 0.013712 -0.004160 0.000000 0.000000 0.000000
# 3 -0.004160 -0.004160 0.013183 0.000000 0.000000 0.000000
# 4 0.000000 0.000000 0.000000 0.045223 0.000000 0.000000
# 5 0.000000 0.000000 0.000000 0.000000 0.045223 0.000000
# 6 0.000000 0.000000 0.000000 0.000000 0.000000 0.042082
#
#
# Mechanical properties :
#
#
# Convention : Reuss Voigt Hill
#
# Bulk Modulus (GPa) = 61.43205 61.53365 61.48285
# Shear Modulus (GPa) = 24.64379 24.97676 24.81028
#
# Velocity S-wave (km/s) = 3.60521 3.62948 3.61737
# Velocity P-wave (km/s) = 7.05197 7.07234 7.06217
#
# Compressibility (1/GPa) = 0.01627815
#
# Stress axis : x y z
#
# Youngs Moduli (GPa) = 72.92846 72.92974 75.85267
#
# Poissons Ratio (x) = 0.28043 0.31553
# Poissons Ratio (y) = 0.28043 0.31552
# Poissons Ratio (z) = 0.30337 0.30336
#
# Static dielectric constant tensor:
#      x y z
#    x 3.566710 0.000000 0.000000 
#    y 0.000000 3.566710 0.000000 
#    z 0.000000 0.000000 3.382440 
# 
# 
# High freq. dielectric constant tensor:
#      x y z
#    x 1.740860 0.000000 0.000000 
#    y 0.000000 1.740850 0.000000 
#    z 0.000000 0.000000 1.726150 
# 
# From -- ./inp_files/2715.got.cif
#   From: 2010.03.12/outbox.cif.g09.slc.cpg/sg113_cif.got.tgz:2715.got - 2010.04.14 02:06:34.
