data_PCOD8308466
_publ_section_title
;
Structure prediction by ZEFSAII (Michael W. Deem and Ramdas Pophale) SiO2 
 PCOD8308466
Probable space group: P -4 2 C
;
_chemical_formula_sum "Si O2"
_cell_formula_units_Z 38
_cell_length_a 11.399662
_cell_length_b 11.399662
_cell_length_c 14.412404
_cell_angle_alpha 90.000000
_cell_angle_beta 90.000000
_cell_angle_gamma 90.000000
_cell_volume 1872.924958
_symmetry_space_group_name_H-M "P -4 2 C"
_symmetry_group_IT_number 112
_symmetry_cell_setting 'tetragonal'
loop_
_space_group_symop_operation_xyz
x,y,z
y,-x,-z
-x,-y,z
-y,x,-z
x,-y,1/2-z
-x,y,1/2-z
-y,-x,1/2+z
y,x,1/2+z
loop_
_atom_site_type_symbol
_atom_site_label
_atom_site_fract_x
_atom_site_fract_y
_atom_site_fract_z
Si Si1 0.248981 0.627917 0.283511
Si Si2 0.925328 0.096465 0.654809
Si Si3 0.411080 0.665857 0.983656
Si Si4 0.000000 0.500000 0.750000
Si Si5 0.000000 0.288603 0.250000
Si Si6 0.666227 0.171691 0.142828
O O1 0.290126 0.500000 0.250000
O O2 0.303327 0.646849 0.385209
O O3 0.299767 0.730322 0.218773
O O4 0.107151 0.631613 0.286765
O O5 0.794911 0.045145 0.667787
O O6 0.906181 0.222415 0.608123
O O7 0.000000 0.115343 0.750000
O O8 0.000000 0.000000 0.594814
O O9 0.550487 0.649023 0.973570
O O10 0.390043 0.772469 0.052610
O O11 0.918226 0.575513 0.815519
#
# Coordination Sequence:
#
# PCOD8308466 Si02
#       6
#     8   8   8   2   4   8
#     4  11  21  42  68  93 129 173 217 269 332 393
#     4   8  15  34  64  89 126 171 212 262 325 398
#     4  11  24  43  64  97 135 173 223 273 330 405
#     4  12  24  40  60 100 134 172 220 284 352 388
#     4   8  18  32  64  92 118 165 213 256 324 382
#     4  11  22  41  66  98 133 173 223 279 333 399
#
# _framework density 20.289121000000002
#
# number of rings (size 3 to 8) (size 9 to 14) (size 15 to 20)
#    0.000    2.105    3.158    1.579    0.000    0.000 
#    3.789    2.105    0.000    5.053    0.000    0.000 
#    0.000    0.000    0.000    0.000    0.000    0.000 
#
# Total GULP energy -470941.855554 kJ/mol
# GULP energy per Si atom -12393.206725 kJ/mol
# Density = 2.024294 g / cm^3
# Si number density = 20.289121 Si / 1000 Ang^3
#
#
#
# Elastic Constant Matrix: (Units=GPa)
#
#
# Indices 1 2 3 4 5 6 
#
# 1 112.3172 58.1654 29.6549 0.0000 0.0000 0.0000
# 2 58.1654 112.3172 29.6549 0.0000 0.0000 0.0000
# 3 29.6549 29.6549 78.8938 0.0000 0.0000 0.0000
# 4 0.0000 0.0000 0.0000 6.2140 0.0000 0.0000
# 5 0.0000 0.0000 0.0000 0.0000 6.2140 0.0000
# 6 0.0000 0.0000 0.0000 0.0000 0.0000 41.5017
#
#
#
# Elastic Compliance Matrix: (Units=1/GPa)
#
#
# Indices 1 2 3 4 5 6 
#
# 1 0.012607 -0.005859 -0.002537 0.000000 0.000000 0.000000
# 2 -0.005859 0.012607 -0.002537 0.000000 0.000000 0.000000
# 3 -0.002537 -0.002537 0.014582 0.000000 0.000000 0.000000
# 4 0.000000 0.000000 0.000000 0.160928 0.000000 0.000000
# 5 0.000000 0.000000 0.000000 0.000000 0.160928 0.000000
# 6 0.000000 0.000000 0.000000 0.000000 0.000000 0.024095
#
#
# Mechanical properties :
#
#
# Convention : Reuss Voigt Hill
#
# Bulk Modulus (GPa) = 55.76512 59.83095 57.79804
# Shear Modulus (GPa) = 12.08926 23.18945 17.63936
#
# Velocity S-wave (km/s) = 2.44365 3.38442 2.95176
# Velocity P-wave (km/s) = 5.95876 6.69519 6.33768
#
# Compressibility (1/GPa) = 0.01793236
#
# Stress axis : x y z
#
# Youngs Moduli (GPa) = 79.31871 79.31871 68.57700
#
# Poissons Ratio (x) = 0.46475 0.17395
# Poissons Ratio (y) = 0.46475 0.17395
# Poissons Ratio (z) = 0.20119 0.20119
#
# Static dielectric constant tensor:
#      x y z
#    x 3.949990 0.000000 0.000000 
#    y 0.000000 3.949990 0.000000 
#    z 0.000000 0.000000 3.216600 
# 
# 
# High freq. dielectric constant tensor:
#      x y z
#    x 1.807090 0.000000 0.000000 
#    y 0.000000 1.807090 0.000000 
#    z 0.000000 0.000000 1.753570 
# 
# From -- ./inp_files/3351.got.cif
#   From: 2010.03.12/outbox.cif.g09.slc.cpg/sg112_2_cif.got.tgz:3351.got - 2010.04.14 02:02:48.
