data_PCOD8308024
_publ_section_title
;
Structure prediction by ZEFSAII (Michael W. Deem and Ramdas Pophale) SiO2 
 PCOD8308024
Probable space group: I 41 C D
;
_chemical_formula_sum "Si O2"
_cell_formula_units_Z 96
_cell_length_a 15.023907
_cell_length_b 15.023907
_cell_length_c 18.884269
_cell_angle_alpha 90.000000
_cell_angle_beta 90.000000
_cell_angle_gamma 90.000000
_cell_volume 4262.515305
_symmetry_space_group_name_H-M "I 41 C D"
_symmetry_group_IT_number 110
_symmetry_cell_setting 'tetragonal'
loop_
_space_group_symop_operation_xyz
x,y,z
-y,1/2+x,1/4+z
-x,-y,z
y,1/2-x,1/4+z
-x,y,1/2+z
x,-y,1/2+z
1/2-y,-x,1/4+z
1/2+y,x,1/4+z
1/2+x,1/2+y,1/2+z
1/2-y,x,3/4+z
1/2-x,1/2-y,1/2+z
1/2+y,-x,3/4+z
1/2-x,1/2+y,z
1/2+x,1/2-y,z
-y,1/2-x,3/4+z
y,1/2+x,3/4+z
loop_
_atom_site_type_symbol
_atom_site_label
_atom_site_fract_x
_atom_site_fract_y
_atom_site_fract_z
Si Si1 0.505546 0.394928 0.096480
Si Si2 0.592305 0.043293 0.567070
Si Si3 0.168273 0.882363 0.177798
Si Si4 0.228013 0.612303 0.547348
Si Si5 0.100611 0.138046 0.465153
Si Si6 0.091395 0.666527 0.940150
O O1 0.500000 0.500000 0.088586
O O2 0.432645 0.359772 0.152908
O O3 0.603613 0.370004 0.126864
O O4 0.484110 0.353127 0.019085
O O5 0.578656 0.075932 0.647429
O O6 0.614404 0.125249 0.516254
O O7 0.500000 0.000000 0.539949
O O8 0.674705 0.976916 0.563784
O O9 0.240900 0.844222 0.121868
O O10 0.181350 0.833351 0.253267
O O11 0.181236 0.986678 0.183002
O O12 0.318296 0.588279 0.504442
O O13 0.133888 0.235215 0.438384
#
# Coordination Sequence:
#
# PCOD8308024 Si02
#       6
#    16  16  16  16  16  16
#     4   9  19  40  67  92 133 185 228 276 352 427
#     4  12  23  43  72 101 135 190 237 281 358 436
#     4  10  20  42  69  97 132 185 228 290 346 418
#     4  11  23  44  67 101 141 181 237 289 351 419
#     4  11  26  40  67 105 140 177 236 301 345 415
#     4  11  21  41  71  97 131 187 236 279 360 415
#
# _framework density 22.521912
#
# number of rings (size 3 to 8) (size 9 to 14) (size 15 to 20)
#    0.000    1.333    5.000    1.000    4.667    0.000 
#    3.000    1.667    0.000    0.000    0.000    0.000 
#    0.000    0.000    0.000    0.000    0.000    0.000 
#
# Total GULP energy -595098.295878 kJ/mol
# GULP energy per Si atom -12397.881164 kJ/mol
# Density = 2.247065 g / cm^3
# Si number density = 22.521912 Si / 1000 Ang^3
#
#
#
# Elastic Constant Matrix: (Units=GPa)
#
#
# Indices 1 2 3 4 5 6 
#
# 1 73.1720 18.3282 23.7773 0.0000 0.0000 0.0000
# 2 18.3282 73.1720 23.7773 0.0000 0.0000 0.0000
# 3 23.7773 23.7773 104.4075 0.0000 0.0000 0.0000
# 4 0.0000 0.0000 0.0000 35.5057 0.0000 0.0000
# 5 0.0000 0.0000 0.0000 0.0000 35.5057 0.0000
# 6 0.0000 0.0000 0.0000 0.0000 0.0000 22.1794
#
#
#
# Elastic Compliance Matrix: (Units=1/GPa)
#
#
# Indices 1 2 3 4 5 6 
#
# 1 0.015315 -0.002919 -0.002823 0.000000 0.000000 0.000000
# 2 -0.002919 0.015315 -0.002823 0.000000 0.000000 0.000000
# 3 -0.002823 -0.002823 0.010864 0.000000 0.000000 0.000000
# 4 0.000000 0.000000 0.000000 0.028164 0.000000 0.000000
# 5 0.000000 0.000000 0.000000 0.000000 0.028164 0.000000
# 6 0.000000 0.000000 0.000000 0.000000 0.000000 0.045087
#
#
# Mechanical properties :
#
#
# Convention : Reuss Voigt Hill
#
# Bulk Modulus (GPa) = 41.04454 42.50189 41.77322
# Shear Modulus (GPa) = 29.73356 30.96274 30.34815
#
# Velocity S-wave (km/s) = 3.63741 3.71183 3.67481
# Velocity P-wave (km/s) = 5.99206 6.10594 6.04927
#
# Compressibility (1/GPa) = 0.02436378
#
# Stress axis : x y z
#
# Youngs Moduli (GPa) = 65.29601 65.29602 92.04988
#
# Poissons Ratio (x) = 0.19058 0.25986
# Poissons Ratio (y) = 0.19058 0.25986
# Poissons Ratio (z) = 0.18433 0.18433
#
# Static dielectric constant tensor:
#      x y z
#    x 3.908140 0.000000 0.000000 
#    y 0.000000 3.908140 0.000000 
#    z 0.000000 0.000000 4.365790 
# 
# 
# High freq. dielectric constant tensor:
#      x y z
#    x 1.866840 0.000000 0.000000 
#    y 0.000000 1.866840 0.000000 
#    z 0.000000 0.000000 1.904170 
# 
# From -- ./inp_files/2180.got.cif
#   From: 2010.03.12/outbox.cif.g09.slc.cpg/sg110_2_cif.got.tgz:2180.got - 2010.04.14 01:58:01.
