data_PCOD8308115
_publ_section_title
;
Structure prediction by ZEFSAII (Michael W. Deem and Ramdas Pophale) SiO2 
 PCOD8308115
Probable space group: P -4 2 M 
;
_chemical_formula_sum "Si O2"
_cell_formula_units_Z 56
_cell_length_a 14.343907
_cell_length_b 14.343907
_cell_length_c 16.164372
_cell_angle_alpha 90.000000
_cell_angle_beta 90.000000
_cell_angle_gamma 90.000000
_cell_volume 3325.781844
_symmetry_space_group_name_H-M "P -4 2 M "
_symmetry_group_IT_number 111
_symmetry_cell_setting 'tetragonal'
loop_
_space_group_symop_operation_xyz
x,y,z
y,-x,-z
-x,-y,z
-y,x,-z
x,-y,-z
-x,y,-z
-y,-x,z
y,x,z
loop_
_atom_site_type_symbol
_atom_site_label
_atom_site_fract_x
_atom_site_fract_y
_atom_site_fract_z
Si Si1 0.000718 0.851165 0.754613
Si Si2 0.811203 0.660294 0.326712
Si Si3 0.132859 0.280714 0.667645
Si Si4 0.111442 0.481310 0.738243
Si Si5 0.464491 0.896193 0.916382
Si Si6 0.877067 0.268560 0.848809
Si Si7 0.745687 0.106608 0.513325
O O1 0.090468 0.909533 0.718677
O O2 0.031451 0.796177 0.838385
O O3 0.960979 0.780551 0.684884
O O4 0.921229 0.921229 0.784766
O O5 0.705803 0.705803 0.333979
O O6 0.821148 0.547935 0.317581
O O7 0.861166 0.700378 0.246019
O O8 0.870739 0.681365 0.408533
O O9 0.222368 0.222368 0.698230
O O10 0.131652 0.375487 0.717731
O O11 0.142204 0.304409 0.570551
O O12 0.147397 0.494564 0.832536
O O13 0.000000 0.500000 0.727808
O O14 0.352162 0.894834 0.912097
O O15 0.500000 0.000000 0.922752
O O16 0.500000 0.842920 0.000000
O O17 0.788627 0.211374 0.883252
O O18 0.845320 0.154681 0.524687
O O19 0.766226 0.000000 0.500000
#
# Coordination Sequence:
#
# PCOD8308115 Si02
#       7
#     8   8   8   8   8   8   8
#     4   9  16  26  42  64  93 132 170 194 220 270
#     4   9  18  31  46  64  88 120 159 200 237 278
#     4  10  20  31  43  66  98 126 157 200 242 276
#     4  10  18  31  51  69  88 119 156 190 235 289
#     4   9  17  29  47  68  90 113 144 187 233 278
#     4   9  16  28  46  67  91 119 154 193 229 270
#     4  10  19  29  41  62  94 127 160 197 233 271
#
# _framework density 16.838146999999999
#
# number of rings (size 3 to 8) (size 9 to 14) (size 15 to 20)
#    0.000    2.571    0.000    4.286    0.000    2.429 
#    0.000    3.571    0.000    3.857    0.000    0.000 
#    0.000    9.429    0.000    0.143    0.000    0.000 
#
# Total GULP energy -693734.275633 kJ/mol
# GULP energy per Si atom -12388.112065 kJ/mol
# Density = 1.679982 g / cm^3
# Si number density = 16.838147 Si / 1000 Ang^3
#
#
#
# Elastic Constant Matrix: (Units=GPa)
#
#
# Indices 1 2 3 4 5 6 
#
# 1 104.1333 42.1580 45.6731 0.0000 0.0000 0.0000
# 2 42.1580 104.1338 45.6735 0.0000 0.0000 0.0000
# 3 45.6731 45.6735 95.0495 0.0000 0.0000 0.0000
# 4 0.0000 0.0000 0.0000 26.3609 0.0000 0.0000
# 5 0.0000 0.0000 0.0000 0.0000 26.3606 0.0000
# 6 0.0000 0.0000 0.0000 0.0000 0.0000 19.3493
#
#
#
# Elastic Compliance Matrix: (Units=1/GPa)
#
#
# Indices 1 2 3 4 5 6 
#
# 1 0.012951 -0.003185 -0.004693 0.000000 0.000000 0.000000
# 2 -0.003185 0.012951 -0.004693 0.000000 0.000000 0.000000
# 3 -0.004693 -0.004693 0.015031 0.000000 0.000000 0.000000
# 4 0.000000 0.000000 0.000000 0.037935 0.000000 0.000000
# 5 0.000000 0.000000 0.000000 0.000000 0.037935 0.000000
# 6 0.000000 0.000000 0.000000 0.000000 0.000000 0.051681
#
#
# Mechanical properties :
#
#
# Convention : Reuss Voigt Hill
#
# Bulk Modulus (GPa) = 63.32470 63.36954 63.34712
# Shear Modulus (GPa) = 25.13978 25.73497 25.43737
#
# Velocity S-wave (km/s) = 3.86816 3.91368 3.89099
# Velocity P-wave (km/s) = 7.59208 7.62488 7.60850
#
# Compressibility (1/GPa) = 0.01579163
#
# Stress axis : x y z
#
# Youngs Moduli (GPa) = 77.21628 77.21642 66.53049
#
# Poissons Ratio (x) = 0.24592 0.31221
# Poissons Ratio (y) = 0.24592 0.31221
# Poissons Ratio (z) = 0.36235 0.36236
#
# Static dielectric constant tensor:
#      x y z
#    x 3.178370 0.000000 0.000000 
#    y 0.000000 3.178370 0.000000 
#    z 0.000000 0.000000 3.606960 
# 
# 
# High freq. dielectric constant tensor:
#      x y z
#    x 1.631860 0.000000 0.000000 
#    y 0.000000 1.631860 0.000000 
#    z 0.000000 0.000000 1.639250 
# 
# From -- ./inp_files/3358.got.cif
#   From: 2010.03.12/outbox.cif.g09.slc.cpg/sg111_2_cif.got.tgz:3358.got - 2010.04.14 01:59:48.
