data_PCOD8308102
_publ_section_title
;
Structure prediction by ZEFSAII (Michael W. Deem and Ramdas Pophale) SiO2 
 PCOD8308102
Probable space group: P -4 2 M 
;
_chemical_formula_sum "Si O2"
_cell_formula_units_Z 56
_cell_length_a 16.968421
_cell_length_b 16.968421
_cell_length_c 12.775407
_cell_angle_alpha 90.000000
_cell_angle_beta 90.000000
_cell_angle_gamma 90.000000
_cell_volume 3678.388587
_symmetry_space_group_name_H-M "P -4 2 M "
_symmetry_group_IT_number 111
_symmetry_cell_setting 'tetragonal'
loop_
_space_group_symop_operation_xyz
x,y,z
y,-x,-z
-x,-y,z
-y,x,-z
x,-y,-z
-x,y,-z
-y,-x,z
y,x,z
loop_
_atom_site_type_symbol
_atom_site_label
_atom_site_fract_x
_atom_site_fract_y
_atom_site_fract_z
Si Si1 0.590613 0.718809 0.881357
Si Si2 0.783590 0.910472 0.376674
Si Si3 0.336557 0.205238 0.307600
Si Si4 0.718810 0.409387 0.881359
Si Si5 0.278814 0.589044 0.500001
Si Si6 0.910472 0.216411 0.376675
Si Si7 0.794762 0.336557 0.307602
O O1 0.638516 0.638516 0.859523
O O2 0.500000 0.698823 0.858428
O O3 0.621063 0.788077 0.805126
O O4 0.603109 0.748655 0.999999
O O5 0.859896 0.859896 0.342280
O O6 0.703500 0.880526 0.319938
O O7 0.769537 0.902627 0.499999
O O8 0.799159 0.000000 0.342100
O O9 0.266627 0.266627 0.320473
O O10 0.378936 0.211922 0.194871
O O11 0.398916 0.223527 0.398737
O O12 0.638518 0.361483 0.859525
O O13 0.310563 0.500000 0.500000
O O14 0.354692 0.645309 0.500003
O O15 0.223528 0.601085 0.398740
O O16 0.859895 0.140106 0.342281
O O17 0.880527 0.296502 0.319940
O O18 0.733374 0.266627 0.320472
#
# Coordination Sequence:
#
# PCOD8308102 Si02
#       7
#     8   8   8   8   8   8   8
#     4   9  17  28  43  63  85 111 145 185 225 260
#     4   9  16  27  45  68  92 115 138 168 208 254
#     4   9  16  28  43  60  84 115 146 171 204 255
#     4   9  17  28  43  63  85 111 145 185 225 260
#     4  10  18  27  41  59  80 110 144 178 216 254
#     4   9  16  27  45  68  92 115 138 168 208 254
#     4   9  16  28  43  60  84 115 146 171 204 255
#
# _framework density 15.224057999999999
#
# number of rings (size 3 to 8) (size 9 to 14) (size 15 to 20)
#    0.000    2.857    1.429    0.857    0.000    0.714 
#    0.000    2.857    0.000   10.286    0.000    2.000 
#    0.000    0.000    0.000   11.143    0.000    0.286 
#
# Total GULP energy -694205.273311 kJ/mol
# GULP energy per Si atom -12396.522738 kJ/mol
# Density = 1.518941 g / cm^3
# Si number density = 15.224058 Si / 1000 Ang^3
#
#
#
# Elastic Constant Matrix: (Units=GPa)
#
#
# Indices 1 2 3 4 5 6 
#
# 1 81.3109 63.5339 44.2227 0.0000 0.0000 0.0000
# 2 63.5339 81.3120 44.2227 0.0000 0.0000 0.0000
# 3 44.2227 44.2227 84.0227 0.0000 0.0000 0.0000
# 4 0.0000 0.0000 0.0000 17.7417 0.0000 0.0000
# 5 0.0000 0.0000 0.0000 0.0000 17.7417 0.0000
# 6 0.0000 0.0000 0.0000 0.0000 0.0000 16.6181
#
#
#
# Elastic Compliance Matrix: (Units=1/GPa)
#
#
# Indices 1 2 3 4 5 6 
#
# 1 0.033213 -0.023039 -0.005355 0.000000 0.000000 0.000000
# 2 -0.023039 0.033212 -0.005354 0.000000 0.000000 0.000000
# 3 -0.005355 -0.005354 0.017538 0.000000 0.000000 0.000000
# 4 0.000000 0.000000 0.000000 0.056364 0.000000 0.000000
# 5 0.000000 0.000000 0.000000 0.000000 0.056364 0.000000
# 6 0.000000 0.000000 0.000000 0.000000 0.000000 0.060175
#
#
# Mechanical properties :
#
#
# Convention : Reuss Voigt Hill
#
# Bulk Modulus (GPa) = 60.72798 61.17824 60.95311
# Shear Modulus (GPa) = 15.15837 16.73138 15.94488
#
# Velocity S-wave (km/s) = 3.15887 3.31873 3.23979
# Velocity P-wave (km/s) = 7.29936 7.41335 7.35658
#
# Compressibility (1/GPa) = 0.01646687
#
# Stress axis : x y z
#
# Youngs Moduli (GPa) = 30.10914 30.10973 57.01945
#
# Poissons Ratio (x) = 0.69369 0.30532
# Poissons Ratio (y) = 0.69368 0.30530
# Poissons Ratio (z) = 0.16122 0.16122
#
# Static dielectric constant tensor:
#      x y z
#    x 2.849680 0.000000 0.000000 
#    y 0.000000 2.849680 0.000000 
#    z 0.000000 0.000000 2.976110 
# 
# 
# High freq. dielectric constant tensor:
#      x y z
#    x 1.566490 0.000000 0.000000 
#    y 0.000000 1.566490 0.000000 
#    z 0.000000 0.000000 1.574260 
# 
# From -- ./inp_files/2855.got.cif
#   From: 2010.03.12/outbox.cif.g09.slc.cpg/sg111_2_cif.got.tgz:2855.got - 2010.04.14 01:59:48.
