data_PCOD8308725
_publ_section_title
;
Structure prediction by ZEFSAII (Michael W. Deem and Ramdas Pophale) SiO2 
 PCOD8308725
Probable space group: P -4 21 M 
;
_chemical_formula_sum "Si O2"
_cell_formula_units_Z 40
_cell_length_a 14.480720
_cell_length_b 14.480720
_cell_length_c 9.508714
_cell_angle_alpha 90.000000
_cell_angle_beta 90.000000
_cell_angle_gamma 90.000000
_cell_volume 1993.894141
_symmetry_space_group_name_H-M "P -4 21 M "
_symmetry_group_IT_number 113
_symmetry_cell_setting 'tetragonal'
loop_
_space_group_symop_operation_xyz
x,y,z
y,-x,-z
-x,-y,z
-y,x,-z
1/2+x,1/2-y,-z
1/2-x,1/2+y,-z
1/2-y,1/2-x,z
1/2+y,1/2+x,z
loop_
_atom_site_type_symbol
_atom_site_label
_atom_site_fract_x
_atom_site_fract_y
_atom_site_fract_z
Si Si1 0.202524 0.854325 0.560400
Si Si2 0.983311 0.222450 0.655393
Si Si3 0.015704 0.143741 0.956299
Si Si4 0.422621 0.077380 0.690399
Si Si5 0.422406 0.077595 0.367121
Si Si6 0.792283 0.556327 0.175252
O O1 0.264549 0.764549 0.535338
O O2 0.095928 0.824782 0.560907
O O3 0.224686 0.900141 0.709806
O O4 0.224036 0.923614 0.434227
O O5 0.998530 0.161225 0.792879
O O6 0.955966 0.326524 0.702110
O O7 0.101530 0.074535 0.970115
O O8 0.039047 0.239563 0.031001
O O9 0.400698 0.099303 0.529372
O O10 0.458888 0.169291 0.766661
O O11 0.500000 0.000000 0.694377
O O12 0.500000 0.000000 0.344115
O O13 0.875931 0.624070 0.139347
#
# Coordination Sequence:
#
# PCOD8308725 Si02
#       6
#     8   8   8   4   4   8
#     4  11  24  43  67 103 137 173 227 281 339 406
#     4  12  25  41  72  99 135 182 223 282 342 400
#     4  11  26  45  64  91 134 180 221 273 335 407
#     4   9  18  37  67  97 127 171 209 267 334 387
#     4  11  22  41  69 103 135 170 221 285 340 386
#     4  10  21  42  67  94 134 173 217 273 333 403
#
# _framework density 20.061247000000002
#
# number of rings (size 3 to 8) (size 9 to 14) (size 15 to 20)
#    0.000    1.200    5.000    0.600    2.800    2.800 
#    1.800    1.000    0.000    0.000    0.000    0.000 
#    0.000    0.000    0.000    0.000    0.000    0.000 
#
# Total GULP energy -496216.943112 kJ/mol
# GULP energy per Si atom -12405.423578 kJ/mol
# Density = 2.001559 g / cm^3
# Si number density = 20.061247 Si / 1000 Ang^3
#
#
#
# Elastic Constant Matrix: (Units=GPa)
#
#
# Indices 1 2 3 4 5 6 
#
# 1 81.1081 22.2840 36.3590 0.0000 0.0000 0.0000
# 2 22.2840 81.1087 36.3590 0.0000 0.0000 0.0000
# 3 36.3590 36.3590 84.2289 0.0000 0.0000 0.0000
# 4 0.0000 0.0000 0.0000 32.8350 0.0000 0.0000
# 5 0.0000 0.0000 0.0000 0.0000 32.8348 0.0000
# 6 0.0000 0.0000 0.0000 0.0000 0.0000 31.2847
#
#
#
# Elastic Compliance Matrix: (Units=1/GPa)
#
#
# Indices 1 2 3 4 5 6 
#
# 1 0.015444 -0.001556 -0.005995 0.000000 0.000000 0.000000
# 2 -0.001556 0.015444 -0.005995 0.000000 0.000000 0.000000
# 3 -0.005995 -0.005995 0.017048 0.000000 0.000000 0.000000
# 4 0.000000 0.000000 0.000000 0.030455 0.000000 0.000000
# 5 0.000000 0.000000 0.000000 0.000000 0.030456 0.000000
# 6 0.000000 0.000000 0.000000 0.000000 0.000000 0.031964
#
#
# Mechanical properties :
#
#
# Convention : Reuss Voigt Hill
#
# Bulk Modulus (GPa) = 47.97462 48.49440 48.23451
# Shear Modulus (GPa) = 28.59561 29.48716 29.04138
#
# Velocity S-wave (km/s) = 3.77956 3.83803 3.80891
# Velocity P-wave (km/s) = 6.55841 6.62316 6.59087
#
# Compressibility (1/GPa) = 0.02084435
#
# Stress axis : x y z
#
# Youngs Moduli (GPa) = 64.74938 64.74998 58.65686
#
# Poissons Ratio (x) = 0.10073 0.35166
# Poissons Ratio (y) = 0.10073 0.35166
# Poissons Ratio (z) = 0.38819 0.38819
#
# Static dielectric constant tensor:
#      x y z
#    x 3.742630 0.000000 0.000000 
#    y 0.000000 3.742620 0.000000 
#    z 0.000000 0.000000 3.405100 
# 
# 
# High freq. dielectric constant tensor:
#      x y z
#    x 1.792250 0.000000 0.000000 
#    y 0.000000 1.792250 0.000000 
#    z 0.000000 0.000000 1.769810 
# 
# From -- ./inp_files/1035.got.cif
#   From: 2010.03.12/outbox.cif.g09.slc.cpg/sg113_cif.got.tgz:1035.got - 2010.04.14 02:06:34.
