data_PCOD8308114
_publ_section_title
;
Structure prediction by ZEFSAII (Michael W. Deem and Ramdas Pophale) SiO2 
 PCOD8308114
Probable space group: P -4 2 M 
;
_chemical_formula_sum "Si O2"
_cell_formula_units_Z 64
_cell_length_a 12.208757
_cell_length_b 12.208757
_cell_length_c 23.698485
_cell_angle_alpha 90.000000
_cell_angle_beta 90.000000
_cell_angle_gamma 90.000000
_cell_volume 3532.347999
_symmetry_space_group_name_H-M "P -4 2 M "
_symmetry_group_IT_number 111
_symmetry_cell_setting 'tetragonal'
loop_
_space_group_symop_operation_xyz
x,y,z
y,-x,-z
-x,-y,z
-y,x,-z
x,-y,-z
-x,y,-z
-y,-x,z
y,x,z
loop_
_atom_site_type_symbol
_atom_site_label
_atom_site_fract_x
_atom_site_fract_y
_atom_site_fract_z
Si Si1 0.913646 0.257085 0.268706
Si Si2 0.962087 0.790881 0.165042
Si Si3 0.756043 0.072110 0.051911
Si Si4 0.124363 0.498853 0.730292
Si Si5 0.292546 0.888132 0.659389
Si Si6 0.821812 0.995686 0.563769
Si Si7 0.217980 0.605917 0.835413
Si Si8 0.474579 0.126816 0.936287
O O1 0.836375 0.163626 0.294629
O O2 0.855853 0.371964 0.286152
O O3 0.929894 0.237894 0.201714
O O4 0.037593 0.242785 0.291022
O O5 0.904697 0.904697 0.183855
O O6 0.877004 0.693339 0.170386
O O7 0.996893 0.805635 0.100528
O O8 0.849331 0.150670 0.027707
O O9 0.654434 0.142938 0.075116
O O10 0.711215 0.000000 0.000000
O O11 0.137288 0.579988 0.675484
O O12 0.208884 0.529897 0.779792
O O13 0.000000 0.500000 0.753939
O O14 0.225809 0.774192 0.654676
O O15 0.279265 0.965881 0.603731
O O16 0.874657 0.874657 0.577093
O O17 0.776736 0.000000 0.500000
O O18 0.918268 0.081733 0.572275
O O19 0.336905 0.663096 0.836091
O O20 0.204968 0.538535 0.893126
O O21 0.500000 0.000000 0.924015
O O22 0.500000 0.163551 0.000000
#
# Coordination Sequence:
#
# PCOD8308114 Si02
#       8
#     8   8   8   8   8   8   8   8
#     4  11  22  33  49  73 103 139 172 213 266 315
#     4  11  21  33  50  75 103 130 163 205 257 312
#     4  12  24  37  54  76 103 133 158 192 247 311
#     4  10  19  33  51  72 104 138 176 214 257 310
#     4  10  18  30  51  78 105 138 178 222 263 307
#     4   8  14  25  43  72 112 152 184 216 260 317
#     4  11  20  34  58  79  97 128 169 212 258 308
#     4  11  20  37  56  72  96 126 166 201 236 300
#
# _framework density 18.118258999999998
#
# number of rings (size 3 to 8) (size 9 to 14) (size 15 to 20)
#    0.000    1.500    5.000    3.375    0.000    4.375 
#    0.000    0.000    0.000    6.000    0.000    0.875 
#    0.000    0.000    0.000    0.000    0.000   80.500 
#
# Total GULP energy -793206.076008 kJ/mol
# GULP energy per Si atom -12393.844938 kJ/mol
# Density = 1.807702 g / cm^3
# Si number density = 18.118259 Si / 1000 Ang^3
#
#
#
# Elastic Constant Matrix: (Units=GPa)
#
#
# Indices 1 2 3 4 5 6 
#
# 1 60.2885 34.9451 24.2782 0.0000 0.0000 0.0000
# 2 34.9451 60.2934 24.2789 0.0000 0.0000 0.0000
# 3 24.2782 24.2789 99.4037 0.0000 0.0000 0.0000
# 4 0.0000 0.0000 0.0000 22.0641 0.0000 0.0000
# 5 0.0000 0.0000 0.0000 0.0000 22.0648 0.0000
# 6 0.0000 0.0000 0.0000 0.0000 0.0000 25.7506
#
#
#
# Elastic Compliance Matrix: (Units=1/GPa)
#
#
# Indices 1 2 3 4 5 6 
#
# 1 0.025725 -0.013730 -0.002930 0.000000 0.000000 0.000000
# 2 -0.013730 0.025723 -0.002929 0.000000 0.000000 0.000000
# 3 -0.002930 -0.002929 0.011491 0.000000 0.000000 0.000000
# 4 0.000000 0.000000 0.000000 0.045322 0.000000 0.000000
# 5 0.000000 0.000000 0.000000 0.000000 0.045321 0.000000
# 6 0.000000 0.000000 0.000000 0.000000 0.000000 0.038834
#
#
# Mechanical properties :
#
#
# Convention : Reuss Voigt Hill
#
# Bulk Modulus (GPa) = 42.08577 42.99889 42.54233
# Shear Modulus (GPa) = 20.87553 23.07479 21.97516
#
# Velocity S-wave (km/s) = 3.39806 3.57258 3.48641
# Velocity P-wave (km/s) = 6.21889 6.38761 6.30382
#
# Compressibility (1/GPa) = 0.02376100
#
# Stress axis : x y z
#
# Youngs Moduli (GPa) = 38.87258 38.87581 87.02497
#
# Poissons Ratio (x) = 0.53377 0.25494
# Poissons Ratio (y) = 0.53373 0.25492
# Poissons Ratio (z) = 0.11388 0.11388
#
# Static dielectric constant tensor:
#      x y z
#    x 3.304900 0.000000 0.000000 
#    y 0.000000 3.304900 0.000000 
#    z 0.000000 0.000000 3.403250 
# 
# 
# High freq. dielectric constant tensor:
#      x y z
#    x 1.679710 0.000000 0.000000 
#    y 0.000000 1.679710 0.000000 
#    z 0.000000 0.000000 1.691410 
# 
# From -- ./inp_files/4270.got.cif
#   From: 2010.03.12/outbox.cif.g09.slc.cpg/sg111_3_cif.got.tgz:4270.got - 2010.04.14 01:59:48.
