data_PCOD8308450
_publ_section_title
;
Structure prediction by ZEFSAII (Michael W. Deem and Ramdas Pophale) SiO2 
 PCOD8308450
Probable space group: P -4 2 C
;
_chemical_formula_sum "Si O2"
_cell_formula_units_Z 40
_cell_length_a 12.133754
_cell_length_b 12.133754
_cell_length_c 13.783976
_cell_angle_alpha 90.000000
_cell_angle_beta 90.000000
_cell_angle_gamma 90.000000
_cell_volume 2029.387027
_symmetry_space_group_name_H-M "P -4 2 C"
_symmetry_group_IT_number 112
_symmetry_cell_setting 'tetragonal'
loop_
_space_group_symop_operation_xyz
x,y,z
y,-x,-z
-x,-y,z
-y,x,-z
x,-y,1/2-z
-x,y,1/2-z
-y,-x,1/2+z
y,x,1/2+z
loop_
_atom_site_type_symbol
_atom_site_label
_atom_site_fract_x
_atom_site_fract_y
_atom_site_fract_z
Si Si1 0.746736 0.001519 0.480153
Si Si2 0.093267 0.915341 0.647743
Si Si3 0.875956 0.311454 0.238889
Si Si4 0.365169 0.214361 0.560123
Si Si5 0.381426 0.201929 0.970773
O O1 0.802391 0.970668 0.378343
O O2 0.690118 0.894967 0.522122
O O3 0.840169 0.042785 0.554356
O O4 0.655540 0.096389 0.465202
O O5 0.177674 0.889769 0.736751
O O6 0.000000 0.000000 0.681556
O O7 0.794042 0.352966 0.323234
O O8 0.818605 0.349501 0.140440
O O9 0.000000 0.362869 0.250000
O O10 0.489342 0.221043 0.522982
O O11 0.308135 0.322204 0.516026
#
# Coordination Sequence:
#
# PCOD8308450 Si02
#       5
#     8   8   8   8   8
#     4  11  18  36  60  90 131 173 207 255 310 386
#     4  11  18  33  58  96 140 173 204 249 316 390
#     4  11  23  38  63 101 128 166 212 260 315 391
#     4  12  23  44  63  96 126 167 226 264 330 369
#     4  11  25  41  68  92 129 170 215 279 315 382
#
# _framework density 19.710384999999999
#
# number of rings (size 3 to 8) (size 9 to 14) (size 15 to 20)
#    0.000    0.800   10.000    1.200    0.000    1.600 
#    0.000    1.000    0.000    2.400    5.200    0.000 
#    0.000    0.000    0.000    0.000    0.000    0.000 
#
# Total GULP energy -495884.420401 kJ/mol
# GULP energy per Si atom -12397.110510 kJ/mol
# Density = 1.966552 g / cm^3
# Si number density = 19.710385 Si / 1000 Ang^3
#
#
#
# Elastic Constant Matrix: (Units=GPa)
#
#
# Indices 1 2 3 4 5 6 
#
# 1 84.5006 -22.9695 28.2713 0.0000 0.0000 0.0000
# 2 -22.9695 84.5006 28.2713 0.0000 0.0000 0.0000
# 3 28.2713 28.2713 68.2575 0.0000 0.0000 0.0000
# 4 0.0000 0.0000 0.0000 -78.3646 0.0000 0.0000
# 5 0.0000 0.0000 0.0000 0.0000 -78.3646 0.0000
# 6 0.0000 0.0000 0.0000 0.0000 0.0000 -95.8223
#
#
#
# Elastic Compliance Matrix: (Units=1/GPa)
#
#
# Indices 1 2 3 4 5 6 
#
# 1 0.017772 0.008467 -0.010868 0.000000 0.000000 0.000000
# 2 0.008467 0.017772 -0.010868 0.000000 0.000000 0.000000
# 3 -0.010868 -0.010868 0.023653 0.000000 0.000000 0.000000
# 4 0.000000 0.000000 0.000000 -0.012761 0.000000 0.000000
# 5 0.000000 0.000000 0.000000 0.000000 -0.012761 0.000000
# 6 0.000000 0.000000 0.000000 0.000000 0.000000 -0.010436
#
#
# Mechanical properties :
#
#
# Convention : Reuss Voigt Hill
#
# Bulk Modulus (GPa) = 30.61912 33.82279 32.22096
# Shear Modulus (GPa) = 82.42406 -36.93125 22.74641
#
# Velocity S-wave (km/s) = 6.47367 -4.33332 3.40079
# Velocity P-wave (km/s) = 8.45258 2.79995 5.63943
#
# Compressibility (1/GPa) = 0.03265933
#
# Stress axis : x y z
#
# Youngs Moduli (GPa) = 56.26924 56.26924 42.27820
#
# Poissons Ratio (x) = -0.47642 0.45946
# Poissons Ratio (y) = -0.47642 0.45946
# Poissons Ratio (z) = 0.61151 0.61151
#
# Static dielectric constant tensor:
#      x y z
#    x 3.644130 0.000000 0.000000 
#    y 0.000000 3.644130 0.000000 
#    z 0.000000 0.000000 4.709710 
# 
# 
# High freq. dielectric constant tensor:
#      x y z
#    x 1.761320 0.000000 0.000000 
#    y 0.000000 1.761320 0.000000 
#    z 0.000000 0.000000 1.762950 
# 
# From -- ./inp_files/3307.got.cif
#   From: 2010.03.12/outbox.cif.g09.slc.cpg/sg112_2_cif.got.tgz:3307.got - 2010.04.14 02:02:48.
