data_PCOD8308887
_publ_section_title
;
Structure prediction by ZEFSAII (Michael W. Deem and Ramdas Pophale) SiO2 
 PCOD8308887
Probable space group: P -4 21 C
;
_chemical_formula_sum "Si O2"
_cell_formula_units_Z 48
_cell_length_a 15.586349
_cell_length_b 15.586349
_cell_length_c 9.566464
_cell_angle_alpha 90.000000
_cell_angle_beta 90.000000
_cell_angle_gamma 90.000000
_cell_volume 2324.021998
_symmetry_space_group_name_H-M "P -4 21 C"
_symmetry_group_IT_number 114
_symmetry_cell_setting 'tetragonal'
loop_
_space_group_symop_operation_xyz
x,y,z
y,-x,-z
-x,-y,z
-y,x,-z
1/2+x,1/2-y,1/2-z
1/2-x,1/2+y,1/2-z
1/2-y,1/2-x,1/2+z
1/2+y,1/2+x,1/2+z
loop_
_atom_site_type_symbol
_atom_site_label
_atom_site_fract_x
_atom_site_fract_y
_atom_site_fract_z
Si Si1 0.267055 0.082564 0.659396
Si Si2 0.466030 0.825994 0.528651
Si Si3 0.094335 0.010989 0.767633
Si Si4 0.153894 0.701187 0.042598
Si Si5 0.608169 0.354021 0.486691
Si Si6 0.453009 0.908956 0.244995
O O1 0.169482 0.045534 0.665222
O O2 0.272869 0.135741 0.513603
O O3 0.336426 0.006471 0.662364
O O4 0.289994 0.145932 0.789719
O O5 0.567909 0.839376 0.522985
O O6 0.451253 0.725290 0.528802
O O7 0.425544 0.874821 0.396176
O O8 0.423821 0.863856 0.666657
O O9 0.118404 0.917785 0.829583
O O10 0.088943 0.072277 0.902124
O O11 0.000000 0.000000 0.694470
O O12 0.174855 0.793715 0.979383
O O13 0.500000 0.000000 0.255666
#
# Coordination Sequence:
#
# PCOD8308887 Si02
#       6
#     8   8   8   8   8   8
#     4  10  22  37  58  91 121 158 199 251 311 368
#     4  11  22  34  56  89 117 157 196 241 302 367
#     4  11  18  35  62  87 112 153 206 260 296 347
#     4  10  21  37  56  87 123 149 198 249 306 361
#     4  11  18  35  59  88 114 145 204 256 290 349
#     4  11  21  35  57  83 124 157 193 236 302 373
#
# _framework density 20.653849000000001
#
# number of rings (size 3 to 8) (size 9 to 14) (size 15 to 20)
#    0.000    1.333    8.333    0.500    2.333    2.667 
#    0.000    0.000    0.000    0.000    0.000    4.667 
#    0.000    0.000    0.000    0.000    0.000    0.000 
#
# Total GULP energy -594982.270493 kJ/mol
# GULP energy per Si atom -12395.463969 kJ/mol
# Density = 2.060684 g / cm^3
# Si number density = 20.653849 Si / 1000 Ang^3
#
#
#
# Elastic Constant Matrix: (Units=GPa)
#
#
# Indices 1 2 3 4 5 6 
#
# 1 71.2744 1.3858 6.8762 0.0000 0.0000 0.0000
# 2 1.3858 71.2744 6.8762 0.0000 0.0000 0.0000
# 3 6.8762 6.8762 27.4752 0.0000 0.0000 0.0000
# 4 0.0000 0.0000 0.0000 23.7773 0.0000 0.0000
# 5 0.0000 0.0000 0.0000 0.0000 23.7773 0.0000
# 6 0.0000 0.0000 0.0000 0.0000 0.0000 30.7311
#
#
#
# Elastic Compliance Matrix: (Units=1/GPa)
#
#
# Indices 1 2 3 4 5 6 
#
# 1 0.014378 0.000069 -0.003616 0.000000 0.000000 0.000000
# 2 0.000069 0.014378 -0.003616 0.000000 0.000000 0.000000
# 3 -0.003616 -0.003616 0.038206 0.000000 0.000000 0.000000
# 4 0.000000 0.000000 0.000000 0.042057 0.000000 0.000000
# 5 0.000000 0.000000 0.000000 0.000000 0.042057 0.000000
# 6 0.000000 0.000000 0.000000 0.000000 0.000000 0.032540
#
#
# Mechanical properties :
#
#
# Convention : Reuss Voigt Hill
#
# Bulk Modulus (GPa) = 18.99781 22.25562 20.62671
# Shear Modulus (GPa) = 23.20339 25.98288 24.59313
#
# Velocity S-wave (km/s) = 3.35541 3.55070 3.45444
# Velocity P-wave (km/s) = 4.92239 5.25442 5.09111
#
# Compressibility (1/GPa) = 0.05263764
#
# Stress axis : x y z
#
# Youngs Moduli (GPa) = 69.55191 69.55191 26.17374
#
# Poissons Ratio (x) = -0.00482 0.09464
# Poissons Ratio (y) = -0.00482 0.09464
# Poissons Ratio (z) = 0.25148 0.25148
#
# Static dielectric constant tensor:
#      x y z
#    x 3.838400 0.000000 0.000000 
#    y 0.000000 3.838400 0.000000 
#    z 0.000000 0.000000 3.381980 
# 
# 
# High freq. dielectric constant tensor:
#      x y z
#    x 1.810110 0.000000 0.000000 
#    y 0.000000 1.810110 0.000000 
#    z 0.000000 0.000000 1.771100 
# 
# From -- ./inp_files/1652.got.cif
#   From: 2010.03.12/outbox.cif.g09.slc.cpg/sg114_1_cif.got.tgz:1652.got - 2010.04.14 02:08:34.
