data_PCOD8308574
_publ_section_title
;
Structure prediction by ZEFSAII (Michael W. Deem and Ramdas Pophale) SiO2 
 PCOD8308574
Probable space group: P -4 21 M 
;
_chemical_formula_sum "Si O2"
_cell_formula_units_Z 64
_cell_length_a 11.033365
_cell_length_b 11.033365
_cell_length_c 25.054631
_cell_angle_alpha 90.000000
_cell_angle_beta 90.000000
_cell_angle_gamma 90.000000
_cell_volume 3050.029093
_symmetry_space_group_name_H-M "P -4 21 M "
_symmetry_group_IT_number 113
_symmetry_cell_setting 'tetragonal'
loop_
_space_group_symop_operation_xyz
x,y,z
y,-x,-z
-x,-y,z
-y,x,-z
1/2+x,1/2-y,-z
1/2-x,1/2+y,-z
1/2-y,1/2-x,z
1/2+y,1/2+x,z
loop_
_atom_site_type_symbol
_atom_site_label
_atom_site_fract_x
_atom_site_fract_y
_atom_site_fract_z
Si Si1 0.138590 0.823124 0.950485
Si Si2 0.564321 0.747319 0.936006
Si Si3 0.515907 0.693898 0.512189
Si Si4 0.001851 0.301982 0.766245
Si Si5 0.504673 0.187726 0.407153
Si Si6 0.049455 0.125528 0.860740
Si Si7 0.624550 0.672475 0.326453
Si Si8 0.004120 0.697889 0.372552
O O1 0.191472 0.691472 0.935516
O O2 0.023234 0.847366 0.914617
O O3 0.245282 0.919566 0.937514
O O4 0.109283 0.830380 0.013089
O O5 0.615540 0.884461 0.937683
O O6 0.611601 0.686966 0.880869
O O7 0.626024 0.610992 0.493014
O O8 0.511725 0.803952 0.470688
O O9 0.539963 0.741470 0.571486
O O10 0.888925 0.388925 0.779080
O O11 0.041904 0.235623 0.819889
O O12 0.959348 0.195386 0.725458
O O13 0.115697 0.384304 0.745089
O O14 0.642003 0.142003 0.394087
O O15 0.468840 0.312120 0.376591
O O16 0.414673 0.085328 0.384908
O O17 0.000000 0.000000 0.834766
O O18 0.728247 0.771754 0.327788
O O19 0.693867 0.541157 0.331779
O O20 0.893504 0.606497 0.382923
O O21 0.121455 0.621455 0.350492
#
# Coordination Sequence:
#
# PCOD8308574 Si02
#       8
#     8   8   8   8   8   8   8   8
#     4  10  19  32  51  75 108 149 191 232 278 335
#     4  10  19  32  51  75 109 149 188 230 280 337
#     4  11  22  34  49  75 112 152 186 230 287 354
#     4  10  20  36  60  89 118 149 193 250 309 359
#     4  10  19  32  53  78 103 140 186 227 279 346
#     4  10  20  34  56  80 112 152 190 237 285 348
#     4   9  18  35  57  81 113 147 185 240 296 353
#     4  10  20  35  57  83 110 147 194 239 291 355
#
# _framework density 20.983405999999999
#
# number of rings (size 3 to 8) (size 9 to 14) (size 15 to 20)
#    0.000    2.000    2.500    1.875    0.000    4.250 
#    0.000    1.250    0.000    5.250    0.000    3.500 
#    0.000    0.000    0.000    0.000    0.000    0.000 
#
# Total GULP energy -792848.469225 kJ/mol
# GULP energy per Si atom -12388.257332 kJ/mol
# Density = 2.093565 g / cm^3
# Si number density = 20.983406 Si / 1000 Ang^3
#
#
#
# Elastic Constant Matrix: (Units=GPa)
#
#
# Indices 1 2 3 4 5 6 
#
# 1 73.7907 27.6521 24.7805 0.0000 0.0000 0.0000
# 2 27.6521 73.7900 24.7800 0.0000 0.0000 0.0000
# 3 24.7805 24.7800 84.2644 0.0000 0.0000 0.0000
# 4 0.0000 0.0000 0.0000 25.2699 0.0000 0.0000
# 5 0.0000 0.0000 0.0000 0.0000 25.2700 0.0000
# 6 0.0000 0.0000 0.0000 0.0000 0.0000 33.2967
#
#
#
# Elastic Compliance Matrix: (Units=1/GPa)
#
#
# Indices 1 2 3 4 5 6 
#
# 1 0.016593 -0.005081 -0.003385 0.000000 0.000000 0.000000
# 2 -0.005081 0.016593 -0.003385 0.000000 0.000000 0.000000
# 3 -0.003385 -0.003385 0.013859 0.000000 0.000000 0.000000
# 4 0.000000 0.000000 0.000000 0.039573 0.000000 0.000000
# 5 0.000000 0.000000 0.000000 0.000000 0.039573 0.000000
# 6 0.000000 0.000000 0.000000 0.000000 0.000000 0.030033
#
#
# Mechanical properties :
#
#
# Convention : Reuss Voigt Hill
#
# Bulk Modulus (GPa) = 42.84375 42.91892 42.88133
# Shear Modulus (GPa) = 26.63733 27.07615 26.85674
#
# Velocity S-wave (km/s) = 3.56680 3.59606 3.58146
# Velocity P-wave (km/s) = 6.11759 6.14331 6.13047
#
# Compressibility (1/GPa) = 0.02334063
#
# Stress axis : x y z
#
# Youngs Moduli (GPa) = 60.26701 60.26665 72.15780
#
# Poissons Ratio (x) = 0.30622 0.24428
# Poissons Ratio (y) = 0.30623 0.24428
# Poissons Ratio (z) = 0.20403 0.20402
#
# Static dielectric constant tensor:
#      x y z
#    x 3.840540 0.000000 0.000000 
#    y 0.000000 3.840540 0.000000 
#    z 0.000000 0.000000 3.547140 
# 
# 
# High freq. dielectric constant tensor:
#      x y z
#    x 1.816400 0.000000 0.000000 
#    y 0.000000 1.816400 0.000000 
#    z 0.000000 0.000000 1.795740 
# 
# From -- ./inp_files/2928.got.cif
#   From: 2010.03.12/outbox.cif.g09.slc.cpg/sg113_cif.got.tgz:2928.got - 2010.04.14 02:06:34.
