data_PCOD8308267
_publ_section_title
;
Structure prediction by ZEFSAII (Michael W. Deem and Ramdas Pophale) SiO2 
 PCOD8308267
Probable space group: P -4 2 M 
;
_chemical_formula_sum "Si O2"
_cell_formula_units_Z 32
_cell_length_a 13.550969
_cell_length_b 13.550969
_cell_length_c 8.745270
_cell_angle_alpha 90.000000
_cell_angle_beta 90.000000
_cell_angle_gamma 90.000000
_cell_volume 1605.883093
_symmetry_space_group_name_H-M "P -4 2 M "
_symmetry_group_IT_number 111
_symmetry_cell_setting 'tetragonal'
loop_
_space_group_symop_operation_xyz
x,y,z
y,-x,-z
-x,-y,z
-y,x,-z
x,-y,-z
-x,y,-z
-y,-x,z
y,x,z
loop_
_atom_site_type_symbol
_atom_site_label
_atom_site_fract_x
_atom_site_fract_y
_atom_site_fract_z
Si Si1 0.942945 0.397533 0.138560
Si Si2 0.399152 0.240036 0.405788
Si Si3 0.257645 0.902594 0.417803
Si Si4 0.593083 0.249182 0.944022
O O1 0.938921 0.322475 0.276933
O O2 0.000000 0.500000 0.182204
O O3 0.834756 0.416684 0.073036
O O4 0.000000 0.343427 0.000000
O O5 0.500000 0.242923 0.500000
O O6 0.347108 0.347108 0.418277
O O7 0.328285 0.155304 0.467099
O O8 0.420021 0.212107 0.229988
O O9 0.166099 0.833902 0.365627
O O10 0.214852 0.000000 0.500000
O O11 0.696202 0.303799 0.963353
O O12 0.500000 0.317428 0.000000
#
# Coordination Sequence:
#
# PCOD8308267 Si02
#       4
#     8   8   8   8
#     4  11  22  38  64  99 125 165 213 263 323 377
#     4  10  23  39  61  93 129 172 216 260 313 374
#     4  11  25  42  65  95 126 168 212 267 325 379
#     4  11  22  39  59  89 131 169 210 257 308 373
#
# _framework density 19.926732000000001
#
# number of rings (size 3 to 8) (size 9 to 14) (size 15 to 20)
#    0.000    1.250    2.500    3.750    3.500    3.750 
#    0.000    3.750    0.000    0.000    0.000    0.000 
#    0.000    0.000    0.000    0.000    0.000    0.000 
#
# Total GULP energy -396514.486378 kJ/mol
# GULP energy per Si atom -12391.077699 kJ/mol
# Density = 1.988138 g / cm^3
# Si number density = 19.926732 Si / 1000 Ang^3
#
#
#
# Elastic Constant Matrix: (Units=GPa)
#
#
# Indices 1 2 3 4 5 6 
#
# 1 108.8741 58.1259 57.6666 0.0000 0.0000 0.0000
# 2 58.1259 108.8771 57.6675 0.0000 0.0000 0.0000
# 3 57.6666 57.6675 121.0176 0.0000 0.0000 0.0000
# 4 0.0000 0.0000 0.0000 29.4917 0.0000 0.0000
# 5 0.0000 0.0000 0.0000 0.0000 29.4904 0.0000
# 6 0.0000 0.0000 0.0000 0.0000 0.0000 23.9931
#
#
#
# Elastic Compliance Matrix: (Units=1/GPa)
#
#
# Indices 1 2 3 4 5 6 
#
# 1 0.014315 -0.005390 -0.004253 0.000000 0.000000 0.000000
# 2 -0.005390 0.014315 -0.004253 0.000000 0.000000 0.000000
# 3 -0.004253 -0.004253 0.012317 0.000000 0.000000 0.000000
# 4 0.000000 0.000000 0.000000 0.033908 0.000000 0.000000
# 5 0.000000 0.000000 0.000000 0.000000 0.033909 0.000000
# 6 0.000000 0.000000 0.000000 0.000000 0.000000 0.041679
#
#
# Mechanical properties :
#
#
# Convention : Reuss Voigt Hill
#
# Bulk Modulus (GPa) = 76.01761 76.18767 76.10264
# Shear Modulus (GPa) = 27.37948 27.61561 27.49754
#
# Velocity S-wave (km/s) = 3.71078 3.72675 3.71877
# Velocity P-wave (km/s) = 7.52272 7.53891 7.53082
#
# Compressibility (1/GPa) = 0.01315485
#
# Stress axis : x y z
#
# Youngs Moduli (GPa) = 69.85654 69.85836 81.19169
#
# Poissons Ratio (x) = 0.37652 0.34531
# Poissons Ratio (y) = 0.37651 0.34531
# Poissons Ratio (z) = 0.29710 0.29711
#
# Static dielectric constant tensor:
#      x y z
#    x 3.730550 0.000000 0.000000 
#    y 0.000000 3.730560 0.000000 
#    z 0.000000 0.000000 3.819710 
# 
# 
# High freq. dielectric constant tensor:
#      x y z
#    x 1.773360 0.000000 0.000000 
#    y 0.000000 1.773360 0.000000 
#    z 0.000000 0.000000 1.793140 
# 
# From -- ./inp_files/1301.got.cif
#   From: 2010.03.12/outbox.cif.g09.slc.cpg/sg111_1_cif.got.tgz:1301.got - 2010.04.14 01:59:48.
