data_PCOD8308171
_publ_section_title
;
Structure prediction by ZEFSAII (Michael W. Deem and Ramdas Pophale) SiO2 
 PCOD8308171
Probable space group: P -4 2 M 
;
_chemical_formula_sum "Si O2"
_cell_formula_units_Z 36
_cell_length_a 14.541477
_cell_length_b 14.541477
_cell_length_c 9.559826
_cell_angle_alpha 90.000000
_cell_angle_beta 90.000000
_cell_angle_gamma 90.000000
_cell_volume 2021.468737
_symmetry_space_group_name_H-M "P -4 2 M "
_symmetry_group_IT_number 111
_symmetry_cell_setting 'tetragonal'
loop_
_space_group_symop_operation_xyz
x,y,z
y,-x,-z
-x,-y,z
-y,x,-z
x,-y,-z
-x,y,-z
-y,-x,z
y,x,z
loop_
_atom_site_type_symbol
_atom_site_label
_atom_site_fract_x
_atom_site_fract_y
_atom_site_fract_z
Si Si1 0.267427 0.121643 0.142212
Si Si2 0.621643 0.232574 0.357787
Si Si3 0.819906 0.576720 0.335078
Si Si4 0.500000 0.000000 0.250001
Si Si5 0.076720 0.319906 0.835077
O O1 0.169949 0.169949 0.173217
O O2 0.348446 0.183415 0.211408
O O3 0.261768 0.016579 0.200170
O O4 0.285325 0.122670 0.976788
O O5 0.669949 0.330052 0.326781
O O6 0.622670 0.214676 0.523212
O O7 0.516579 0.238233 0.299831
O O8 0.683415 0.151555 0.288591
O O9 0.925218 0.544262 0.354016
O O10 0.425219 0.955738 0.145986
#
# Coordination Sequence:
#
# PCOD8308171 Si02
#       5
#     8   8   8   4   8
#     4  10  19  32  49  72 102 130 160 198 241 290
#     4  10  19  32  49  72 102 130 160 198 241 290
#     4   9  19  31  50  74  99 126 160 202 248 288
#     4   8  16  30  48  74 100 122 156 210 256 286
#     4   9  19  31  50  74  99 126 160 202 248 288
#
# _framework density 17.808833
#
# number of rings (size 3 to 8) (size 9 to 14) (size 15 to 20)
#    0.000    2.667    0.000    1.333    0.000   26.667 
#    0.000    0.000    0.000   22.667    0.000    0.000 
#    0.000   64.000    0.000    0.000    0.000    0.000 
#
# Total GULP energy -446027.715858 kJ/mol
# GULP energy per Si atom -12389.658774 kJ/mol
# Density = 1.776830 g / cm^3
# Si number density = 17.808833 Si / 1000 Ang^3
#
#
#
# Elastic Constant Matrix: (Units=GPa)
#
#
# Indices 1 2 3 4 5 6 
#
# 1 86.0915 57.5318 37.2869 0.0000 0.0000 0.0000
# 2 57.5318 86.0884 37.2868 0.0000 0.0000 0.0000
# 3 37.2869 37.2868 55.6139 0.0000 0.0000 0.0000
# 4 0.0000 0.0000 0.0000 21.9680 0.0000 0.0000
# 5 0.0000 0.0000 0.0000 0.0000 21.9682 0.0000
# 6 0.0000 0.0000 0.0000 0.0000 0.0000 40.4908
#
#
#
# Elastic Compliance Matrix: (Units=1/GPa)
#
#
# Indices 1 2 3 4 5 6 
#
# 1 0.022848 -0.012168 -0.007161 0.000000 0.000000 0.000000
# 2 -0.012168 0.022849 -0.007162 0.000000 0.000000 0.000000
# 3 -0.007161 -0.007162 0.027584 0.000000 0.000000 0.000000
# 4 0.000000 0.000000 0.000000 0.045521 0.000000 0.000000
# 5 0.000000 0.000000 0.000000 0.000000 0.045520 0.000000
# 6 0.000000 0.000000 0.000000 0.000000 0.000000 0.024697
#
#
# Mechanical properties :
#
#
# Convention : Reuss Voigt Hill
#
# Bulk Modulus (GPa) = 49.25869 54.66720 51.96294
# Shear Modulus (GPa) = 20.09919 23.26462 21.68191
#
# Velocity S-wave (km/s) = 3.36312 3.61827 3.49303
# Velocity P-wave (km/s) = 6.54221 6.94400 6.74610
#
# Compressibility (1/GPa) = 0.02030099
#
# Stress axis : x y z
#
# Youngs Moduli (GPa) = 43.76735 43.76515 36.25323
#
# Poissons Ratio (x) = 0.53251 0.25960
# Poissons Ratio (y) = 0.53254 0.25963
# Poissons Ratio (z) = 0.31341 0.31343
#
# Static dielectric constant tensor:
#      x y z
#    x 3.313120 0.000000 0.000000 
#    y 0.000000 3.313120 0.000000 
#    z 0.000000 0.000000 3.113780 
# 
# 
# High freq. dielectric constant tensor:
#      x y z
#    x 1.674710 0.000000 0.000000 
#    y 0.000000 1.674710 0.000000 
#    z 0.000000 0.000000 1.678220 
# 
# From -- ./inp_files/1409.got.cif
#   From: 2010.03.12/outbox.cif.g09.slc.cpg/sg111_1_cif.got.tgz:1409.got - 2010.04.14 01:59:48.
