data_PCOD8308969
_publ_section_title
;
Structure prediction by ZEFSAII (Michael W. Deem and Ramdas Pophale) SiO2 
 PCOD8308969
Probable space group: P -4 21 C
;
_chemical_formula_sum "Si O2"
_cell_formula_units_Z 40
_cell_length_a 14.021906
_cell_length_b 14.021906
_cell_length_c 9.581594
_cell_angle_alpha 90.000000
_cell_angle_beta 90.000000
_cell_angle_gamma 90.000000
_cell_volume 1883.874065
_symmetry_space_group_name_H-M "P -4 21 C"
_symmetry_group_IT_number 114
_symmetry_cell_setting 'tetragonal'
loop_
_space_group_symop_operation_xyz
x,y,z
y,-x,-z
-x,-y,z
-y,x,-z
1/2+x,1/2-y,1/2-z
1/2-x,1/2+y,1/2-z
1/2-y,1/2-x,1/2+z
1/2+y,1/2+x,1/2+z
loop_
_atom_site_type_symbol
_atom_site_label
_atom_site_fract_x
_atom_site_fract_y
_atom_site_fract_z
Si Si1 0.480757 0.852327 0.535543
Si Si2 0.147233 0.026636 0.966332
Si Si3 0.900806 0.320044 0.547083
Si Si4 0.406772 0.828175 0.819605
Si Si5 0.656311 0.730047 0.241919
O O1 0.519078 0.743954 0.555659
O O2 0.569077 0.919457 0.493054
O O3 0.439728 0.887594 0.683121
O O4 0.400388 0.849723 0.417342
O O5 0.172834 0.069097 0.813802
O O6 0.902319 0.076660 0.949317
O O7 0.820424 0.312324 0.665642
O O8 0.873443 0.259247 0.412722
O O9 0.001606 0.282176 0.603801
O O10 0.338031 0.746059 0.767678
#
# Coordination Sequence:
#
# PCOD8308969 Si02
#       5
#     8   8   8   8   8
#     4  11  25  42  70 102 139 185 228 299 364 430
#     4  10  22  44  71  99 139 192 240 288 358 433
#     4  11  25  46  69 100 151 177 244 302 357 440
#     4  12  25  44  70 105 138 186 238 292 369 424
#     4  11  24  46  70 107 137 193 240 300 360 432
#
# _framework density 21.232844
#
# number of rings (size 3 to 8) (size 9 to 14) (size 15 to 20)
#    0.000    1.000    4.000    1.800    8.400    1.600 
#    3.600    0.000    0.000    0.000    0.000    0.000 
#    0.000    0.000    0.000    0.000    0.000    0.000 
#
# Total GULP energy -496153.247563 kJ/mol
# GULP energy per Si atom -12403.831189 kJ/mol
# Density = 2.118452 g / cm^3
# Si number density = 21.232844 Si / 1000 Ang^3
#
#
#
# Elastic Constant Matrix: (Units=GPa)
#
#
# Indices 1 2 3 4 5 6 
#
# 1 64.9316 19.6791 15.4150 0.0000 0.0000 0.0000
# 2 19.6791 64.9316 15.4150 0.0000 0.0000 0.0000
# 3 15.4150 15.4150 96.8510 0.0000 0.0000 0.0000
# 4 0.0000 0.0000 0.0000 41.8695 0.0000 0.0000
# 5 0.0000 0.0000 0.0000 0.0000 41.8695 0.0000
# 6 0.0000 0.0000 0.0000 0.0000 0.0000 30.4822
#
#
#
# Elastic Compliance Matrix: (Units=1/GPa)
#
#
# Indices 1 2 3 4 5 6 
#
# 1 0.017322 -0.004776 -0.001997 0.000000 0.000000 0.000000
# 2 -0.004776 0.017322 -0.001997 0.000000 0.000000 0.000000
# 3 -0.001997 -0.001997 0.010961 0.000000 0.000000 0.000000
# 4 0.000000 0.000000 0.000000 0.023884 0.000000 0.000000
# 5 0.000000 0.000000 0.000000 0.000000 0.023884 0.000000
# 6 0.000000 0.000000 0.000000 0.000000 0.000000 0.032806
#
#
# Mechanical properties :
#
#
# Convention : Reuss Voigt Hill
#
# Bulk Modulus (GPa) = 35.63020 36.41468 36.02244
# Shear Modulus (GPa) = 32.66397 34.59124 33.62760
#
# Velocity S-wave (km/s) = 3.92646 4.04064 3.98396
# Velocity P-wave (km/s) = 6.11337 6.24151 6.17777
#
# Compressibility (1/GPa) = 0.02806608
#
# Stress axis : x y z
#
# Youngs Moduli (GPa) = 57.72888 57.72888 91.23417
#
# Poissons Ratio (x) = 0.27571 0.18219
# Poissons Ratio (y) = 0.27571 0.18219
# Poissons Ratio (z) = 0.11528 0.11528
#
# Static dielectric constant tensor:
#      x y z
#    x 3.911070 0.000000 0.000000 
#    y 0.000000 3.911070 0.000000 
#    z 0.000000 0.000000 3.888580 
# 
# 
# High freq. dielectric constant tensor:
#      x y z
#    x 1.837040 0.000000 0.000000 
#    y 0.000000 1.837040 0.000000 
#    z 0.000000 0.000000 1.836920 
# 
# From -- ./inp_files/770.got.cif
#   From: 2010.03.12/outbox.cif.g09.slc.cpg/sg114_1_cif.got.tgz:770.got - 2010.04.14 02:08:34.
