data_PCOD8308166
_publ_section_title
;
Structure prediction by ZEFSAII (Michael W. Deem and Ramdas Pophale) SiO2 
 PCOD8308166
Probable space group: P -4 2 M 
;
_chemical_formula_sum "Si O2"
_cell_formula_units_Z 56
_cell_length_a 11.704659
_cell_length_b 11.704659
_cell_length_c 22.824339
_cell_angle_alpha 90.000000
_cell_angle_beta 90.000000
_cell_angle_gamma 90.000000
_cell_volume 3126.912584
_symmetry_space_group_name_H-M "P -4 2 M "
_symmetry_group_IT_number 111
_symmetry_cell_setting 'tetragonal'
loop_
_space_group_symop_operation_xyz
x,y,z
y,-x,-z
-x,-y,z
-y,x,-z
x,-y,-z
-x,y,-z
-y,-x,z
y,x,z
loop_
_atom_site_type_symbol
_atom_site_label
_atom_site_fract_x
_atom_site_fract_y
_atom_site_fract_z
Si Si1 0.282822 0.897510 0.888994
Si Si2 0.549361 0.268564 0.936334
Si Si3 0.650745 0.833210 0.240929
Si Si4 0.372140 0.977375 0.335957
Si Si5 0.845774 0.663804 0.873499
Si Si6 0.604288 0.785019 0.748465
Si Si7 0.186102 0.001454 0.433076
O O1 0.150120 0.849881 0.891540
O O2 0.354975 0.830629 0.938421
O O3 0.335736 0.868380 0.826149
O O4 0.304558 0.031177 0.901424
O O5 0.613548 0.386452 0.914130
O O6 0.448145 0.221996 0.895490
O O7 0.500000 0.292626 0.000000
O O8 0.747608 0.747608 0.262158
O O9 0.530802 0.769335 0.248461
O O10 0.660658 0.942446 0.281927
O O11 0.359207 0.849419 0.311079
O O12 0.294548 0.997342 0.391795
O O13 0.500000 0.000000 0.357713
O O14 0.772041 0.772041 0.891306
O O15 0.858886 0.649820 0.803702
O O16 0.659665 0.659665 0.748444
O O17 0.106436 0.893565 0.420013
O O18 0.228628 0.000000 0.500000
O O19 0.117184 0.117184 0.420196
#
# Coordination Sequence:
#
# PCOD8308166 Si02
#       7
#     8   8   8   8   8   8   8
#     4  10  21  38  58  79 109 146 185 227 275 328
#     4  11  24  41  62  85 110 142 182 231 280 337
#     4  10  19  33  52  75 104 141 180 220 266 322
#     4  10  19  31  52  76 106 145 177 223 266 320
#     4  11  22  36  57  81 112 146 178 227 282 328
#     4  10  20  32  49  76 107 140 177 219 270 325
#     4   9  18  33  52  75 107 145 184 227 270 312
#
# _framework density 17.909040000000001
#
# number of rings (size 3 to 8) (size 9 to 14) (size 15 to 20)
#    0.000    1.857    2.857    2.143    0.000    3.000 
#    0.000    1.429    0.000    0.000    0.000    2.000 
#    0.000    0.000    0.000   26.571    0.000    0.143 
#
# Total GULP energy -694050.087075 kJ/mol
# GULP energy per Si atom -12393.751555 kJ/mol
# Density = 1.786828 g / cm^3
# Si number density = 17.909040 Si / 1000 Ang^3
#
#
#
# Elastic Constant Matrix: (Units=GPa)
#
#
# Indices 1 2 3 4 5 6 
#
# 1 95.6749 57.1502 37.3914 0.0000 0.0000 0.0000
# 2 57.1502 95.6737 37.3913 0.0000 0.0000 0.0000
# 3 37.3914 37.3913 57.8650 0.0000 0.0000 0.0000
# 4 0.0000 0.0000 0.0000 21.3284 0.0000 0.0000
# 5 0.0000 0.0000 0.0000 0.0000 21.3286 0.0000
# 6 0.0000 0.0000 0.0000 0.0000 0.0000 24.7897
#
#
#
# Elastic Compliance Matrix: (Units=1/GPa)
#
#
# Indices 1 2 3 4 5 6 
#
# 1 0.017763 -0.008194 -0.006183 0.000000 0.000000 0.000000
# 2 -0.008194 0.017764 -0.006184 0.000000 0.000000 0.000000
# 3 -0.006183 -0.006184 0.025273 0.000000 0.000000 0.000000
# 4 0.000000 0.000000 0.000000 0.046886 0.000000 0.000000
# 5 0.000000 0.000000 0.000000 0.000000 0.046885 0.000000
# 6 0.000000 0.000000 0.000000 0.000000 0.000000 0.040339
#
#
# Mechanical properties :
#
#
# Convention : Reuss Voigt Hill
#
# Bulk Modulus (GPa) = 50.81949 57.00883 53.91416
# Shear Modulus (GPa) = 20.61072 21.30805 20.95938
#
# Velocity S-wave (km/s) = 3.39611 3.45308 3.42471
# Velocity P-wave (km/s) = 6.61937 6.91375 6.76816
#
# Compressibility (1/GPa) = 0.01967749
#
# Stress axis : x y z
#
# Youngs Moduli (GPa) = 56.29563 56.29471 39.56802
#
# Poissons Ratio (x) = 0.46129 0.24467
# Poissons Ratio (y) = 0.46130 0.24467
# Poissons Ratio (z) = 0.34810 0.34810
#
# Static dielectric constant tensor:
#      x y z
#    x 3.361280 0.000000 0.000000 
#    y 0.000000 3.361280 0.000000 
#    z 0.000000 0.000000 3.168180 
# 
# 
# High freq. dielectric constant tensor:
#      x y z
#    x 1.694910 0.000000 0.000000 
#    y 0.000000 1.694910 0.000000 
#    z 0.000000 0.000000 1.675570 
# 
# From -- ./inp_files/3956.got.cif
#   From: 2010.03.12/outbox.cif.g09.slc.cpg/sg111_2_cif.got.tgz:3956.got - 2010.04.14 01:59:48.
