data_PCOD8308299
_publ_section_title
;
Structure prediction by ZEFSAII (Michael W. Deem and Ramdas Pophale) SiO2 
 PCOD8308299
Probable space group: P -4 2 M 
;
_chemical_formula_sum "Si O2"
_cell_formula_units_Z 56
_cell_length_a 13.002508
_cell_length_b 13.002508
_cell_length_c 19.493248
_cell_angle_alpha 90.000000
_cell_angle_beta 90.000000
_cell_angle_gamma 90.000000
_cell_volume 3295.630150
_symmetry_space_group_name_H-M "P -4 2 M "
_symmetry_group_IT_number 111
_symmetry_cell_setting 'tetragonal'
loop_
_space_group_symop_operation_xyz
x,y,z
y,-x,-z
-x,-y,z
-y,x,-z
x,-y,-z
-x,y,-z
-y,-x,z
y,x,z
loop_
_atom_site_type_symbol
_atom_site_label
_atom_site_fract_x
_atom_site_fract_y
_atom_site_fract_z
Si Si1 0.720880 0.114344 0.691216
Si Si2 0.878241 0.500000 0.922441
Si Si3 0.615653 0.782085 0.423904
Si Si4 0.878933 0.708010 0.152738
Si Si5 0.708010 0.878934 0.847263
Si Si6 0.279123 0.885654 0.308783
Si Si7 0.217917 0.615652 0.423904
O O1 0.817470 0.182531 0.671320
O O2 0.632453 0.131848 0.634515
O O3 0.679475 0.136804 0.767532
O O4 0.762432 0.999999 0.686294
O O5 0.839930 0.394177 0.886901
O O6 0.839929 0.605824 0.886902
O O7 0.000000 0.500000 0.919621
O O8 0.836391 0.500000 0.000000
O O9 0.683059 0.683059 0.406647
O O10 0.641036 0.826918 0.500001
O O11 0.500001 0.743126 0.420357
O O12 0.806969 0.806969 0.132825
O O13 1.000000 0.733851 0.136697
O O14 0.806969 0.806969 0.867174
O O15 0.679471 0.863198 0.767534
O O16 0.182537 0.817464 0.328678
O O17 0.367550 0.868151 0.365484
O O18 0.316944 0.683057 0.406647
#
# Coordination Sequence:
#
# PCOD8308299 Si02
#       7
#     8   8   8   8   8   8   8
#     4   9  18  31  47  68  94 124 157 195 237 281
#     4   9  18  32  50  73 100 130 162 194 235 293
#     4   9  18  31  46  66  92 122 158 200 243 285
#     4   9  18  32  51  75 101 131 166 204 246 290
#     4   9  18  32  51  75 101 131 166 204 246 290
#     4   9  18  31  47  68  94 124 157 195 237 281
#     4   9  18  31  46  66  92 122 158 200 243 285
#
# _framework density 16.992198999999999
#
# number of rings (size 3 to 8) (size 9 to 14) (size 15 to 20)
#    0.000    3.000    0.000    0.000    2.000    2.571 
#    0.000    5.714    0.000    0.429    0.000    9.000 
#    0.000    0.000    0.000    0.000    0.000    0.000 
#
# Total GULP energy -693926.464598 kJ/mol
# GULP energy per Si atom -12391.544011 kJ/mol
# Density = 1.695352 g / cm^3
# Si number density = 16.992199 Si / 1000 Ang^3
#
#
#
# Elastic Constant Matrix: (Units=GPa)
#
#
# Indices 1 2 3 4 5 6 
#
# 1 87.0493 39.5686 51.0323 0.0000 0.0000 0.0000
# 2 39.5686 87.0494 51.0323 0.0000 0.0000 0.0000
# 3 51.0323 51.0323 106.8960 0.0000 0.0000 0.0000
# 4 0.0000 0.0000 0.0000 23.8948 0.0000 0.0000
# 5 0.0000 0.0000 0.0000 0.0000 23.8947 0.0000
# 6 0.0000 0.0000 0.0000 0.0000 0.0000 15.5607
#
#
#
# Elastic Compliance Matrix: (Units=1/GPa)
#
#
# Indices 1 2 3 4 5 6 
#
# 1 0.016950 -0.004111 -0.006129 0.000000 0.000000 0.000000
# 2 -0.004111 0.016950 -0.006129 0.000000 0.000000 0.000000
# 3 -0.006129 -0.006129 0.015207 0.000000 0.000000 0.000000
# 4 0.000000 0.000000 0.000000 0.041850 0.000000 0.000000
# 5 0.000000 0.000000 0.000000 0.000000 0.041850 0.000000
# 6 0.000000 0.000000 0.000000 0.000000 0.000000 0.064265
#
#
# Mechanical properties :
#
#
# Convention : Reuss Voigt Hill
#
# Bulk Modulus (GPa) = 61.09709 62.69565 61.89637
# Shear Modulus (GPa) = 21.25254 21.96080 21.60667
#
# Velocity S-wave (km/s) = 3.54039 3.59890 3.56977
# Velocity P-wave (km/s) = 7.26268 7.36521 7.31412
#
# Compressibility (1/GPa) = 0.01636739
#
# Stress axis : x y z
#
# Youngs Moduli (GPa) = 58.99799 58.99808 65.75970
#
# Poissons Ratio (x) = 0.24257 0.40304
# Poissons Ratio (y) = 0.24257 0.40304
# Poissons Ratio (z) = 0.36160 0.36160
#
# Static dielectric constant tensor:
#      x y z
#    x 3.118430 0.000000 0.000000 
#    y 0.000000 3.118430 0.000000 
#    z 0.000000 0.000000 3.466630 
# 
# 
# High freq. dielectric constant tensor:
#      x y z
#    x 1.640210 0.000000 0.000000 
#    y 0.000000 1.640210 0.000000 
#    z 0.000000 0.000000 1.665080 
# 
# From -- ./inp_files/4005.got.cif
#   From: 2010.03.12/outbox.cif.g09.slc.cpg/sg111_3_cif.got.tgz:4005.got - 2010.04.14 01:59:48.
