data_PCOD8308121
_publ_section_title
;
Structure prediction by ZEFSAII (Michael W. Deem and Ramdas Pophale) SiO2 
 PCOD8308121
Probable space group: P -4 2 M 
;
_chemical_formula_sum "Si O2"
_cell_formula_units_Z 56
_cell_length_a 12.666801
_cell_length_b 12.666801
_cell_length_c 20.349332
_cell_angle_alpha 90.000000
_cell_angle_beta 90.000000
_cell_angle_gamma 90.000000
_cell_volume 3265.006519
_symmetry_space_group_name_H-M "P -4 2 M "
_symmetry_group_IT_number 111
_symmetry_cell_setting 'tetragonal'
loop_
_space_group_symop_operation_xyz
x,y,z
y,-x,-z
-x,-y,z
-y,x,-z
x,-y,-z
-x,y,-z
-y,-x,z
y,x,z
loop_
_atom_site_type_symbol
_atom_site_label
_atom_site_fract_x
_atom_site_fract_y
_atom_site_fract_z
Si Si1 0.922766 0.242993 0.447034
Si Si2 0.116099 0.623099 0.004097
Si Si3 0.989113 0.618465 0.209353
Si Si4 0.780569 0.390185 0.533369
Si Si5 0.789903 0.377517 0.867685
Si Si6 0.373096 0.202123 0.854699
Si Si7 0.391188 0.051747 0.361652
O O1 0.843563 0.156438 0.417763
O O2 0.862935 0.335859 0.484759
O O3 0.000000 0.187885 0.500000
O O4 0.986482 0.290758 0.386653
O O5 0.193675 0.650356 0.944132
O O6 0.096174 0.500000 0.000000
O O7 0.170865 0.658159 0.071452
O O8 0.000000 0.678045 0.000000
O O9 0.106176 0.664863 0.194234
O O10 0.000000 0.500000 0.182687
O O11 0.894306 0.669966 0.167955
O O12 0.949305 0.621711 0.283928
O O13 0.751090 0.500000 0.500000
O O14 0.672423 0.327578 0.540454
O O15 0.831350 0.395280 0.606564
O O16 0.686271 0.313729 0.843637
O O17 0.772130 0.501484 0.850351
O O18 0.306358 0.306358 0.834485
O O19 0.500000 0.000000 0.384574
#
# Coordination Sequence:
#
# PCOD8308121 Si02
#       7
#     8   8   8   8   8   8   8
#     4   9  18  30  49  74  98 125 159 200 249 298
#     4   9  15  28  51  74  99 132 176 224 266 308
#     4   9  19  33  50  75  99 136 182 217 252 302
#     4  10  19  32  52  78 105 135 168 204 253 308
#     4  10  19  32  51  75 105 140 177 216 263 320
#     4  10  19  32  51  78 108 135 174 223 268 314
#     4  10  18  32  54  74  99 133 174 217 250 292
#
# _framework density 17.151572999999999
#
# number of rings (size 3 to 8) (size 9 to 14) (size 15 to 20)
#    0.000    2.429    2.857    0.429    0.000    1.714 
#    0.000    0.000    0.000    3.000    0.000    5.000 
#    0.000    0.000    0.000    0.000    0.000    0.000 
#
# Total GULP energy -693918.117974 kJ/mol
# GULP energy per Si atom -12391.394964 kJ/mol
# Density = 1.711254 g / cm^3
# Si number density = 17.151573 Si / 1000 Ang^3
#
#
#
# Elastic Constant Matrix: (Units=GPa)
#
#
# Indices 1 2 3 4 5 6 
#
# 1 86.7824 53.8155 34.4410 0.0000 0.0000 0.0000
# 2 53.8155 86.7802 34.4412 0.0000 0.0000 0.0000
# 3 34.4410 34.4412 77.8549 0.0000 0.0000 0.0000
# 4 0.0000 0.0000 0.0000 16.1365 0.0000 0.0000
# 5 0.0000 0.0000 0.0000 0.0000 16.1370 0.0000
# 6 0.0000 0.0000 0.0000 0.0000 0.0000 16.4798
#
#
#
# Elastic Compliance Matrix: (Units=1/GPa)
#
#
# Indices 1 2 3 4 5 6 
#
# 1 0.019707 -0.010627 -0.004017 0.000000 0.000000 0.000000
# 2 -0.010627 0.019708 -0.004017 0.000000 0.000000 0.000000
# 3 -0.004017 -0.004017 0.016398 0.000000 0.000000 0.000000
# 4 0.000000 0.000000 0.000000 0.061971 0.000000 0.000000
# 5 0.000000 0.000000 0.000000 0.000000 0.061970 0.000000
# 6 0.000000 0.000000 0.000000 0.000000 0.000000 0.060681
#
#
# Mechanical properties :
#
#
# Convention : Reuss Voigt Hill
#
# Bulk Modulus (GPa) = 54.07878 55.20143 54.64011
# Shear Modulus (GPa) = 17.61054 18.33195 17.97125
#
# Velocity S-wave (km/s) = 3.20778 3.27283 3.24047
# Velocity P-wave (km/s) = 6.73188 6.82175 6.77696
#
# Compressibility (1/GPa) = 0.01849154
#
# Stress axis : x y z
#
# Youngs Moduli (GPa) = 50.74290 50.74121 60.98122
#
# Poissons Ratio (x) = 0.53922 0.24495
# Poissons Ratio (y) = 0.53924 0.24497
# Poissons Ratio (z) = 0.20383 0.20384
#
# Static dielectric constant tensor:
#      x y z
#    x 3.107340 0.000000 0.000000 
#    y 0.000000 3.107340 0.000000 
#    z 0.000000 0.000000 3.106660 
# 
# 
# High freq. dielectric constant tensor:
#      x y z
#    x 1.646950 0.000000 0.000000 
#    y 0.000000 1.646950 0.000000 
#    z 0.000000 0.000000 1.657440 
# 
# From -- ./inp_files/3952.got.cif
#   From: 2010.03.12/outbox.cif.g09.slc.cpg/sg111_2_cif.got.tgz:3952.got - 2010.04.14 01:59:48.
