data_PCOD8308594
_publ_section_title
;
Structure prediction by ZEFSAII (Michael W. Deem and Ramdas Pophale) SiO2 
 PCOD8308594
Probable space group: P -4 21 M 
;
_chemical_formula_sum "Si O2"
_cell_formula_units_Z 56
_cell_length_a 15.031616
_cell_length_b 15.031616
_cell_length_c 12.463861
_cell_angle_alpha 90.000000
_cell_angle_beta 90.000000
_cell_angle_gamma 90.000000
_cell_volume 2816.202906
_symmetry_space_group_name_H-M "P -4 21 M "
_symmetry_group_IT_number 113
_symmetry_cell_setting 'tetragonal'
loop_
_space_group_symop_operation_xyz
x,y,z
y,-x,-z
-x,-y,z
-y,x,-z
1/2+x,1/2-y,-z
1/2-x,1/2+y,-z
1/2-y,1/2-x,z
1/2+y,1/2+x,z
loop_
_atom_site_type_symbol
_atom_site_label
_atom_site_fract_x
_atom_site_fract_y
_atom_site_fract_z
Si Si1 0.168879 0.819894 0.568103
Si Si2 0.765023 0.121546 0.796794
Si Si3 0.646893 0.292965 0.194247
Si Si4 0.206986 0.565217 0.245889
Si Si5 0.121058 0.920091 0.988045
Si Si6 0.501090 0.135662 0.544213
Si Si7 0.461079 0.719521 0.400116
O O1 0.231936 0.731936 0.543433
O O2 0.206495 0.869426 0.673179
O O3 0.162921 0.890917 0.470952
O O4 0.065973 0.798414 0.588039
O O5 0.701550 0.201550 0.832459
O O6 0.714138 0.027941 0.816610
O O7 0.851010 0.122266 0.874077
O O8 0.702296 0.202296 0.197154
O O9 0.706302 0.376554 0.227356
O O10 0.607228 0.306375 0.076441
O O11 0.564522 0.286671 0.275971
O O12 0.118114 0.618114 0.208365
O O13 0.203376 0.544741 0.372971
O O14 0.026247 0.881292 0.022130
O O15 0.575454 0.075454 0.606004
O O16 0.551458 0.181686 0.446051
O O17 0.426240 0.073761 0.491887
#
# Coordination Sequence:
#
# PCOD8308594 Si02
#       7
#     8   8   8   8   8   8   8
#     4  11  25  42  62  92 126 167 211 255 312 371
#     4  11  22  41  64  88 121 160 208 261 312 366
#     4  11  23  40  62  89 121 160 204 251 308 372
#     4  10  20  37  60  89 122 155 203 261 309 360
#     4  11  23  41  63  89 121 159 206 254 308 376
#     4  10  19  33  57  87 120 162 207 251 302 359
#     4  12  23  39  59  89 130 166 203 251 305 372
#
# _framework density 19.884931000000002
#
# number of rings (size 3 to 8) (size 9 to 14) (size 15 to 20)
#    0.000    1.143    2.857    4.286    0.000    2.286 
#    0.000    0.000    0.000    0.857    0.000    0.000 
#    0.000    0.000    0.000    0.000    0.000    0.000 
#
# Total GULP energy -694060.481510 kJ/mol
# GULP energy per Si atom -12393.937170 kJ/mol
# Density = 1.983967 g / cm^3
# Si number density = 19.884931 Si / 1000 Ang^3
#
#
#
# Elastic Constant Matrix: (Units=GPa)
#
#
# Indices 1 2 3 4 5 6 
#
# 1 91.8387 34.4000 15.3361 0.0000 0.0000 0.0000
# 2 34.4000 91.8387 15.3363 0.0000 0.0000 0.0000
# 3 15.3361 15.3363 72.9860 0.0000 0.0000 0.0000
# 4 0.0000 0.0000 0.0000 30.5615 0.0000 0.0000
# 5 0.0000 0.0000 0.0000 0.0000 30.5615 0.0000
# 6 0.0000 0.0000 0.0000 0.0000 0.0000 28.7477
#
#
#
# Elastic Compliance Matrix: (Units=1/GPa)
#
#
# Indices 1 2 3 4 5 6 
#
# 1 0.012879 -0.004531 -0.001754 0.000000 0.000000 0.000000
# 2 -0.004531 0.012879 -0.001754 0.000000 0.000000 0.000000
# 3 -0.001754 -0.001754 0.014438 0.000000 0.000000 0.000000
# 4 0.000000 0.000000 0.000000 0.032721 0.000000 0.000000
# 5 0.000000 0.000000 0.000000 0.000000 0.032721 0.000000
# 6 0.000000 0.000000 0.000000 0.000000 0.000000 0.034785
#
#
# Mechanical properties :
#
#
# Convention : Reuss Voigt Hill
#
# Bulk Modulus (GPa) = 41.46360 42.97868 42.22114
# Shear Modulus (GPa) = 30.38762 30.74688 30.56725
#
# Velocity S-wave (km/s) = 3.91343 3.93649 3.92498
# Velocity P-wave (km/s) = 6.42782 6.50553 6.46679
#
# Compressibility (1/GPa) = 0.02411754
#
# Stress axis : x y z
#
# Youngs Moduli (GPa) = 77.64719 77.64717 69.25978
#
# Poissons Ratio (x) = 0.35183 0.12148
# Poissons Ratio (y) = 0.35183 0.12149
# Poissons Ratio (z) = 0.13620 0.13620
#
# Static dielectric constant tensor:
#      x y z
#    x 3.757150 0.000000 0.000000 
#    y 0.000000 3.757150 0.000000 
#    z 0.000000 0.000000 3.494180 
# 
# 
# High freq. dielectric constant tensor:
#      x y z
#    x 1.784220 0.000000 0.000000 
#    y 0.000000 1.784220 0.000000 
#    z 0.000000 0.000000 1.758160 
# 
# From -- ./inp_files/1933.got.cif
#   From: 2010.03.12/outbox.cif.g09.slc.cpg/sg113_cif.got.tgz:1933.got - 2010.04.14 02:06:34.
