data_PCOD8308631
_publ_section_title
;
Structure prediction by ZEFSAII (Michael W. Deem and Ramdas Pophale) SiO2 
 PCOD8308631
Probable space group: P -4 21 M 
;
_chemical_formula_sum "Si O2"
_cell_formula_units_Z 64
_cell_length_a 17.860615
_cell_length_b 17.860615
_cell_length_c 11.642227
_cell_angle_alpha 90.000000
_cell_angle_beta 90.000000
_cell_angle_gamma 90.000000
_cell_volume 3713.888670
_symmetry_space_group_name_H-M "P -4 21 M "
_symmetry_group_IT_number 113
_symmetry_cell_setting 'tetragonal'
loop_
_space_group_symop_operation_xyz
x,y,z
y,-x,-z
-x,-y,z
-y,x,-z
1/2+x,1/2-y,-z
1/2-x,1/2+y,-z
1/2-y,1/2-x,z
1/2+y,1/2+x,z
loop_
_atom_site_type_symbol
_atom_site_label
_atom_site_fract_x
_atom_site_fract_y
_atom_site_fract_z
Si Si1 0.214436 0.018862 0.286703
Si Si2 0.880684 0.495457 0.022730
Si Si3 0.934662 0.840607 0.924110
Si Si4 0.620916 0.000855 0.245057
Si Si5 0.914016 0.990966 0.869677
Si Si6 0.341643 0.387745 0.289119
Si Si7 0.271983 0.893031 0.894093
Si Si8 0.538827 0.385581 0.488735
O O1 0.185139 0.104685 0.281055
O O2 0.209918 0.982350 0.161356
O O3 0.302638 0.012201 0.318339
O O4 0.164409 0.972339 0.376244
O O5 0.946737 0.553264 0.044694
O O6 0.808071 0.522651 0.096992
O O7 0.912883 0.412883 0.059756
O O8 0.859377 0.493941 0.889027
O O9 0.888169 0.903572 0.852774
O O10 0.883417 0.791216 0.007922
O O11 0.990465 0.893440 0.998327
O O12 0.581781 0.081781 0.270697
O O13 0.563946 0.936055 0.282876
O O14 0.869770 0.042394 0.783415
O O15 0.000000 0.000000 0.835425
O O16 0.260358 0.372058 0.232215
O O17 0.334903 0.415777 0.419795
O O18 0.334760 0.834760 0.928686
O O19 0.458971 0.411864 0.541081
#
# Coordination Sequence:
#
# PCOD8308631 Si02
#       8
#     8   8   8   8   8   8   8   8
#     4  11  19  30  52  77 101 132 172 218 263 312
#     4   8  14  28  50  72  95 127 167 211 258 311
#     4  11  17  26  45  71  98 129 162 204 258 308
#     4   9  18  33  53  76 101 129 170 220 262 306
#     4  11  17  28  45  69 101 130 166 204 246 305
#     4  10  21  32  50  73 103 139 175 211 264 311
#     4  10  20  32  47  71 108 139 167 212 266 328
#     4   9  19  34  52  76 102 132 176 222 257 306
#
# _framework density 17.232612
#
# number of rings (size 3 to 8) (size 9 to 14) (size 15 to 20)
#    0.000    2.125    3.750    2.250    1.750    0.500 
#    0.000    0.625    0.000    1.500    0.000    1.750 
#    0.000    0.000    0.000    0.000    0.000    0.000 
#
# Total GULP energy -792859.268888 kJ/mol
# GULP energy per Si atom -12388.426076 kJ/mol
# Density = 1.719339 g / cm^3
# Si number density = 17.232612 Si / 1000 Ang^3
#
#
#
# Elastic Constant Matrix: (Units=GPa)
#
#
# Indices 1 2 3 4 5 6 
#
# 1 90.2414 32.8497 19.9196 0.0000 0.0000 0.0000
# 2 32.8497 90.2409 19.9195 0.0000 0.0000 0.0000
# 3 19.9196 19.9195 48.2092 0.0000 0.0000 0.0000
# 4 0.0000 0.0000 0.0000 19.8765 0.0000 0.0000
# 5 0.0000 0.0000 0.0000 0.0000 19.8756 0.0000
# 6 0.0000 0.0000 0.0000 0.0000 0.0000 19.9583
#
#
#
# Elastic Compliance Matrix: (Units=1/GPa)
#
#
# Indices 1 2 3 4 5 6 
#
# 1 0.013401 -0.004023 -0.003875 0.000000 0.000000 0.000000
# 2 -0.004023 0.013401 -0.003875 0.000000 0.000000 0.000000
# 3 -0.003875 -0.003875 0.023945 0.000000 0.000000 0.000000
# 4 0.000000 0.000000 0.000000 0.050311 0.000000 0.000000
# 5 0.000000 0.000000 0.000000 0.000000 0.050313 0.000000
# 6 0.000000 0.000000 0.000000 0.000000 0.000000 0.050104
#
#
# Mechanical properties :
#
#
# Convention : Reuss Voigt Hill
#
# Bulk Modulus (GPa) = 36.76248 41.56323 39.16285
# Shear Modulus (GPa) = 21.35940 22.34225 21.85083
#
# Velocity S-wave (km/s) = 3.52444 3.60461 3.56475
# Velocity P-wave (km/s) = 6.15968 6.44171 6.30227
#
# Compressibility (1/GPa) = 0.02720165
#
# Stress axis : x y z
#
# Youngs Moduli (GPa) = 74.62025 74.61985 41.76214
#
# Poissons Ratio (x) = 0.30019 0.16183
# Poissons Ratio (y) = 0.30020 0.16183
# Poissons Ratio (z) = 0.28915 0.28915
#
# Static dielectric constant tensor:
#      x y z
#    x 3.498520 0.000000 0.000000 
#    y 0.000000 3.498520 0.000000 
#    z 0.000000 0.000000 3.072860 
# 
# 
# High freq. dielectric constant tensor:
#      x y z
#    x 1.654100 0.000000 0.000000 
#    y 0.000000 1.654100 0.000000 
#    z 0.000000 0.000000 1.636790 
# 
# From -- ./inp_files/2053.got.cif
#   From: 2010.03.12/outbox.cif.g09.slc.cpg/sg113_cif.got.tgz:2053.got - 2010.04.14 02:06:34.
