data_PCOD8308766
_publ_section_title
;
Structure prediction by ZEFSAII (Michael W. Deem and Ramdas Pophale) SiO2 
 PCOD8308766
Probable space group: P -4 21 M 
;
_chemical_formula_sum "Si O2"
_cell_formula_units_Z 40
_cell_length_a 13.905798
_cell_length_b 13.905798
_cell_length_c 9.980057
_cell_angle_alpha 90.000000
_cell_angle_beta 90.000000
_cell_angle_gamma 90.000000
_cell_volume 1929.855778
_symmetry_space_group_name_H-M "P -4 21 M "
_symmetry_group_IT_number 113
_symmetry_cell_setting 'tetragonal'
loop_
_space_group_symop_operation_xyz
x,y,z
y,-x,-z
-x,-y,z
-y,x,-z
1/2+x,1/2-y,-z
1/2-x,1/2+y,-z
1/2-y,1/2-x,z
1/2+y,1/2+x,z
loop_
_atom_site_type_symbol
_atom_site_label
_atom_site_fract_x
_atom_site_fract_y
_atom_site_fract_z
Si Si1 0.544347 0.270515 0.636988
Si Si2 0.828083 0.165726 0.391894
Si Si3 0.577733 0.077733 0.507841
Si Si4 0.920692 0.579309 0.789161
Si Si5 0.818400 0.157380 0.894959
Si Si6 0.965201 0.781515 0.853058
O O1 0.439665 0.315356 0.633427
O O2 0.623471 0.320042 0.541336
O O3 0.529868 0.161496 0.592534
O O4 0.585932 0.273179 0.786378
O O5 0.761228 0.261228 0.374758
O O6 0.802641 0.081545 0.289632
O O7 0.614223 0.114223 0.360937
O O8 0.500000 0.000000 0.475938
O O9 0.963903 0.666946 0.874034
O O10 0.000000 0.500000 0.774716
O O11 0.751921 0.251921 0.913429
O O12 0.925300 0.185052 0.850828
O O13 0.830214 0.099214 0.032668
#
# Coordination Sequence:
#
# PCOD8308766 Si02
#       6
#     8   8   4   4   8   8
#     4  12  24  42  68 100 136 179 220 285 341 392
#     4  12  24  44  67  96 138 177 229 278 335 411
#     4  11  22  43  69 103 135 176 233 281 332 388
#     4  11  22  43  73  99 131 180 241 269 324 408
#     4  12  26  44  69  98 138 171 227 282 337 401
#     4  12  24  46  68  96 136 183 220 277 339 400
#
# _framework density 20.726938000000001
#
# number of rings (size 3 to 8) (size 9 to 14) (size 15 to 20)
#    0.000    0.200    6.000    3.600    0.000    4.800 
#    0.000    4.000    0.000    0.000    0.000    0.000 
#    0.000    0.000    0.000    0.000    0.000    0.000 
#
# Total GULP energy -496050.422703 kJ/mol
# GULP energy per Si atom -12401.260568 kJ/mol
# Density = 2.067976 g / cm^3
# Si number density = 20.726938 Si / 1000 Ang^3
#
#
#
# Elastic Constant Matrix: (Units=GPa)
#
#
# Indices 1 2 3 4 5 6 
#
# 1 69.6284 68.7826 10.7119 0.0000 0.0000 0.0000
# 2 68.7826 69.6275 10.7124 0.0000 0.0000 0.0000
# 3 10.7119 10.7124 60.5344 0.0000 0.0000 0.0000
# 4 0.0000 0.0000 0.0000 33.0829 0.0000 0.0000
# 5 0.0000 0.0000 0.0000 0.0000 33.0823 0.0000
# 6 0.0000 0.0000 0.0000 0.0000 0.0000 29.5025
#
#
#
# Elastic Compliance Matrix: (Units=1/GPa)
#
#
# Indices 1 2 3 4 5 6 
#
# 1 0.595127 -0.587704 -0.001309 0.000000 0.000000 0.000000
# 2 -0.587704 0.595137 -0.001320 0.000000 0.000000 0.000000
# 3 -0.001309 -0.001320 0.016985 0.000000 0.000000 0.000000
# 4 0.000000 0.000000 0.000000 0.030227 0.000000 0.000000
# 5 0.000000 0.000000 0.000000 0.000000 0.030228 0.000000
# 6 0.000000 0.000000 0.000000 0.000000 0.000000 0.033895
#
#
# Mechanical properties :
#
#
# Convention : Reuss Voigt Hill
#
# Bulk Modulus (GPa) = 37.61747 42.24490 39.93118
# Shear Modulus (GPa) = 2.00712 26.43911 14.22312
#
# Velocity S-wave (km/s) = 0.98512 3.57542 2.62241
# Velocity P-wave (km/s) = 4.41389 6.12133 5.33634
#
# Compressibility (1/GPa) = 0.02658340
#
# Stress axis : x y z
#
# Youngs Moduli (GPa) = 1.68031 1.68029 58.87626
#
# Poissons Ratio (x) = 0.98751 0.07708
# Poissons Ratio (y) = 0.98753 0.07770
# Poissons Ratio (z) = 0.00220 0.00222
#
# Static dielectric constant tensor:
#      x y z
#    x 3.822730 0.000000 0.000000 
#    y 0.000000 3.822730 0.000000 
#    z 0.000000 0.000000 3.855430 
# 
# 
# High freq. dielectric constant tensor:
#      x y z
#    x 1.821890 0.000000 0.000000 
#    y 0.000000 1.821890 0.000000 
#    z 0.000000 0.000000 1.818440 
# 
# From -- ./inp_files/1036.got.cif
#   From: 2010.03.12/outbox.cif.g09.slc.cpg/sg113_cif.got.tgz:1036.got - 2010.04.14 02:06:34.
