data_PCOD8308659
_publ_section_title
;
Structure prediction by ZEFSAII (Michael W. Deem and Ramdas Pophale) SiO2 
 PCOD8308659
Probable space group: P -4 21 M 
;
_chemical_formula_sum "Si O2"
_cell_formula_units_Z 56
_cell_length_a 11.333252
_cell_length_b 11.333252
_cell_length_c 23.203343
_cell_angle_alpha 90.000000
_cell_angle_beta 90.000000
_cell_angle_gamma 90.000000
_cell_volume 2980.297724
_symmetry_space_group_name_H-M "P -4 21 M "
_symmetry_group_IT_number 113
_symmetry_cell_setting 'tetragonal'
loop_
_space_group_symop_operation_xyz
x,y,z
y,-x,-z
-x,-y,z
-y,x,-z
1/2+x,1/2-y,-z
1/2-x,1/2+y,-z
1/2-y,1/2-x,z
1/2+y,1/2+x,z
loop_
_atom_site_type_symbol
_atom_site_label
_atom_site_fract_x
_atom_site_fract_y
_atom_site_fract_z
Si Si1 0.640397 0.675456 0.556025
Si Si2 0.757048 0.926605 0.431949
Si Si3 0.926605 0.757049 0.931949
Si Si4 0.000001 0.690622 0.250000
Si Si5 0.082460 0.229940 0.368302
Si Si6 0.675456 0.640397 0.056025
Si Si7 0.270061 0.582460 0.131699
O O1 0.708424 0.791577 0.575393
O O2 0.725205 0.566128 0.573384
O O3 0.619687 0.670873 0.487649
O O4 0.517319 0.685550 0.588360
O O5 0.619555 0.880446 0.436035
O O6 0.814508 0.866487 0.375502
O O7 0.880445 0.619556 0.936036
O O8 0.866489 0.814509 0.875502
O O9 0.066128 0.774794 0.926616
O O10 0.880315 0.829130 0.987648
O O11 0.109930 0.609930 0.269281
O O12 0.034212 0.773909 0.196658
O O13 0.890073 0.609928 0.230720
O O14 0.965789 0.773909 0.303343
O O15 0.139051 0.360949 0.381860
O O16 0.791579 0.708422 0.075391
O O17 0.685549 0.517319 0.088361
O O18 0.139052 0.639052 0.118140
#
# Coordination Sequence:
#
# PCOD8308659 Si02
#       7
#     8   8   8   8   8   8   8
#     4  11  21  34  54  78 110 150 186 232 284 333
#     4  10  21  35  52  77 110 148 189 232 278 337
#     4  10  21  35  52  77 110 148 189 232 278 337
#     4   9  18  34  55  82 116 146 181 237 288 330
#     4  10  20  35  57  84 111 144 186 232 286 339
#     4  11  21  34  54  78 110 150 186 232 284 333
#     4  10  20  35  57  84 111 144 186 232 286 339
#
# _framework density 18.790068999999999
#
# number of rings (size 3 to 8) (size 9 to 14) (size 15 to 20)
#    0.000    1.857    2.857    1.714    0.000    2.286 
#    0.000    5.714    0.000    0.000    0.000    0.000 
#    0.000    6.857    0.000    0.000    0.000    0.000 
#
# Total GULP energy -693851.922658 kJ/mol
# GULP energy per Si atom -12390.212905 kJ/mol
# Density = 1.874730 g / cm^3
# Si number density = 18.790069 Si / 1000 Ang^3
#
#
#
# Elastic Constant Matrix: (Units=GPa)
#
#
# Indices 1 2 3 4 5 6 
#
# 1 59.5346 7.1308 12.8313 0.0000 0.0000 0.0000
# 2 7.1308 59.5343 12.8314 0.0000 0.0000 0.0000
# 3 12.8313 12.8314 79.0502 0.0000 0.0000 0.0000
# 4 0.0000 0.0000 0.0000 27.7160 0.0000 0.0000
# 5 0.0000 0.0000 0.0000 0.0000 27.7160 0.0000
# 6 0.0000 0.0000 0.0000 0.0000 0.0000 33.3462
#
#
#
# Elastic Compliance Matrix: (Units=1/GPa)
#
#
# Indices 1 2 3 4 5 6 
#
# 1 0.017541 -0.001541 -0.002597 0.000000 0.000000 0.000000
# 2 -0.001541 0.017541 -0.002597 0.000000 0.000000 0.000000
# 3 -0.002597 -0.002597 0.013493 0.000000 0.000000 0.000000
# 4 0.000000 0.000000 0.000000 0.036080 0.000000 0.000000
# 5 0.000000 0.000000 0.000000 0.000000 0.036080 0.000000
# 6 0.000000 0.000000 0.000000 0.000000 0.000000 0.029988
#
#
# Mechanical properties :
#
#
# Convention : Reuss Voigt Hill
#
# Bulk Modulus (GPa) = 28.48597 29.30068 28.89332
# Shear Modulus (GPa) = 28.42562 28.77735 28.60148
#
# Velocity S-wave (km/s) = 3.89369 3.91771 3.90572
# Velocity P-wave (km/s) = 5.95042 6.00767 5.97911
#
# Compressibility (1/GPa) = 0.03510500
#
# Stress axis : x y z
#
# Youngs Moduli (GPa) = 57.00829 57.00797 74.11082
#
# Poissons Ratio (x) = 0.08786 0.19247
# Poissons Ratio (y) = 0.08787 0.19248
# Poissons Ratio (z) = 0.14806 0.14806
#
# Static dielectric constant tensor:
#      x y z
#    x 3.406570 0.000000 0.000000 
#    y 0.000000 3.406570 0.000000 
#    z 0.000000 0.000000 3.294780 
# 
# 
# High freq. dielectric constant tensor:
#      x y z
#    x 1.724010 0.000000 0.000000 
#    y 0.000000 1.724010 0.000000 
#    z 0.000000 0.000000 1.705790 
# 
# From -- ./inp_files/2707.got.cif
#   From: 2010.03.12/outbox.cif.g09.slc.cpg/sg113_cif.got.tgz:2707.got - 2010.04.14 02:06:34.
