data_PCOD8308646
_publ_section_title
;
Structure prediction by ZEFSAII (Michael W. Deem and Ramdas Pophale) SiO2 
 PCOD8308646
Probable space group: P -4 21 M 
;
_chemical_formula_sum "Si O2"
_cell_formula_units_Z 56
_cell_length_a 11.655190
_cell_length_b 11.655190
_cell_length_c 20.661894
_cell_angle_alpha 90.000000
_cell_angle_beta 90.000000
_cell_angle_gamma 90.000000
_cell_volume 2806.783046
_symmetry_space_group_name_H-M "P -4 21 M "
_symmetry_group_IT_number 113
_symmetry_cell_setting 'tetragonal'
loop_
_space_group_symop_operation_xyz
x,y,z
y,-x,-z
-x,-y,z
-y,x,-z
1/2+x,1/2-y,-z
1/2-x,1/2+y,-z
1/2-y,1/2-x,z
1/2+y,1/2+x,z
loop_
_atom_site_type_symbol
_atom_site_label
_atom_site_fract_x
_atom_site_fract_y
_atom_site_fract_z
Si Si1 0.255277 0.063118 0.138748
Si Si2 0.955550 0.172070 0.478565
Si Si3 0.679054 0.994578 0.410746
Si Si4 0.591068 0.597560 0.794035
Si Si5 0.564729 0.243480 0.866718
Si Si6 0.504368 0.313320 0.002199
Si Si7 0.341383 0.348688 0.654129
O O1 0.378785 0.121216 0.159016
O O2 0.158781 0.159126 0.144671
O O3 0.216201 0.952441 0.182740
O O4 0.264691 0.021816 0.064487
O O5 0.944081 0.288372 0.519078
O O6 0.924816 0.193124 0.403535
O O7 0.085255 0.129491 0.485003
O O8 0.600691 0.899309 0.374782
O O9 0.610509 0.110509 0.424395
O O10 0.786927 0.028464 0.366434
O O11 0.500000 0.500000 0.811504
O O12 0.550809 0.716818 0.828638
O O13 0.587718 0.626366 0.718299
O O14 0.620709 0.120709 0.844062
O O15 0.535096 0.230956 0.942502
O O16 0.395669 0.389306 0.980529
O O17 0.246587 0.253413 0.669390
#
# Coordination Sequence:
#
# PCOD8308646 Si02
#       7
#     8   8   8   8   8   8   8
#     4   9  17  30  50  80 108 138 182 227 273 329
#     4   9  18  32  56  80 105 133 172 223 263 310
#     4   9  18  33  53  78 109 141 173 216 271 323
#     4  10  20  34  54  75 108 149 181 222 271 323
#     4   9  17  31  51  78 106 139 184 227 271 328
#     4   9  14  26  51  75  99 133 174 222 280 324
#     4  10  21  35  54  78 106 142 181 219 269 323
#
# _framework density 19.951664999999998
#
# number of rings (size 3 to 8) (size 9 to 14) (size 15 to 20)
#    0.000    2.714    1.429    0.429    4.000    1.143 
#    0.000    2.143    0.000    3.429    0.000    0.000 
#    0.000    0.000    0.000    0.000    0.000    0.000 
#
# Total GULP energy -693814.895336 kJ/mol
# GULP energy per Si atom -12389.551702 kJ/mol
# Density = 1.990625 g / cm^3
# Si number density = 19.951665 Si / 1000 Ang^3
#
#
#
# Elastic Constant Matrix: (Units=GPa)
#
#
# Indices 1 2 3 4 5 6 
#
# 1 50.6927 35.8586 31.3209 0.0000 0.0000 0.0000
# 2 35.8586 50.6942 31.3210 0.0000 0.0000 0.0000
# 3 31.3209 31.3210 99.2343 0.0000 0.0000 0.0000
# 4 0.0000 0.0000 0.0000 15.8080 0.0000 0.0000
# 5 0.0000 0.0000 0.0000 0.0000 15.8085 0.0000
# 6 0.0000 0.0000 0.0000 0.0000 0.0000 23.5680
#
#
#
# Elastic Compliance Matrix: (Units=1/GPa)
#
#
# Indices 1 2 3 4 5 6 
#
# 1 0.041193 -0.026217 -0.004727 0.000000 0.000000 0.000000
# 2 -0.026217 0.041191 -0.004726 0.000000 0.000000 0.000000
# 3 -0.004727 -0.004726 0.013061 0.000000 0.000000 0.000000
# 4 0.000000 0.000000 0.000000 0.063259 0.000000 0.000000
# 5 0.000000 0.000000 0.000000 0.000000 0.063257 0.000000
# 6 0.000000 0.000000 0.000000 0.000000 0.000000 0.042430
#
#
# Mechanical properties :
#
#
# Convention : Reuss Voigt Hill
#
# Bulk Modulus (GPa) = 41.48653 44.18025 42.83339
# Shear Modulus (GPa) = 14.54480 17.84494 16.19487
#
# Velocity S-wave (km/s) = 2.70293 2.99391 2.85213
# Velocity P-wave (km/s) = 5.52990 5.84321 5.68871
#
# Compressibility (1/GPa) = 0.02410421
#
# Stress axis : x y z
#
# Youngs Moduli (GPa) = 24.27624 24.27711 76.56575
#
# Poissons Ratio (x) = 0.63648 0.36189
# Poissons Ratio (y) = 0.63646 0.36186
# Poissons Ratio (z) = 0.11474 0.11474
#
# Static dielectric constant tensor:
#      x y z
#    x 3.621470 0.000000 0.000000 
#    y 0.000000 3.621470 0.000000 
#    z 0.000000 0.000000 3.516660 
# 
# 
# High freq. dielectric constant tensor:
#      x y z
#    x 1.760370 0.000000 0.000000 
#    y 0.000000 1.760370 0.000000 
#    z 0.000000 0.000000 1.763700 
# 
# From -- ./inp_files/2690.got.cif
#   From: 2010.03.12/outbox.cif.g09.slc.cpg/sg113_cif.got.tgz:2690.got - 2010.04.14 02:06:34.
