data_PCOD8308747
_publ_section_title
;
Structure prediction by ZEFSAII (Michael W. Deem and Ramdas Pophale) SiO2 
 PCOD8308747
Probable space group: P -4 21 M 
;
_chemical_formula_sum "Si O2"
_cell_formula_units_Z 24
_cell_length_a 12.065757
_cell_length_b 12.065757
_cell_length_c 7.050003
_cell_angle_alpha 90.000000
_cell_angle_beta 90.000000
_cell_angle_gamma 90.000000
_cell_volume 1026.357005
_symmetry_space_group_name_H-M "P -4 21 M "
_symmetry_group_IT_number 113
_symmetry_cell_setting 'tetragonal'
loop_
_space_group_symop_operation_xyz
x,y,z
y,-x,-z
-x,-y,z
-y,x,-z
1/2+x,1/2-y,-z
1/2-x,1/2+y,-z
1/2-y,1/2-x,z
1/2+y,1/2+x,z
loop_
_atom_site_type_symbol
_atom_site_label
_atom_site_fract_x
_atom_site_fract_y
_atom_site_fract_z
Si Si1 0.501554 0.180119 0.920951
Si Si2 0.371345 0.476896 0.782897
Si Si3 0.730883 0.405977 0.429496
O O1 0.613859 0.113859 0.969222
O O2 0.500984 0.206654 0.694634
O O3 0.394817 0.105183 0.974375
O O4 0.495542 0.295402 0.036134
O O5 0.500000 0.500000 0.831131
O O6 0.348286 0.351067 0.721884
O O7 0.338379 0.552964 0.606552
O O8 0.818155 0.318155 0.509040
#
# Coordination Sequence:
#
# PCOD8308747 Si02
#       3
#     8   8   8
#     4  10  25  47  72 103 136 179 233 286 346 414
#     4  12  24  44  68 102 142 178 227 283 345 413
#     4  11  24  43  68 100 136 182 230 281 342 404
#
# _framework density 23.383676000000001
#
# number of rings (size 3 to 8) (size 9 to 14) (size 15 to 20)
#    0.000    1.000    3.333    2.000    4.667    4.000 
#    0.000    3.333    0.000    0.000    0.000    0.000 
#    0.000    0.000    0.000    0.000    0.000    0.000 
#
# Total GULP energy -297543.609150 kJ/mol
# GULP energy per Si atom -12397.650381 kJ/mol
# Density = 2.333045 g / cm^3
# Si number density = 23.383676 Si / 1000 Ang^3
#
#
#
# Elastic Constant Matrix: (Units=GPa)
#
#
# Indices 1 2 3 4 5 6 
#
# 1 132.2171 58.7546 53.1219 0.0000 0.0000 0.0000
# 2 58.7546 132.2168 53.1215 0.0000 0.0000 0.0000
# 3 53.1219 53.1215 111.3579 0.0000 0.0000 0.0000
# 4 0.0000 0.0000 0.0000 -28.9008 0.0000 0.0000
# 5 0.0000 0.0000 0.0000 0.0000 -28.9112 0.0000
# 6 0.0000 0.0000 0.0000 0.0000 0.0000 25.9847
#
#
#
# Elastic Compliance Matrix: (Units=1/GPa)
#
#
# Indices 1 2 3 4 5 6 
#
# 1 0.010370 -0.003242 -0.003400 0.000000 0.000000 0.000000
# 2 -0.003242 0.010370 -0.003400 0.000000 0.000000 0.000000
# 3 -0.003400 -0.003400 0.012224 0.000000 0.000000 0.000000
# 4 0.000000 0.000000 0.000000 -0.034601 0.000000 0.000000
# 5 0.000000 0.000000 0.000000 0.000000 -0.034589 0.000000
# 6 0.000000 0.000000 0.000000 0.000000 0.000000 0.038484
#
#
# Mechanical properties :
#
#
# Convention : Reuss Voigt Hill
#
# Bulk Modulus (GPa) = 77.64572 78.42088 78.03330
# Shear Modulus (GPa) = 187.70210 7.68746 97.69478
#
# Velocity S-wave (km/s) = 8.96910 1.81512 6.47068
# Velocity P-wave (km/s) = 11.85483 6.16460 9.44826
#
# Compressibility (1/GPa) = 0.01287901
#
# Stress axis : x y z
#
# Youngs Moduli (GPa) = 96.42956 96.42958 81.80459
#
# Poissons Ratio (x) = 0.31264 0.27817
# Poissons Ratio (y) = 0.31264 0.27816
# Poissons Ratio (z) = 0.32790 0.32789
#
# Static dielectric constant tensor:
#      x y z
#    x 4.703560 0.000000 0.000000 
#    y 0.000000 4.703760 0.000000 
#    z 0.000000 0.000000 4.199020 
# 
# 
# High freq. dielectric constant tensor:
#      x y z
#    x 1.929640 0.000000 0.000000 
#    y 0.000000 1.929640 0.000000 
#    z 0.000000 0.000000 1.934410 
# 
# From -- ./inp_files/698.got.cif
#   From: 2010.03.12/outbox.cif.g09.slc.cpg/sg113_cif.got.tgz:698.got - 2010.04.14 02:06:34.
