data_PCOD8308049
_publ_section_title
;
Structure prediction by ZEFSAII (Michael W. Deem and Ramdas Pophale) SiO2 
 PCOD8308049
Probable space group: I 41 C D
;
_chemical_formula_sum "Si O2"
_cell_formula_units_Z 96
_cell_length_a 14.179248
_cell_length_b 14.179248
_cell_length_c 20.868589
_cell_angle_alpha 90.000000
_cell_angle_beta 90.000000
_cell_angle_gamma 90.000000
_cell_volume 4195.652228
_symmetry_space_group_name_H-M "I 41 C D"
_symmetry_group_IT_number 110
_symmetry_cell_setting 'tetragonal'
loop_
_space_group_symop_operation_xyz
x,y,z
-y,1/2+x,1/4+z
-x,-y,z
y,1/2-x,1/4+z
-x,y,1/2+z
x,-y,1/2+z
1/2-y,-x,1/4+z
1/2+y,x,1/4+z
1/2+x,1/2+y,1/2+z
1/2-y,x,3/4+z
1/2-x,1/2-y,1/2+z
1/2+y,-x,3/4+z
1/2-x,1/2+y,z
1/2+x,1/2-y,z
-y,1/2-x,3/4+z
y,1/2+x,3/4+z
loop_
_atom_site_type_symbol
_atom_site_label
_atom_site_fract_x
_atom_site_fract_y
_atom_site_fract_z
Si Si1 0.944701 0.083576 0.385220
Si Si2 0.266260 0.350529 0.157234
Si Si3 0.399003 0.031255 0.396026
Si Si4 0.126436 0.413532 0.521154
Si Si5 0.764596 0.274202 0.782361
Si Si6 0.518786 0.769976 0.564323
O O1 0.928586 0.183206 0.420365
O O2 0.839510 0.046975 0.371882
O O3 0.005101 0.097921 0.320329
O O4 0.000000 0.000000 0.424918
O O5 0.361939 0.407539 0.170993
O O6 0.263777 0.260691 0.206849
O O7 0.260834 0.311754 0.084137
O O8 0.500000 0.000000 0.368199
O O9 0.366423 0.960551 0.451876
O O10 0.320349 0.035693 0.341270
O O11 0.225621 0.366357 0.542826
O O12 0.050429 0.328085 0.517306
O O13 0.771682 0.387628 0.782142
#
# Coordination Sequence:
#
# PCOD8308049 Si02
#       6
#    16  16  16  16  16  16
#     4   9  20  40  69  96 139 188 239 292 358 434
#     4  11  23  45  69 106 145 190 244 295 372 439
#     4  12  24  41  70 103 145 195 246 304 362 446
#     4  11  21  42  70 102 143 197 239 299 377 440
#     4  11  23  43  72 100 143 190 234 303 363 439
#     4  10  22  43  63 103 139 182 250 289 368 434
#
# _framework density 22.88083
#
# number of rings (size 3 to 8) (size 9 to 14) (size 15 to 20)
#    0.000    1.333    1.667    6.500    2.333    0.000 
#    3.000    0.833    0.000    0.000    0.000    0.000 
#    0.000    0.000    0.000    0.000    0.000    0.000 
#
# Total GULP energy -594688.961974 kJ/mol
# GULP energy per Si atom -12389.353374 kJ/mol
# Density = 2.282875 g / cm^3
# Si number density = 22.880830 Si / 1000 Ang^3
#
#
#
# Elastic Constant Matrix: (Units=GPa)
#
#
# Indices 1 2 3 4 5 6 
#
# 1 137.9503 63.3961 32.9573 0.0000 0.0000 0.0000
# 2 63.3961 137.9504 32.9573 0.0000 0.0000 0.0000
# 3 32.9573 32.9573 77.9774 0.0000 0.0000 0.0000
# 4 0.0000 0.0000 0.0000 27.2779 0.0000 0.0000
# 5 0.0000 0.0000 0.0000 0.0000 27.2779 0.0000
# 6 0.0000 0.0000 0.0000 0.0000 0.0000 49.1848
#
#
#
# Elastic Compliance Matrix: (Units=1/GPa)
#
#
# Indices 1 2 3 4 5 6 
#
# 1 0.009589 -0.003824 -0.002436 0.000000 0.000000 0.000000
# 2 -0.003824 0.009589 -0.002436 0.000000 0.000000 0.000000
# 3 -0.002436 -0.002436 0.014884 0.000000 0.000000 0.000000
# 4 0.000000 0.000000 0.000000 0.036660 0.000000 0.000000
# 5 0.000000 0.000000 0.000000 0.000000 0.036660 0.000000
# 6 0.000000 0.000000 0.000000 0.000000 0.000000 0.020331
#
#
# Mechanical properties :
#
#
# Convention : Reuss Voigt Hill
#
# Bulk Modulus (GPa) = 59.99902 68.05548 64.02725
# Shear Modulus (GPa) = 33.18708 35.71929 34.45318
#
# Velocity S-wave (km/s) = 3.81258 3.95536 3.88463
# Velocity P-wave (km/s) = 6.75725 7.11814 6.94004
#
# Compressibility (1/GPa) = 0.01666694
#
# Stress axis : x y z
#
# Youngs Moduli (GPa) = 104.29078 104.29078 67.18817
#
# Poissons Ratio (x) = 0.39886 0.16368
# Poissons Ratio (y) = 0.39886 0.16368
# Poissons Ratio (z) = 0.25407 0.25407
#
# Static dielectric constant tensor:
#      x y z
#    x 4.306370 0.000000 0.000000 
#    y 0.000000 4.306370 0.000000 
#    z 0.000000 0.000000 3.950080 
# 
# 
# High freq. dielectric constant tensor:
#      x y z
#    x 1.909980 0.000000 0.000000 
#    y 0.000000 1.909980 0.000000 
#    z 0.000000 0.000000 1.877900 
# 
# From -- ./inp_files/2176.got.cif
#   From: 2010.03.12/outbox.cif.g09.slc.cpg/sg110_2_cif.got.tgz:2176.got - 2010.04.14 01:58:01.
