data_PCOD8308507
_publ_section_title
;
Structure prediction by ZEFSAII (Michael W. Deem and Ramdas Pophale) SiO2 
 PCOD8308507
Probable space group: P -4 2 C
;
_chemical_formula_sum "Si O2"
_cell_formula_units_Z 12
_cell_length_a 6.556324
_cell_length_b 6.556324
_cell_length_c 13.658015
_cell_angle_alpha 90.000000
_cell_angle_beta 90.000000
_cell_angle_gamma 90.000000
_cell_volume 587.095025
_symmetry_space_group_name_H-M "P -4 2 C"
_symmetry_group_IT_number 112
_symmetry_cell_setting 'tetragonal'
loop_
_space_group_symop_operation_xyz
x,y,z
y,-x,-z
-x,-y,z
-y,x,-z
x,-y,1/2-z
-x,y,1/2-z
-y,-x,1/2+z
y,x,1/2+z
loop_
_atom_site_type_symbol
_atom_site_label
_atom_site_fract_x
_atom_site_fract_y
_atom_site_fract_z
Si Si1 0.623780 0.197753 0.343455
Si Si2 0.000000 0.000000 0.750000
Si Si3 0.500000 0.500000 0.500000
O O1 0.500000 0.288854 0.250000
O O2 0.856850 0.143505 0.316663
O O3 0.636933 0.355864 0.431935
O O4 0.500000 0.000000 0.379545
#
# Coordination Sequence:
#
# PCOD8308507 Si02
#       3
#     8   2   2
#     4   9  21  39  58  86 120 154 196 241 290 348
#     4   8  18  44  64  78 120 164 190 236 296 346
#     4  12  22  36  64  94 116 148 198 248 292 342
#
# _framework density 20.439623999999998
#
# number of rings (size 3 to 8) (size 9 to 14) (size 15 to 20)
#    0.000    3.333    0.000    1.000    0.000   10.667 
#    0.000   16.667    0.000    0.000    0.000    0.000 
#    0.000    0.000    0.000    0.000    0.000    0.000 
#
# Total GULP energy -148744.402071 kJ/mol
# GULP energy per Si atom -12395.366839 kJ/mol
# Density = 2.039310 g / cm^3
# Si number density = 20.439624 Si / 1000 Ang^3
#
#
#
# Elastic Constant Matrix: (Units=GPa)
#
#
# Indices 1 2 3 4 5 6 
#
# 1 137.8977 53.4050 69.5946 0.0000 0.0000 0.0000
# 2 53.4050 137.8977 69.5946 0.0000 0.0000 0.0000
# 3 69.5946 69.5946 136.8517 0.0000 0.0000 0.0000
# 4 0.0000 0.0000 0.0000 17.4012 0.0000 0.0000
# 5 0.0000 0.0000 0.0000 0.0000 17.4012 0.0000
# 6 0.0000 0.0000 0.0000 0.0000 0.0000 15.6157
#
#
#
# Elastic Compliance Matrix: (Units=1/GPa)
#
#
# Indices 1 2 3 4 5 6 
#
# 1 0.010066 -0.001769 -0.004220 0.000000 0.000000 0.000000
# 2 -0.001769 0.010066 -0.004220 0.000000 0.000000 0.000000
# 3 -0.004220 -0.004220 0.011599 0.000000 0.000000 0.000000
# 4 0.000000 0.000000 0.000000 0.057467 0.000000 0.000000
# 5 0.000000 0.000000 0.000000 0.000000 0.057467 0.000000
# 6 0.000000 0.000000 0.000000 0.000000 0.000000 0.064038
#
#
# Mechanical properties :
#
#
# Convention : Reuss Voigt Hill
#
# Bulk Modulus (GPa) = 88.37532 88.64839 88.51186
# Shear Modulus (GPa) = 21.28638 24.75383 23.02010
#
# Velocity S-wave (km/s) = 3.23062 3.48382 3.35960
# Velocity P-wave (km/s) = 7.56617 7.72319 7.64508
#
# Compressibility (1/GPa) = 0.01131538
#
# Stress axis : x y z
#
# Youngs Moduli (GPa) = 99.34055 99.34055 86.21558
#
# Poissons Ratio (x) = 0.17573 0.36379
# Poissons Ratio (y) = 0.17573 0.36379
# Poissons Ratio (z) = 0.41918 0.41918
#
# Static dielectric constant tensor:
#      x y z
#    x 3.629120 0.000000 0.000000 
#    y 0.000000 3.629120 0.000000 
#    z 0.000000 0.000000 3.605340 
# 
# 
# High freq. dielectric constant tensor:
#      x y z
#    x 1.794020 0.000000 0.000000 
#    y 0.000000 1.794020 0.000000 
#    z 0.000000 0.000000 1.792810 
# 
# From -- ./inp_files/3518.got.cif
#   From: 2010.03.12/outbox.cif.g09.slc.cpg/sg112_2_cif.got.tgz:3518.got - 2010.04.14 02:02:48.
