data_PCOD8308898
_publ_section_title
;
Structure prediction by ZEFSAII (Michael W. Deem and Ramdas Pophale) SiO2 
 PCOD8308898
Probable space group: P -4 21 C
;
_chemical_formula_sum "Si O2"
_cell_formula_units_Z 58
_cell_length_a 18.760871
_cell_length_b 18.760871
_cell_length_c 8.846941
_cell_angle_alpha 90.000000
_cell_angle_beta 90.000000
_cell_angle_gamma 90.000000
_cell_volume 3113.860307
_symmetry_space_group_name_H-M "P -4 21 C"
_symmetry_group_IT_number 114
_symmetry_cell_setting 'tetragonal'
loop_
_space_group_symop_operation_xyz
x,y,z
y,-x,-z
-x,-y,z
-y,x,-z
1/2+x,1/2-y,1/2-z
1/2-x,1/2+y,1/2-z
1/2-y,1/2-x,1/2+z
1/2+y,1/2+x,1/2+z
loop_
_atom_site_type_symbol
_atom_site_label
_atom_site_fract_x
_atom_site_fract_y
_atom_site_fract_z
Si Si1 0.370985 0.254165 0.177218
Si Si2 0.282861 0.517051 0.332438
Si Si3 0.782860 0.017055 0.832438
Si Si4 0.000000 0.000000 0.500000
Si Si5 0.629020 0.254171 0.822782
Si Si6 0.348568 0.231397 0.833679
Si Si7 0.848563 0.731401 0.333680
Si Si8 0.943857 0.056143 0.788817
O O1 0.451023 0.271846 0.221626
O O2 0.326933 0.326928 0.191558
O O3 0.339186 0.194638 0.288727
O O4 0.369492 0.224186 0.007945
O O5 0.254865 0.499997 0.499999
O O6 0.271853 0.451019 0.221626
O O7 0.236317 0.581727 0.269097
O O8 0.365436 0.537207 0.342589
O O9 0.736320 0.081733 0.769099
O O10 0.865437 0.037205 0.842585
O O11 0.949712 0.050290 0.604825
O O12 0.660818 0.194644 0.711270
O O13 0.630513 0.224191 0.992054
O O14 0.301375 0.301371 0.802457
O O15 0.000000 0.000000 0.861814
#
# Coordination Sequence:
#
# PCOD8308898 Si02
#       8
#     8   8   8   2   8   8   8   8
#     4  10  22  37  61  83 115 154 199 247 299 348
#     4  12  24  35  57  84 120 155 199 239 296 347
#     4  12  24  35  57  84 120 155 199 239 296 347
#     4   8  24  36  50  72 120 148 210 224 296 344
#     4  10  22  37  61  83 115 154 199 247 299 348
#     4  10  21  39  59  84 114 153 201 247 294 353
#     4  10  21  39  59  84 114 153 201 247 294 353
#     4  10  24  33  54  76 122 155 198 232 292 352
#
# _framework density 18.626397000000001
#
# number of rings (size 3 to 8) (size 9 to 14) (size 15 to 20)
#    0.414    1.103    1.379    3.310    7.724    2.207 
#    0.000    0.000    0.000    0.828    0.000    5.793 
#    0.000    0.000    0.000    0.000    0.000    0.000 
#
# Total GULP energy -719419.826098 kJ/mol
# GULP energy per Si atom -12403.790105 kJ/mol
# Density = 1.858400 g / cm^3
# Si number density = 18.626397 Si / 1000 Ang^3
#
#
#
# Elastic Constant Matrix: (Units=GPa)
#
#
# Indices 1 2 3 4 5 6 
#
# 1 84.3321 32.0799 27.5193 0.0000 0.0000 0.0000
# 2 32.0799 84.3321 27.5193 0.0000 0.0000 0.0000
# 3 27.5193 27.5193 108.4647 0.0000 0.0000 0.0000
# 4 0.0000 0.0000 0.0000 30.2680 0.0000 0.0000
# 5 0.0000 0.0000 0.0000 0.0000 30.2680 0.0000
# 6 0.0000 0.0000 0.0000 0.0000 0.0000 23.1903
#
#
#
# Elastic Compliance Matrix: (Units=1/GPa)
#
#
# Indices 1 2 3 4 5 6 
#
# 1 0.014450 -0.004688 -0.002477 0.000000 0.000000 0.000000
# 2 -0.004688 0.014450 -0.002477 0.000000 0.000000 0.000000
# 3 -0.002477 -0.002477 0.010476 0.000000 0.000000 0.000000
# 4 0.000000 0.000000 0.000000 0.033038 0.000000 0.000000
# 5 0.000000 0.000000 0.000000 0.000000 0.033038 0.000000
# 6 0.000000 0.000000 0.000000 0.000000 0.000000 0.043121
#
#
# Mechanical properties :
#
#
# Convention : Reuss Voigt Hill
#
# Bulk Modulus (GPa) = 49.77047 50.15174 49.96111
# Shear Modulus (GPa) = 28.64448 29.41261 29.02855
#
# Velocity S-wave (km/s) = 3.92579 3.97808 3.95202
# Velocity P-wave (km/s) = 6.87950 6.93424 6.90692
#
# Compressibility (1/GPa) = 0.02009224
#
# Stress axis : x y z
#
# Youngs Moduli (GPa) = 69.20646 69.20646 95.45382
#
# Poissons Ratio (x) = 0.32447 0.23640
# Poissons Ratio (y) = 0.32447 0.23640
# Poissons Ratio (z) = 0.17139 0.17139
#
# Static dielectric constant tensor:
#      x y z
#    x 3.545850 0.000000 0.000000 
#    y 0.000000 3.545850 0.000000 
#    z 0.000000 0.000000 3.568130 
# 
# 
# High freq. dielectric constant tensor:
#      x y z
#    x 1.708830 0.000000 0.000000 
#    y 0.000000 1.708830 0.000000 
#    z 0.000000 0.000000 1.743220 
# 
# From -- ./inp_files/1049.got.cif
#   From: 2010.03.12/outbox.cif.g09.slc.cpg/sg114_1_cif.got.tgz:1049.got - 2010.04.14 02:08:34.
