data_PCOD8308192
_publ_section_title
;
Structure prediction by ZEFSAII (Michael W. Deem and Ramdas Pophale) SiO2 
 PCOD8308192
Probable space group: P -4 2 M 
;
_chemical_formula_sum "Si O2"
_cell_formula_units_Z 28
_cell_length_a 11.830625
_cell_length_b 11.830625
_cell_length_c 11.354563
_cell_angle_alpha 90.000000
_cell_angle_beta 90.000000
_cell_angle_gamma 90.000000
_cell_volume 1589.226512
_symmetry_space_group_name_H-M "P -4 2 M "
_symmetry_group_IT_number 111
_symmetry_cell_setting 'tetragonal'
loop_
_space_group_symop_operation_xyz
x,y,z
y,-x,-z
-x,-y,z
-y,x,-z
x,-y,-z
-x,y,-z
-y,-x,z
y,x,z
loop_
_atom_site_type_symbol
_atom_site_label
_atom_site_fract_x
_atom_site_fract_y
_atom_site_fract_z
Si Si1 0.127917 0.516002 0.799065
Si Si2 0.103671 0.281788 0.354416
Si Si3 0.500000 0.689810 0.000000
Si Si4 0.856158 0.324780 0.386528
O O1 0.141851 0.644876 0.757917
O O2 0.145683 0.442197 0.681997
O O3 0.000000 0.500000 0.850921
O O4 0.226852 0.485848 0.889542
O O5 0.159632 0.159632 0.344703
O O6 0.144243 0.346477 0.473237
O O7 0.970429 0.258363 0.353040
O O8 0.611324 0.611324 0.010886
O O9 0.750223 0.249778 0.345979
#
# Coordination Sequence:
#
# PCOD8308192 Si02
#       4
#     8   8   4   8
#     4  10  19  33  51  69  91 120 156 192 226 270
#     4   9  17  29  47  71  97 124 152 184 223 267
#     4  11  23  36  50  68  91 119 152 194 240 279
#     4   9  17  29  47  71  97 124 152 184 223 267
#
# _framework density 17.618634
#
# number of rings (size 3 to 8) (size 9 to 14) (size 15 to 20)
#    0.000    2.429    0.000    3.000    0.000    4.000 
#    0.000    2.857    0.000    0.000    0.000   12.000 
#    0.000   20.571    0.000    0.000    0.000    0.000 
#
# Total GULP energy -347047.427149 kJ/mol
# GULP energy per Si atom -12394.550970 kJ/mol
# Density = 1.757853 g / cm^3
# Si number density = 17.618634 Si / 1000 Ang^3
#
#
#
# Elastic Constant Matrix: (Units=GPa)
#
#
# Indices 1 2 3 4 5 6 
#
# 1 71.3604 28.8359 21.6078 0.0000 0.0000 0.0000
# 2 28.8359 71.3576 21.6064 0.0000 0.0000 0.0000
# 3 21.6078 21.6064 50.5327 0.0000 0.0000 0.0000
# 4 0.0000 0.0000 0.0000 22.3669 0.0000 0.0000
# 5 0.0000 0.0000 0.0000 0.0000 22.3667 0.0000
# 6 0.0000 0.0000 0.0000 0.0000 0.0000 27.1482
#
#
#
# Elastic Compliance Matrix: (Units=1/GPa)
#
#
# Indices 1 2 3 4 5 6 
#
# 1 0.017877 -0.005640 -0.005233 0.000000 0.000000 0.000000
# 2 -0.005640 0.017877 -0.005232 0.000000 0.000000 0.000000
# 3 -0.005233 -0.005232 0.024264 0.000000 0.000000 0.000000
# 4 0.000000 0.000000 0.000000 0.044709 0.000000 0.000000
# 5 0.000000 0.000000 0.000000 0.000000 0.044709 0.000000
# 6 0.000000 0.000000 0.000000 0.000000 0.000000 0.036835
#
#
# Mechanical properties :
#
#
# Convention : Reuss Voigt Hill
#
# Bulk Modulus (GPa) = 35.96027 37.48344 36.72185
# Shear Modulus (GPa) = 21.95389 22.45637 22.20513
#
# Velocity S-wave (km/s) = 3.53379 3.57400 3.55395
# Velocity P-wave (km/s) = 6.09138 6.19293 6.14236
#
# Compressibility (1/GPa) = 0.02780847
#
# Stress axis : x y z
#
# Youngs Moduli (GPa) = 55.93852 55.93703 41.21350
#
# Poissons Ratio (x) = 0.31547 0.21566
# Poissons Ratio (y) = 0.31547 0.21564
# Poissons Ratio (z) = 0.29271 0.29268
#
# Static dielectric constant tensor:
#      x y z
#    x 3.221260 0.000000 0.000000 
#    y 0.000000 3.221260 0.000000 
#    z 0.000000 0.000000 3.138890 
# 
# 
# High freq. dielectric constant tensor:
#      x y z
#    x 1.679490 0.000000 0.000000 
#    y 0.000000 1.679490 0.000000 
#    z 0.000000 0.000000 1.668330 
# 
# From -- ./inp_files/2220.got.cif
#   From: 2010.03.12/outbox.cif.g09.slc.cpg/sg111_2_cif.got.tgz:2220.got - 2010.04.14 01:59:48.
