data_PCOD8308612
_publ_section_title
;
Structure prediction by ZEFSAII (Michael W. Deem and Ramdas Pophale) SiO2 
 PCOD8308612
Probable space group: P -4 21 M 
;
_chemical_formula_sum "Si O2"
_cell_formula_units_Z 48
_cell_length_a 12.062240
_cell_length_b 12.062240
_cell_length_c 17.655272
_cell_angle_alpha 90.000000
_cell_angle_beta 90.000000
_cell_angle_gamma 90.000000
_cell_volume 2568.800300
_symmetry_space_group_name_H-M "P -4 21 M "
_symmetry_group_IT_number 113
_symmetry_cell_setting 'tetragonal'
loop_
_space_group_symop_operation_xyz
x,y,z
y,-x,-z
-x,-y,z
-y,x,-z
1/2+x,1/2-y,-z
1/2-x,1/2+y,-z
1/2-y,1/2-x,z
1/2+y,1/2+x,z
loop_
_atom_site_type_symbol
_atom_site_label
_atom_site_fract_x
_atom_site_fract_y
_atom_site_fract_z
Si Si1 0.360603 0.319093 0.091875
Si Si2 0.159011 0.837709 0.325516
Si Si3 0.995930 0.323341 0.615454
Si Si4 0.333958 0.553486 0.485694
Si Si5 0.478485 0.372101 0.817749
Si Si6 0.206718 0.886735 0.071472
O O1 0.291651 0.208349 0.099687
O O2 0.319105 0.403435 0.158361
O O3 0.487032 0.278295 0.097909
O O4 0.340453 0.381764 0.013018
O O5 0.241563 0.741563 0.297402
O O6 0.225750 0.955897 0.330124
O O7 0.110076 0.804278 0.406473
O O8 0.055608 0.848561 0.268708
O O9 0.098664 0.401337 0.592688
O O10 0.897396 0.397396 0.654157
O O11 0.946387 0.273817 0.538278
O O12 0.428704 0.623693 0.528854
O O13 0.500000 0.500000 0.834180
O O14 0.380695 0.327805 0.872111
O O15 0.324149 0.824149 0.078289
#
# Coordination Sequence:
#
# PCOD8308612 Si02
#       6
#     8   8   8   8   8   8
#     4  10  20  36  58  85 113 145 188 230 276 330
#     4  10  20  34  54  81 108 144 181 220 277 337
#     4   9  18  33  53  78 107 139 179 229 279 324
#     4   9  18  31  54  76 106 140 186 227 268 322
#     4  10  21  34  58  79 111 145 186 225 275 328
#     4  10  19  35  59  83 111 147 186 230 276 328
#
# _framework density 18.685766000000001
#
# number of rings (size 3 to 8) (size 9 to 14) (size 15 to 20)
#    0.000    2.333    1.667    1.000    4.667    1.000 
#    0.000    4.167    0.000    7.000    0.000    0.000 
#    0.000    0.000    0.000    0.000    0.000    0.000 
#
# Total GULP energy -594964.669182 kJ/mol
# GULP energy per Si atom -12395.097275 kJ/mol
# Density = 1.864324 g / cm^3
# Si number density = 18.685766 Si / 1000 Ang^3
#
#
#
# Elastic Constant Matrix: (Units=GPa)
#
#
# Indices 1 2 3 4 5 6 
#
# 1 81.7146 38.5926 27.9957 0.0000 0.0000 0.0000
# 2 38.5926 81.7150 27.9956 0.0000 0.0000 0.0000
# 3 27.9957 27.9956 69.9433 0.0000 0.0000 0.0000
# 4 0.0000 0.0000 0.0000 24.1949 0.0000 0.0000
# 5 0.0000 0.0000 0.0000 0.0000 24.1950 0.0000
# 6 0.0000 0.0000 0.0000 0.0000 0.0000 17.2648
#
#
#
# Elastic Compliance Matrix: (Units=1/GPa)
#
#
# Indices 1 2 3 4 5 6 
#
# 1 0.016702 -0.006488 -0.004089 0.000000 0.000000 0.000000
# 2 -0.006488 0.016702 -0.004089 0.000000 0.000000 0.000000
# 3 -0.004089 -0.004089 0.017570 0.000000 0.000000 0.000000
# 4 0.000000 0.000000 0.000000 0.041331 0.000000 0.000000
# 5 0.000000 0.000000 0.000000 0.000000 0.041331 0.000000
# 6 0.000000 0.000000 0.000000 0.000000 0.000000 0.057921
#
#
# Mechanical properties :
#
#
# Convention : Reuss Voigt Hill
#
# Bulk Modulus (GPa) = 46.19876 46.94896 46.57386
# Shear Modulus (GPa) = 21.91991 22.38353 22.15172
#
# Velocity S-wave (km/s) = 3.42874 3.46481 3.44682
# Velocity P-wave (km/s) = 6.36025 6.41768 6.38903
#
# Compressibility (1/GPa) = 0.02164560
#
# Stress axis : x y z
#
# Youngs Moduli (GPa) = 59.87139 59.87180 56.91404
#
# Poissons Ratio (x) = 0.38842 0.23270
# Poissons Ratio (y) = 0.38842 0.23270
# Poissons Ratio (z) = 0.24480 0.24479
#
# Static dielectric constant tensor:
#      x y z
#    x 3.447620 0.000000 0.000000 
#    y 0.000000 3.447620 0.000000 
#    z 0.000000 0.000000 3.240370 
# 
# 
# High freq. dielectric constant tensor:
#      x y z
#    x 1.721250 0.000000 0.000000 
#    y 0.000000 1.721250 0.000000 
#    z 0.000000 0.000000 1.710310 
# 
# From -- ./inp_files/2465.got.cif
#   From: 2010.03.12/outbox.cif.g09.slc.cpg/sg113_cif.got.tgz:2465.got - 2010.04.14 02:06:34.
