data_PCOD8308615
_publ_section_title
;
Structure prediction by ZEFSAII (Michael W. Deem and Ramdas Pophale) SiO2 
 PCOD8308615
Probable space group: P -4 21 M 
;
_chemical_formula_sum "Si O2"
_cell_formula_units_Z 48
_cell_length_a 11.226690
_cell_length_b 11.226690
_cell_length_c 18.547579
_cell_angle_alpha 90.000000
_cell_angle_beta 90.000000
_cell_angle_gamma 90.000000
_cell_volume 2337.710304
_symmetry_space_group_name_H-M "P -4 21 M "
_symmetry_group_IT_number 113
_symmetry_cell_setting 'tetragonal'
loop_
_space_group_symop_operation_xyz
x,y,z
y,-x,-z
-x,-y,z
-y,x,-z
1/2+x,1/2-y,-z
1/2-x,1/2+y,-z
1/2-y,1/2-x,z
1/2+y,1/2+x,z
loop_
_atom_site_type_symbol
_atom_site_label
_atom_site_fract_x
_atom_site_fract_y
_atom_site_fract_z
Si Si1 0.747126 0.563779 0.422023
Si Si2 0.742785 0.435032 0.089124
Si Si3 0.051696 0.260550 0.941431
Si Si4 0.874533 0.941364 0.314108
Si Si5 0.864130 0.820379 0.574925
Si Si6 0.662441 0.352870 0.838347
O O1 0.882271 0.617730 0.427407
O O2 0.686221 0.623856 0.352955
O O3 0.735909 0.422114 0.410538
O O4 0.668286 0.590483 0.492930
O O5 0.853418 0.353418 0.119812
O O6 0.639437 0.351182 0.058995
O O7 0.681284 0.522930 0.148199
O O8 0.789184 0.515177 0.023362
O O9 0.121622 0.378379 0.911921
O O10 0.934480 0.227051 0.897274
O O11 0.816071 0.923440 0.236279
O O12 0.808289 0.030556 0.367728
O O13 0.000000 0.000000 0.299665
O O14 0.805957 0.694044 0.585505
O O15 0.726703 0.226703 0.836321
#
# Coordination Sequence:
#
# PCOD8308615 Si02
#       6
#     8   8   8   8   8   8
#     4  10  19  35  59  88 120 156 200 252 302 364
#     4  11  23  41  66  95 126 167 221 270 317 379
#     4  11  23  40  64  93 126 169 218 264 314 378
#     4  10  21  38  62  86 117 159 206 250 308 370
#     4  10  20  35  60  89 119 157 204 250 303 370
#     4  12  25  41  62  94 129 169 210 261 328 385
#
# _framework density 20.532912
#
# number of rings (size 3 to 8) (size 9 to 14) (size 15 to 20)
#    0.000    1.333    3.333    3.000    0.000    3.333 
#    0.000    5.000    0.000    5.500    0.000    0.000 
#    0.000    0.000    0.000    0.000    0.000    0.000 
#
# Total GULP energy -594746.150978 kJ/mol
# GULP energy per Si atom -12390.544812 kJ/mol
# Density = 2.048618 g / cm^3
# Si number density = 20.532912 Si / 1000 Ang^3
#
#
#
# Elastic Constant Matrix: (Units=GPa)
#
#
# Indices 1 2 3 4 5 6 
#
# 1 59.2692 43.4644 18.4428 0.0000 0.0000 0.0000
# 2 43.4644 59.2713 18.4428 0.0000 0.0000 0.0000
# 3 18.4428 18.4428 101.7304 0.0000 0.0000 0.0000
# 4 0.0000 0.0000 0.0000 686.3581 0.0000 0.0000
# 5 0.0000 0.0000 0.0000 0.0000 709.0426 0.0000
# 6 0.0000 0.0000 0.0000 0.0000 0.0000 33.7764
#
#
#
# Elastic Compliance Matrix: (Units=1/GPa)
#
#
# Indices 1 2 3 4 5 6 
#
# 1 0.036840 -0.026428 -0.001888 0.000000 0.000000 0.000000
# 2 -0.026428 0.036839 -0.001887 0.000000 0.000000 0.000000
# 3 -0.001888 -0.001887 0.010514 0.000000 0.000000 0.000000
# 4 0.000000 0.000000 0.000000 0.001457 0.000000 0.000000
# 5 0.000000 0.000000 0.000000 0.000000 0.001410 0.000000
# 6 0.000000 0.000000 0.000000 0.000000 0.000000 0.029606
#
#
# Mechanical properties :
#
#
# Convention : Reuss Voigt Hill
#
# Bulk Modulus (GPa) = 42.03937 42.33012 42.18474
# Shear Modulus (GPa) = 27.02662 295.16347 161.09505
#
# Velocity S-wave (km/s) = 3.63196 12.00264 8.86720
# Velocity P-wave (km/s) = 6.17307 14.58578 11.19937
#
# Compressibility (1/GPa) = 0.02378723
#
# Stress axis : x y z
#
# Youngs Moduli (GPa) = 27.14416 27.14518 95.10880
#
# Poissons Ratio (x) = 0.71740 0.17953
# Poissons Ratio (y) = 0.71737 0.17951
# Poissons Ratio (z) = 0.05124 0.05123
#
# Static dielectric constant tensor:
#      x y z
#    x -4.174040 0.000000 0.000000 
#    y 0.000000 -4.442730 0.000000 
#    z 0.000000 0.000000 3.846970 
# 
# 
# High freq. dielectric constant tensor:
#      x y z
#    x 1.800390 0.000000 0.000000 
#    y 0.000000 1.800390 0.000000 
#    z 0.000000 0.000000 1.794250 
# 
# From -- ./inp_files/2470.got.cif
#   From: 2010.03.12/outbox.cif.g09.slc.cpg/sg113_cif.got.tgz:2470.got - 2010.04.14 02:06:34.
