data_PCOD8308155
_publ_section_title
;
Structure prediction by ZEFSAII (Michael W. Deem and Ramdas Pophale) SiO2 
 PCOD8308155
Probable space group: P -4 2 M 
;
_chemical_formula_sum "Si O2"
_cell_formula_units_Z 56
_cell_length_a 11.738824
_cell_length_b 11.738824
_cell_length_c 22.497040
_cell_angle_alpha 90.000000
_cell_angle_beta 90.000000
_cell_angle_gamma 90.000000
_cell_volume 3100.091862
_symmetry_space_group_name_H-M "P -4 2 M "
_symmetry_group_IT_number 111
_symmetry_cell_setting 'tetragonal'
loop_
_space_group_symop_operation_xyz
x,y,z
y,-x,-z
-x,-y,z
-y,x,-z
x,-y,-z
-x,y,-z
-y,-x,z
y,x,z
loop_
_atom_site_type_symbol
_atom_site_label
_atom_site_fract_x
_atom_site_fract_y
_atom_site_fract_z
Si Si1 0.605597 0.215379 0.572187
Si Si2 0.183672 0.998721 0.748789
Si Si3 0.371127 0.981640 0.652439
Si Si4 0.781505 0.397732 0.924567
Si Si5 0.354326 0.828671 0.442082
Si Si6 0.766555 0.950290 0.119141
Si Si7 0.165151 0.346417 0.942138
O O1 0.660068 0.339933 0.572675
O O2 0.643681 0.146379 0.512722
O O3 0.471080 0.234685 0.575173
O O4 0.648157 0.146795 0.629974
O O5 0.120886 0.879115 0.736800
O O6 0.217342 0.009279 0.817527
O O7 0.294543 0.009228 0.708717
O O8 0.102516 0.102516 0.731534
O O9 0.341238 0.056435 0.594828
O O10 0.500000 0.000000 0.673635
O O11 0.648406 0.351595 0.923067
O O12 0.852429 0.329353 0.874932
O O13 0.801799 0.531440 0.912425
O O14 0.837545 0.362381 0.987278
O O15 0.251050 0.748951 0.423018
O O16 0.886747 0.886747 0.098698
O O17 0.715368 0.046893 0.075456
O O18 0.265747 0.265747 0.920436
#
# Coordination Sequence:
#
# PCOD8308155 Si02
#       7
#     8   8   8   8   8   8   8
#     4   9  17  29  46  68  94 123 153 187 229 275
#     4  10  21  36  52  69  92 123 159 200 241 282
#     4  10  19  31  48  70  94 120 154 193 234 281
#     4   9  19  34  52  76 104 134 167 201 239 288
#     4   9  17  29  46  68  94 123 153 188 228 273
#     4  10  20  34  51  72  99 129 164 206 249 293
#     4  10  19  32  53  78 104 134 164 199 244 291
#
# _framework density 18.063981999999999
#
# number of rings (size 3 to 8) (size 9 to 14) (size 15 to 20)
#    0.000    2.429    0.000    2.571    0.000    5.429 
#    0.000    3.571    0.000    5.143    0.000    6.000 
#    0.000    6.857    0.000    0.000    0.000    0.000 
#
# Total GULP energy -693901.540187 kJ/mol
# GULP energy per Si atom -12391.098932 kJ/mol
# Density = 1.802287 g / cm^3
# Si number density = 18.063982 Si / 1000 Ang^3
#
#
#
# Elastic Constant Matrix: (Units=GPa)
#
#
# Indices 1 2 3 4 5 6 
#
# 1 84.6803 47.6848 24.4688 0.0000 0.0000 0.0000
# 2 47.6848 84.6773 24.4681 0.0000 0.0000 0.0000
# 3 24.4688 24.4681 38.5251 0.0000 0.0000 0.0000
# 4 0.0000 0.0000 0.0000 22.0317 0.0000 0.0000
# 5 0.0000 0.0000 0.0000 0.0000 22.0314 0.0000
# 6 0.0000 0.0000 0.0000 0.0000 0.0000 25.8445
#
#
#
# Elastic Compliance Matrix: (Units=1/GPa)
#
#
# Indices 1 2 3 4 5 6 
#
# 1 0.018452 -0.008579 -0.006271 0.000000 0.000000 0.000000
# 2 -0.008579 0.018453 -0.006271 0.000000 0.000000 0.000000
# 3 -0.006271 -0.006271 0.033923 0.000000 0.000000 0.000000
# 4 0.000000 0.000000 0.000000 0.045389 0.000000 0.000000
# 5 0.000000 0.000000 0.000000 0.000000 0.045390 0.000000
# 6 0.000000 0.000000 0.000000 0.000000 0.000000 0.038693
#
#
# Mechanical properties :
#
#
# Convention : Reuss Voigt Hill
#
# Bulk Modulus (GPa) = 34.98221 44.56960 39.77590
# Shear Modulus (GPa) = 19.83579 21.39893 20.61736
#
# Velocity S-wave (km/s) = 3.31733 3.44556 3.38206
# Velocity P-wave (km/s) = 5.83787 6.36836 6.10887
#
# Compressibility (1/GPa) = 0.02858596
#
# Stress axis : x y z
#
# Youngs Moduli (GPa) = 54.19436 54.19271 29.47874
#
# Poissons Ratio (x) = 0.46492 0.18486
# Poissons Ratio (y) = 0.46493 0.18486
# Poissons Ratio (z) = 0.33985 0.33983
#
# Static dielectric constant tensor:
#      x y z
#    x 3.395740 0.000000 0.000000 
#    y 0.000000 3.395750 0.000000 
#    z 0.000000 0.000000 3.105620 
# 
# 
# High freq. dielectric constant tensor:
#      x y z
#    x 1.701190 0.000000 0.000000 
#    y 0.000000 1.701190 0.000000 
#    z 0.000000 0.000000 1.674850 
# 
# From -- ./inp_files/3942.got.cif
#   From: 2010.03.12/outbox.cif.g09.slc.cpg/sg111_2_cif.got.tgz:3942.got - 2010.04.14 01:59:48.
