data_PCOD8308793
_publ_section_title
;
Structure prediction by ZEFSAII (Michael W. Deem and Ramdas Pophale) SiO2 
 PCOD8308793
Probable space group: P -4 21 M 
;
_chemical_formula_sum "Si O2"
_cell_formula_units_Z 64
_cell_length_a 20.479375
_cell_length_b 20.479375
_cell_length_c 10.440890
_cell_angle_alpha 90.000000
_cell_angle_beta 90.000000
_cell_angle_gamma 90.000000
_cell_volume 4378.959386
_symmetry_space_group_name_H-M "P -4 21 M "
_symmetry_group_IT_number 113
_symmetry_cell_setting 'tetragonal'
loop_
_space_group_symop_operation_xyz
x,y,z
y,-x,-z
-x,-y,z
-y,x,-z
1/2+x,1/2-y,-z
1/2-x,1/2+y,-z
1/2-y,1/2-x,z
1/2+y,1/2+x,z
loop_
_atom_site_type_symbol
_atom_site_label
_atom_site_fract_x
_atom_site_fract_y
_atom_site_fract_z
Si Si1 0.424696 0.818725 0.219321
Si Si2 0.667975 0.722566 0.620185
Si Si3 0.178663 0.425991 0.482689
Si Si4 0.667979 0.277441 0.620195
Si Si5 0.327073 0.282578 0.129716
Si Si6 0.924701 0.318729 0.780681
Si Si7 0.574003 0.821346 0.517310
Si Si8 0.672933 0.282583 0.129727
O O1 0.385368 0.885368 0.187547
O O2 0.417703 0.801523 0.369008
O O3 0.499997 0.828941 0.179147
O O4 0.394781 0.757582 0.141112
O O5 0.729410 0.770591 0.619040
O O6 0.673605 0.673616 0.499991
O O7 0.601232 0.763218 0.605883
O O8 0.667360 0.681383 0.751652
O O9 0.111875 0.388125 0.453829
O O10 0.236798 0.398768 0.394121
O O11 0.165898 0.499996 0.443901
O O12 0.729408 0.229408 0.619049
O O13 0.667364 0.318620 0.751666
O O14 0.267978 0.232023 0.130925
O O15 0.394786 0.242414 0.141110
O O16 0.325395 0.325388 0.999993
O O17 0.885373 0.385373 0.812457
O O18 0.917706 0.301530 0.630992
O O19 0.611861 0.888140 0.546163
O O20 0.732028 0.232028 0.130937
#
# Coordination Sequence:
#
# PCOD8308793 Si02
#       8
#     8   8   8   8   8   8   8   8
#     4   9  16  26  40  60  87 116 144 172 204 248
#     4   9  14  24  41  58  78 104 135 172 213 249
#     4   9  16  25  39  60  86 116 146 174 206 249
#     4   9  14  24  41  58  78 104 135 172 213 249
#     4   9  16  26  41  61  82 106 137 177 220 250
#     4   9  16  26  40  60  87 116 144 172 204 248
#     4   9  16  25  39  60  86 116 146 174 206 249
#     4   9  16  26  41  61  82 106 137 177 220 250
#
# _framework density 14.615345
#
# number of rings (size 3 to 8) (size 9 to 14) (size 15 to 20)
#    0.000    3.000    2.500    0.000    0.000    0.500 
#    0.000    3.750    0.000    0.000    0.000    0.000 
#    0.000   16.000    0.000    0.000    0.000    0.000 
#
# Total GULP energy -793291.974496 kJ/mol
# GULP energy per Si atom -12395.187101 kJ/mol
# Density = 1.458208 g / cm^3
# Si number density = 14.615345 Si / 1000 Ang^3
#
#
#
# Elastic Constant Matrix: (Units=GPa)
#
#
# Indices 1 2 3 4 5 6 
#
# 1 69.0424 66.1354 43.4793 0.0000 0.0000 0.0000
# 2 66.1354 69.0421 43.4789 0.0000 0.0000 0.0000
# 3 43.4793 43.4789 86.7396 0.0000 0.0000 0.0000
# 4 0.0000 0.0000 0.0000 14.2929 0.0000 0.0000
# 5 0.0000 0.0000 0.0000 0.0000 14.2936 0.0000
# 6 0.0000 0.0000 0.0000 0.0000 0.0000 13.2493
#
#
#
# Elastic Compliance Matrix: (Units=1/GPa)
#
#
# Indices 1 2 3 4 5 6 
#
# 1 0.177464 -0.166546 -0.005474 0.000000 0.000000 0.000000
# 2 -0.166546 0.177464 -0.005472 0.000000 0.000000 0.000000
# 3 -0.005474 -0.005472 0.017015 0.000000 0.000000 0.000000
# 4 0.000000 0.000000 0.000000 0.069965 0.000000 0.000000
# 5 0.000000 0.000000 0.000000 0.000000 0.069961 0.000000
# 6 0.000000 0.000000 0.000000 0.000000 0.000000 0.075476
#
#
# Mechanical properties :
#
#
# Convention : Reuss Voigt Hill
#
# Bulk Modulus (GPa) = 58.96068 59.00124 58.98096
# Shear Modulus (GPa) = 5.27436 13.14918 9.21177
#
# Velocity S-wave (km/s) = 1.90174 3.00273 2.51326
# Velocity P-wave (km/s) = 6.72691 7.24423 6.99036
#
# Compressibility (1/GPa) = 0.01696046
#
# Stress axis : x y z
#
# Youngs Moduli (GPa) = 5.63494 5.63495 58.76997
#
# Poissons Ratio (x) = 0.93848 0.32170
# Poissons Ratio (y) = 0.93847 0.32159
# Poissons Ratio (z) = 0.03084 0.03083
#
# Static dielectric constant tensor:
#      x y z
#    x 2.650390 0.000000 0.000000 
#    y 0.000000 2.650390 0.000000 
#    z 0.000000 0.000000 2.978100 
# 
# 
# High freq. dielectric constant tensor:
#      x y z
#    x 1.532300 0.000000 0.000000 
#    y 0.000000 1.532300 0.000000 
#    z 0.000000 0.000000 1.547320 
# 
# From -- ./inp_files/1404.got.cif
#   From: 2010.03.12/outbox.cif.g09.slc.cpg/sg113_cif.got.tgz:1404.got - 2010.04.14 02:06:34.
