data_PCOD8308879
_publ_section_title
;
Structure prediction by ZEFSAII (Michael W. Deem and Ramdas Pophale) SiO2 
 PCOD8308879
Probable space group: P -4 21 C
;
_chemical_formula_sum "Si O2"
_cell_formula_units_Z 34
_cell_length_a 8.009946
_cell_length_b 8.009946
_cell_length_c 21.784442
_cell_angle_alpha 90.000000
_cell_angle_beta 90.000000
_cell_angle_gamma 90.000000
_cell_volume 1397.673132
_symmetry_space_group_name_H-M "P -4 21 C"
_symmetry_group_IT_number 114
_symmetry_cell_setting 'tetragonal'
loop_
_space_group_symop_operation_xyz
x,y,z
y,-x,-z
-x,-y,z
-y,x,-z
1/2+x,1/2-y,1/2-z
1/2-x,1/2+y,1/2-z
1/2-y,1/2-x,1/2+z
1/2+y,1/2+x,1/2+z
loop_
_atom_site_type_symbol
_atom_site_label
_atom_site_fract_x
_atom_site_fract_y
_atom_site_fract_z
Si Si1 0.750680 0.231090 0.427069
Si Si2 0.500000 0.500000 0.585265
Si Si3 0.180248 0.788325 0.186682
Si Si4 0.500000 0.000000 0.867812
Si Si5 0.180900 0.040937 0.682695
Si Si6 0.000000 0.000000 0.500000
O O1 0.642691 0.392872 0.453248
O O2 0.613079 0.093168 0.416696
O O3 0.827000 0.279771 0.360083
O O4 0.903802 0.153845 0.466337
O O5 0.619767 0.393073 0.628043
O O6 0.118046 0.599364 0.179145
O O7 0.116980 0.860535 0.250895
O O8 0.379480 0.797574 0.186896
O O9 0.000000 0.000000 0.652066
#
# Coordination Sequence:
#
# PCOD8308879 Si02
#       6
#     8   4   8   4   8   2
#     4  11  24  45  73 101 140 178 243 291 364 414
#     4  10  24  43  66 107 136 180 228 302 346 428
#     4  11  22  36  64  97 148 184 231 273 352 413
#     4  10  20  42  66  96 136 186 222 296 342 438
#     4  12  23  39  62 103 142 194 232 282 338 430
#     4  12  24  50  80 104 132 190 236 308 368 434
#
# _framework density 24.326146000000001
#
# number of rings (size 3 to 8) (size 9 to 14) (size 15 to 20)
#    0.000    0.941    4.706    2.824    0.000    0.941 
#    0.000    7.059    0.000    5.647    0.000    0.000 
#    0.000    0.000    0.000    0.000    0.000    0.000 
#
# Total GULP energy -421205.993743 kJ/mol
# GULP energy per Si atom -12388.411581 kJ/mol
# Density = 2.427078 g / cm^3
# Si number density = 24.326146 Si / 1000 Ang^3
#
#
#
# Elastic Constant Matrix: (Units=GPa)
#
#
# Indices 1 2 3 4 5 6 
#
# 1 119.9976 42.5918 17.6925 0.0000 0.0000 0.0000
# 2 42.5918 119.9976 17.6925 0.0000 0.0000 0.0000
# 3 17.6925 17.6925 50.6029 0.0000 0.0000 0.0000
# 4 0.0000 0.0000 0.0000 12.7165 0.0000 0.0000
# 5 0.0000 0.0000 0.0000 0.0000 12.7165 0.0000
# 6 0.0000 0.0000 0.0000 0.0000 0.0000 52.8409
#
#
#
# Elastic Compliance Matrix: (Units=1/GPa)
#
#
# Indices 1 2 3 4 5 6 
#
# 1 0.009788 -0.003131 -0.002328 0.000000 0.000000 0.000000
# 2 -0.003131 0.009788 -0.002328 0.000000 0.000000 0.000000
# 3 -0.002328 -0.002328 0.021389 0.000000 0.000000 0.000000
# 4 0.000000 0.000000 0.000000 0.078638 0.000000 0.000000
# 5 0.000000 0.000000 0.000000 0.000000 0.078638 0.000000
# 6 0.000000 0.000000 0.000000 0.000000 0.000000 0.018925
#
#
# Mechanical properties :
#
#
# Convention : Reuss Voigt Hill
#
# Bulk Modulus (GPa) = 39.38060 49.61686 44.49873
# Shear Modulus (GPa) = 20.72947 29.82952 25.27950
#
# Velocity S-wave (km/s) = 2.92232 3.50556 3.22714
# Velocity P-wave (km/s) = 5.25456 6.06845 5.67611
#
# Compressibility (1/GPa) = 0.02539322
#
# Stress axis : x y z
#
# Youngs Moduli (GPa) = 102.16621 102.16621 46.75239
#
# Poissons Ratio (x) = 0.31988 0.10882
# Poissons Ratio (y) = 0.31988 0.10882
# Poissons Ratio (z) = 0.23779 0.23779
#
# Static dielectric constant tensor:
#      x y z
#    x 4.705890 0.000000 0.000000 
#    y 0.000000 4.705890 0.000000 
#    z 0.000000 0.000000 3.976310 
# 
# 
# High freq. dielectric constant tensor:
#      x y z
#    x 1.977930 0.000000 0.000000 
#    y 0.000000 1.977930 0.000000 
#    z 0.000000 0.000000 1.939870 
# 
# From -- ./inp_files/3014.got.cif
#   From: 2010.03.12/outbox.cif.g09.slc.cpg/sg114_2_cif.got.tgz:3014.got - 2010.04.14 02:08:34.
