data_PCOD8308399
_publ_section_title
;
Structure prediction by ZEFSAII (Michael W. Deem and Ramdas Pophale) SiO2 
 PCOD8308399
Probable space group: P -4 2 C
;
_chemical_formula_sum "Si O2"
_cell_formula_units_Z 40
_cell_length_a 13.926944
_cell_length_b 13.926944
_cell_length_c 10.052647
_cell_angle_alpha 90.000000
_cell_angle_beta 90.000000
_cell_angle_gamma 90.000000
_cell_volume 1949.809092
_symmetry_space_group_name_H-M "P -4 2 C"
_symmetry_group_IT_number 112
_symmetry_cell_setting 'tetragonal'
loop_
_space_group_symop_operation_xyz
x,y,z
y,-x,-z
-x,-y,z
-y,x,-z
x,-y,1/2-z
-x,y,1/2-z
-y,-x,1/2+z
y,x,1/2+z
loop_
_atom_site_type_symbol
_atom_site_label
_atom_site_fract_x
_atom_site_fract_y
_atom_site_fract_z
Si Si1 0.844964 0.500000 0.750000
Si Si2 0.000000 0.344964 0.750000
Si Si3 0.105798 0.767397 0.280851
Si Si4 0.377415 0.281241 0.422888
Si Si5 0.781241 0.877415 0.422888
Si Si6 0.732603 0.605798 0.219149
O O1 0.910704 0.589296 0.702065
O O2 0.777829 0.470970 0.626189
O O3 0.029030 0.277829 0.873811
O O4 0.106135 0.816829 0.426938
O O5 0.131485 0.852092 0.176628
O O6 0.176827 0.676827 0.275952
O O7 0.000000 0.727777 0.250000
O O8 0.285973 0.214027 0.418149
O O9 0.352092 0.368516 0.323372
O O10 0.393865 0.316829 0.573062
O O11 0.772223 0.500000 0.250000
#
# Coordination Sequence:
#
# PCOD8308399 Si02
#       6
#     4   4   8   8   8   8
#     4   9  18  34  61  90 112 146 201 252 292 347
#     4   9  18  34  61  90 112 146 201 252 292 347
#     4  10  22  39  61  87 118 158 197 241 296 350
#     4   9  20  37  58  86 119 154 189 236 301 352
#     4   9  20  37  58  86 119 154 189 236 301 352
#     4  10  22  39  61  87 118 158 197 241 296 350
#
# _framework density 20.514828000000001
#
# number of rings (size 3 to 8) (size 9 to 14) (size 15 to 20)
#    0.000    2.600    0.000    0.000    5.600    2.000 
#    0.000    5.000    0.000    0.000    0.000    0.000 
#    0.000    0.000    0.000    0.000    0.000    0.000 
#
# Total GULP energy -495851.723674 kJ/mol
# GULP energy per Si atom -12396.293092 kJ/mol
# Density = 2.046813 g / cm^3
# Si number density = 20.514828 Si / 1000 Ang^3
#
#
#
# Elastic Constant Matrix: (Units=GPa)
#
#
# Indices 1 2 3 4 5 6 
#
# 1 83.4453 41.8850 59.7215 0.0000 0.0000 0.0000
# 2 41.8850 83.4453 59.7215 0.0000 0.0000 0.0000
# 3 59.7215 59.7215 187.0553 0.0000 0.0000 0.0000
# 4 0.0000 0.0000 0.0000 28.9651 0.0000 0.0000
# 5 0.0000 0.0000 0.0000 0.0000 28.9651 0.0000
# 6 0.0000 0.0000 0.0000 0.0000 0.0000 20.1543
#
#
#
# Elastic Compliance Matrix: (Units=1/GPa)
#
#
# Indices 1 2 3 4 5 6 
#
# 1 0.017765 -0.006296 -0.003662 0.000000 0.000000 0.000000
# 2 -0.006296 0.017765 -0.003662 0.000000 0.000000 0.000000
# 3 -0.003662 -0.003662 0.007684 0.000000 0.000000 0.000000
# 4 0.000000 0.000000 0.000000 0.034524 0.000000 0.000000
# 5 0.000000 0.000000 0.000000 0.000000 0.034524 0.000000
# 6 0.000000 0.000000 0.000000 0.000000 0.000000 0.049617
#
#
# Mechanical properties :
#
#
# Convention : Reuss Voigt Hill
#
# Bulk Modulus (GPa) = 62.59864 75.17797 68.88831
# Shear Modulus (GPa) = 25.71434 28.45808 27.08621
#
# Velocity S-wave (km/s) = 3.54425 3.72855 3.63757
# Velocity P-wave (km/s) = 6.87961 7.43380 7.16207
#
# Compressibility (1/GPa) = 0.01597479
#
# Stress axis : x y z
#
# Youngs Moduli (GPa) = 56.29062 56.29062 130.13920
#
# Poissons Ratio (x) = 0.35443 0.47651
# Poissons Ratio (y) = 0.35443 0.47651
# Poissons Ratio (z) = 0.20611 0.20611
#
# Static dielectric constant tensor:
#      x y z
#    x 3.555610 0.000000 0.000000 
#    y 0.000000 3.555610 0.000000 
#    z 0.000000 0.000000 4.272240 
# 
# 
# High freq. dielectric constant tensor:
#      x y z
#    x 1.784610 0.000000 0.000000 
#    y 0.000000 1.784610 0.000000 
#    z 0.000000 0.000000 1.809540 
# 
# From -- ./inp_files/1298.got.cif
#   From: 2010.03.12/outbox.cif.g09.slc.cpg/sg112_1_cif.got.tgz:1298.got - 2010.04.14 02:02:48.
