data_PCOD8308146
_publ_section_title
;
Structure prediction by ZEFSAII (Michael W. Deem and Ramdas Pophale) SiO2 
 PCOD8308146
Probable space group: P -4 2 M 
;
_chemical_formula_sum "Si O2"
_cell_formula_units_Z 56
_cell_length_a 12.638193
_cell_length_b 12.638193
_cell_length_c 21.148918
_cell_angle_alpha 90.000000
_cell_angle_beta 90.000000
_cell_angle_gamma 90.000000
_cell_volume 3377.988135
_symmetry_space_group_name_H-M "P -4 2 M "
_symmetry_group_IT_number 111
_symmetry_cell_setting 'tetragonal'
loop_
_space_group_symop_operation_xyz
x,y,z
y,-x,-z
-x,-y,z
-y,x,-z
x,-y,-z
-x,y,-z
-y,-x,z
y,x,z
loop_
_atom_site_type_symbol
_atom_site_label
_atom_site_fract_x
_atom_site_fract_y
_atom_site_fract_z
Si Si1 0.000000 0.377104 0.657543
Si Si2 0.000000 0.170945 0.574691
Si Si3 0.618618 0.788283 0.116221
Si Si4 0.621374 0.204938 0.741256
Si Si5 0.621372 0.795062 0.741256
Si Si6 0.710831 0.885633 0.000000
Si Si7 0.618617 0.788284 0.883779
O O1 0.000000 0.290086 0.602110
O O2 0.103803 0.354871 0.698613
O O3 0.000000 0.500000 0.632575
O O4 0.896199 0.354871 0.698614
O O5 0.104600 0.104600 0.595870
O O6 0.000000 0.184263 0.500000
O O7 0.895402 0.104599 0.595870
O O8 0.686067 0.686067 0.099622
O O9 0.643266 0.831738 0.186547
O O10 0.640224 0.876622 0.063331
O O11 0.500000 0.748524 0.111614
O O12 0.697890 0.302111 0.721802
O O13 0.500001 0.243238 0.732624
O O14 0.697888 0.697888 0.721803
O O15 0.643264 0.831739 0.813453
O O16 0.805643 0.805643 0.000000
O O17 0.640224 0.876622 0.936669
O O18 0.763388 0.000000 0.000000
O O19 0.686068 0.686068 0.900378
#
# Coordination Sequence:
#
# PCOD8308146 Si02
#       7
#     8   8   8   8   8   8   8
#     4  10  19  30  48  73 101 130 156 191 237 276
#     4   9  18  33  53  75  98 127 162 196 230 272
#     4   9  18  31  46  67  91 115 148 186 227 277
#     4   9  18  31  47  68  95 126 159 195 234 279
#     4   9  18  31  47  68  95 126 159 195 234 279
#     4  10  21  34  48  64  82 112 151 192 238 282
#     4   9  18  31  46  67  91 115 148 186 227 277
#
# _framework density 16.577915999999998
#
# number of rings (size 3 to 8) (size 9 to 14) (size 15 to 20)
#    0.000    2.714    0.000    1.714    2.000    2.143 
#    0.000    2.857    0.000    2.571    0.000    0.000 
#    0.000    0.000    0.000   26.571    0.000    0.286 
#
# Total GULP energy -694007.112798 kJ/mol
# GULP energy per Si atom -12392.984157 kJ/mol
# Density = 1.654018 g / cm^3
# Si number density = 16.577916 Si / 1000 Ang^3
#
#
#
# Elastic Constant Matrix: (Units=GPa)
#
#
# Indices 1 2 3 4 5 6 
#
# 1 103.7254 46.8375 44.9492 0.0000 0.0000 0.0000
# 2 46.8375 103.7242 44.9490 0.0000 0.0000 0.0000
# 3 44.9492 44.9490 66.7059 0.0000 0.0000 0.0000
# 4 0.0000 0.0000 0.0000 22.5858 0.0000 0.0000
# 5 0.0000 0.0000 0.0000 0.0000 22.5858 0.0000
# 6 0.0000 0.0000 0.0000 0.0000 0.0000 15.0914
#
#
#
# Elastic Compliance Matrix: (Units=1/GPa)
#
#
# Indices 1 2 3 4 5 6 
#
# 1 0.014346 -0.003233 -0.007488 0.000000 0.000000 0.000000
# 2 -0.003233 0.014346 -0.007488 0.000000 0.000000 0.000000
# 3 -0.007488 -0.007488 0.025083 0.000000 0.000000 0.000000
# 4 0.000000 0.000000 0.000000 0.044276 0.000000 0.000000
# 5 0.000000 0.000000 0.000000 0.000000 0.044276 0.000000
# 6 0.000000 0.000000 0.000000 0.000000 0.000000 0.066263
#
#
# Mechanical properties :
#
#
# Convention : Reuss Voigt Hill
#
# Bulk Modulus (GPa) = 57.61841 60.84745 59.23293
# Shear Modulus (GPa) = 19.93677 21.21393 20.57535
#
# Velocity S-wave (km/s) = 3.47163 3.58110 3.52679
# Velocity P-wave (km/s) = 7.13451 7.34048 7.23823
#
# Compressibility (1/GPa) = 0.01735556
#
# Stress axis : x y z
#
# Youngs Moduli (GPa) = 69.70740 69.70647 39.86752
#
# Poissons Ratio (x) = 0.22535 0.29854
# Poissons Ratio (y) = 0.22535 0.29854
# Poissons Ratio (z) = 0.52199 0.52199
#
# Static dielectric constant tensor:
#      x y z
#    x 3.099710 0.000000 0.000000 
#    y 0.000000 3.099710 0.000000 
#    z 0.000000 0.000000 3.143490 
# 
# 
# High freq. dielectric constant tensor:
#      x y z
#    x 1.637210 0.000000 0.000000 
#    y 0.000000 1.637210 0.000000 
#    z 0.000000 0.000000 1.629510 
# 
# From -- ./inp_files/3945.got.cif
#   From: 2010.03.12/outbox.cif.g09.slc.cpg/sg111_2_cif.got.tgz:3945.got - 2010.04.14 01:59:48.
