data_PCOD8308148
_publ_section_title
;
Structure prediction by ZEFSAII (Michael W. Deem and Ramdas Pophale) SiO2 
 PCOD8308148
Probable space group: P -4 2 M 
;
_chemical_formula_sum "Si O2"
_cell_formula_units_Z 56
_cell_length_a 12.179689
_cell_length_b 12.179689
_cell_length_c 23.579045
_cell_angle_alpha 90.000000
_cell_angle_beta 90.000000
_cell_angle_gamma 90.000000
_cell_volume 3497.829284
_symmetry_space_group_name_H-M "P -4 2 M "
_symmetry_group_IT_number 111
_symmetry_cell_setting 'tetragonal'
loop_
_space_group_symop_operation_xyz
x,y,z
y,-x,-z
-x,-y,z
-y,x,-z
x,-y,-z
-x,y,-z
-y,-x,z
y,x,z
loop_
_atom_site_type_symbol
_atom_site_label
_atom_site_fract_x
_atom_site_fract_y
_atom_site_fract_z
Si Si1 0.373985 0.803975 0.141130
Si Si2 0.322331 0.500001 0.566401
Si Si3 0.196046 0.626000 0.858876
Si Si4 0.369281 0.000007 0.063848
Si Si5 0.874542 0.305582 0.263614
Si Si6 0.873146 0.499990 0.348623
Si Si7 0.305600 0.125477 0.263610
O O1 0.308092 0.691909 0.133677
O O2 0.499989 0.775868 0.128721
O O3 0.362534 0.853118 0.203613
O O4 0.326689 0.892025 0.096294
O O5 0.297514 0.500000 0.500000
O O6 0.392115 0.607886 0.583318
O O7 0.392118 0.392118 0.583319
O O8 0.205516 0.500000 0.597230
O O9 0.308123 0.691878 0.866329
O O10 0.108006 0.673300 0.903717
O O11 0.146895 0.637471 0.796397
O O12 0.500000 0.000000 0.064769
O O13 0.322543 0.000000 0.000000
O O14 0.801429 0.198572 0.272961
O O15 0.846364 0.392843 0.311968
O O16 0.000012 0.267166 0.267235
O O17 0.846355 0.607115 0.311953
O O18 0.000000 0.500000 0.368763
O O19 0.198605 0.198605 0.272971
#
# Coordination Sequence:
#
# PCOD8308148 Si02
#       7
#     8   8   8   8   8   8   8
#     4  10  19  32  50  70  98 127 156 198 242 289
#     4   9  18  33  51  71 101 138 169 199 235 279
#     4  10  19  32  50  70  98 127 156 198 242 289
#     4   9  18  32  52  71  89 121 161 198 233 282
#     4  10  19  31  48  70  96 128 161 199 244 287
#     4  10  19  30  50  74  99 130 161 205 244 283
#     4  10  19  31  48  70  96 128 161 199 244 287
#
# _framework density 16.009929
#
# number of rings (size 3 to 8) (size 9 to 14) (size 15 to 20)
#    0.000    2.286    2.857    1.286    0.000    1.429 
#    0.000    0.000    0.000    0.429    0.000    5.000 
#    0.000    0.000    0.000   26.571    0.000    0.000 
#
# Total GULP energy -694440.368863 kJ/mol
# GULP energy per Si atom -12400.720873 kJ/mol
# Density = 1.597349 g / cm^3
# Si number density = 16.009929 Si / 1000 Ang^3
#
#
#
# Elastic Constant Matrix: (Units=GPa)
#
#
# Indices 1 2 3 4 5 6 
#
# 1 99.7308 54.8450 48.0054 0.0000 0.0000 0.0000
# 2 54.8450 99.7332 48.0058 0.0000 0.0000 0.0000
# 3 48.0054 48.0058 92.0608 0.0000 0.0000 0.0000
# 4 0.0000 0.0000 0.0000 7.6507 0.0000 0.0000
# 5 0.0000 0.0000 0.0000 0.0000 7.6606 0.0000
# 6 0.0000 0.0000 0.0000 0.0000 0.0000 9.0931
#
#
#
# Elastic Compliance Matrix: (Units=1/GPa)
#
#
# Indices 1 2 3 4 5 6 
#
# 1 0.015923 -0.006355 -0.004990 0.000000 0.000000 0.000000
# 2 -0.006355 0.015923 -0.004989 0.000000 0.000000 0.000000
# 3 -0.004990 -0.004989 0.016066 0.000000 0.000000 0.000000
# 4 0.000000 0.000000 0.000000 0.130708 0.000000 0.000000
# 5 0.000000 0.000000 0.000000 0.000000 0.130539 0.000000
# 6 0.000000 0.000000 0.000000 0.000000 0.000000 0.109973
#
#
# Mechanical properties :
#
#
# Convention : Reuss Voigt Hill
#
# Bulk Modulus (GPa) = 65.59624 65.91524 65.75574
# Shear Modulus (GPa) = 10.94376 14.25877 12.60126
#
# Velocity S-wave (km/s) = 2.61734 2.98756 2.80856
# Velocity P-wave (km/s) = 7.08485 7.29120 7.18876
#
# Compressibility (1/GPa) = 0.01524478
#
# Stress axis : x y z
#
# Youngs Moduli (GPa) = 62.80040 62.80208 62.24339
#
# Poissons Ratio (x) = 0.39910 0.31057
# Poissons Ratio (y) = 0.39909 0.31056
# Poissons Ratio (z) = 0.31334 0.31334
#
# Static dielectric constant tensor:
#      x y z
#    x 2.943950 0.000000 0.000000 
#    y 0.000000 2.943950 0.000000 
#    z 0.000000 0.000000 3.003110 
# 
# 
# High freq. dielectric constant tensor:
#      x y z
#    x 1.611750 0.000000 0.000000 
#    y 0.000000 1.611750 0.000000 
#    z 0.000000 0.000000 1.611540 
# 
# From -- ./inp_files/3979.got.cif
#   From: 2010.03.12/outbox.cif.g09.slc.cpg/sg111_2_cif.got.tgz:3979.got - 2010.04.14 01:59:48.
