data_PCOD8308819
_publ_section_title
;
Structure prediction by ZEFSAII (Michael W. Deem and Ramdas Pophale) SiO2 
 PCOD8308819
Probable space group: P -4 21 C
;
_chemical_formula_sum "Si O2"
_cell_formula_units_Z 36
_cell_length_a 14.132352
_cell_length_b 14.132352
_cell_length_c 9.721157
_cell_angle_alpha 90.000000
_cell_angle_beta 90.000000
_cell_angle_gamma 90.000000
_cell_volume 1941.542266
_symmetry_space_group_name_H-M "P -4 21 C"
_symmetry_group_IT_number 114
_symmetry_cell_setting 'tetragonal'
loop_
_space_group_symop_operation_xyz
x,y,z
y,-x,-z
-x,-y,z
-y,x,-z
1/2+x,1/2-y,1/2-z
1/2-x,1/2+y,1/2-z
1/2-y,1/2-x,1/2+z
1/2+y,1/2+x,1/2+z
loop_
_atom_site_type_symbol
_atom_site_label
_atom_site_fract_x
_atom_site_fract_y
_atom_site_fract_z
Si Si1 0.800100 0.502701 0.277173
Si Si2 0.500000 0.000000 0.129883
Si Si3 0.702512 0.207501 0.602176
Si Si4 0.205396 0.703380 0.352546
Si Si5 0.497568 0.200776 0.033340
O O1 0.765158 0.594868 0.359464
O O2 0.774775 0.408977 0.365075
O O3 0.913036 0.507696 0.265500
O O4 0.758192 0.499600 0.122206
O O5 0.506947 0.912265 0.026307
O O6 0.720094 0.240704 0.446502
O O7 0.770872 0.270655 0.695894
O O8 0.728187 0.095190 0.612829
O O9 0.097136 0.735594 0.387016
#
# Coordination Sequence:
#
# PCOD8308819 Si02
#       5
#     8   4   8   8   8
#     4  10  19  34  56  83 117 149 184 240 294 340
#     4   8  18  28  52  86 112 134 186 234 302 344
#     4  11  22  37  60  87 116 151 195 238 288 345
#     4  11  22  37  60  87 116 151 195 238 288 345
#     4  10  19  34  56  83 117 147 187 236 295 343
#
# _framework density 18.541962000000002
#
# number of rings (size 3 to 8) (size 9 to 14) (size 15 to 20)
#    0.000    1.778    4.444    0.667    0.000    1.778 
#    0.000    0.000    0.000    8.000    0.000    0.000 
#    0.000    0.000    0.000    0.000    0.000    0.000 
#
# Total GULP energy -446160.676887 kJ/mol
# GULP energy per Si atom -12393.352136 kJ/mol
# Density = 1.849976 g / cm^3
# Si number density = 18.541962 Si / 1000 Ang^3
#
#
#
# Elastic Constant Matrix: (Units=GPa)
#
#
# Indices 1 2 3 4 5 6 
#
# 1 90.0927 22.3417 15.4560 0.0000 0.0000 0.0000
# 2 22.3417 90.0927 15.4560 0.0000 0.0000 0.0000
# 3 15.4560 15.4560 62.2192 0.0000 0.0000 0.0000
# 4 0.0000 0.0000 0.0000 30.1214 0.0000 0.0000
# 5 0.0000 0.0000 0.0000 0.0000 30.1214 0.0000
# 6 0.0000 0.0000 0.0000 0.0000 0.0000 24.1986
#
#
#
# Elastic Compliance Matrix: (Units=1/GPa)
#
#
# Indices 1 2 3 4 5 6 
#
# 1 0.012153 -0.002607 -0.002371 0.000000 0.000000 0.000000
# 2 -0.002607 0.012153 -0.002371 0.000000 0.000000 0.000000
# 3 -0.002371 -0.002371 0.017250 0.000000 0.000000 0.000000
# 4 0.000000 0.000000 0.000000 0.033199 0.000000 0.000000
# 5 0.000000 0.000000 0.000000 0.000000 0.033199 0.000000
# 6 0.000000 0.000000 0.000000 0.000000 0.000000 0.041325
#
#
# Mechanical properties :
#
#
# Convention : Reuss Voigt Hill
#
# Bulk Modulus (GPa) = 37.23419 38.76800 38.00110
# Shear Modulus (GPa) = 28.91333 29.49835 29.20584
#
# Velocity S-wave (km/s) = 3.95314 3.99293 3.97309
# Velocity P-wave (km/s) = 6.40008 6.49705 6.44875
#
# Compressibility (1/GPa) = 0.02685703
#
# Stress axis : x y z
#
# Youngs Moduli (GPa) = 82.28430 82.28430 57.96980
#
# Poissons Ratio (x) = 0.21451 0.13747
# Poissons Ratio (y) = 0.21451 0.13747
# Poissons Ratio (z) = 0.19512 0.19512
#
# Static dielectric constant tensor:
#      x y z
#    x 3.355210 0.000000 0.000000 
#    y 0.000000 3.355210 0.000000 
#    z 0.000000 0.000000 3.191440 
# 
# 
# High freq. dielectric constant tensor:
#      x y z
#    x 1.704850 0.000000 0.000000 
#    y 0.000000 1.704850 0.000000 
#    z 0.000000 0.000000 1.718380 
# 
# From -- ./inp_files/706.got.cif
#   From: 2010.03.12/outbox.cif.g09.slc.cpg/sg114_1_cif.got.tgz:706.got - 2010.04.14 02:08:34.
