data_PCOD8308352
_publ_section_title
;
Structure prediction by ZEFSAII (Michael W. Deem and Ramdas Pophale) SiO2 
 PCOD8308352
Probable space group: P -4 2 C
;
_chemical_formula_sum "Si O2"
_cell_formula_units_Z 34
_cell_length_a 9.157076
_cell_length_b 9.157076
_cell_length_c 21.285783
_cell_angle_alpha 90.000000
_cell_angle_beta 90.000000
_cell_angle_gamma 90.000000
_cell_volume 1784.856346
_symmetry_space_group_name_H-M "P -4 2 C"
_symmetry_group_IT_number 112
_symmetry_cell_setting 'tetragonal'
loop_
_space_group_symop_operation_xyz
x,y,z
y,-x,-z
-x,-y,z
-y,x,-z
x,-y,1/2-z
-x,y,1/2-z
-y,-x,1/2+z
y,x,1/2+z
loop_
_atom_site_type_symbol
_atom_site_label
_atom_site_fract_x
_atom_site_fract_y
_atom_site_fract_z
Si Si1 0.632489 0.103984 0.901782
Si Si2 0.213278 0.917180 0.019388
Si Si3 0.000000 0.000000 0.250000
Si Si4 0.671506 0.519609 0.322367
Si Si5 0.850354 0.808570 0.351378
O O1 0.607893 0.253578 0.863767
O O2 0.500000 0.000000 0.886350
O O3 0.771194 0.013616 0.876198
O O4 0.647777 0.133443 0.976935
O O5 0.234246 0.898373 0.093950
O O6 0.085747 0.814216 0.993569
O O7 0.115229 0.904027 0.209892
O O8 0.500000 0.500000 0.335802
O O9 0.709316 0.500000 0.250000
O O10 0.738364 0.676918 0.339030
#
# Coordination Sequence:
#
# PCOD8308352 Si02
#       5
#     8   8   2   8   8
#     4   9  18  35  57  81 106 148 192 238 282 343
#     4   9  17  33  54  77 111 138 177 238 294 337
#     4  12  20  32  64  90 116 144 196 254 288 348
#     4  10  21  38  55  77 114 153 192 234 282 346
#     4  10  20  34  57  87 108 145 196 233 292 345
#
# _framework density 19.049150999999998
#
# number of rings (size 3 to 8) (size 9 to 14) (size 15 to 20)
#    0.000    2.353    0.000    4.235    0.000    3.294 
#   12.706    0.000    0.000    1.412    0.000    0.000 
#    0.000    0.000    0.000    0.000    0.000    0.000 
#
# Total GULP energy -421254.190048 kJ/mol
# GULP energy per Si atom -12389.829119 kJ/mol
# Density = 1.900579 g / cm^3
# Si number density = 19.049151 Si / 1000 Ang^3
#
#
#
# Elastic Constant Matrix: (Units=GPa)
#
#
# Indices 1 2 3 4 5 6 
#
# 1 57.5305 20.8311 29.4648 0.0000 0.0000 0.0000
# 2 20.8311 57.5305 29.4648 0.0000 0.0000 0.0000
# 3 29.4648 29.4648 122.3032 0.0000 0.0000 0.0000
# 4 0.0000 0.0000 0.0000 37.0809 0.0000 0.0000
# 5 0.0000 0.0000 0.0000 0.0000 37.0809 0.0000
# 6 0.0000 0.0000 0.0000 0.0000 0.0000 21.2706
#
#
#
# Elastic Compliance Matrix: (Units=1/GPa)
#
#
# Indices 1 2 3 4 5 6 
#
# 1 0.021417 -0.005832 -0.003755 0.000000 0.000000 0.000000
# 2 -0.005832 0.021417 -0.003755 0.000000 0.000000 0.000000
# 3 -0.003755 -0.003755 0.009986 0.000000 0.000000 0.000000
# 4 0.000000 0.000000 0.000000 0.026968 0.000000 0.000000
# 5 0.000000 0.000000 0.000000 0.000000 0.026968 0.000000
# 6 0.000000 0.000000 0.000000 0.000000 0.000000 0.047013
#
#
# Mechanical properties :
#
#
# Convention : Reuss Voigt Hill
#
# Bulk Modulus (GPa) = 38.26030 44.09840 41.17935
# Shear Modulus (GPa) = 26.43231 29.59340 28.01286
#
# Velocity S-wave (km/s) = 3.72907 3.94576 3.83894
# Velocity P-wave (km/s) = 6.21852 6.63014 6.42762
#
# Compressibility (1/GPa) = 0.02613675
#
# Stress axis : x y z
#
# Youngs Moduli (GPa) = 46.69261 46.69261 100.14505
#
# Poissons Ratio (x) = 0.27230 0.37601
# Poissons Ratio (y) = 0.27230 0.37601
# Poissons Ratio (z) = 0.17532 0.17532
#
# Static dielectric constant tensor:
#      x y z
#    x 3.457670 0.000000 0.000000 
#    y 0.000000 3.457670 0.000000 
#    z 0.000000 0.000000 3.856370 
# 
# 
# High freq. dielectric constant tensor:
#      x y z
#    x 1.724080 0.000000 0.000000 
#    y 0.000000 1.724080 0.000000 
#    z 0.000000 0.000000 1.757770 
# 
# From -- ./inp_files/4652.got.cif
#   From: 2010.03.12/outbox.cif.g09.slc.cpg/sg112_3_cif.got.tgz:4652.got - 2010.04.14 02:02:48.
