data_PCOD8308039
_publ_section_title
;
Structure prediction by ZEFSAII (Michael W. Deem and Ramdas Pophale) SiO2 
 PCOD8308039
Probable space group: I 41 C D
;
_chemical_formula_sum "Si O2"
_cell_formula_units_Z 120
_cell_length_a 24.716371
_cell_length_b 24.716371
_cell_length_c 9.333998
_cell_angle_alpha 90.000000
_cell_angle_beta 90.000000
_cell_angle_gamma 90.000000
_cell_volume 5702.130001
_symmetry_space_group_name_H-M "I 41 C D"
_symmetry_group_IT_number 110
_symmetry_cell_setting 'tetragonal'
loop_
_space_group_symop_operation_xyz
x,y,z
-y,1/2+x,1/4+z
-x,-y,z
y,1/2-x,1/4+z
-x,y,1/2+z
x,-y,1/2+z
1/2-y,-x,1/4+z
1/2+y,x,1/4+z
1/2+x,1/2+y,1/2+z
1/2-y,x,3/4+z
1/2-x,1/2-y,1/2+z
1/2+y,-x,3/4+z
1/2-x,1/2+y,z
1/2+x,1/2-y,z
-y,1/2-x,3/4+z
y,1/2+x,3/4+z
loop_
_atom_site_type_symbol
_atom_site_label
_atom_site_fract_x
_atom_site_fract_y
_atom_site_fract_z
Si Si1 0.235294 0.922869 0.632620
Si Si2 0.325088 0.381113 0.902099
Si Si3 0.500000 0.500000 0.198495
Si Si4 0.739406 0.806461 0.074271
Si Si5 0.897914 0.975597 0.877017
Si Si6 0.644314 0.057314 0.574953
Si Si7 0.101370 0.531993 0.779899
Si Si8 0.167465 0.972565 0.102385
O O1 0.212224 0.911627 0.788750
O O2 0.233099 0.865548 0.545132
O O3 0.297070 0.938971 0.642902
O O4 0.205200 0.975190 0.566276
O O5 0.311353 0.317416 0.911651
O O6 0.387744 0.388738 0.856056
O O7 0.310973 0.413393 0.050051
O O8 0.447536 0.503127 0.296820
O O9 0.500836 0.552792 0.101771
O O10 0.779029 0.769750 0.170468
O O11 0.847321 0.967667 0.769362
O O12 0.913085 0.918427 0.951235
O O13 0.884953 0.017131 0.004466
O O14 0.645218 0.047232 0.402361
O O15 0.620947 0.005175 0.651831
#
# Coordination Sequence:
#
# PCOD8308039 Si02
#       8
#    16  16   8  16  16  16  16  16
#     4  10  23  43  70  89 129 175 216 268 343 400
#     4  10  21  42  67  92 128 176 216 270 339 403
#     4  12  22  36  58  88 124 168 204 252 298 392
#     4   9  20  44  73  95 122 169 225 280 335 393
#     4  12  24  35  60  89 129 171 219 254 319 387
#     4  11  25  41  63  93 130 172 219 266 331 394
#     4  12  24  37  59  90 132 171 212 263 314 388
#     4  12  23  40  61  94 130 168 217 268 324 407
#
# _framework density 21.044768000000001
#
# number of rings (size 3 to 8) (size 9 to 14) (size 15 to 20)
#    0.000    1.067    4.000    2.800    1.867    0.000 
#    2.400    0.000    2.933    0.000    0.000    0.000 
#    0.000    0.000    0.000    0.000    0.000    0.000 
#
# Total GULP energy -743604.580719 kJ/mol
# GULP energy per Si atom -12393.409679 kJ/mol
# Density = 2.099687 g / cm^3
# Si number density = 21.044768 Si / 1000 Ang^3
#
#
#
# Elastic Constant Matrix: (Units=GPa)
#
#
# Indices 1 2 3 4 5 6 
#
# 1 75.4006 34.5419 28.1367 0.0000 0.0000 0.0000
# 2 34.5419 75.4006 28.1367 0.0000 0.0000 0.0000
# 3 28.1367 28.1367 86.1848 0.0000 0.0000 0.0000
# 4 0.0000 0.0000 0.0000 27.6367 0.0000 0.0000
# 5 0.0000 0.0000 0.0000 0.0000 27.6367 0.0000
# 6 0.0000 0.0000 0.0000 0.0000 0.0000 32.3399
#
#
#
# Elastic Compliance Matrix: (Units=1/GPa)
#
#
# Indices 1 2 3 4 5 6 
#
# 1 0.017698 -0.006777 -0.003565 0.000000 0.000000 0.000000
# 2 -0.006777 0.017698 -0.003565 0.000000 0.000000 0.000000
# 3 -0.003565 -0.003565 0.013931 0.000000 0.000000 0.000000
# 4 0.000000 0.000000 0.000000 0.036184 0.000000 0.000000
# 5 0.000000 0.000000 0.000000 0.000000 0.036184 0.000000
# 6 0.000000 0.000000 0.000000 0.000000 0.000000 0.030922
#
#
# Mechanical properties :
#
#
# Convention : Reuss Voigt Hill
#
# Bulk Modulus (GPa) = 46.48786 46.51296 46.50041
# Shear Modulus (GPa) = 26.65241 27.26737 26.95989
#
# Velocity S-wave (km/s) = 3.56260 3.60347 3.58309
# Velocity P-wave (km/s) = 6.24986 6.28197 6.26594
#
# Compressibility (1/GPa) = 0.02151099
#
# Stress axis : x y z
#
# Youngs Moduli (GPa) = 56.50503 56.50503 71.78322
#
# Poissons Ratio (x) = 0.38294 0.25592
# Poissons Ratio (y) = 0.38294 0.25592
# Poissons Ratio (z) = 0.20145 0.20145
#
# Static dielectric constant tensor:
#      x y z
#    x 3.914750 0.000000 0.000000 
#    y 0.000000 3.914750 0.000000 
#    z 0.000000 0.000000 3.829180 
# 
# 
# High freq. dielectric constant tensor:
#      x y z
#    x 1.822460 0.000000 0.000000 
#    y 0.000000 1.822460 0.000000 
#    z 0.000000 0.000000 1.817700 
# 
# From -- ./inp_files/534.got.cif
#   From: 2010.03.12/outbox.cif.g09.slc.cpg/sg110_1_cif.got.tgz:534.got - 2010.04.14 01:58:01.
