data_PCOD8308653
_publ_section_title
;
Structure prediction by ZEFSAII (Michael W. Deem and Ramdas Pophale) SiO2 
 PCOD8308653
Probable space group: P -4 21 M 
;
_chemical_formula_sum "Si O2"
_cell_formula_units_Z 56
_cell_length_a 15.254015
_cell_length_b 15.254015
_cell_length_c 13.042752
_cell_angle_alpha 90.000000
_cell_angle_beta 90.000000
_cell_angle_gamma 90.000000
_cell_volume 3034.852405
_symmetry_space_group_name_H-M "P -4 21 M "
_symmetry_group_IT_number 113
_symmetry_cell_setting 'tetragonal'
loop_
_space_group_symop_operation_xyz
x,y,z
y,-x,-z
-x,-y,z
-y,x,-z
1/2+x,1/2-y,-z
1/2-x,1/2+y,-z
1/2-y,1/2-x,z
1/2+y,1/2+x,z
loop_
_atom_site_type_symbol
_atom_site_label
_atom_site_fract_x
_atom_site_fract_y
_atom_site_fract_z
Si Si1 0.140847 0.505129 0.192011
Si Si2 0.735998 0.383132 0.633746
Si Si3 0.624587 0.546874 0.040036
Si Si4 0.553872 0.323877 0.731183
Si Si5 0.874784 0.955908 0.534674
Si Si6 0.189511 0.453723 0.977954
Si Si7 0.857934 0.502854 0.755123
O O1 0.067489 0.432512 0.201487
O O2 0.221163 0.469770 0.259870
O O3 0.098602 0.598602 0.228979
O O4 0.168895 0.518256 0.073103
O O5 0.808728 0.308728 0.628502
O O6 0.653067 0.343163 0.695082
O O7 0.707729 0.407400 0.517810
O O8 0.776024 0.472321 0.684819
O O9 0.626191 0.539917 0.162577
O O10 0.612252 0.450777 0.993583
O O11 0.712890 0.583933 0.990521
O O12 0.482696 0.359637 0.651449
O O13 0.958907 0.892806 0.535816
O O14 0.131519 0.368482 0.984578
O O15 0.174951 0.503957 0.871903
O O16 0.935211 0.435211 0.738705
O O17 0.899368 0.600633 0.730214
#
# Coordination Sequence:
#
# PCOD8308653 Si02
#       7
#     8   8   8   8   8   8   8
#     4   9  17  30  49  74 104 137 172 210 256 316
#     4  10  20  35  56  79 104 136 179 227 269 316
#     4  10  21  34  51  77 107 136 168 209 258 315
#     4  10  20  35  54  76 104 137 175 216 265 318
#     4   9  20  37  56  74  95 132 176 216 257 310
#     4   9  17  31  50  72 101 136 173 209 250 307
#     4   9  17  30  50  76 105 138 173 211 260 313
#
# _framework density 18.452299
#
# number of rings (size 3 to 8) (size 9 to 14) (size 15 to 20)
#    0.000    2.571    0.000    1.714    0.000    8.571 
#    0.000    7.143    0.000    1.714    0.000    0.000 
#    0.000    0.000    0.000    0.000    0.000    0.000 
#
# Total GULP energy -693979.884759 kJ/mol
# GULP energy per Si atom -12392.497942 kJ/mol
# Density = 1.841030 g / cm^3
# Si number density = 18.452299 Si / 1000 Ang^3
#
#
#
# Elastic Constant Matrix: (Units=GPa)
#
#
# Indices 1 2 3 4 5 6 
#
# 1 78.1124 26.7259 40.5779 0.0000 0.0000 0.0000
# 2 26.7259 78.1104 40.5772 0.0000 0.0000 0.0000
# 3 40.5779 40.5772 77.8450 0.0000 0.0000 0.0000
# 4 0.0000 0.0000 0.0000 23.6648 0.0000 0.0000
# 5 0.0000 0.0000 0.0000 0.0000 23.6653 0.0000
# 6 0.0000 0.0000 0.0000 0.0000 0.0000 25.2031
#
#
#
# Elastic Compliance Matrix: (Units=1/GPa)
#
#
# Indices 1 2 3 4 5 6 
#
# 1 0.017726 -0.001735 -0.008336 0.000000 0.000000 0.000000
# 2 -0.001735 0.017726 -0.008336 0.000000 0.000000 0.000000
# 3 -0.008336 -0.008336 0.021536 0.000000 0.000000 0.000000
# 4 0.000000 0.000000 0.000000 0.042257 0.000000 0.000000
# 5 0.000000 0.000000 0.000000 0.000000 0.042256 0.000000
# 6 0.000000 0.000000 0.000000 0.000000 0.000000 0.039678
#
#
# Mechanical properties :
#
#
# Convention : Reuss Voigt Hill
#
# Bulk Modulus (GPa) = 49.56352 49.98109 49.77231
# Shear Modulus (GPa) = 22.25033 22.91908 22.58470
#
# Velocity S-wave (km/s) = 3.47627 3.52813 3.50230
# Velocity P-wave (km/s) = 6.55982 6.61380 6.58687
#
# Compressibility (1/GPa) = 0.02017613
#
# Stress axis : x y z
#
# Youngs Moduli (GPa) = 56.41508 56.41375 46.43380
#
# Poissons Ratio (x) = 0.09787 0.38705
# Poissons Ratio (y) = 0.09787 0.38705
# Poissons Ratio (z) = 0.47025 0.47024
#
# Static dielectric constant tensor:
#      x y z
#    x 3.507020 0.000000 0.000000 
#    y 0.000000 3.507020 0.000000 
#    z 0.000000 0.000000 3.368590 
# 
# 
# High freq. dielectric constant tensor:
#      x y z
#    x 1.714720 0.000000 0.000000 
#    y 0.000000 1.714720 0.000000 
#    z 0.000000 0.000000 1.707710 
# 
# From -- ./inp_files/1921.got.cif
#   From: 2010.03.12/outbox.cif.g09.slc.cpg/sg113_cif.got.tgz:1921.got - 2010.04.14 02:06:34.
