data_PCOD8308402
_publ_section_title
;
Structure prediction by ZEFSAII (Michael W. Deem and Ramdas Pophale) SiO2 
 PCOD8308402
Probable space group: P -4 2 C
;
_chemical_formula_sum "Si O2"
_cell_formula_units_Z 46
_cell_length_a 10.987969
_cell_length_b 10.987969
_cell_length_c 19.192812
_cell_angle_alpha 90.000000
_cell_angle_beta 90.000000
_cell_angle_gamma 90.000000
_cell_volume 2317.253038
_symmetry_space_group_name_H-M "P -4 2 C"
_symmetry_group_IT_number 112
_symmetry_cell_setting 'tetragonal'
loop_
_space_group_symop_operation_xyz
x,y,z
y,-x,-z
-x,-y,z
-y,x,-z
x,-y,1/2-z
-x,y,1/2-z
-y,-x,1/2+z
y,x,1/2+z
loop_
_atom_site_type_symbol
_atom_site_label
_atom_site_fract_x
_atom_site_fract_y
_atom_site_fract_z
Si Si1 0.000000 0.000000 0.000000
Si Si2 0.627150 0.718705 0.563748
Si Si3 0.274880 0.016501 0.551244
Si Si4 0.000000 0.500000 0.548859
Si Si5 0.565935 0.329840 0.682638
Si Si6 0.067429 0.371172 0.313266
Si Si7 0.258433 0.474162 0.912141
O O1 0.131654 0.000582 0.963039
O O2 0.696771 0.845218 0.571278
O O3 0.515739 0.707993 0.616803
O O4 0.722092 0.617241 0.585149
O O5 0.585307 0.697563 0.484371
O O6 0.377610 0.969500 0.496287
O O7 0.290471 0.931707 0.618114
O O8 0.886773 0.461023 0.597165
O O9 0.500000 0.391735 0.750000
O O10 0.620457 0.205715 0.712417
O O11 0.670107 0.420070 0.654083
O O12 0.000000 0.500000 0.326969
O O13 0.000000 0.302374 0.250000
#
# Coordination Sequence:
#
# PCOD8308402 Si02
#       7
#     2   8   8   4   8   8   8
#     4  12  28  36  62 104 140 164 232 286 332 388
#     4  11  21  38  60  88 133 169 210 266 328 389
#     4  11  22  40  62  94 132 176 220 273 333 399
#     4  10  22  40  61  87 130 182 214 264 336 402
#     4  12  23  37  64  99 127 165 220 282 328 396
#     4  11  19  39  64  90 123 167 219 268 328 402
#     4  11  23  36  60  92 130 167 217 267 330 394
#
# _framework density 19.851089999999999
#
# number of rings (size 3 to 8) (size 9 to 14) (size 15 to 20)
#    0.000    0.870    6.087    2.609    4.870    1.391 
#    0.000    0.435    0.000    2.087    0.000    0.000 
#    0.000    0.000    0.000    0.000    0.000    0.000 
#
# Total GULP energy -569879.104803 kJ/mol
# GULP energy per Si atom -12388.676191 kJ/mol
# Density = 1.980591 g / cm^3
# Si number density = 19.851090 Si / 1000 Ang^3
#
#
#
# Elastic Constant Matrix: (Units=GPa)
#
#
# Indices 1 2 3 4 5 6 
#
# 1 115.6149 27.8115 42.0531 0.0000 0.0000 0.0000
# 2 27.8115 115.6149 42.0531 0.0000 0.0000 0.0000
# 3 42.0531 42.0531 102.5708 0.0000 0.0000 0.0000
# 4 0.0000 0.0000 0.0000 25.1081 0.0000 0.0000
# 5 0.0000 0.0000 0.0000 0.0000 25.1081 0.0000
# 6 0.0000 0.0000 0.0000 0.0000 0.0000 18.9514
#
#
#
# Elastic Compliance Matrix: (Units=1/GPa)
#
#
# Indices 1 2 3 4 5 6 
#
# 1 0.010284 -0.001105 -0.003763 0.000000 0.000000 0.000000
# 2 -0.001105 0.010284 -0.003763 0.000000 0.000000 0.000000
# 3 -0.003763 -0.003763 0.012835 0.000000 0.000000 0.000000
# 4 0.000000 0.000000 0.000000 0.039828 0.000000 0.000000
# 5 0.000000 0.000000 0.000000 0.000000 0.039828 0.000000
# 6 0.000000 0.000000 0.000000 0.000000 0.000000 0.052766
#
#
# Mechanical properties :
#
#
# Convention : Reuss Voigt Hill
#
# Bulk Modulus (GPa) = 61.95781 61.95958 61.95869
# Shear Modulus (GPa) = 26.52961 28.62574 27.57768
#
# Velocity S-wave (km/s) = 3.65969 3.80152 3.73128
# Velocity P-wave (km/s) = 7.00977 7.10976 7.05994
#
# Compressibility (1/GPa) = 0.01614002
#
# Stress axis : x y z
#
# Youngs Moduli (GPa) = 97.23779 97.23779 77.91057
#
# Poissons Ratio (x) = 0.10745 0.29320
# Poissons Ratio (y) = 0.10745 0.29320
# Poissons Ratio (z) = 0.36594 0.36594
#
# Static dielectric constant tensor:
#      x y z
#    x 3.762910 0.000000 0.000000 
#    y 0.000000 3.762910 0.000000 
#    z 0.000000 0.000000 3.759330 
# 
# 
# High freq. dielectric constant tensor:
#      x y z
#    x 1.774070 0.000000 0.000000 
#    y 0.000000 1.774070 0.000000 
#    z 0.000000 0.000000 1.759050 
# 
# From -- ./inp_files/4159.got.cif
#   From: 2010.03.12/outbox.cif.g09.slc.cpg/sg112_3_cif.got.tgz:4159.got - 2010.04.14 02:02:48.
