data_PCOD8308665
_publ_section_title
;
Structure prediction by ZEFSAII (Michael W. Deem and Ramdas Pophale) SiO2 
 PCOD8308665
Probable space group: P -4 21 M 
;
_chemical_formula_sum "Si O2"
_cell_formula_units_Z 48
_cell_length_a 11.131064
_cell_length_b 11.131064
_cell_length_c 18.622188
_cell_angle_alpha 90.000000
_cell_angle_beta 90.000000
_cell_angle_gamma 90.000000
_cell_volume 2307.300002
_symmetry_space_group_name_H-M "P -4 21 M "
_symmetry_group_IT_number 113
_symmetry_cell_setting 'tetragonal'
loop_
_space_group_symop_operation_xyz
x,y,z
y,-x,-z
-x,-y,z
-y,x,-z
1/2+x,1/2-y,-z
1/2-x,1/2+y,-z
1/2-y,1/2-x,z
1/2+y,1/2+x,z
loop_
_atom_site_type_symbol
_atom_site_label
_atom_site_fract_x
_atom_site_fract_y
_atom_site_fract_z
Si Si1 0.006807 0.693998 0.419068
Si Si2 0.003698 0.694989 0.082419
Si Si3 0.805013 0.503699 0.917574
Si Si4 0.653470 0.653461 0.332453
Si Si5 0.193998 0.493193 0.580945
Si Si6 0.594258 0.405736 0.822643
O O1 0.140002 0.640002 0.402240
O O2 0.913842 0.586159 0.409836
O O3 0.975285 0.803557 0.364617
O O4 0.999997 0.744929 0.500006
O O5 0.132688 0.632688 0.099790
O O6 0.900062 0.599939 0.097666
O O7 0.979370 0.809514 0.131085
O O8 0.000005 0.737208 0.999996
O O9 0.900074 0.400074 0.902324
O O10 0.690493 0.479364 0.868905
O O11 0.867305 0.632696 0.900207
O O12 0.750004 0.749997 0.359504
O O13 0.524720 0.696441 0.364606
O O14 0.654330 0.654306 0.246332
O O15 0.140001 0.360000 0.597777
O O16 0.086159 0.586159 0.590175
O O17 0.500000 0.500000 0.791578
#
# Coordination Sequence:
#
# PCOD8308665 Si02
#       6
#     8   8   8   8   8   8
#     4   8  15  31  56  83 108 140 190 245 291 339
#     4   9  20  40  65  89 111 148 204 253 294 346
#     4   9  20  40  65  89 111 148 204 253 294 346
#     4  10  20  36  56  80 110 153 198 234 285 350
#     4   8  15  31  56  83 108 140 190 245 291 339
#     4  12  26  38  54  86 130 161 192 234 299 364
#
# _framework density 20.803535
#
# number of rings (size 3 to 8) (size 9 to 14) (size 15 to 20)
#    0.000    2.667    0.000    3.500    2.333    2.000 
#    3.000    3.333    0.000    0.000    0.000    0.000 
#    0.000    0.000    0.000    0.000    0.000    0.000 
#
# Total GULP energy -594903.273980 kJ/mol
# GULP energy per Si atom -12393.818208 kJ/mol
# Density = 2.075619 g / cm^3
# Si number density = 20.803535 Si / 1000 Ang^3
#
#
#
# Elastic Constant Matrix: (Units=GPa)
#
#
# Indices 1 2 3 4 5 6 
#
# 1 76.4641 47.3730 51.6374 0.0000 0.0000 0.0000
# 2 47.3730 76.4642 51.6375 0.0000 0.0000 0.0000
# 3 51.6374 51.6375 114.4268 0.0000 0.0000 0.0000
# 4 0.0000 0.0000 0.0000 24.8536 0.0000 0.0000
# 5 0.0000 0.0000 0.0000 0.0000 24.8536 0.0000
# 6 0.0000 0.0000 0.0000 0.0000 0.0000 31.0719
#
#
#
# Elastic Compliance Matrix: (Units=1/GPa)
#
#
# Indices 1 2 3 4 5 6 
#
# 1 0.023661 -0.010713 -0.005843 0.000000 0.000000 0.000000
# 2 -0.010713 0.023661 -0.005843 0.000000 0.000000 0.000000
# 3 -0.005843 -0.005843 0.014013 0.000000 0.000000 0.000000
# 4 0.000000 0.000000 0.000000 0.040236 0.000000 0.000000
# 5 0.000000 0.000000 0.000000 0.000000 0.040236 0.000000
# 6 0.000000 0.000000 0.000000 0.000000 0.000000 0.032183
#
#
# Mechanical properties :
#
#
# Convention : Reuss Voigt Hill
#
# Bulk Modulus (GPa) = 60.47200 63.18343 61.82771
# Shear Modulus (GPa) = 22.29145 23.93630 23.11388
#
# Velocity S-wave (km/s) = 3.27696 3.39571 3.33687
# Velocity P-wave (km/s) = 6.59160 6.76845 6.68061
#
# Compressibility (1/GPa) = 0.01653658
#
# Stress axis : x y z
#
# Youngs Moduli (GPa) = 42.26299 42.26311 71.36336
#
# Poissons Ratio (x) = 0.45278 0.41698
# Poissons Ratio (y) = 0.45278 0.41698
# Poissons Ratio (z) = 0.24694 0.24694
#
# Static dielectric constant tensor:
#      x y z
#    x 3.914550 0.000000 0.000000 
#    y 0.000000 3.914550 0.000000 
#    z 0.000000 0.000000 3.557030 
# 
# 
# High freq. dielectric constant tensor:
#      x y z
#    x 1.804890 0.000000 0.000000 
#    y 0.000000 1.804890 0.000000 
#    z 0.000000 0.000000 1.800800 
# 
# From -- ./inp_files/2441.got.cif
#   From: 2010.03.12/outbox.cif.g09.slc.cpg/sg113_cif.got.tgz:2441.got - 2010.04.14 02:06:34.
