data_PCOD8308855
_publ_section_title
;
Structure prediction by ZEFSAII (Michael W. Deem and Ramdas Pophale) SiO2 
 PCOD8308855
Probable space group: P -4 21 C
;
_chemical_formula_sum "Si O2"
_cell_formula_units_Z 32
_cell_length_a 14.375739
_cell_length_b 14.375739
_cell_length_c 8.980864
_cell_angle_alpha 90.000000
_cell_angle_beta 90.000000
_cell_angle_gamma 90.000000
_cell_volume 1856.002165
_symmetry_space_group_name_H-M "P -4 21 C"
_symmetry_group_IT_number 114
_symmetry_cell_setting 'tetragonal'
loop_
_space_group_symop_operation_xyz
x,y,z
y,-x,-z
-x,-y,z
-y,x,-z
1/2+x,1/2-y,1/2-z
1/2-x,1/2+y,1/2-z
1/2-y,1/2-x,1/2+z
1/2+y,1/2+x,1/2+z
loop_
_atom_site_type_symbol
_atom_site_label
_atom_site_fract_x
_atom_site_fract_y
_atom_site_fract_z
Si Si1 0.732798 0.282900 0.886265
Si Si2 0.304500 0.409498 0.625842
Si Si3 0.772359 0.887248 0.918789
Si Si4 0.420839 0.619428 0.054996
O O1 0.731186 0.173851 0.836317
O O2 0.731226 0.352731 0.749758
O O3 0.828215 0.301305 0.981479
O O4 0.643648 0.299339 0.989796
O O5 0.249709 0.502929 0.577579
O O6 0.369659 0.375599 0.488325
O O7 0.368237 0.432245 0.768422
O O8 0.520097 0.626698 0.974738
#
# Coordination Sequence:
#
# PCOD8308855 Si02
#       4
#     8   8   8   8
#     4  10  20  37  53  85 114 153 184 242 290 347
#     4  10  21  36  56  86 115 155 189 240 293 351
#     4  10  21  36  58  84 117 151 195 237 295 351
#     4  11  22  34  58  87 115 145 190 246 298 347
#
# _framework density 17.241358999999999
#
# number of rings (size 3 to 8) (size 9 to 14) (size 15 to 20)
#    1.500    0.250    5.000    0.000    3.500    0.500 
#    0.000    0.000    0.000    1.500    6.500    0.000 
#    0.000    0.000    0.000    0.000    0.000    0.000 
#
# Total GULP energy -396510.804073 kJ/mol
# GULP energy per Si atom -12390.962627 kJ/mol
# Density = 1.720212 g / cm^3
# Si number density = 17.241359 Si / 1000 Ang^3
#
#
#
# Elastic Constant Matrix: (Units=GPa)
#
#
# Indices 1 2 3 4 5 6 
#
# 1 79.5952 45.3362 26.8755 0.0000 0.0000 0.0000
# 2 45.3362 79.5952 26.8755 0.0000 0.0000 0.0000
# 3 26.8755 26.8755 73.6110 0.0000 0.0000 0.0000
# 4 0.0000 0.0000 0.0000 26.0235 0.0000 0.0000
# 5 0.0000 0.0000 0.0000 0.0000 26.0235 0.0000
# 6 0.0000 0.0000 0.0000 0.0000 0.0000 26.0014
#
#
#
# Elastic Compliance Matrix: (Units=1/GPa)
#
#
# Indices 1 2 3 4 5 6 
#
# 1 0.019343 -0.009847 -0.003467 0.000000 0.000000 0.000000
# 2 -0.009847 0.019343 -0.003467 0.000000 0.000000 0.000000
# 3 -0.003467 -0.003467 0.016117 0.000000 0.000000 0.000000
# 4 0.000000 0.000000 0.000000 0.038427 0.000000 0.000000
# 5 0.000000 0.000000 0.000000 0.000000 0.038427 0.000000
# 6 0.000000 0.000000 0.000000 0.000000 0.000000 0.038459
#
#
# Mechanical properties :
#
#
# Convention : Reuss Voigt Hill
#
# Bulk Modulus (GPa) = 47.07969 47.88618 47.48294
# Shear Modulus (GPa) = 23.72402 24.52396 24.12399
#
# Velocity S-wave (km/s) = 3.71346 3.77555 3.74464
# Velocity P-wave (km/s) = 6.76402 6.84403 6.80414
#
# Compressibility (1/GPa) = 0.02124058
#
# Stress axis : x y z
#
# Youngs Moduli (GPa) = 51.69893 51.69893 62.04799
#
# Poissons Ratio (x) = 0.50906 0.21512
# Poissons Ratio (y) = 0.50906 0.21512
# Poissons Ratio (z) = 0.17924 0.17924
#
# Static dielectric constant tensor:
#      x y z
#    x 3.053850 0.000000 0.000000 
#    y 0.000000 3.053850 0.000000 
#    z 0.000000 0.000000 3.298310 
# 
# 
# High freq. dielectric constant tensor:
#      x y z
#    x 1.643910 0.000000 0.000000 
#    y 0.000000 1.643910 0.000000 
#    z 0.000000 0.000000 1.684770 
# 
# From -- ./inp_files/643.got.cif
#   From: 2010.03.12/outbox.cif.g09.slc.cpg/sg114_1_cif.got.tgz:643.got - 2010.04.14 02:08:34.
