data_PCOD8308500
_publ_section_title
;
Structure prediction by ZEFSAII (Michael W. Deem and Ramdas Pophale) SiO2 
 PCOD8308500
Probable space group: P -4 2 C
;
_chemical_formula_sum "Si O2"
_cell_formula_units_Z 40
_cell_length_a 9.205711
_cell_length_b 9.205711
_cell_length_c 22.279870
_cell_angle_alpha 90.000000
_cell_angle_beta 90.000000
_cell_angle_gamma 90.000000
_cell_volume 1888.110146
_symmetry_space_group_name_H-M "P -4 2 C"
_symmetry_group_IT_number 112
_symmetry_cell_setting 'tetragonal'
loop_
_space_group_symop_operation_xyz
x,y,z
y,-x,-z
-x,-y,z
-y,x,-z
x,-y,1/2-z
-x,y,1/2-z
-y,-x,1/2+z
y,x,1/2+z
loop_
_atom_site_type_symbol
_atom_site_label
_atom_site_fract_x
_atom_site_fract_y
_atom_site_fract_z
Si Si1 0.013106 0.327109 0.426373
Si Si2 0.547489 0.333608 0.418721
Si Si3 0.924378 0.148576 0.311895
Si Si4 0.781496 0.710322 0.985705
Si Si5 0.141883 0.581909 0.810953
O O1 0.949138 0.265445 0.364302
O O2 0.941699 0.262257 0.487842
O O3 0.000000 0.500000 0.422834
O O4 0.177844 0.277004 0.436162
O O5 0.500000 0.500000 0.424129
O O6 0.697817 0.308066 0.451651
O O7 0.440048 0.223250 0.451123
O O8 0.562336 0.285773 0.350328
O O9 0.753717 0.115917 0.301004
O O10 0.000000 0.203757 0.250000
O O11 0.000000 0.000000 0.332898
O O12 0.179109 0.500000 0.750000
O O13 0.000000 0.500000 0.839048
#
# Coordination Sequence:
#
# PCOD8308500 Si02
#       5
#     8   8   8   8   8
#     4  12  27  44  68 102 136 177 223 272 337 396
#     4  12  23  44  68  98 139 175 220 273 331 397
#     4  11  26  48  69  97 134 174 225 281 334 393
#     4  12  25  43  66 101 141 177 214 274 334 402
#     4  11  26  46  72  99 129 178 229 275 337 402
#
# _framework density 21.185205
#
# number of rings (size 3 to 8) (size 9 to 14) (size 15 to 20)
#    0.000    0.400    6.000    2.400   11.200    0.800 
#    0.000    2.000    0.000    0.000    0.000    0.000 
#    0.000    0.000    0.000    0.000    0.000    0.000 
#
# Total GULP energy -495839.315855 kJ/mol
# GULP energy per Si atom -12395.982896 kJ/mol
# Density = 2.113699 g / cm^3
# Si number density = 21.185205 Si / 1000 Ang^3
#
#
#
# Elastic Constant Matrix: (Units=GPa)
#
#
# Indices 1 2 3 4 5 6 
#
# 1 82.3572 31.5811 41.0567 0.0000 0.0000 0.0000
# 2 31.5811 82.3572 41.0567 0.0000 0.0000 0.0000
# 3 41.0567 41.0567 99.0344 0.0000 0.0000 0.0000
# 4 0.0000 0.0000 0.0000 55.5635 0.0000 0.0000
# 5 0.0000 0.0000 0.0000 0.0000 55.5635 0.0000
# 6 0.0000 0.0000 0.0000 0.0000 0.0000 27.7956
#
#
#
# Elastic Compliance Matrix: (Units=1/GPa)
#
#
# Indices 1 2 3 4 5 6 
#
# 1 0.016105 -0.003589 -0.005189 0.000000 0.000000 0.000000
# 2 -0.003589 0.016105 -0.005189 0.000000 0.000000 0.000000
# 3 -0.005189 -0.005189 0.014400 0.000000 0.000000 0.000000
# 4 0.000000 0.000000 0.000000 0.017997 0.000000 0.000000
# 5 0.000000 0.000000 0.000000 0.000000 0.017997 0.000000
# 6 0.000000 0.000000 0.000000 0.000000 0.000000 0.035977
#
#
# Mechanical properties :
#
#
# Convention : Reuss Voigt Hill
#
# Bulk Modulus (GPa) = 53.54236 54.57086 54.05661
# Shear Modulus (GPa) = 32.73514 37.78816 35.26165
#
# Velocity S-wave (km/s) = 3.93515 4.22798 4.08419
# Velocity P-wave (km/s) = 6.78053 7.04622 6.91465
#
# Compressibility (1/GPa) = 0.01867680
#
# Stress axis : x y z
#
# Youngs Moduli (GPa) = 62.09155 62.09155 69.44557
#
# Poissons Ratio (x) = 0.22285 0.36034
# Poissons Ratio (y) = 0.22285 0.36034
# Poissons Ratio (z) = 0.32218 0.32218
#
# Static dielectric constant tensor:
#      x y z
#    x 3.876610 0.000000 0.000000 
#    y 0.000000 3.876610 0.000000 
#    z 0.000000 0.000000 3.846640 
# 
# 
# High freq. dielectric constant tensor:
#      x y z
#    x 1.838060 0.000000 0.000000 
#    y 0.000000 1.838060 0.000000 
#    z 0.000000 0.000000 1.835650 
# 
# From -- ./inp_files/5348.got.cif
#   From: 2010.03.12/outbox.cif.g09.slc.cpg/sg112_3_cif.got.tgz:5348.got - 2010.04.14 02:02:48.
