data_PCOD8308536
_publ_section_title
;
Structure prediction by ZEFSAII (Michael W. Deem and Ramdas Pophale) SiO2 
 PCOD8308536
Probable space group: P -4 21 M 
;
_chemical_formula_sum "Si O2"
_cell_formula_units_Z 48
_cell_length_a 15.208064
_cell_length_b 15.208064
_cell_length_c 11.847543
_cell_angle_alpha 90.000000
_cell_angle_beta 90.000000
_cell_angle_gamma 90.000000
_cell_volume 2740.161478
_symmetry_space_group_name_H-M "P -4 21 M "
_symmetry_group_IT_number 113
_symmetry_cell_setting 'tetragonal'
loop_
_space_group_symop_operation_xyz
x,y,z
y,-x,-z
-x,-y,z
-y,x,-z
1/2+x,1/2-y,-z
1/2-x,1/2+y,-z
1/2-y,1/2-x,z
1/2+y,1/2+x,z
loop_
_atom_site_type_symbol
_atom_site_label
_atom_site_fract_x
_atom_site_fract_y
_atom_site_fract_z
Si Si1 0.253230 0.031280 0.193446
Si Si2 0.074109 0.574109 0.941614
Si Si3 0.038787 0.314635 0.346123
Si Si4 0.853934 0.499133 0.588830
Si Si5 0.792047 0.148626 0.810979
Si Si6 0.865582 0.044582 0.012795
Si Si7 0.426031 0.073969 0.802815
O O1 0.337949 0.040282 0.115679
O O2 0.281399 0.992080 0.313485
O O3 0.207153 0.124082 0.216760
O O4 0.185624 0.965464 0.131346
O O5 0.000000 0.500000 0.929354
O O6 0.098441 0.598441 0.069586
O O7 0.102659 0.397342 0.353635
O O8 0.088608 0.228428 0.299092
O O9 0.000461 0.299622 0.471501
O O10 0.959973 0.338917 0.260714
O O11 0.908075 0.408075 0.600154
O O12 0.919256 0.580745 0.599165
O O13 0.708791 0.208791 0.839135
O O14 0.803030 0.087726 0.920043
O O15 0.949742 0.105648 0.035481
O O16 0.500000 0.000000 0.804114
#
# Coordination Sequence:
#
# PCOD8308536 Si02
#       7
#     8   4   8   8   8   8   4
#     4  11  20  33  51  79 111 142 177 223 280 327
#     4  11  20  29  49  83 115 139 172 219 275 337
#     4   9  17  30  49  71  98 135 175 212 258 321
#     4  10  18  31  51  75 107 143 177 220 272 326
#     4  10  19  34  54  77 104 143 181 226 278 325
#     4   9  20  37  56  75 104 146 187 222 268 336
#     4   9  16  27  45  73 101 124 168 215 251 308
#
# _framework density 17.517216000000001
#
# number of rings (size 3 to 8) (size 9 to 14) (size 15 to 20)
#    0.000    2.167    2.500    1.500    0.000    2.667 
#    0.000    1.667    0.000    0.000    0.000    0.000 
#    0.000    0.000    0.000    0.000    0.000    0.000 
#
# Total GULP energy -595178.649221 kJ/mol
# GULP energy per Si atom -12399.555192 kJ/mol
# Density = 1.747735 g / cm^3
# Si number density = 17.517216 Si / 1000 Ang^3
#
#
#
# Elastic Constant Matrix: (Units=GPa)
#
#
# Indices 1 2 3 4 5 6 
#
# 1 64.4560 40.5452 52.4404 0.0000 0.0000 0.0000
# 2 40.5452 64.4563 52.4406 0.0000 0.0000 0.0000
# 3 52.4404 52.4406 154.9760 0.0000 0.0000 0.0000
# 4 0.0000 0.0000 0.0000 3.2247 0.0000 0.0000
# 5 0.0000 0.0000 0.0000 0.0000 3.2241 0.0000
# 6 0.0000 0.0000 0.0000 0.0000 0.0000 21.9227
#
#
#
# Elastic Compliance Matrix: (Units=1/GPa)
#
#
# Indices 1 2 3 4 5 6 
#
# 1 0.028104 -0.013718 -0.004868 0.000000 0.000000 0.000000
# 2 -0.013718 0.028104 -0.004868 0.000000 0.000000 0.000000
# 3 -0.004868 -0.004868 0.009747 0.000000 0.000000 0.000000
# 4 0.000000 0.000000 0.000000 0.310103 0.000000 0.000000
# 5 0.000000 0.000000 0.000000 0.000000 0.310163 0.000000
# 6 0.000000 0.000000 0.000000 0.000000 0.000000 0.045615
#
#
# Mechanical properties :
#
#
# Convention : Reuss Voigt Hill
#
# Bulk Modulus (GPa) = 52.50066 63.86008 58.18037
# Shear Modulus (GPa) = 6.36868 14.90511 10.63689
#
# Velocity S-wave (km/s) = 1.90881 2.92016 2.46687
# Velocity P-wave (km/s) = 5.90712 6.92131 6.43423
#
# Compressibility (1/GPa) = 0.01904738
#
# Stress axis : x y z
#
# Youngs Moduli (GPa) = 35.58210 35.58225 102.59569
#
# Poissons Ratio (x) = 0.48812 0.49943
# Poissons Ratio (y) = 0.48811 0.49943
# Poissons Ratio (z) = 0.17321 0.17321
#
# Static dielectric constant tensor:
#      x y z
#    x 3.199870 0.000000 0.000000 
#    y 0.000000 3.199870 0.000000 
#    z 0.000000 0.000000 3.423060 
# 
# 
# High freq. dielectric constant tensor:
#      x y z
#    x 1.663860 0.000000 0.000000 
#    y 0.000000 1.663860 0.000000 
#    z 0.000000 0.000000 1.681620 
# 
# From -- ./inp_files/1863.got.cif
#   From: 2010.03.12/outbox.cif.g09.slc.cpg/sg113_cif.got.tgz:1863.got - 2010.04.14 02:06:34.
