data_PCOD8308463
_publ_section_title
;
Structure prediction by ZEFSAII (Michael W. Deem and Ramdas Pophale) SiO2 
 PCOD8308463
Probable space group: P -4 2 C
;
_chemical_formula_sum "Si O2"
_cell_formula_units_Z 40
_cell_length_a 11.453526
_cell_length_b 11.453526
_cell_length_c 15.424600
_cell_angle_alpha 90.000000
_cell_angle_beta 90.000000
_cell_angle_gamma 90.000000
_cell_volume 2023.449279
_symmetry_space_group_name_H-M "P -4 2 C"
_symmetry_group_IT_number 112
_symmetry_cell_setting 'tetragonal'
loop_
_space_group_symop_operation_xyz
x,y,z
y,-x,-z
-x,-y,z
-y,x,-z
x,-y,1/2-z
-x,y,1/2-z
-y,-x,1/2+z
y,x,1/2+z
loop_
_atom_site_type_symbol
_atom_site_label
_atom_site_fract_x
_atom_site_fract_y
_atom_site_fract_z
Si Si1 0.137782 0.133669 0.750000
Si Si2 0.500000 0.136705 0.846156
Si Si3 0.271746 0.748848 0.596423
Si Si4 0.251152 0.271746 0.096423
Si Si5 0.500000 0.364378 0.352836
O O1 0.179118 0.202982 0.834772
O O2 0.179118 0.202982 0.665228
O O3 0.000000 0.132261 0.750000
O O4 0.186732 0.000000 0.750000
O O5 0.500000 0.194591 0.750000
O O6 0.388718 0.177796 0.897555
O O7 0.611282 0.177796 0.897555
O O8 0.500000 0.000000 0.837806
O O9 0.225272 0.774728 0.500000
O O10 0.297708 0.612128 0.609735
O O11 0.387872 0.297708 0.109735
O O12 0.500000 0.500000 0.382752
O O13 0.500000 0.355855 0.250000
#
# Coordination Sequence:
#
# PCOD8308463 Si02
#       5
#     8   8   8   8   8
#     4  11  26  48  69  90 126 176 226 275 324 377
#     4  11  21  39  69  98 126 166 221 275 316 371
#     4  12  24  41  66 102 133 169 213 266 329 393
#     4  12  24  41  66 102 133 169 213 266 329 393
#     4  11  21  38  64  99 139 170 203 253 327 402
#
# _framework density 19.768225999999999
#
# number of rings (size 3 to 8) (size 9 to 14) (size 15 to 20)
#    0.000    0.600    6.000    2.400    0.000    3.200 
#    0.000    4.000    0.000    0.000    0.000    0.000 
#    0.000    0.000    0.000    0.000    0.000    0.000 
#
# Total GULP energy -496132.879547 kJ/mol
# GULP energy per Si atom -12403.321989 kJ/mol
# Density = 1.972323 g / cm^3
# Si number density = 19.768226 Si / 1000 Ang^3
#
#
#
# Elastic Constant Matrix: (Units=GPa)
#
#
# Indices 1 2 3 4 5 6 
#
# 1 105.1099 42.0471 50.3218 0.0000 0.0000 0.0000
# 2 42.0471 105.1099 50.3218 0.0000 0.0000 0.0000
# 3 50.3218 50.3218 177.8703 0.0000 0.0000 0.0000
# 4 0.0000 0.0000 0.0000 13.5779 0.0000 0.0000
# 5 0.0000 0.0000 0.0000 0.0000 13.5779 0.0000
# 6 0.0000 0.0000 0.0000 0.0000 0.0000 36.2183
#
#
#
# Elastic Compliance Matrix: (Units=1/GPa)
#
#
# Indices 1 2 3 4 5 6 
#
# 1 0.012141 -0.003716 -0.002384 0.000000 0.000000 0.000000
# 2 -0.003716 0.012141 -0.002384 0.000000 0.000000 0.000000
# 3 -0.002384 -0.002384 0.006971 0.000000 0.000000 0.000000
# 4 0.000000 0.000000 0.000000 0.073649 0.000000 0.000000
# 5 0.000000 0.000000 0.000000 0.000000 0.073649 0.000000
# 6 0.000000 0.000000 0.000000 0.000000 0.000000 0.027610
#
#
# Mechanical properties :
#
#
# Convention : Reuss Voigt Hill
#
# Bulk Modulus (GPa) = 69.99193 74.83017 72.41105
# Shear Modulus (GPa) = 21.94030 29.03479 25.48755
#
# Velocity S-wave (km/s) = 3.33510 3.83660 3.59460
# Velocity P-wave (km/s) = 7.09321 7.58696 7.34423
#
# Compressibility (1/GPa) = 0.01428736
#
# Stress axis : x y z
#
# Youngs Moduli (GPa) = 82.36218 82.36218 143.45426
#
# Poissons Ratio (x) = 0.30604 0.34196
# Poissons Ratio (y) = 0.30604 0.34196
# Poissons Ratio (z) = 0.19633 0.19633
#
# Static dielectric constant tensor:
#      x y z
#    x 3.660230 0.000000 0.000000 
#    y 0.000000 3.660230 0.000000 
#    z 0.000000 0.000000 3.082090 
# 
# 
# High freq. dielectric constant tensor:
#      x y z
#    x 1.774460 0.000000 0.000000 
#    y 0.000000 1.774460 0.000000 
#    z 0.000000 0.000000 1.780950 
# 
# From -- ./inp_files/3292.got.cif
#   From: 2010.03.12/outbox.cif.g09.slc.cpg/sg112_2_cif.got.tgz:3292.got - 2010.04.14 02:02:48.
