data_PCOD8308177
_publ_section_title
;
Structure prediction by ZEFSAII (Michael W. Deem and Ramdas Pophale) SiO2 
 PCOD8308177
Probable space group: P -4 2 M 
;
_chemical_formula_sum "Si O2"
_cell_formula_units_Z 64
_cell_length_a 11.940668
_cell_length_b 11.940668
_cell_length_c 25.121865
_cell_angle_alpha 90.000000
_cell_angle_beta 90.000000
_cell_angle_gamma 90.000000
_cell_volume 3581.864264
_symmetry_space_group_name_H-M "P -4 2 M "
_symmetry_group_IT_number 111
_symmetry_cell_setting 'tetragonal'
loop_
_space_group_symop_operation_xyz
x,y,z
y,-x,-z
-x,-y,z
-y,x,-z
x,-y,-z
-x,y,-z
-y,-x,z
y,x,z
loop_
_atom_site_type_symbol
_atom_site_label
_atom_site_fract_x
_atom_site_fract_y
_atom_site_fract_z
Si Si1 0.281692 0.104682 0.434144
Si Si2 0.804830 0.626797 0.990550
Si Si3 0.500029 0.311022 0.275777
Si Si4 0.321147 0.141647 0.552043
Si Si5 0.894606 0.287068 0.114345
Si Si6 0.314789 0.862138 0.893493
Si Si7 0.514427 0.127280 0.634324
Si Si8 0.127903 0.513551 0.185311
O O1 0.161765 0.161765 0.427594
O O2 0.342458 0.144205 0.488710
O O3 0.358425 0.141641 0.384746
O O4 0.257015 0.972817 0.433289
O O5 0.689379 0.689379 0.977329
O O6 0.887059 0.642118 0.940472
O O7 0.771705 0.500000 0.000000
O O8 0.862824 0.675320 0.042960
O O9 0.610458 0.389542 0.271105
O O10 0.389627 0.389627 0.280306
O O11 0.513790 0.227254 0.325404
O O12 0.486512 0.226543 0.226456
O O13 0.245093 0.245093 0.570989
O O14 0.438329 0.144085 0.582329
O O15 0.826844 0.173157 0.111600
O O16 0.853247 0.360749 0.164280
O O17 0.023330 0.253300 0.122951
O O18 0.240740 0.759261 0.872614
O O19 0.434774 0.855629 0.865716
O O20 0.500000 0.000000 0.657903
O O21 0.000000 0.500000 0.208416
#
# Coordination Sequence:
#
# PCOD8308177 Si02
#       8
#     8   8   8   8   8   8   8   8
#     4   9  17  29  47  72 101 132 164 200 241 284
#     4  10  19  32  50  74 104 135 168 203 240 286
#     4  11  23  37  53  73  99 127 157 202 255 299
#     4   9  17  29  47  72 101 132 164 200 241 284
#     4  10  20  33  52  76 102 132 163 198 240 287
#     4  10  20  33  52  76 102 132 163 198 240 287
#     4  10  19  33  52  72  96 128 169 205 237 285
#     4  10  20  36  57  75  95 125 164 203 242 291
#
# _framework density 17.867791
#
# number of rings (size 3 to 8) (size 9 to 14) (size 15 to 20)
#    0.000    2.125    1.250    2.625    0.000    2.625 
#    0.000    1.250    0.000    2.250    0.000    5.250 
#    0.000   18.000    0.000    0.000    0.000    0.000 
#
# Total GULP energy -793301.390946 kJ/mol
# GULP energy per Si atom -12395.334234 kJ/mol
# Density = 1.782712 g / cm^3
# Si number density = 17.867791 Si / 1000 Ang^3
#
#
#
# Elastic Constant Matrix: (Units=GPa)
#
#
# Indices 1 2 3 4 5 6 
#
# 1 78.3713 28.0441 17.7438 0.0000 0.0000 0.0000
# 2 28.0441 78.3742 17.7445 0.0000 0.0000 0.0000
# 3 17.7438 17.7445 56.8204 0.0000 0.0000 0.0000
# 4 0.0000 0.0000 0.0000 24.3144 0.0000 0.0000
# 5 0.0000 0.0000 0.0000 0.0000 24.3146 0.0000
# 6 0.0000 0.0000 0.0000 0.0000 0.0000 24.6857
#
#
#
# Elastic Compliance Matrix: (Units=1/GPa)
#
#
# Indices 1 2 3 4 5 6 
#
# 1 0.015180 -0.004690 -0.003276 0.000000 0.000000 0.000000
# 2 -0.004690 0.015179 -0.003276 0.000000 0.000000 0.000000
# 3 -0.003276 -0.003276 0.019645 0.000000 0.000000 0.000000
# 4 0.000000 0.000000 0.000000 0.041128 0.000000 0.000000
# 5 0.000000 0.000000 0.000000 0.000000 0.041128 0.000000
# 6 0.000000 0.000000 0.000000 0.000000 0.000000 0.040509
#
#
# Mechanical properties :
#
#
# Convention : Reuss Voigt Hill
#
# Bulk Modulus (GPa) = 36.33554 37.84786 37.09170
# Shear Modulus (GPa) = 24.45882 24.66517 24.56199
#
# Velocity S-wave (km/s) = 3.70385 3.71944 3.71165
# Velocity P-wave (km/s) = 6.21862 6.29871 6.25880
#
# Compressibility (1/GPa) = 0.02752126
#
# Stress axis : x y z
#
# Youngs Moduli (GPa) = 65.87768 65.87987 50.90303
#
# Poissons Ratio (x) = 0.30898 0.16674
# Poissons Ratio (y) = 0.30897 0.16674
# Poissons Ratio (z) = 0.21579 0.21580
#
# Static dielectric constant tensor:
#      x y z
#    x 3.292260 0.000000 0.000000 
#    y 0.000000 3.292260 0.000000 
#    z 0.000000 0.000000 3.209410 
# 
# 
# High freq. dielectric constant tensor:
#      x y z
#    x 1.691700 0.000000 0.000000 
#    y 0.000000 1.691700 0.000000 
#    z 0.000000 0.000000 1.680300 
# 
# From -- ./inp_files/4274.got.cif
#   From: 2010.03.12/outbox.cif.g09.slc.cpg/sg111_3_cif.got.tgz:4274.got - 2010.04.14 01:59:48.
