data_PCOD8308546
_publ_section_title
;
Structure prediction by ZEFSAII (Michael W. Deem and Ramdas Pophale) SiO2 
 PCOD8308546
Probable space group: P -4 21 M 
;
_chemical_formula_sum "Si O2"
_cell_formula_units_Z 48
_cell_length_a 16.890376
_cell_length_b 16.890376
_cell_length_c 9.454084
_cell_angle_alpha 90.000000
_cell_angle_beta 90.000000
_cell_angle_gamma 90.000000
_cell_volume 2697.106477
_symmetry_space_group_name_H-M "P -4 21 M "
_symmetry_group_IT_number 113
_symmetry_cell_setting 'tetragonal'
loop_
_space_group_symop_operation_xyz
x,y,z
y,-x,-z
-x,-y,z
-y,x,-z
1/2+x,1/2-y,-z
1/2-x,1/2+y,-z
1/2-y,1/2-x,z
1/2+y,1/2+x,z
loop_
_atom_site_type_symbol
_atom_site_label
_atom_site_fract_x
_atom_site_fract_y
_atom_site_fract_z
Si Si1 0.559354 0.189861 0.323871
Si Si2 0.780134 0.411589 0.847423
Si Si3 0.965552 0.228262 0.144934
Si Si4 0.314360 0.367026 0.159137
Si Si5 0.795522 0.171324 0.155958
Si Si6 0.191371 0.431171 0.349564
O O1 0.610089 0.110089 0.296718
O O2 0.470705 0.179275 0.264431
O O3 0.596066 0.264334 0.241548
O O4 0.554487 0.212300 0.487641
O O5 0.832519 0.332519 0.857709
O O6 0.690136 0.387771 0.800284
O O7 0.775701 0.453446 0.999514
O O8 0.888189 0.180089 0.190517
O O9 0.038909 0.164954 0.136317
O O10 0.987436 0.295853 0.262008
O O11 0.249559 0.363284 0.284754
O O12 0.278709 0.337569 0.010403
O O13 0.749655 0.249655 0.208850
O O14 0.101323 0.398678 0.335384
#
# Coordination Sequence:
#
# PCOD8308546 Si02
#       6
#     8   8   8   8   8   8
#     4  10  21  36  55  78 112 152 183 223 273 326
#     4  11  21  36  59  85 110 144 189 230 274 328
#     4   9  19  33  55  84 107 139 180 232 274 319
#     4   9  18  33  56  82 107 138 182 228 273 321
#     4  10  18  34  58  80 104 139 187 228 270 325
#     4   9  18  34  55  79 111 147 182 218 275 330
#
# _framework density 17.796849999999999
#
# number of rings (size 3 to 8) (size 9 to 14) (size 15 to 20)
#    1.000    1.333    1.667    3.000    0.000    2.333 
#    0.000    4.167    0.000    3.500    4.333    0.000 
#    0.000    0.000    0.000    0.000    0.000    0.000 
#
# Total GULP energy -594642.704073 kJ/mol
# GULP energy per Si atom -12388.389668 kJ/mol
# Density = 1.775634 g / cm^3
# Si number density = 17.796850 Si / 1000 Ang^3
#
#
#
# Elastic Constant Matrix: (Units=GPa)
#
#
# Indices 1 2 3 4 5 6 
#
# 1 87.6012 39.7997 28.2210 0.0000 0.0000 0.0000
# 2 39.7997 87.6004 28.2205 0.0000 0.0000 0.0000
# 3 28.2210 28.2205 94.1329 0.0000 0.0000 0.0000
# 4 0.0000 0.0000 0.0000 23.9266 0.0000 0.0000
# 5 0.0000 0.0000 0.0000 0.0000 23.9269 0.0000
# 6 0.0000 0.0000 0.0000 0.0000 0.0000 17.0775
#
#
#
# Elastic Compliance Matrix: (Units=1/GPa)
#
#
# Indices 1 2 3 4 5 6 
#
# 1 0.014986 -0.005934 -0.002714 0.000000 0.000000 0.000000
# 2 -0.005934 0.014986 -0.002714 0.000000 0.000000 0.000000
# 3 -0.002714 -0.002714 0.012250 0.000000 0.000000 0.000000
# 4 0.000000 0.000000 0.000000 0.041794 0.000000 0.000000
# 5 0.000000 0.000000 0.000000 0.000000 0.041794 0.000000
# 6 0.000000 0.000000 0.000000 0.000000 0.000000 0.058557
#
#
# Mechanical properties :
#
#
# Convention : Reuss Voigt Hill
#
# Bulk Modulus (GPa) = 51.28509 51.31301 51.29905
# Shear Modulus (GPa) = 23.40939 24.52574 23.96757
#
# Velocity S-wave (km/s) = 3.63073 3.71630 3.67376
# Velocity P-wave (km/s) = 6.81585 6.87821 6.84710
#
# Compressibility (1/GPa) = 0.01949884
#
# Stress axis : x y z
#
# Youngs Moduli (GPa) = 66.73036 66.72991 81.63041
#
# Poissons Ratio (x) = 0.39599 0.22152
# Poissons Ratio (y) = 0.39600 0.22151
# Poissons Ratio (z) = 0.18108 0.18108
#
# Static dielectric constant tensor:
#      x y z
#    x 3.161720 0.000000 0.000000 
#    y 0.000000 3.161730 0.000000 
#    z 0.000000 0.000000 3.229240 
# 
# 
# High freq. dielectric constant tensor:
#      x y z
#    x 1.674200 0.000000 0.000000 
#    y 0.000000 1.674200 0.000000 
#    z 0.000000 0.000000 1.686310 
# 
# From -- ./inp_files/1182.got.cif
#   From: 2010.03.12/outbox.cif.g09.slc.cpg/sg113_cif.got.tgz:1182.got - 2010.04.14 02:06:34.
