data_PCOD8308583
_publ_section_title
;
Structure prediction by ZEFSAII (Michael W. Deem and Ramdas Pophale) SiO2 
 PCOD8308583
Probable space group: P -4 21 M 
;
_chemical_formula_sum "Si O2"
_cell_formula_units_Z 56
_cell_length_a 15.818950
_cell_length_b 15.818950
_cell_length_c 12.012305
_cell_angle_alpha 90.000000
_cell_angle_beta 90.000000
_cell_angle_gamma 90.000000
_cell_volume 3005.949342
_symmetry_space_group_name_H-M "P -4 21 M "
_symmetry_group_IT_number 113
_symmetry_cell_setting 'tetragonal'
loop_
_space_group_symop_operation_xyz
x,y,z
y,-x,-z
-x,-y,z
-y,x,-z
1/2+x,1/2-y,-z
1/2-x,1/2+y,-z
1/2-y,1/2-x,z
1/2+y,1/2+x,z
loop_
_atom_site_type_symbol
_atom_site_label
_atom_site_fract_x
_atom_site_fract_y
_atom_site_fract_z
Si Si1 0.472152 0.707951 0.233273
Si Si2 0.366213 0.001566 0.336438
Si Si3 0.932266 0.297452 0.442134
Si Si4 0.097008 0.268965 0.344431
Si Si5 0.106683 0.919554 0.018785
Si Si6 0.293581 0.343614 0.573890
Si Si7 0.194312 0.164116 0.173135
O O1 0.466123 0.810807 0.232829
O O2 0.429803 0.662239 0.129252
O O3 0.417545 0.679045 0.340469
O O4 0.574085 0.694817 0.237858
O O5 0.413029 0.086972 0.298112
O O6 0.302407 0.018629 0.439301
O O7 0.432451 0.932451 0.377448
O O8 0.885964 0.385964 0.423104
O O9 0.869706 0.220345 0.438964
O O10 0.996983 0.284962 0.340381
O O11 0.140375 0.359626 0.352307
O O12 0.117844 0.213514 0.452044
O O13 0.125942 0.221329 0.234414
O O14 0.149295 0.843353 0.949943
O O15 0.009345 0.894388 0.047632
O O16 0.207743 0.292258 0.609984
O O17 0.285598 0.214403 0.169452
#
# Coordination Sequence:
#
# PCOD8308583 Si02
#       7
#     8   8   8   8   8   8   8
#     4  11  20  35  59  83 112 144 187 242 282 334
#     4  10  19  32  54  84 117 153 190 232 288 346
#     4  10  20  34  52  76 114 152 185 222 275 342
#     4  10  20  35  55  79 113 147 185 228 272 336
#     4   9  21  40  60  81 108 147 191 236 284 338
#     4  10  21  34  51  83 115 146 181 229 286 329
#     4  10  22  39  60  83 111 151 190 229 283 342
#
# _framework density 18.629721
#
# number of rings (size 3 to 8) (size 9 to 14) (size 15 to 20)
#    0.000    2.000    1.429    2.143    2.000    4.286 
#    0.000    0.000    0.000    0.857    0.000    0.000 
#    0.000    0.000    0.000    0.000    0.000    0.000 
#
# Total GULP energy -693743.086348 kJ/mol
# GULP energy per Si atom -12388.269399 kJ/mol
# Density = 1.858732 g / cm^3
# Si number density = 18.629721 Si / 1000 Ang^3
#
#
#
# Elastic Constant Matrix: (Units=GPa)
#
#
# Indices 1 2 3 4 5 6 
#
# 1 93.1786 5.5517 23.5806 0.0000 0.0000 0.0000
# 2 5.5517 93.1768 23.5830 0.0000 0.0000 0.0000
# 3 23.5806 23.5830 41.4539 0.0000 0.0000 0.0000
# 4 0.0000 0.0000 0.0000 29.0050 0.0000 0.0000
# 5 0.0000 0.0000 0.0000 0.0000 29.0052 0.0000
# 6 0.0000 0.0000 0.0000 0.0000 0.0000 27.2139
#
#
#
# Elastic Compliance Matrix: (Units=1/GPa)
#
#
# Indices 1 2 3 4 5 6 
#
# 1 0.012660 0.001248 -0.007911 0.000000 0.000000 0.000000
# 2 0.001248 0.012661 -0.007913 0.000000 0.000000 0.000000
# 3 -0.007911 -0.007913 0.033125 0.000000 0.000000 0.000000
# 4 0.000000 0.000000 0.000000 0.034477 0.000000 0.000000
# 5 0.000000 0.000000 0.000000 0.000000 0.034477 0.000000
# 6 0.000000 0.000000 0.000000 0.000000 0.000000 0.036746
#
#
# Mechanical properties :
#
#
# Convention : Reuss Voigt Hill
#
# Bulk Modulus (GPa) = 34.13717 37.02665 35.58191
# Shear Modulus (GPa) = 24.62316 28.71777 26.67046
#
# Velocity S-wave (km/s) = 3.63948 3.93046 3.78776
# Velocity P-wave (km/s) = 6.00208 6.36523 6.18632
#
# Compressibility (1/GPa) = 0.02929358
#
# Stress axis : x y z
#
# Youngs Moduli (GPa) = 78.98985 78.98536 30.18876
#
# Poissons Ratio (x) = -0.09858 0.23884
# Poissons Ratio (y) = -0.09859 0.23887
# Poissons Ratio (z) = 0.62492 0.62497
#
# Static dielectric constant tensor:
#      x y z
#    x 3.658900 0.000000 0.000000 
#    y 0.000000 3.658900 0.000000 
#    z 0.000000 0.000000 3.133820 
# 
# 
# High freq. dielectric constant tensor:
#      x y z
#    x 1.735360 0.000000 0.000000 
#    y 0.000000 1.735360 0.000000 
#    z 0.000000 0.000000 1.686870 
# 
# From -- ./inp_files/1931.got.cif
#   From: 2010.03.12/outbox.cif.g09.slc.cpg/sg113_cif.got.tgz:1931.got - 2010.04.14 02:06:34.
