data_PCOD8308656
_publ_section_title
;
Structure prediction by ZEFSAII (Michael W. Deem and Ramdas Pophale) SiO2 
 PCOD8308656
Probable space group: P -4 21 M 
;
_chemical_formula_sum "Si O2"
_cell_formula_units_Z 18
_cell_length_a 9.274152
_cell_length_b 9.274152
_cell_length_c 11.070835
_cell_angle_alpha 90.000000
_cell_angle_beta 90.000000
_cell_angle_gamma 90.000000
_cell_volume 952.201359
_symmetry_space_group_name_H-M "P -4 21 M "
_symmetry_group_IT_number 113
_symmetry_cell_setting 'tetragonal'
loop_
_space_group_symop_operation_xyz
x,y,z
y,-x,-z
-x,-y,z
-y,x,-z
1/2+x,1/2-y,-z
1/2-x,1/2+y,-z
1/2-y,1/2-x,z
1/2+y,1/2+x,z
loop_
_atom_site_type_symbol
_atom_site_label
_atom_site_fract_x
_atom_site_fract_y
_atom_site_fract_z
Si Si1 0.000000 0.000000 0.000000
Si Si2 0.763596 0.498757 0.821815
Si Si3 0.696366 0.425527 0.555285
O O1 0.142110 0.981151 0.078942
O O2 0.863483 0.363483 0.857110
O O3 0.687686 0.473453 0.693621
O O4 0.855834 0.644167 0.814309
O O5 0.563667 0.316344 0.531751
O O6 0.847563 0.347563 0.526702
#
# Coordination Sequence:
#
# PCOD8308656 Si02
#       3
#     2   8   8
#     4  12  20  36  62  80 100 140 192 222 252 320
#     4  10  22  38  55  79 111 142 174 221 273 312
#     4  10  20  35  55  80 109 141 177 217 265 318
#
# _framework density 18.903562000000001
#
# number of rings (size 3 to 8) (size 9 to 14) (size 15 to 20)
#    0.000    1.778    0.000    5.333    0.000    2.667 
#    0.000    2.222    0.000    5.333    0.000    0.000 
#    0.000    0.000    0.000    0.000    0.000    0.000 
#
# Total GULP energy -223243.468900 kJ/mol
# GULP energy per Si atom -12402.414939 kJ/mol
# Density = 1.886054 g / cm^3
# Si number density = 18.903562 Si / 1000 Ang^3
#
#
#
# Elastic Constant Matrix: (Units=GPa)
#
#
# Indices 1 2 3 4 5 6 
#
# 1 99.8441 42.1408 70.5734 0.0000 0.0000 0.0000
# 2 42.1408 99.8446 70.5739 0.0000 0.0000 0.0000
# 3 70.5734 70.5739 129.3172 0.0000 0.0000 0.0000
# 4 0.0000 0.0000 0.0000 84.0889 0.0000 0.0000
# 5 0.0000 0.0000 0.0000 0.0000 83.7543 0.0000
# 6 0.0000 0.0000 0.0000 0.0000 0.0000 41.6108
#
#
#
# Elastic Compliance Matrix: (Units=1/GPa)
#
#
# Indices 1 2 3 4 5 6 
#
# 1 0.016363 -0.000967 -0.008402 0.000000 0.000000 0.000000
# 2 -0.000967 0.016363 -0.008402 0.000000 0.000000 0.000000
# 3 -0.008402 -0.008402 0.016903 0.000000 0.000000 0.000000
# 4 0.000000 0.000000 0.000000 0.011892 0.000000 0.000000
# 5 0.000000 0.000000 0.000000 0.000000 0.011940 0.000000
# 6 0.000000 0.000000 0.000000 0.000000 0.000000 0.024032
#
#
# Mechanical properties :
#
#
# Convention : Reuss Voigt Hill
#
# Bulk Modulus (GPa) = 70.98960 77.28690 74.13825
# Shear Modulus (GPa) = 36.30293 51.60533 43.95413
#
# Velocity S-wave (km/s) = 4.38702 5.23054 4.82724
# Velocity P-wave (km/s) = 7.95590 8.80066 8.38892
#
# Compressibility (1/GPa) = 0.01408657
#
# Stress axis : x y z
#
# Youngs Moduli (GPa) = 61.11513 61.11503 59.16003
#
# Poissons Ratio (x) = 0.05912 0.49705
# Poissons Ratio (y) = 0.05912 0.49705
# Poissons Ratio (z) = 0.51347 0.51348
#
# Static dielectric constant tensor:
#      x y z
#    x 3.105430 0.000000 0.000000 
#    y 0.000000 3.108880 0.000000 
#    z 0.000000 0.000000 3.396780 
# 
# 
# High freq. dielectric constant tensor:
#      x y z
#    x 1.743750 0.000000 0.000000 
#    y 0.000000 1.743750 0.000000 
#    z 0.000000 0.000000 1.732740 
# 
# From -- ./inp_files/1419.got.cif
#   From: 2010.03.12/outbox.cif.g09.slc.cpg/sg113_cif.got.tgz:1419.got - 2010.04.14 02:06:34.
