data_PCOD8308599
_publ_section_title
;
Structure prediction by ZEFSAII (Michael W. Deem and Ramdas Pophale) SiO2 
 PCOD8308599
Probable space group: P -4 21 M 
;
_chemical_formula_sum "Si O2"
_cell_formula_units_Z 48
_cell_length_a 11.550132
_cell_length_b 11.550132
_cell_length_c 18.022016
_cell_angle_alpha 90.000000
_cell_angle_beta 90.000000
_cell_angle_gamma 90.000000
_cell_volume 2404.236942
_symmetry_space_group_name_H-M "P -4 21 M "
_symmetry_group_IT_number 113
_symmetry_cell_setting 'tetragonal'
loop_
_space_group_symop_operation_xyz
x,y,z
y,-x,-z
-x,-y,z
-y,x,-z
1/2+x,1/2-y,-z
1/2-x,1/2+y,-z
1/2-y,1/2-x,z
1/2+y,1/2+x,z
loop_
_atom_site_type_symbol
_atom_site_label
_atom_site_fract_x
_atom_site_fract_y
_atom_site_fract_z
Si Si1 0.404637 0.723585 0.590778
Si Si2 0.333293 0.649304 0.926024
Si Si3 0.522381 0.628173 0.309488
Si Si4 0.653139 0.663811 0.568471
Si Si5 0.433943 0.746638 0.169603
Si Si6 0.091242 0.772548 0.088469
O O1 0.350805 0.850805 0.593506
O O2 0.363327 0.655589 0.664862
O O3 0.541712 0.741443 0.587630
O O4 0.363236 0.653076 0.518528
O O5 0.244452 0.744452 0.899054
O O6 0.286172 0.530368 0.891060
O O7 0.456025 0.702144 0.899231
O O8 0.337814 0.633469 0.014211
O O9 0.500000 0.500000 0.275516
O O10 0.452638 0.647354 0.384906
O O11 0.490235 0.727530 0.250440
O O12 0.766182 0.733819 0.593400
O O13 0.377612 0.877612 0.162581
O O14 0.330247 0.655834 0.158089
O O15 0.136488 0.636488 0.084601
#
# Coordination Sequence:
#
# PCOD8308599 Si02
#       6
#     8   8   8   8   8   8
#     4  10  20  34  55  82 113 151 194 235 289 351
#     4  11  22  37  60  87 119 163 202 244 304 362
#     4  10  20  35  60  84 113 154 198 241 295 348
#     4  10  19  34  56  82 114 149 190 240 286 345
#     4  11  23  39  60  90 121 157 201 246 300 361
#     4  10  21  37  60  88 119 157 203 250 299 360
#
# _framework density 19.964752000000001
#
# number of rings (size 3 to 8) (size 9 to 14) (size 15 to 20)
#    0.000    1.667    3.333    2.000    0.000    1.667 
#    0.000    1.667    0.000    1.500    0.000    4.667 
#    0.000    0.000    0.000    0.000    0.000    0.000 
#
# Total GULP energy -594770.784100 kJ/mol
# GULP energy per Si atom -12391.058002 kJ/mol
# Density = 1.991931 g / cm^3
# Si number density = 19.964752 Si / 1000 Ang^3
#
#
#
# Elastic Constant Matrix: (Units=GPa)
#
#
# Indices 1 2 3 4 5 6 
#
# 1 67.7292 33.3533 4.5476 0.0000 0.0000 0.0000
# 2 33.3533 67.7326 4.5486 0.0000 0.0000 0.0000
# 3 4.5476 4.5486 59.3852 0.0000 0.0000 0.0000
# 4 0.0000 0.0000 0.0000 16.9912 0.0000 0.0000
# 5 0.0000 0.0000 0.0000 0.0000 16.9912 0.0000
# 6 0.0000 0.0000 0.0000 0.0000 0.0000 36.5805
#
#
#
# Elastic Compliance Matrix: (Units=1/GPa)
#
#
# Indices 1 2 3 4 5 6 
#
# 1 0.019526 -0.009564 -0.000763 0.000000 0.000000 0.000000
# 2 -0.009564 0.019525 -0.000763 0.000000 0.000000 0.000000
# 3 -0.000763 -0.000763 0.016956 0.000000 0.000000 0.000000
# 4 0.000000 0.000000 0.000000 0.058854 0.000000 0.000000
# 5 0.000000 0.000000 0.000000 0.000000 0.058854 0.000000
# 6 0.000000 0.000000 0.000000 0.000000 0.000000 0.027337
#
#
# Mechanical properties :
#
#
# Convention : Reuss Voigt Hill
#
# Bulk Modulus (GPa) = 29.56197 31.08287 30.32242
# Shear Modulus (GPa) = 21.32142 24.27240 22.79691
#
# Velocity S-wave (km/s) = 3.27150 3.49056 3.38281
# Velocity P-wave (km/s) = 5.39532 5.64341 5.52076
#
# Compressibility (1/GPa) = 0.03382725
#
# Stress axis : x y z
#
# Youngs Moduli (GPa) = 51.21506 51.21750 58.97592
#
# Poissons Ratio (x) = 0.48983 0.04498
# Poissons Ratio (y) = 0.48980 0.04501
# Poissons Ratio (z) = 0.03906 0.03909
#
# Static dielectric constant tensor:
#      x y z
#    x 3.644440 0.000000 0.000000 
#    y 0.000000 3.644440 0.000000 
#    z 0.000000 0.000000 3.497400 
# 
# 
# High freq. dielectric constant tensor:
#      x y z
#    x 1.771190 0.000000 0.000000 
#    y 0.000000 1.771190 0.000000 
#    z 0.000000 0.000000 1.772490 
# 
# From -- ./inp_files/2454.got.cif
#   From: 2010.03.12/outbox.cif.g09.slc.cpg/sg113_cif.got.tgz:2454.got - 2010.04.14 02:06:34.
