data_PCOD8308273
_publ_section_title
;
Structure prediction by ZEFSAII (Michael W. Deem and Ramdas Pophale) SiO2 
 PCOD8308273
Probable space group: P -4 2 M 
;
_chemical_formula_sum "Si O2"
_cell_formula_units_Z 40
_cell_length_a 14.942897
_cell_length_b 14.942897
_cell_length_c 9.980716
_cell_angle_alpha 90.000000
_cell_angle_beta 90.000000
_cell_angle_gamma 90.000000
_cell_volume 2228.595780
_symmetry_space_group_name_H-M "P -4 2 M "
_symmetry_group_IT_number 111
_symmetry_cell_setting 'tetragonal'
loop_
_space_group_symop_operation_xyz
x,y,z
y,-x,-z
-x,-y,z
-y,x,-z
x,-y,-z
-x,y,-z
-y,-x,z
y,x,z
loop_
_atom_site_type_symbol
_atom_site_label
_atom_site_fract_x
_atom_site_fract_y
_atom_site_fract_z
Si Si1 0.337445 0.522217 0.156611
Si Si2 0.196998 0.335908 0.741828
Si Si3 0.779241 0.639194 0.232681
Si Si4 0.898601 0.394140 0.013440
Si Si5 0.395550 0.899813 0.516746
O O1 0.438995 0.561006 0.187855
O O2 0.271974 0.598994 0.201737
O O3 0.302670 0.433692 0.234360
O O4 0.330635 0.500000 0.000000
O O5 0.234743 0.234743 0.745886
O O6 0.168235 0.355229 0.590677
O O7 0.114789 0.352584 0.839680
O O8 0.734331 0.734331 0.264768
O O9 0.829125 0.648597 0.090626
O O10 0.857659 0.620838 0.338057
O O11 0.884799 0.500000 0.000000
O O12 0.000000 0.365406 0.000000
O O13 0.500000 0.908383 0.500000
O O14 0.353490 0.000000 0.500000
#
# Coordination Sequence:
#
# PCOD8308273 Si02
#       5
#     8   8   8   8   8
#     4  11  21  34  52  76 112 152 192 224 256 304
#     4  11  20  35  54  77 110 144 181 222 269 320
#     4  12  22  36  55  81 110 143 192 231 263 313
#     4  11  20  34  55  80 109 143 184 227 281 327
#     4  11  22  38  56  77 107 143 181 224 287 335
#
# _framework density 17.948523000000002
#
# number of rings (size 3 to 8) (size 9 to 14) (size 15 to 20)
#    0.000    0.800    6.000    3.000    0.000    4.600 
#    0.000    0.000    0.000    0.000    0.000    0.000 
#    0.000   56.000    0.000    0.000    0.000    0.000 
#
# Total GULP energy -495524.937182 kJ/mol
# GULP energy per Si atom -12388.123430 kJ/mol
# Density = 1.790767 g / cm^3
# Si number density = 17.948523 Si / 1000 Ang^3
#
#
#
# Elastic Constant Matrix: (Units=GPa)
#
#
# Indices 1 2 3 4 5 6 
#
# 1 60.6910 48.9101 10.8195 0.0000 0.0000 0.0000
# 2 48.9101 60.6927 10.8197 0.0000 0.0000 0.0000
# 3 10.8195 10.8197 61.4366 0.0000 0.0000 0.0000
# 4 0.0000 0.0000 0.0000 44.0782 0.0000 0.0000
# 5 0.0000 0.0000 0.0000 0.0000 44.0790 0.0000
# 6 0.0000 0.0000 0.0000 0.0000 0.0000 17.6212
#
#
#
# Elastic Compliance Matrix: (Units=1/GPa)
#
#
# Indices 1 2 3 4 5 6 
#
# 1 0.047165 -0.037712 -0.001665 0.000000 0.000000 0.000000
# 2 -0.037712 0.047164 -0.001665 0.000000 0.000000 0.000000
# 3 -0.001665 -0.001665 0.016863 0.000000 0.000000 0.000000
# 4 0.000000 0.000000 0.000000 0.022687 0.000000 0.000000
# 5 0.000000 0.000000 0.000000 0.000000 0.022687 0.000000
# 6 0.000000 0.000000 0.000000 0.000000 0.000000 0.056750
#
#
# Mechanical properties :
#
#
# Convention : Reuss Voigt Hill
#
# Bulk Modulus (GPa) = 34.35282 35.99098 35.17190
# Shear Modulus (GPa) = 16.38793 28.64041 22.51417
#
# Velocity S-wave (km/s) = 3.02495 3.99895 3.54556
# Velocity P-wave (km/s) = 5.60193 6.43568 6.03323
#
# Compressibility (1/GPa) = 0.02910969
#
# Stress axis : x y z
#
# Youngs Moduli (GPa) = 21.20197 21.20256 59.30043
#
# Poissons Ratio (x) = 0.79959 0.09871
# Poissons Ratio (y) = 0.79957 0.09872
# Poissons Ratio (z) = 0.03529 0.03530
#
# Static dielectric constant tensor:
#      x y z
#    x 3.544980 0.000000 0.000000 
#    y 0.000000 3.544970 0.000000 
#    z 0.000000 0.000000 3.409520 
# 
# 
# High freq. dielectric constant tensor:
#      x y z
#    x 1.682970 0.000000 0.000000 
#    y 0.000000 1.682970 0.000000 
#    z 0.000000 0.000000 1.699200 
# 
# From -- ./inp_files/1522.got.cif
#   From: 2010.03.12/outbox.cif.g09.slc.cpg/sg111_1_cif.got.tgz:1522.got - 2010.04.14 01:59:48.
