data_PCOD8308903
_publ_section_title
;
Structure prediction by ZEFSAII (Michael W. Deem and Ramdas Pophale) SiO2 
 PCOD8308903
Probable space group: P -4 21 C
;
_chemical_formula_sum "Si O2"
_cell_formula_units_Z 60
_cell_length_a 11.712917
_cell_length_b 11.712917
_cell_length_c 22.377319
_cell_angle_alpha 90.000000
_cell_angle_beta 90.000000
_cell_angle_gamma 90.000000
_cell_volume 3069.998651
_symmetry_space_group_name_H-M "P -4 21 C"
_symmetry_group_IT_number 114
_symmetry_cell_setting 'tetragonal'
loop_
_space_group_symop_operation_xyz
x,y,z
y,-x,-z
-x,-y,z
-y,x,-z
1/2+x,1/2-y,1/2-z
1/2-x,1/2+y,1/2-z
1/2-y,1/2-x,1/2+z
1/2+y,1/2+x,1/2+z
loop_
_atom_site_type_symbol
_atom_site_label
_atom_site_fract_x
_atom_site_fract_y
_atom_site_fract_z
Si Si1 0.802639 0.740687 0.163698
Si Si2 0.212255 0.040331 0.655427
Si Si3 0.000000 0.000000 0.721159
Si Si4 0.079285 0.398178 0.266304
Si Si5 0.688813 0.505746 0.311807
Si Si6 0.634169 0.525859 0.437747
Si Si7 0.709500 0.704960 0.533415
Si Si8 0.149998 0.082285 0.522250
O O1 0.672204 0.705194 0.175150
O O2 0.886706 0.670355 0.206659
O O3 0.821395 0.870979 0.180920
O O4 0.831531 0.717386 0.092858
O O5 0.198991 0.031242 0.583983
O O6 0.107206 0.966493 0.680501
O O7 0.326116 0.984647 0.682224
O O8 0.043513 0.107068 0.758793
O O9 0.185325 0.453231 0.299486
O O10 0.000000 0.500000 0.243077
O O11 0.641607 0.572148 0.370440
O O12 0.500000 0.500000 0.453082
O O13 0.696563 0.611001 0.482592
O O14 0.719767 0.417871 0.440873
O O15 0.759726 0.819696 0.502948
O O16 0.022927 0.141212 0.525244
#
# Coordination Sequence:
#
# PCOD8308903 Si02
#       8
#     8   8   4   8   8   8   8   8
#     4  10  22  42  59  90 135 164 206 266 320 389
#     4  11  23  40  65  92 128 174 213 266 330 385
#     4  12  20  36  65  91 124 174 214 256 318 404
#     4  12  24  41  66  98 132 171 214 272 336 390
#     4  11  23  36  62  95 127 167 216 257 318 399
#     4  11  20  39  64  95 128 167 208 266 330 389
#     4  10  21  39  66  91 123 164 207 267 323 378
#     4  10  23  45  64  87 126 173 222 270 313 389
#
# _framework density 19.543983999999998
#
# number of rings (size 3 to 8) (size 9 to 14) (size 15 to 20)
#    0.000    1.200    6.000    0.800    1.867    0.000 
#    0.000    3.333    0.000    0.000    0.000    0.000 
#    0.000    0.000    0.000    0.000    0.000    0.000 
#
# Total GULP energy -743359.818120 kJ/mol
# GULP energy per Si atom -12389.330302 kJ/mol
# Density = 1.949950 g / cm^3
# Si number density = 19.543984 Si / 1000 Ang^3
#
#
#
# Elastic Constant Matrix: (Units=GPa)
#
#
# Indices 1 2 3 4 5 6 
#
# 1 99.7604 54.7298 46.4229 0.0000 0.0000 0.0000
# 2 54.7298 99.7604 46.4229 0.0000 0.0000 0.0000
# 3 46.4229 46.4229 97.5181 0.0000 0.0000 0.0000
# 4 0.0000 0.0000 0.0000 -30.3810 0.0000 0.0000
# 5 0.0000 0.0000 0.0000 0.0000 -30.3810 0.0000
# 6 0.0000 0.0000 0.0000 0.0000 0.0000 35.1947
#
#
#
# Elastic Compliance Matrix: (Units=1/GPa)
#
#
# Indices 1 2 3 4 5 6 
#
# 1 0.015637 -0.006570 -0.004316 0.000000 0.000000 0.000000
# 2 -0.006570 0.015637 -0.004316 0.000000 0.000000 0.000000
# 3 -0.004316 -0.004316 0.014364 0.000000 0.000000 0.000000
# 4 0.000000 0.000000 0.000000 -0.032915 0.000000 0.000000
# 5 0.000000 0.000000 0.000000 0.000000 -0.032915 0.000000
# 6 0.000000 0.000000 0.000000 0.000000 0.000000 0.028413
#
#
# Mechanical properties :
#
#
# Convention : Reuss Voigt Hill
#
# Bulk Modulus (GPa) = 65.64794 65.79889 65.72341
# Shear Modulus (GPa) = 114.40710 4.85074 59.62892
#
# Velocity S-wave (km/s) = 7.65933 1.57713 5.52959
# Velocity P-wave (km/s) = 10.57749 6.08742 8.62960
#
# Compressibility (1/GPa) = 0.01523277
#
# Stress axis : x y z
#
# Youngs Moduli (GPa) = 63.95084 63.95084 69.61873
#
# Poissons Ratio (x) = 0.42016 0.30049
# Poissons Ratio (y) = 0.42016 0.30049
# Poissons Ratio (z) = 0.27603 0.27603
#
# Static dielectric constant tensor:
#      x y z
#    x 3.623800 0.000000 0.000000 
#    y 0.000000 3.623800 0.000000 
#    z 0.000000 0.000000 3.779550 
# 
# 
# High freq. dielectric constant tensor:
#      x y z
#    x 1.754020 0.000000 0.000000 
#    y 0.000000 1.754020 0.000000 
#    z 0.000000 0.000000 1.772840 
# 
# From -- ./inp_files/3228.got.cif
#   From: 2010.03.12/outbox.cif.g09.slc.cpg/sg114_2_cif.got.tgz:3228.got - 2010.04.14 02:08:34.
