data_PCOD8308169
_publ_section_title
;
Structure prediction by ZEFSAII (Michael W. Deem and Ramdas Pophale) SiO2 
 PCOD8308169
Probable space group: P -4 2 M 
;
_chemical_formula_sum "Si O2"
_cell_formula_units_Z 64
_cell_length_a 11.744262
_cell_length_b 11.744262
_cell_length_c 27.725169
_cell_angle_alpha 90.000000
_cell_angle_beta 90.000000
_cell_angle_gamma 90.000000
_cell_volume 3824.068513
_symmetry_space_group_name_H-M "P -4 2 M "
_symmetry_group_IT_number 111
_symmetry_cell_setting 'tetragonal'
loop_
_space_group_symop_operation_xyz
x,y,z
y,-x,-z
-x,-y,z
-y,x,-z
x,-y,-z
-x,y,-z
-y,-x,z
y,x,z
loop_
_atom_site_type_symbol
_atom_site_label
_atom_site_fract_x
_atom_site_fract_y
_atom_site_fract_z
Si Si1 0.281964 0.897147 0.059296
Si Si2 0.690734 0.499941 0.206537
Si Si3 0.128373 0.482202 0.876752
Si Si4 0.316724 0.868353 0.628307
Si Si5 0.313927 0.871078 0.372309
Si Si6 0.498327 0.128254 0.708593
Si Si7 0.498985 0.864320 0.445967
Si Si8 0.854312 0.672175 0.046082
O O1 0.158258 0.841743 0.061548
O O2 0.352195 0.858604 0.106356
O O3 0.259356 0.031471 0.059753
O O4 0.350195 0.855639 0.011375
O O5 0.613388 0.386613 0.203512
O O6 0.611348 0.611348 0.209419
O O7 0.773284 0.511514 0.160840
O O8 0.772690 0.493912 0.252342
O O9 0.147279 0.555029 0.925067
O O10 0.000000 0.500000 0.855640
O O11 0.202471 0.797530 0.633385
O O12 0.389042 0.855216 0.676912
O O13 0.389777 0.821938 0.582874
O O14 0.279910 0.998175 0.619692
O O15 0.198631 0.801370 0.367163
O O16 0.387114 0.857591 0.324057
O O17 0.385658 0.823941 0.418034
O O18 0.500000 0.000000 0.731250
O O19 0.500000 0.813646 0.500000
O O20 0.500000 0.000000 0.446041
O O21 0.746508 0.746508 0.062183
#
# Coordination Sequence:
#
# PCOD8308169 Si02
#       8
#     8   8   8   8   8   8   8   8
#     4   9  17  29  46  67  90 117 148 182 219 259
#     4  11  22  33  48  70  93 115 143 187 236 270
#     4  10  19  32  48  65  89 120 152 181 214 266
#     4   9  17  29  47  70  94 120 150 186 227 271
#     4   9  17  29  47  70  94 120 150 186 227 271
#     4   9  18  34  52  68  88 118 155 185 216 267
#     4   8  15  28  44  62  87 123 162 189 212 252
#     4   9  17  29  46  67  90 117 148 182 219 259
#
# _framework density 16.736101000000001
#
# number of rings (size 3 to 8) (size 9 to 14) (size 15 to 20)
#    0.000    2.750    0.000    3.750    0.000    2.500 
#    0.000    1.250    0.000    3.375    0.000   12.250 
#    0.000   18.000    0.000    0.000    0.000    0.000 
#
# Total GULP energy -793274.617515 kJ/mol
# GULP energy per Si atom -12394.915899 kJ/mol
# Density = 1.669801 g / cm^3
# Si number density = 16.736101 Si / 1000 Ang^3
#
#
#
# Elastic Constant Matrix: (Units=GPa)
#
#
# Indices 1 2 3 4 5 6 
#
# 1 87.0516 48.4466 32.9512 0.0000 0.0000 0.0000
# 2 48.4466 87.0490 32.9511 0.0000 0.0000 0.0000
# 3 32.9512 32.9511 73.3929 0.0000 0.0000 0.0000
# 4 0.0000 0.0000 0.0000 16.4735 0.0000 0.0000
# 5 0.0000 0.0000 0.0000 0.0000 16.4722 0.0000
# 6 0.0000 0.0000 0.0000 0.0000 0.0000 27.7880
#
#
#
# Elastic Compliance Matrix: (Units=1/GPa)
#
#
# Indices 1 2 3 4 5 6 
#
# 1 0.017673 -0.008231 -0.004239 0.000000 0.000000 0.000000
# 2 -0.008231 0.017673 -0.004239 0.000000 0.000000 0.000000
# 3 -0.004239 -0.004239 0.017432 0.000000 0.000000 0.000000
# 4 0.000000 0.000000 0.000000 0.060703 0.000000 0.000000
# 5 0.000000 0.000000 0.000000 0.000000 0.060709 0.000000
# 6 0.000000 0.000000 0.000000 0.000000 0.000000 0.035987
#
#
# Mechanical properties :
#
#
# Convention : Reuss Voigt Hill
#
# Bulk Modulus (GPa) = 51.65506 52.91015 52.28261
# Shear Modulus (GPa) = 19.99608 21.02304 20.50956
#
# Velocity S-wave (km/s) = 3.46032 3.54806 3.50447
# Velocity P-wave (km/s) = 6.84811 6.96190 6.90524
#
# Compressibility (1/GPa) = 0.01935919
#
# Stress axis : x y z
#
# Youngs Moduli (GPa) = 56.58387 56.58192 57.36628
#
# Poissons Ratio (x) = 0.46573 0.24318
# Poissons Ratio (y) = 0.46575 0.24319
# Poissons Ratio (z) = 0.23986 0.23987
#
# Static dielectric constant tensor:
#      x y z
#    x 3.024960 0.000000 0.000000 
#    y 0.000000 3.024960 0.000000 
#    z 0.000000 0.000000 3.158700 
# 
# 
# High freq. dielectric constant tensor:
#      x y z
#    x 1.637980 0.000000 0.000000 
#    y 0.000000 1.637980 0.000000 
#    z 0.000000 0.000000 1.641150 
# 
# From -- ./inp_files/4380.got.cif
#   From: 2010.03.12/outbox.cif.g09.slc.cpg/sg111_3_cif.got.tgz:4380.got - 2010.04.14 01:59:48.
