data_PCOD8308472
_publ_section_title
;
Structure prediction by ZEFSAII (Michael W. Deem and Ramdas Pophale) SiO2 
 PCOD8308472
Probable space group: P -4 2 C
;
_chemical_formula_sum "Si O2"
_cell_formula_units_Z 48
_cell_length_a 17.583569
_cell_length_b 17.583569
_cell_length_c 8.649916
_cell_angle_alpha 90.000000
_cell_angle_beta 90.000000
_cell_angle_gamma 90.000000
_cell_volume 2674.397453
_symmetry_space_group_name_H-M "P -4 2 C"
_symmetry_group_IT_number 112
_symmetry_cell_setting 'tetragonal'
loop_
_space_group_symop_operation_xyz
x,y,z
y,-x,-z
-x,-y,z
-y,x,-z
x,-y,1/2-z
-x,y,1/2-z
-y,-x,1/2+z
y,x,1/2+z
loop_
_atom_site_type_symbol
_atom_site_label
_atom_site_fract_x
_atom_site_fract_y
_atom_site_fract_z
Si Si1 0.782868 0.674038 0.793733
Si Si2 0.419658 0.916226 0.688290
Si Si3 0.560736 0.666378 0.140839
Si Si4 0.082497 0.419647 0.679533
Si Si5 0.547796 0.322683 0.885201
Si Si6 0.672430 0.791110 0.659348
O O1 0.724400 0.607703 0.746996
O O2 0.863795 0.651553 0.722044
O O3 0.749246 0.753745 0.729776
O O4 0.795876 0.682370 0.975722
O O5 0.500000 0.882806 0.750000
O O6 0.424066 0.919300 0.504194
O O7 0.346527 0.869773 0.753525
O O8 0.406764 0.000000 0.750000
O O9 0.500000 0.623443 0.250000
O O10 0.613619 0.606300 0.049963
O O11 0.510207 0.710567 0.012980
O O12 0.112614 0.500000 0.750000
O O13 0.000000 0.401886 0.750000
O O14 0.500000 0.362211 0.750000
O O15 0.596919 0.256987 0.805882
#
# Coordination Sequence:
#
# PCOD8308472 Si02
#       6
#     8   8   8   8   8   8
#     4  11  23  37  56  76 106 140 181 224 277 334
#     4  11  22  37  58  84 112 142 182 228 278 332
#     4  11  22  37  48  69  93 133 179 232 282 328
#     4  11  22  37  59  84 111 143 181 227 279 331
#     4  11  24  33  51  67  95 130 181 228 282 327
#     4  11  23  38  55  78 105 141 180 224 275 334
#
# _framework density 17.947967999999999
#
# number of rings (size 3 to 8) (size 9 to 14) (size 15 to 20)
#    0.000    1.000    1.667    7.000   11.667    2.000 
#    0.000    0.000    0.000    0.000    0.000    0.000 
#    0.000    0.667    0.000    6.667    0.000    4.000 
#
# Total GULP energy -594818.044552 kJ/mol
# GULP energy per Si atom -12392.042595 kJ/mol
# Density = 1.790712 g / cm^3
# Si number density = 17.947968 Si / 1000 Ang^3
#
#
#
# Elastic Constant Matrix: (Units=GPa)
#
#
# Indices 1 2 3 4 5 6 
#
# 1 81.9111 39.3173 43.5448 0.0000 0.0000 0.0000
# 2 39.3173 81.9111 43.5448 0.0000 0.0000 0.0000
# 3 43.5448 43.5448 157.3359 0.0000 0.0000 0.0000
# 4 0.0000 0.0000 0.0000 28.2460 0.0000 0.0000
# 5 0.0000 0.0000 0.0000 0.0000 28.2460 0.0000
# 6 0.0000 0.0000 0.0000 0.0000 0.0000 29.4990
#
#
#
# Elastic Compliance Matrix: (Units=1/GPa)
#
#
# Indices 1 2 3 4 5 6 
#
# 1 0.016887 -0.006591 -0.002850 0.000000 0.000000 0.000000
# 2 -0.006591 0.016887 -0.002850 0.000000 0.000000 0.000000
# 3 -0.002850 -0.002850 0.007933 0.000000 0.000000 0.000000
# 4 0.000000 0.000000 0.000000 0.035403 0.000000 0.000000
# 5 0.000000 0.000000 0.000000 0.000000 0.035403 0.000000
# 6 0.000000 0.000000 0.000000 0.000000 0.000000 0.033899
#
#
# Mechanical properties :
#
#
# Convention : Reuss Voigt Hill
#
# Bulk Modulus (GPa) = 58.38766 63.77464 61.08115
# Shear Modulus (GPa) = 28.29630 30.18160 29.23895
#
# Velocity S-wave (km/s) = 3.97492 4.10520 4.04058
# Velocity P-wave (km/s) = 7.32590 7.62105 7.47494
#
# Compressibility (1/GPa) = 0.01712691
#
# Stress axis : x y z
#
# Youngs Moduli (GPa) = 59.21787 59.21787 126.05364
#
# Poissons Ratio (x) = 0.39029 0.35920
# Poissons Ratio (y) = 0.39029 0.35920
# Poissons Ratio (z) = 0.16874 0.16874
#
# Static dielectric constant tensor:
#      x y z
#    x 3.261970 0.000000 0.000000 
#    y 0.000000 3.261970 0.000000 
#    z 0.000000 0.000000 3.429230 
# 
# 
# High freq. dielectric constant tensor:
#      x y z
#    x 1.667140 0.000000 0.000000 
#    y 0.000000 1.667140 0.000000 
#    z 0.000000 0.000000 1.722830 
# 
# From -- ./inp_files/1427.got.cif
#   From: 2010.03.12/outbox.cif.g09.slc.cpg/sg112_1_cif.got.tgz:1427.got - 2010.04.14 02:02:48.
