data_PCOD8308476
_publ_section_title
;
Structure prediction by ZEFSAII (Michael W. Deem and Ramdas Pophale) SiO2 
 PCOD8308476
Probable space group: P -4 2 C
;
_chemical_formula_sum "Si O2"
_cell_formula_units_Z 34
_cell_length_a 11.145210
_cell_length_b 11.145210
_cell_length_c 12.087621
_cell_angle_alpha 90.000000
_cell_angle_beta 90.000000
_cell_angle_gamma 90.000000
_cell_volume 1501.472376
_symmetry_space_group_name_H-M "P -4 2 C"
_symmetry_group_IT_number 112
_symmetry_cell_setting 'tetragonal'
loop_
_space_group_symop_operation_xyz
x,y,z
y,-x,-z
-x,-y,z
-y,x,-z
x,-y,1/2-z
-x,y,1/2-z
-y,-x,1/2+z
y,x,1/2+z
loop_
_atom_site_type_symbol
_atom_site_label
_atom_site_fract_x
_atom_site_fract_y
_atom_site_fract_z
Si Si1 0.325795 0.871939 0.996328
Si Si2 0.366499 0.272523 0.722216
Si Si3 0.500000 0.500000 0.500000
Si Si4 0.146712 0.299898 0.436415
Si Si5 0.521960 0.259338 0.396630
O O1 0.375147 0.794101 0.894639
O O2 0.324946 0.009908 0.964784
O O3 0.189835 0.834203 0.029007
O O4 0.416029 0.841966 0.100655
O O5 0.500000 0.316715 0.750000
O O6 0.315675 0.174140 0.806788
O O7 0.277798 0.392414 0.714237
O O8 0.462906 0.388063 0.423013
O O9 0.228549 0.389738 0.503714
#
# Coordination Sequence:
#
# PCOD8308476 Si02
#       5
#     8   8   2   8   8
#     4  11  24  42  66  97 142 181 234 291 350 411
#     4  11  22  40  69 104 133 176 233 283 345 443
#     4  12  16  40  58  92 148 174 200 272 366 420
#     4  11  23  43  65  99 132 184 238 288 347 414
#     4  11  22  38  63 102 143 174 214 288 360 417
#
# _framework density 22.644439999999999
#
# number of rings (size 3 to 8) (size 9 to 14) (size 15 to 20)
#    0.000    0.941    7.059    1.412    0.000    2.353 
#    0.000    4.706    0.000   11.294    0.000    0.000 
#    0.000    0.000    0.000    0.000    0.000    0.000 
#
# Total GULP energy -421252.045788 kJ/mol
# GULP energy per Si atom -12389.766053 kJ/mol
# Density = 2.259290 g / cm^3
# Si number density = 22.644440 Si / 1000 Ang^3
#
#
#
# Elastic Constant Matrix: (Units=GPa)
#
#
# Indices 1 2 3 4 5 6 
#
# 1 155.0661 64.9477 50.6091 0.0000 0.0000 0.0000
# 2 64.9477 155.0661 50.6091 0.0000 0.0000 0.0000
# 3 50.6091 50.6091 72.2038 0.0000 0.0000 0.0000
# 4 0.0000 0.0000 0.0000 26.0892 0.0000 0.0000
# 5 0.0000 0.0000 0.0000 0.0000 26.0892 0.0000
# 6 0.0000 0.0000 0.0000 0.0000 0.0000 23.1141
#
#
#
# Elastic Compliance Matrix: (Units=1/GPa)
#
#
# Indices 1 2 3 4 5 6 
#
# 1 0.008902 -0.002194 -0.004702 0.000000 0.000000 0.000000
# 2 -0.002194 0.008902 -0.004702 0.000000 0.000000 0.000000
# 3 -0.004702 -0.004702 0.020441 0.000000 0.000000 0.000000
# 4 0.000000 0.000000 0.000000 0.038330 0.000000 0.000000
# 5 0.000000 0.000000 0.000000 0.000000 0.038330 0.000000
# 6 0.000000 0.000000 0.000000 0.000000 0.000000 0.043264
#
#
# Mechanical properties :
#
#
# Convention : Reuss Voigt Hill
#
# Bulk Modulus (GPa) = 66.44607 79.40753 72.92680
# Shear Modulus (GPa) = 26.82653 29.46983 28.14818
#
# Velocity S-wave (km/s) = 3.44566 3.61143 3.52952
# Velocity P-wave (km/s) = 6.72585 7.24797 6.99179
#
# Compressibility (1/GPa) = 0.01504980
#
# Stress axis : x y z
#
# Youngs Moduli (GPa) = 112.32890 112.32890 48.92092
#
# Poissons Ratio (x) = 0.24646 0.23003
# Poissons Ratio (y) = 0.24646 0.23003
# Poissons Ratio (z) = 0.52817 0.52817
#
# Static dielectric constant tensor:
#      x y z
#    x 4.097080 0.000000 0.000000 
#    y 0.000000 4.097080 0.000000 
#    z 0.000000 0.000000 4.374950 
# 
# 
# High freq. dielectric constant tensor:
#      x y z
#    x 1.881160 0.000000 0.000000 
#    y 0.000000 1.881160 0.000000 
#    z 0.000000 0.000000 1.904400 
# 
# From -- ./inp_files/2351.got.cif
#   From: 2010.03.12/outbox.cif.g09.slc.cpg/sg112_2_cif.got.tgz:2351.got - 2010.04.14 02:02:48.
