data_PCOD8308242
_publ_section_title
;
Structure prediction by ZEFSAII (Michael W. Deem and Ramdas Pophale) SiO2 
 PCOD8308242
Probable space group: P -4 2 M 
;
_chemical_formula_sum "Si O2"
_cell_formula_units_Z 45
_cell_length_a 11.872445
_cell_length_b 11.872445
_cell_length_c 18.033961
_cell_angle_alpha 90.000000
_cell_angle_beta 90.000000
_cell_angle_gamma 90.000000
_cell_volume 2541.976076
_symmetry_space_group_name_H-M "P -4 2 M "
_symmetry_group_IT_number 111
_symmetry_cell_setting 'tetragonal'
loop_
_space_group_symop_operation_xyz
x,y,z
y,-x,-z
-x,-y,z
-y,x,-z
x,-y,-z
-x,y,-z
-y,-x,z
y,x,z
loop_
_atom_site_type_symbol
_atom_site_label
_atom_site_fract_x
_atom_site_fract_y
_atom_site_fract_z
Si Si1 0.508718 0.875526 0.801435
Si Si2 0.912337 0.087664 0.356080
Si Si3 0.000000 0.000000 0.500000
Si Si4 0.263128 0.448674 0.580796
Si Si5 0.817409 0.361020 0.677527
Si Si6 0.068747 0.658123 0.338216
Si Si7 0.681954 0.504009 0.084723
O O1 0.391734 0.833401 0.764072
O O2 0.603523 0.881396 0.736952
O O3 0.533517 0.787748 0.865944
O O4 0.500000 0.000000 0.837173
O O5 0.921758 0.078243 0.446584
O O6 0.942242 0.209745 0.326217
O O7 0.000000 0.000000 0.319002
O O8 0.255905 0.500000 0.500000
O O9 0.375869 0.375869 0.590967
O O10 0.267705 0.551530 0.638711
O O11 0.153086 0.370732 0.594567
O O12 0.764531 0.235470 0.670014
O O13 0.941309 0.379712 0.640997
O O14 0.586866 0.413135 0.099725
O O15 0.627293 0.627293 0.102763
O O16 0.723073 0.500000 0.000000
#
# Coordination Sequence:
#
# PCOD8308242 Si02
#       7
#     8   4   1   8   8   8   8
#     4   9  19  33  52  79 109 145 181 219 271 330
#     4  10  20  38  56  80 107 139 183 243 284 344
#     4   8  24  32  48  80 100 132 180 230 296 324
#     4  11  23  38  53  75 100 136 176 225 274 337
#     4  10  21  36  55  78 103 139 176 225 275 328
#     4  10  21  38  56  77 108 138 183 228 283 331
#     4   9  18  32  52  81 114 146 181 223 269 322
#
# _framework density 17.702763000000001
#
# number of rings (size 3 to 8) (size 9 to 14) (size 15 to 20)
#    0.267    1.956    0.889    3.733    1.244    5.156 
#    0.000    0.000    0.000    0.000    0.000    0.000 
#    0.000    0.000    0.000    0.000    0.000    0.000 
#
# Total GULP energy -557628.865671 kJ/mol
# GULP energy per Si atom -12391.752570 kJ/mol
# Density = 1.766247 g / cm^3
# Si number density = 17.702763 Si / 1000 Ang^3
#
#
#
# Elastic Constant Matrix: (Units=GPa)
#
#
# Indices 1 2 3 4 5 6 
#
# 1 107.1035 43.8679 47.1626 0.0000 0.0000 0.0000
# 2 43.8679 107.1054 47.1627 0.0000 0.0000 0.0000
# 3 47.1626 47.1627 71.0262 0.0000 0.0000 0.0000
# 4 0.0000 0.0000 0.0000 20.7250 0.0000 0.0000
# 5 0.0000 0.0000 0.0000 0.0000 20.7260 0.0000
# 6 0.0000 0.0000 0.0000 0.0000 0.0000 34.6628
#
#
#
# Elastic Compliance Matrix: (Units=1/GPa)
#
#
# Indices 1 2 3 4 5 6 
#
# 1 0.013567 -0.002247 -0.007517 0.000000 0.000000 0.000000
# 2 -0.002247 0.013567 -0.007517 0.000000 0.000000 0.000000
# 3 -0.007517 -0.007517 0.024062 0.000000 0.000000 0.000000
# 4 0.000000 0.000000 0.000000 0.048251 0.000000 0.000000
# 5 0.000000 0.000000 0.000000 0.000000 0.048249 0.000000
# 6 0.000000 0.000000 0.000000 0.000000 0.000000 0.028849
#
#
# Mechanical properties :
#
#
# Convention : Reuss Voigt Hill
#
# Bulk Modulus (GPa) = 60.11411 62.40237 61.25824
# Shear Modulus (GPa) = 23.07872 25.02556 24.05214
#
# Velocity S-wave (km/s) = 3.61457 3.76394 3.69001
# Velocity P-wave (km/s) = 7.17296 7.36317 7.26868
#
# Compressibility (1/GPa) = 0.01663503
#
# Stress axis : x y z
#
# Youngs Moduli (GPa) = 73.70824 73.70990 41.55964
#
# Poissons Ratio (x) = 0.16561 0.31240
# Poissons Ratio (y) = 0.16561 0.31239
# Poissons Ratio (z) = 0.55405 0.55405
#
# Static dielectric constant tensor:
#      x y z
#    x 3.465100 0.000000 0.000000 
#    y 0.000000 3.465080 0.000000 
#    z 0.000000 0.000000 3.043510 
# 
# 
# High freq. dielectric constant tensor:
#      x y z
#    x 1.690030 0.000000 0.000000 
#    y 0.000000 1.690030 0.000000 
#    z 0.000000 0.000000 1.653570 
# 
# From -- ./inp_files/3682.got.cif
#   From: 2010.03.12/outbox.cif.g09.slc.cpg/sg111_2_cif.got.tgz:3682.got - 2010.04.14 01:59:48.
