data_PCOD8308970
_publ_section_title
;
Structure prediction by ZEFSAII (Michael W. Deem and Ramdas Pophale) SiO2 
 PCOD8308970
Probable space group: P -4 21 C
;
_chemical_formula_sum "Si O2"
_cell_formula_units_Z 36
_cell_length_a 8.117733
_cell_length_b 8.117733
_cell_length_c 21.617505
_cell_angle_alpha 90.000000
_cell_angle_beta 90.000000
_cell_angle_gamma 90.000000
_cell_volume 1424.541461
_symmetry_space_group_name_H-M "P -4 21 C"
_symmetry_group_IT_number 114
_symmetry_cell_setting 'tetragonal'
loop_
_space_group_symop_operation_xyz
x,y,z
y,-x,-z
-x,-y,z
-y,x,-z
1/2+x,1/2-y,1/2-z
1/2-x,1/2+y,1/2-z
1/2-y,1/2-x,1/2+z
1/2+y,1/2+x,1/2+z
loop_
_atom_site_type_symbol
_atom_site_label
_atom_site_fract_x
_atom_site_fract_y
_atom_site_fract_z
Si Si1 0.805718 0.150625 0.173980
Si Si2 0.500000 0.000000 0.106318
Si Si3 0.564507 0.253611 0.005784
Si Si4 0.173863 0.418521 0.610564
Si Si5 0.485675 0.675742 0.807182
O O1 0.664371 0.031601 0.145996
O O2 0.757185 0.336274 0.189463
O O3 0.857623 0.063901 0.236571
O O4 0.962864 0.170179 0.126662
O O5 0.484106 0.160094 0.063324
O O6 0.676881 0.139247 0.961313
O O7 0.405180 0.324386 0.968227
O O8 0.166631 0.266840 0.658708
O O9 0.000000 0.500000 0.623057
O O10 0.500000 0.500000 0.840683
#
# Coordination Sequence:
#
# PCOD8308970 Si02
#       5
#     8   4   8   8   8
#     4  11  27  46  75 112 155 203 249 329 382 482
#     4  12  28  46  78 110 152 204 266 310 398 464
#     4  11  25  46  77 109 148 201 258 317 380 468
#     4  10  22  45  71 107 157 195 249 318 386 448
#     4  11  25  43  76 110 151 201 253 313 391 465
#
# _framework density 25.271288999999999
#
# number of rings (size 3 to 8) (size 9 to 14) (size 15 to 20)
#    0.000    1.111    1.111    4.000   14.000    1.778 
#    0.000    0.000    0.000    0.000    0.000    0.000 
#    0.000    0.000    0.000    0.000    0.000    0.000 
#
# Total GULP energy -446109.149728 kJ/mol
# GULP energy per Si atom -12391.920826 kJ/mol
# Density = 2.521377 g / cm^3
# Si number density = 25.271289 Si / 1000 Ang^3
#
#
#
# Elastic Constant Matrix: (Units=GPa)
#
#
# Indices 1 2 3 4 5 6 
#
# 1 108.5735 24.0668 24.5237 0.0000 0.0000 0.0000
# 2 24.0668 108.5735 24.5237 0.0000 0.0000 0.0000
# 3 24.5237 24.5237 86.7552 0.0000 0.0000 0.0000
# 4 0.0000 0.0000 0.0000 27.8116 0.0000 0.0000
# 5 0.0000 0.0000 0.0000 0.0000 27.8116 0.0000
# 6 0.0000 0.0000 0.0000 0.0000 0.0000 45.1069
#
#
#
# Elastic Compliance Matrix: (Units=1/GPa)
#
#
# Indices 1 2 3 4 5 6 
#
# 1 0.010126 -0.001707 -0.002380 0.000000 0.000000 0.000000
# 2 -0.001707 0.010126 -0.002380 0.000000 0.000000 0.000000
# 3 -0.002380 -0.002380 0.012872 0.000000 0.000000 0.000000
# 4 0.000000 0.000000 0.000000 0.035956 0.000000 0.000000
# 5 0.000000 0.000000 0.000000 0.000000 0.035956 0.000000
# 6 0.000000 0.000000 0.000000 0.000000 0.000000 0.022170
#
#
# Mechanical properties :
#
#
# Convention : Reuss Voigt Hill
#
# Bulk Modulus (GPa) = 49.52715 50.01453 49.77084
# Shear Modulus (GPa) = 34.04351 35.53190 34.78770
#
# Velocity S-wave (km/s) = 3.67430 3.75376 3.71424
# Velocity P-wave (km/s) = 6.13526 6.21463 6.17507
#
# Compressibility (1/GPa) = 0.02019095
#
# Stress axis : x y z
#
# Youngs Moduli (GPa) = 98.75271 98.75271 77.68685
#
# Poissons Ratio (x) = 0.16858 0.18489
# Poissons Ratio (y) = 0.16858 0.18489
# Poissons Ratio (z) = 0.23502 0.23502
#
# Static dielectric constant tensor:
#      x y z
#    x 4.912020 0.000000 0.000000 
#    y 0.000000 4.912020 0.000000 
#    z 0.000000 0.000000 4.387600 
# 
# 
# High freq. dielectric constant tensor:
#      x y z
#    x 2.014680 0.000000 0.000000 
#    y 0.000000 2.014680 0.000000 
#    z 0.000000 0.000000 2.001550 
# 
# From -- ./inp_files/2923.got.cif
#   From: 2010.03.12/outbox.cif.g09.slc.cpg/sg114_2_cif.got.tgz:2923.got - 2010.04.14 02:08:34.
