data_PCOD8308787
_publ_section_title
;
Structure prediction by ZEFSAII (Michael W. Deem and Ramdas Pophale) SiO2 
 PCOD8308787
Probable space group: P -4 21 M 
;
_chemical_formula_sum "Si O2"
_cell_formula_units_Z 56
_cell_length_a 14.806797
_cell_length_b 14.806797
_cell_length_c 17.430828
_cell_angle_alpha 90.000000
_cell_angle_beta 90.000000
_cell_angle_gamma 90.000000
_cell_volume 3821.556300
_symmetry_space_group_name_H-M "P -4 21 M "
_symmetry_group_IT_number 113
_symmetry_cell_setting 'tetragonal'
loop_
_space_group_symop_operation_xyz
x,y,z
y,-x,-z
-x,-y,z
-y,x,-z
1/2+x,1/2-y,-z
1/2-x,1/2+y,-z
1/2-y,1/2-x,z
1/2+y,1/2+x,z
loop_
_atom_site_type_symbol
_atom_site_label
_atom_site_fract_x
_atom_site_fract_y
_atom_site_fract_z
Si Si1 0.396668 0.396665 0.000001
Si Si2 0.749661 0.104187 0.700685
Si Si3 0.895812 0.250339 0.299314
Si Si4 0.900049 0.107147 0.585119
Si Si5 0.099950 0.107146 0.585121
Si Si6 0.103077 0.250244 0.123587
Si Si7 0.603073 0.750248 0.876414
O O1 0.369772 0.335451 0.927670
O O2 0.380572 0.499998 0.974917
O O3 0.335457 0.369770 0.072333
O O4 0.658315 0.158315 0.682860
O O5 0.830194 0.143998 0.648314
O O6 0.779781 0.117133 0.788602
O O7 0.729339 1.000000 0.681333
O O8 0.841684 0.341684 0.317142
O O9 0.856003 0.169803 0.351683
O O10 0.882868 0.220223 0.211396
O O11 0.865628 0.134372 0.499999
O O12 1.000000 0.148108 0.601334
O O13 0.906501 0.000000 0.590138
O O14 0.164869 0.335132 0.101249
O O15 0.000003 0.280258 0.108865
O O16 0.664862 0.835139 0.898752
#
# Coordination Sequence:
#
# PCOD8308787 Si02
#       7
#     8   8   8   8   8   8   8
#     4   9  17  28  42  60  79  99 124 154 192 233
#     4   9  17  27  39  57  79 103 130 156 185 223
#     4   9  17  27  39  57  79 103 130 156 185 223
#     4   8  14  25  40  57  77 100 126 158 194 227
#     4   8  14  25  40  57  77 100 126 158 194 227
#     4   9  17  28  41  57  78 103 129 157 187 221
#     4   9  17  28  41  57  78 103 129 157 187 221
#
# _framework density 14.653715
#
# number of rings (size 3 to 8) (size 9 to 14) (size 15 to 20)
#    0.000    3.286    0.000    1.286    0.000    2.286 
#    0.000    8.571    0.000    0.000    0.000    0.000 
#    0.000    0.571    0.000    6.286    0.000   10.857 
#
# Total GULP energy -694201.886253 kJ/mol
# GULP energy per Si atom -12396.462255 kJ/mol
# Density = 1.462036 g / cm^3
# Si number density = 14.653715 Si / 1000 Ang^3
#
#
#
# Elastic Constant Matrix: (Units=GPa)
#
#
# Indices 1 2 3 4 5 6 
#
# 1 74.8814 49.2233 58.7875 0.0000 0.0000 0.0000
# 2 49.2233 74.8791 58.7879 0.0000 0.0000 0.0000
# 3 58.7875 58.7879 94.7733 0.0000 0.0000 0.0000
# 4 0.0000 0.0000 0.0000 21.2095 0.0000 0.0000
# 5 0.0000 0.0000 0.0000 0.0000 21.2094 0.0000
# 6 0.0000 0.0000 0.0000 0.0000 0.0000 18.4607
#
#
#
# Elastic Compliance Matrix: (Units=1/GPa)
#
#
# Indices 1 2 3 4 5 6 
#
# 1 0.029258 -0.009717 -0.012121 0.000000 0.000000 0.000000
# 2 -0.009717 0.029260 -0.012123 0.000000 0.000000 0.000000
# 3 -0.012121 -0.012123 0.025590 0.000000 0.000000 0.000000
# 4 0.000000 0.000000 0.000000 0.047149 0.000000 0.000000
# 5 0.000000 0.000000 0.000000 0.000000 0.047149 0.000000
# 6 0.000000 0.000000 0.000000 0.000000 0.000000 0.054169
#
#
# Mechanical properties :
#
#
# Convention : Reuss Voigt Hill
#
# Bulk Modulus (GPa) = 61.78034 64.23680 63.00857
# Shear Modulus (GPa) = 16.34568 17.35826 16.85197
#
# Velocity S-wave (km/s) = 3.34348 3.44548 3.39486
# Velocity P-wave (km/s) = 7.56021 7.73047 7.64582
#
# Compressibility (1/GPa) = 0.01618638
#
# Stress axis : x y z
#
# Youngs Moduli (GPa) = 34.17880 34.17644 39.07799
#
# Poissons Ratio (x) = 0.33209 0.47367
# Poissons Ratio (y) = 0.33211 0.47373
# Poissons Ratio (z) = 0.41429 0.41431
#
# Static dielectric constant tensor:
#      x y z
#    x 2.830980 0.000000 0.000000 
#    y 0.000000 2.830980 0.000000 
#    z 0.000000 0.000000 3.001840 
# 
# 
# High freq. dielectric constant tensor:
#      x y z
#    x 1.544150 0.000000 0.000000 
#    y 0.000000 1.544150 0.000000 
#    z 0.000000 0.000000 1.564460 
# 
# From -- ./inp_files/2264.got.cif
#   From: 2010.03.12/outbox.cif.g09.slc.cpg/sg113_cif.got.tgz:2264.got - 2010.04.14 02:06:34.
