data_PCOD8308211
_publ_section_title
;
Structure prediction by ZEFSAII (Michael W. Deem and Ramdas Pophale) SiO2 
 PCOD8308211
Probable space group: P -4 2 M 
;
_chemical_formula_sum "Si O2"
_cell_formula_units_Z 32
_cell_length_a 16.722501
_cell_length_b 16.722501
_cell_length_c 7.849307
_cell_angle_alpha 90.000000
_cell_angle_beta 90.000000
_cell_angle_gamma 90.000000
_cell_volume 2194.996220
_symmetry_space_group_name_H-M "P -4 2 M "
_symmetry_group_IT_number 111
_symmetry_cell_setting 'tetragonal'
loop_
_space_group_symop_operation_xyz
x,y,z
y,-x,-z
-x,-y,z
-y,x,-z
x,-y,-z
-x,y,-z
-y,-x,z
y,x,z
loop_
_atom_site_type_symbol
_atom_site_label
_atom_site_fract_x
_atom_site_fract_y
_atom_site_fract_z
Si Si1 0.094802 0.330832 0.687886
Si Si2 0.095226 0.500000 0.807362
Si Si3 0.905098 0.222777 1.000000
Si Si4 0.330832 0.905198 0.687885
O O1 0.129038 0.420342 0.716580
O O2 0.125313 0.270617 0.833245
O O3 0.121981 0.300960 0.500001
O O4 1.000000 0.334710 0.701020
O O5 0.129038 0.579658 0.716580
O O6 0.000000 0.500000 0.800946
O O7 0.126086 0.500000 0.000000
O O8 0.863794 0.136207 0.000001
O O9 0.874687 0.270617 0.833243
O O10 0.000000 0.209144 0.000000
#
# Coordination Sequence:
#
# PCOD8308211 Si02
#       4
#     8   8   8   8
#     4   9  16  26  41  60  80 100 122 154 200 252
#     4   9  13  21  39  62  85 101 114 141 187 247
#     4  10  20  32  43  55  73 101 142 188 223 246
#     4   9  16  26  41  60  80 100 122 154 200 252
#
# _framework density 14.578613000000001
#
# number of rings (size 3 to 8) (size 9 to 14) (size 15 to 20)
#    0.000    2.750    2.500    0.750    0.000    4.250 
#    0.000    0.000    0.000    0.000    0.000    7.000 
#    0.000    0.000    0.000    0.000    0.000   10.000 
#
# Total GULP energy -396544.049897 kJ/mol
# GULP energy per Si atom -12392.001559 kJ/mol
# Density = 1.454543 g / cm^3
# Si number density = 14.578613 Si / 1000 Ang^3
#
#
#
# Elastic Constant Matrix: (Units=GPa)
#
#
# Indices 1 2 3 4 5 6 
#
# 1 48.5547 28.3370 31.9219 0.0000 0.0000 0.0000
# 2 28.3370 48.5589 31.9234 0.0000 0.0000 0.0000
# 3 31.9219 31.9234 135.7669 0.0000 0.0000 0.0000
# 4 0.0000 0.0000 0.0000 8.4348 0.0000 0.0000
# 5 0.0000 0.0000 0.0000 0.0000 8.4359 0.0000
# 6 0.0000 0.0000 0.0000 0.0000 0.0000 1.8753
#
#
#
# Elastic Compliance Matrix: (Units=1/GPa)
#
#
# Indices 1 2 3 4 5 6 
#
# 1 0.032810 -0.016648 -0.003800 0.000000 0.000000 0.000000
# 2 -0.016648 0.032807 -0.003800 0.000000 0.000000 0.000000
# 3 -0.003800 -0.003800 0.009152 0.000000 0.000000 0.000000
# 4 0.000000 0.000000 0.000000 0.118557 0.000000 0.000000
# 5 0.000000 0.000000 0.000000 0.000000 0.118541 0.000000
# 6 0.000000 0.000000 0.000000 0.000000 0.000000 0.533252
#
#
# Mechanical properties :
#
#
# Convention : Reuss Voigt Hill
#
# Bulk Modulus (GPa) = 38.06124 46.36057 42.21090
# Shear Modulus (GPa) = 5.54095 13.12907 9.33501
#
# Velocity S-wave (km/s) = 1.95166 3.00421 2.53320
# Velocity P-wave (km/s) = 5.58954 6.62594 6.12968
#
# Compressibility (1/GPa) = 0.02627345
#
# Stress axis : x y z
#
# Youngs Moduli (GPa) = 30.47896 30.48149 109.26143
#
# Poissons Ratio (x) = 0.50747 0.41516
# Poissons Ratio (y) = 0.50742 0.41515
# Poissons Ratio (z) = 0.11581 0.11582
#
# Static dielectric constant tensor:
#      x y z
#    x 2.488310 0.000000 0.000000 
#    y 0.000000 2.488310 0.000000 
#    z 0.000000 0.000000 3.197090 
# 
# 
# High freq. dielectric constant tensor:
#      x y z
#    x 1.508930 0.000000 0.000000 
#    y 0.000000 1.508930 0.000000 
#    z 0.000000 0.000000 1.583520 
# 
# From -- ./inp_files/1261.got.cif
#   From: 2010.03.12/outbox.cif.g09.slc.cpg/sg111_1_cif.got.tgz:1261.got - 2010.04.14 01:59:48.
