data_PCOD8308571
_publ_section_title
;
Structure prediction by ZEFSAII (Michael W. Deem and Ramdas Pophale) SiO2 
 PCOD8308571
Probable space group: P -4 21 M 
;
_chemical_formula_sum "Si O2"
_cell_formula_units_Z 48
_cell_length_a 15.534794
_cell_length_b 15.534794
_cell_length_c 12.100269
_cell_angle_alpha 90.000000
_cell_angle_beta 90.000000
_cell_angle_gamma 90.000000
_cell_volume 2920.155796
_symmetry_space_group_name_H-M "P -4 21 M "
_symmetry_group_IT_number 113
_symmetry_cell_setting 'tetragonal'
loop_
_space_group_symop_operation_xyz
x,y,z
y,-x,-z
-x,-y,z
-y,x,-z
1/2+x,1/2-y,-z
1/2-x,1/2+y,-z
1/2-y,1/2-x,z
1/2+y,1/2+x,z
loop_
_atom_site_type_symbol
_atom_site_label
_atom_site_fract_x
_atom_site_fract_y
_atom_site_fract_z
Si Si1 0.932628 0.567373 0.058575
Si Si2 0.624024 0.563571 0.499229
Si Si3 0.752724 0.017682 0.683256
Si Si4 0.067085 0.432916 0.321303
Si Si5 0.241937 0.974712 0.939330
Si Si6 0.814474 0.829864 0.937645
Si Si7 0.171982 0.810707 0.317755
O O1 0.936853 0.563148 0.189762
O O2 0.958858 0.661663 0.016496
O O3 0.000000 0.500000 0.006643
O O4 0.610396 0.464530 0.530892
O O5 0.678528 0.570852 0.387526
O O6 0.672136 0.605924 0.603704
O O7 0.660776 0.043630 0.635360
O O8 0.765792 0.044552 0.809613
O O9 0.758336 0.915777 0.667480
O O10 0.000000 0.500000 0.373325
O O11 0.216695 0.073270 0.965984
O O12 0.182102 0.903807 0.997478
O O13 0.739283 0.760718 0.970413
O O14 0.838640 0.818976 0.809300
O O15 0.249965 0.749965 0.354887
#
# Coordination Sequence:
#
# PCOD8308571 Si02
#       7
#     4   8   8   4   8   8   8
#     4   9  16  30  50  71  95 132 170 200 248 301
#     4   9  18  32  48  68  95 127 165 202 237 289
#     4   9  18  30  48  73  97 124 159 204 247 294
#     4   9  16  26  46  73  99 119 149 203 255 287
#     4  10  19  32  51  74 104 131 163 213 258 296
#     4  10  20  34  50  74 104 134 170 209 251 306
#     4   9  18  32  50  69  96 131 164 197 241 299
#
# _framework density 16.437479
#
# number of rings (size 3 to 8) (size 9 to 14) (size 15 to 20)
#    0.000    2.667    0.833    1.000    1.167    5.667 
#    0.000    3.333    0.000    0.000    0.000    4.667 
#    0.000    0.000    0.000    0.000    0.000    0.000 
#
# Total GULP energy -595082.557033 kJ/mol
# GULP energy per Si atom -12397.553272 kJ/mol
# Density = 1.640007 g / cm^3
# Si number density = 16.437479 Si / 1000 Ang^3
#
#
#
# Elastic Constant Matrix: (Units=GPa)
#
#
# Indices 1 2 3 4 5 6 
#
# 1 109.8678 66.0105 51.0582 0.0000 0.0000 0.0000
# 2 66.0105 109.8683 51.0584 0.0000 0.0000 0.0000
# 3 51.0582 51.0584 63.9699 0.0000 0.0000 0.0000
# 4 0.0000 0.0000 0.0000 23.4765 0.0000 0.0000
# 5 0.0000 0.0000 0.0000 0.0000 23.4767 0.0000
# 6 0.0000 0.0000 0.0000 0.0000 0.0000 28.9390
#
#
#
# Elastic Compliance Matrix: (Units=1/GPa)
#
#
# Indices 1 2 3 4 5 6 
#
# 1 0.016699 -0.006102 -0.008458 0.000000 0.000000 0.000000
# 2 -0.006102 0.016699 -0.008458 0.000000 0.000000 0.000000
# 3 -0.008458 -0.008458 0.029133 0.000000 0.000000 0.000000
# 4 0.000000 0.000000 0.000000 0.042596 0.000000 0.000000
# 5 0.000000 0.000000 0.000000 0.000000 0.042595 0.000000
# 6 0.000000 0.000000 0.000000 0.000000 0.000000 0.034555
#
#
# Mechanical properties :
#
#
# Convention : Reuss Voigt Hill
#
# Bulk Modulus (GPa) = 60.62183 68.88445 64.75314
# Shear Modulus (GPa) = 21.38482 22.88371 22.13427
#
# Velocity S-wave (km/s) = 3.61082 3.73522 3.67355
# Velocity P-wave (km/s) = 7.37186 7.78463 7.58106
#
# Compressibility (1/GPa) = 0.01649571
#
# Stress axis : x y z
#
# Youngs Moduli (GPa) = 59.88494 59.88514 34.32503
#
# Poissons Ratio (x) = 0.36544 0.29030
# Poissons Ratio (y) = 0.36544 0.29030
# Poissons Ratio (z) = 0.50648 0.50648
#
# Static dielectric constant tensor:
#      x y z
#    x 3.191830 0.000000 0.000000 
#    y 0.000000 3.191830 0.000000 
#    z 0.000000 0.000000 2.938550 
# 
# 
# High freq. dielectric constant tensor:
#      x y z
#    x 1.638930 0.000000 0.000000 
#    y 0.000000 1.638930 0.000000 
#    z 0.000000 0.000000 1.606560 
# 
# From -- ./inp_files/1864.got.cif
#   From: 2010.03.12/outbox.cif.g09.slc.cpg/sg113_cif.got.tgz:1864.got - 2010.04.14 02:06:34.
