data_PCOD8308935
_publ_section_title
;
Structure prediction by ZEFSAII (Michael W. Deem and Ramdas Pophale) SiO2 
 PCOD8308935
Probable space group: P -4 21 C
;
_chemical_formula_sum "Si O2"
_cell_formula_units_Z 40
_cell_length_a 9.226624
_cell_length_b 9.226624
_cell_length_c 20.859199
_cell_angle_alpha 90.000000
_cell_angle_beta 90.000000
_cell_angle_gamma 90.000000
_cell_volume 1775.755927
_symmetry_space_group_name_H-M "P -4 21 C"
_symmetry_group_IT_number 114
_symmetry_cell_setting 'tetragonal'
loop_
_space_group_symop_operation_xyz
x,y,z
y,-x,-z
-x,-y,z
-y,x,-z
1/2+x,1/2-y,1/2-z
1/2-x,1/2+y,1/2-z
1/2-y,1/2-x,1/2+z
1/2+y,1/2+x,1/2+z
loop_
_atom_site_type_symbol
_atom_site_label
_atom_site_fract_x
_atom_site_fract_y
_atom_site_fract_z
Si Si1 0.734690 0.150421 0.860900
Si Si2 0.557327 0.150592 0.975295
Si Si3 0.057698 0.771882 0.303740
Si Si4 0.000000 0.000000 0.796830
Si Si5 0.500000 0.000000 0.772598
Si Si6 0.375092 0.384955 0.914504
O O1 0.702190 0.111009 0.934541
O O2 0.721412 0.323428 0.859091
O O3 0.895624 0.098421 0.841113
O O4 0.604666 0.098585 0.815067
O O5 0.441426 0.224838 0.925771
O O6 0.500000 0.000000 0.003021
O O7 0.593096 0.246516 0.035814
O O8 0.090901 0.891235 0.248664
O O9 0.079648 0.612379 0.274514
O O10 0.906423 0.810734 0.341650
O O11 0.500000 0.500000 0.929138
#
# Coordination Sequence:
#
# PCOD8308935 Si02
#       6
#     8   8   8   4   4   8
#     4  11  21  41  64  94 144 184 223 287 357 424
#     4  12  24  43  69 100 134 178 230 294 354 410
#     4  11  21  40  68 101 131 180 235 288 343 425
#     4  10  22  38  62 103 143 178 224 292 364 422
#     4  10  24  38  60 106 136 176 226 278 356 420
#     4  12  22  45  75  97 128 178 241 289 337 422
#
# _framework density 22.525617
#
# number of rings (size 3 to 8) (size 9 to 14) (size 15 to 20)
#    0.000    0.800    6.000    1.200    1.400    1.600 
#    3.600    0.000    0.000    0.000    0.000    0.000 
#    0.000    0.000    0.000    0.000    0.000    0.000 
#
# Total GULP energy -495581.664838 kJ/mol
# GULP energy per Si atom -12389.541621 kJ/mol
# Density = 2.247435 g / cm^3
# Si number density = 22.525617 Si / 1000 Ang^3
#
#
#
# Elastic Constant Matrix: (Units=GPa)
#
#
# Indices 1 2 3 4 5 6 
#
# 1 123.9313 26.5337 35.7731 0.0000 0.0000 0.0000
# 2 26.5337 123.9313 35.7731 0.0000 0.0000 0.0000
# 3 35.7731 35.7731 104.8213 0.0000 0.0000 0.0000
# 4 0.0000 0.0000 0.0000 29.5641 0.0000 0.0000
# 5 0.0000 0.0000 0.0000 0.0000 29.5641 0.0000
# 6 0.0000 0.0000 0.0000 0.0000 0.0000 22.2910
#
#
#
# Elastic Compliance Matrix: (Units=1/GPa)
#
#
# Indices 1 2 3 4 5 6 
#
# 1 0.009100 -0.001167 -0.002708 0.000000 0.000000 0.000000
# 2 -0.001167 0.009100 -0.002708 0.000000 0.000000 0.000000
# 3 -0.002708 -0.002708 0.011388 0.000000 0.000000 0.000000
# 4 0.000000 0.000000 0.000000 0.033825 0.000000 0.000000
# 5 0.000000 0.000000 0.000000 0.000000 0.033825 0.000000
# 6 0.000000 0.000000 0.000000 0.000000 0.000000 0.044861
#
#
# Mechanical properties :
#
#
# Convention : Reuss Voigt Hill
#
# Bulk Modulus (GPa) = 60.88284 60.98261 60.93272
# Shear Modulus (GPa) = 31.10648 33.25745 32.18197
#
# Velocity S-wave (km/s) = 3.72013 3.84660 3.78389
# Velocity P-wave (km/s) = 6.74829 6.84542 6.79703
#
# Compressibility (1/GPa) = 0.01642499
#
# Stress axis : x y z
#
# Youngs Moduli (GPa) = 109.88601 109.88601 87.81123
#
# Poissons Ratio (x) = 0.12822 0.23775
# Poissons Ratio (y) = 0.12822 0.23775
# Poissons Ratio (z) = 0.29752 0.29752
#
# Static dielectric constant tensor:
#      x y z
#    x 4.395030 0.000000 0.000000 
#    y 0.000000 4.395030 0.000000 
#    z 0.000000 0.000000 4.065330 
# 
# 
# High freq. dielectric constant tensor:
#      x y z
#    x 1.881290 0.000000 0.000000 
#    y 0.000000 1.881290 0.000000 
#    z 0.000000 0.000000 1.890010 
# 
# From -- ./inp_files/3446.got.cif
#   From: 2010.03.12/outbox.cif.g09.slc.cpg/sg114_2_cif.got.tgz:3446.got - 2010.04.14 02:08:34.
