data_PCOD8308575
_publ_section_title
;
Structure prediction by ZEFSAII (Michael W. Deem and Ramdas Pophale) SiO2 
 PCOD8308575
Probable space group: P -4 21 M 
;
_chemical_formula_sum "Si O2"
_cell_formula_units_Z 64
_cell_length_a 12.191693
_cell_length_b 12.191693
_cell_length_c 23.137801
_cell_angle_alpha 90.000000
_cell_angle_beta 90.000000
_cell_angle_gamma 90.000000
_cell_volume 3439.142078
_symmetry_space_group_name_H-M "P -4 21 M "
_symmetry_group_IT_number 113
_symmetry_cell_setting 'tetragonal'
loop_
_space_group_symop_operation_xyz
x,y,z
y,-x,-z
-x,-y,z
-y,x,-z
1/2+x,1/2-y,-z
1/2-x,1/2+y,-z
1/2-y,1/2-x,z
1/2+y,1/2+x,z
loop_
_atom_site_type_symbol
_atom_site_label
_atom_site_fract_x
_atom_site_fract_y
_atom_site_fract_z
Si Si1 0.255472 0.932509 0.121013
Si Si2 0.957479 0.876486 0.418078
Si Si3 0.823916 0.508191 0.620660
Si Si4 0.678556 0.000935 0.994419
Si Si5 0.744780 0.421883 0.510082
Si Si6 0.858409 0.177008 0.819603
Si Si7 0.875928 0.981406 0.907484
Si Si8 0.675048 0.357680 0.687122
O O1 0.349672 0.849672 0.142714
O O2 0.142134 0.864690 0.116160
O O3 0.244851 0.031419 0.166302
O O4 0.288484 0.987410 0.060668
O O5 0.848917 0.856658 0.455765
O O6 0.934247 0.841277 0.351691
O O7 0.043771 0.794580 0.446563
O O8 0.000000 0.000000 0.423674
O O9 0.874698 0.625303 0.639615
O O10 0.779042 0.519233 0.554851
O O11 0.729318 0.472545 0.665690
O O12 0.915944 0.415944 0.622042
O O13 0.603377 0.103377 0.974616
O O14 0.790688 0.000139 0.958881
O O15 0.612581 0.887420 0.985664
O O16 0.846759 0.346759 0.496752
O O17 0.753041 0.253041 0.831104
O O18 0.848280 0.066907 0.856859
O O19 0.866496 0.139583 0.753355
O O20 0.000000 0.000000 0.930521
O O21 0.756764 0.256764 0.677297
#
# Coordination Sequence:
#
# PCOD8308575 Si02
#       8
#     8   8   8   8   8   8   8   8
#     4  10  22  36  55  84 115 146 183 234 286 334
#     4  11  19  35  53  78 110 143 179 221 273 328
#     4   8  15  28  47  75 106 135 172 218 269 321
#     4  10  21  37  57  83 114 147 183 227 283 339
#     4  10  19  32  51  77 109 144 180 221 274 331
#     4  10  21  38  59  82 111 149 193 232 278 334
#     4  10  22  35  56  82 113 149 188 227 274 330
#     4   9  20  36  55  78 105 144 185 229 274 322
#
# _framework density 18.609292
#
# number of rings (size 3 to 8) (size 9 to 14) (size 15 to 20)
#    0.000    2.250    1.250    2.250    3.500    3.750 
#    0.000    1.250    0.000    3.000    0.000    3.500 
#    0.000    0.000    0.000    0.000    0.000    0.000 
#
# Total GULP energy -793312.907750 kJ/mol
# GULP energy per Si atom -12395.514184 kJ/mol
# Density = 1.856694 g / cm^3
# Si number density = 18.609292 Si / 1000 Ang^3
#
#
#
# Elastic Constant Matrix: (Units=GPa)
#
#
# Indices 1 2 3 4 5 6 
#
# 1 70.3480 22.4393 37.8272 0.0000 0.0000 0.0000
# 2 22.4393 70.3486 37.8275 0.0000 0.0000 0.0000
# 3 37.8272 37.8275 96.2629 0.0000 0.0000 0.0000
# 4 0.0000 0.0000 0.0000 24.2392 0.0000 0.0000
# 5 0.0000 0.0000 0.0000 0.0000 24.2394 0.0000
# 6 0.0000 0.0000 0.0000 0.0000 0.0000 20.4544
#
#
#
# Elastic Compliance Matrix: (Units=1/GPa)
#
#
# Indices 1 2 3 4 5 6 
#
# 1 0.018366 -0.002507 -0.006232 0.000000 0.000000 0.000000
# 2 -0.002507 0.018366 -0.006232 0.000000 0.000000 0.000000
# 3 -0.006232 -0.006232 0.015286 0.000000 0.000000 0.000000
# 4 0.000000 0.000000 0.000000 0.041255 0.000000 0.000000
# 5 0.000000 0.000000 0.000000 0.000000 0.041255 0.000000
# 6 0.000000 0.000000 0.000000 0.000000 0.000000 0.048889
#
#
# Mechanical properties :
#
#
# Convention : Reuss Voigt Hill
#
# Bulk Modulus (GPa) = 45.29856 48.12750 46.71303
# Shear Modulus (GPa) = 22.65348 23.04431 22.84889
#
# Velocity S-wave (km/s) = 3.49280 3.52280 3.50783
# Velocity P-wave (km/s) = 6.37659 6.51652 6.44694
#
# Compressibility (1/GPa) = 0.02207576
#
# Stress axis : x y z
#
# Youngs Moduli (GPa) = 54.44945 54.44979 65.42026
#
# Poissons Ratio (x) = 0.13652 0.40768
# Poissons Ratio (y) = 0.13652 0.40768
# Poissons Ratio (z) = 0.33931 0.33931
#
# Static dielectric constant tensor:
#      x y z
#    x 3.519900 0.000000 0.000000 
#    y 0.000000 3.519900 0.000000 
#    z 0.000000 0.000000 3.373850 
# 
# 
# High freq. dielectric constant tensor:
#      x y z
#    x 1.717740 0.000000 0.000000 
#    y 0.000000 1.717740 0.000000 
#    z 0.000000 0.000000 1.710520 
# 
# From -- ./inp_files/2906.got.cif
#   From: 2010.03.12/outbox.cif.g09.slc.cpg/sg113_cif.got.tgz:2906.got - 2010.04.14 02:06:34.
