data_PCOD8308180
_publ_section_title
;
Structure prediction by ZEFSAII (Michael W. Deem and Ramdas Pophale) SiO2 
 PCOD8308180
Probable space group: P -4 2 M 
;
_chemical_formula_sum "Si O2"
_cell_formula_units_Z 48
_cell_length_a 12.464004
_cell_length_b 12.464004
_cell_length_c 18.617162
_cell_angle_alpha 90.000000
_cell_angle_beta 90.000000
_cell_angle_gamma 90.000000
_cell_volume 2892.202101
_symmetry_space_group_name_H-M "P -4 2 M "
_symmetry_group_IT_number 111
_symmetry_cell_setting 'tetragonal'
loop_
_space_group_symop_operation_xyz
x,y,z
y,-x,-z
-x,-y,z
-y,x,-z
x,-y,-z
-x,y,-z
-y,-x,z
y,x,z
loop_
_atom_site_type_symbol
_atom_site_label
_atom_site_fract_x
_atom_site_fract_y
_atom_site_fract_z
Si Si1 0.500003 0.124129 0.683674
Si Si2 0.706345 0.880470 0.221503
Si Si3 0.623274 0.205628 0.080176
Si Si4 0.119538 0.706340 0.221502
Si Si5 0.205624 0.376725 0.080179
Si Si6 0.326741 0.500000 0.584654
O O1 0.603144 0.148174 0.731789
O O2 0.396871 0.148173 0.731797
O O3 0.499998 0.208146 0.618524
O O4 0.500000 0.000000 0.655872
O O5 0.800520 0.800520 0.243809
O O6 0.676933 0.874383 0.137147
O O7 0.747306 0.000005 0.237578
O O8 0.677912 0.322089 0.085925
O O9 0.676940 0.125627 0.137144
O O10 0.500000 0.222964 0.099302
O O11 0.638228 0.156841 0.999999
O O12 0.199494 0.800507 0.243816
O O13 0.322081 0.322081 0.085933
O O14 0.309538 0.500000 0.500000
O O15 0.394166 0.605835 0.607876
O O16 0.394167 0.394167 0.607876
#
# Coordination Sequence:
#
# PCOD8308180 Si02
#       6
#     8   8   8   8   8   8
#     4  10  19  32  51  74  99 125 156 197 235 271
#     4  10  20  33  48  68  94 124 160 198 238 283
#     4   9  17  29  45  65  91 123 158 198 242 285
#     4  10  20  33  48  68  94 124 160 198 238 283
#     4   9  17  29  45  65  91 123 158 198 242 285
#     4   9  18  33  53  76 102 131 158 184 222 276
#
# _framework density 16.596352
#
# number of rings (size 3 to 8) (size 9 to 14) (size 15 to 20)
#    0.000    2.500    1.667    1.500    0.000    1.667 
#    0.000    3.333    0.000    0.000    0.000    4.667 
#    0.000    0.000    0.000   31.000    0.000    0.000 
#
# Total GULP energy -595033.707255 kJ/mol
# GULP energy per Si atom -12396.535568 kJ/mol
# Density = 1.655858 g / cm^3
# Si number density = 16.596352 Si / 1000 Ang^3
#
#
#
# Elastic Constant Matrix: (Units=GPa)
#
#
# Indices 1 2 3 4 5 6 
#
# 1 113.8029 61.8457 41.1393 0.0000 0.0000 0.0000
# 2 61.8457 113.8017 41.1390 0.0000 0.0000 0.0000
# 3 41.1393 41.1390 60.6941 0.0000 0.0000 0.0000
# 4 0.0000 0.0000 0.0000 24.6400 0.0000 0.0000
# 5 0.0000 0.0000 0.0000 0.0000 24.6403 0.0000
# 6 0.0000 0.0000 0.0000 0.0000 0.0000 21.7034
#
#
#
# Elastic Compliance Matrix: (Units=1/GPa)
#
#
# Indices 1 2 3 4 5 6 
#
# 1 0.013794 -0.005453 -0.005654 0.000000 0.000000 0.000000
# 2 -0.005453 0.013794 -0.005654 0.000000 0.000000 0.000000
# 3 -0.005654 -0.005654 0.024141 0.000000 0.000000 0.000000
# 4 0.000000 0.000000 0.000000 0.040584 0.000000 0.000000
# 5 0.000000 0.000000 0.000000 0.000000 0.040584 0.000000
# 6 0.000000 0.000000 0.000000 0.000000 0.000000 0.046076
#
#
# Mechanical properties :
#
#
# Convention : Reuss Voigt Hill
#
# Bulk Modulus (GPa) = 54.92118 64.06076 59.49097
# Shear Modulus (GPa) = 22.87654 23.80840 23.34247
#
# Velocity S-wave (km/s) = 3.71672 3.79166 3.75438
# Velocity P-wave (km/s) = 7.18212 7.60605 7.39712
#
# Compressibility (1/GPa) = 0.01820791
#
# Stress axis : x y z
#
# Youngs Moduli (GPa) = 72.49408 72.49338 41.42334
#
# Poissons Ratio (x) = 0.39527 0.23421
# Poissons Ratio (y) = 0.39528 0.23421
# Poissons Ratio (z) = 0.40989 0.40989
#
# Static dielectric constant tensor:
#      x y z
#    x 3.067400 0.000000 0.000000 
#    y 0.000000 3.067400 0.000000 
#    z 0.000000 0.000000 3.012020 
# 
# 
# High freq. dielectric constant tensor:
#      x y z
#    x 1.635800 0.000000 0.000000 
#    y 0.000000 1.635800 0.000000 
#    z 0.000000 0.000000 1.627580 
# 
# From -- ./inp_files/3620.got.cif
#   From: 2010.03.12/outbox.cif.g09.slc.cpg/sg111_2_cif.got.tgz:3620.got - 2010.04.14 01:59:48.
