data_PCOD8308601
_publ_section_title
;
Structure prediction by ZEFSAII (Michael W. Deem and Ramdas Pophale) SiO2 
 PCOD8308601
Probable space group: P -4 21 M 
;
_chemical_formula_sum "Si O2"
_cell_formula_units_Z 64
_cell_length_a 12.003064
_cell_length_b 12.003064
_cell_length_c 23.497186
_cell_angle_alpha 90.000000
_cell_angle_beta 90.000000
_cell_angle_gamma 90.000000
_cell_volume 3385.322894
_symmetry_space_group_name_H-M "P -4 21 M "
_symmetry_group_IT_number 113
_symmetry_cell_setting 'tetragonal'
loop_
_space_group_symop_operation_xyz
x,y,z
y,-x,-z
-x,-y,z
-y,x,-z
1/2+x,1/2-y,-z
1/2-x,1/2+y,-z
1/2-y,1/2-x,z
1/2+y,1/2+x,z
loop_
_atom_site_type_symbol
_atom_site_label
_atom_site_fract_x
_atom_site_fract_y
_atom_site_fract_z
Si Si1 0.983514 0.873423 0.667000
Si Si2 0.234472 0.085917 0.437772
Si Si3 0.614501 0.703299 0.055184
Si Si4 0.130712 0.982186 0.857160
Si Si5 0.318410 0.361673 0.932088
Si Si6 0.255766 0.065318 0.664769
Si Si7 0.948841 0.734949 0.451590
Si Si8 0.808107 0.126537 0.741879
O O1 0.853482 0.863522 0.684224
O O2 0.006723 0.789692 0.615588
O O3 0.066471 0.846223 0.719852
O O4 0.000000 0.000000 0.645888
O O5 0.329862 0.170139 0.417774
O O6 0.124246 0.153446 0.455199
O O7 0.278991 0.012295 0.489291
O O8 0.681831 0.818170 0.061465
O O9 0.664855 0.612014 0.097647
O O10 0.487823 0.723316 0.073213
O O11 0.618636 0.656810 0.991440
O O12 0.187196 0.948898 0.798083
O O13 0.176519 0.099176 0.881329
O O14 0.000000 0.000000 0.849451
O O15 0.207517 0.292484 0.927094
O O16 0.364129 0.135872 0.681859
O O17 0.254397 0.041712 0.597379
O O18 0.258809 0.945442 0.695385
O O19 0.873621 0.626380 0.440561
O O20 0.741711 0.241711 0.752370
#
# Coordination Sequence:
#
# PCOD8308601 Si02
#       8
#     8   8   8   8   8   8   8   8
#     4  10  20  38  60  81 110 146 195 242 285 341
#     4  11  22  35  55  81 109 146 189 238 291 344
#     4  10  19  34  56  83 117 157 197 242 293 348
#     4  10  20  35  60  86 116 153 200 243 288 341
#     4  10  20  34  55  83 118 156 197 243 294 348
#     4  11  23  39  60  85 116 155 194 239 295 353
#     4  11  23  37  55  83 116 152 194 242 298 360
#     4  11  22  39  62  89 117 154 196 243 293 349
#
# _framework density 18.905139999999999
#
# number of rings (size 3 to 8) (size 9 to 14) (size 15 to 20)
#    0.000    1.500    3.750    3.375    0.000    4.000 
#    0.000    0.000    0.000    2.250    0.000    0.000 
#    0.000    0.000    0.000    0.000    0.000    0.000 
#
# Total GULP energy -793638.256410 kJ/mol
# GULP energy per Si atom -12400.597756 kJ/mol
# Density = 1.886211 g / cm^3
# Si number density = 18.905140 Si / 1000 Ang^3
#
#
#
# Elastic Constant Matrix: (Units=GPa)
#
#
# Indices 1 2 3 4 5 6 
#
# 1 72.1461 34.0705 21.2763 0.0000 0.0000 0.0000
# 2 34.0705 72.1451 21.2758 0.0000 0.0000 0.0000
# 3 21.2763 21.2758 90.5707 0.0000 0.0000 0.0000
# 4 0.0000 0.0000 0.0000 20.4972 0.0000 0.0000
# 5 0.0000 0.0000 0.0000 0.0000 20.4971 0.0000
# 6 0.0000 0.0000 0.0000 0.0000 0.0000 24.3488
#
#
#
# Elastic Compliance Matrix: (Units=1/GPa)
#
#
# Indices 1 2 3 4 5 6 
#
# 1 0.018328 -0.007936 -0.002441 0.000000 0.000000 0.000000
# 2 -0.007936 0.018328 -0.002441 0.000000 0.000000 0.000000
# 3 -0.002441 -0.002441 0.012188 0.000000 0.000000 0.000000
# 4 0.000000 0.000000 0.000000 0.048787 0.000000 0.000000
# 5 0.000000 0.000000 0.000000 0.000000 0.048788 0.000000
# 6 0.000000 0.000000 0.000000 0.000000 0.000000 0.041070
#
#
# Mechanical properties :
#
#
# Convention : Reuss Voigt Hill
#
# Bulk Modulus (GPa) = 43.08819 43.12302 43.10560
# Shear Modulus (GPa) = 22.63856 23.61788 23.12822
#
# Velocity S-wave (km/s) = 3.46422 3.53836 3.50148
# Velocity P-wave (km/s) = 6.23236 6.28912 6.26080
#
# Compressibility (1/GPa) = 0.02320822
#
# Stress axis : x y z
#
# Youngs Moduli (GPa) = 54.56055 54.55994 82.04709
#
# Poissons Ratio (x) = 0.43296 0.20031
# Poissons Ratio (y) = 0.43297 0.20031
# Poissons Ratio (z) = 0.13321 0.13320
#
# Static dielectric constant tensor:
#      x y z
#    x 3.425240 0.000000 0.000000 
#    y 0.000000 3.425240 0.000000 
#    z 0.000000 0.000000 3.474690 
# 
# 
# High freq. dielectric constant tensor:
#      x y z
#    x 1.727840 0.000000 0.000000 
#    y 0.000000 1.727840 0.000000 
#    z 0.000000 0.000000 1.732760 
# 
# From -- ./inp_files/2880.got.cif
#   From: 2010.03.12/outbox.cif.g09.slc.cpg/sg113_cif.got.tgz:2880.got - 2010.04.14 02:06:34.
