data_PCOD8308243
_publ_section_title
;
Structure prediction by ZEFSAII (Michael W. Deem and Ramdas Pophale) SiO2 
 PCOD8308243
Probable space group: P -4 2 M 
;
_chemical_formula_sum "Si O2"
_cell_formula_units_Z 42
_cell_length_a 14.406760
_cell_length_b 14.406760
_cell_length_c 9.476565
_cell_angle_alpha 90.000000
_cell_angle_beta 90.000000
_cell_angle_gamma 90.000000
_cell_volume 1966.905925
_symmetry_space_group_name_H-M "P -4 2 M "
_symmetry_group_IT_number 111
_symmetry_cell_setting 'tetragonal'
loop_
_space_group_symop_operation_xyz
x,y,z
y,-x,-z
-x,-y,z
-y,x,-z
x,-y,-z
-x,y,-z
-y,-x,z
y,x,z
loop_
_atom_site_type_symbol
_atom_site_label
_atom_site_fract_x
_atom_site_fract_y
_atom_site_fract_z
Si Si1 0.650389 0.500000 0.000000
Si Si2 0.623730 0.770813 0.819035
Si Si3 0.000000 0.000000 0.000000
Si Si4 0.102075 0.897926 0.247975
Si Si5 0.000000 0.000000 0.500000
Si Si6 0.250816 0.399771 0.495488
Si Si7 0.043329 0.293121 0.854961
Si Si8 0.948503 0.598065 0.368670
O O1 0.717679 0.469200 0.128569
O O2 0.585233 0.414768 0.947960
O O3 0.711863 0.711863 0.871050
O O4 0.625338 0.782370 0.651547
O O5 0.633280 0.873689 0.884885
O O6 0.061383 0.938618 0.103847
O O7 0.211328 0.916925 0.243032
O O8 0.062646 0.937355 0.395852
O O9 0.301866 0.500000 0.500000
O O10 0.322197 0.322197 0.437131
O O11 0.161474 0.410539 0.394287
O O12 0.959679 0.341759 0.771559
O O13 0.000000 0.255718 0.000000
O O14 0.000000 0.500000 0.347755
O O15 0.000000 0.648522 0.500000
#
# Coordination Sequence:
#
# PCOD8308243 Si02
#       8
#     4   8   1   4   1   8   8   8
#     4   9  20  40  65  92 128 176 225 282 346 411
#     4  10  21  39  62  90 129 172 221 274 338 405
#     4  10  20  50  68  82 144 182 196 270 348 390
#     4  11  24  46  66 102 135 178 221 277 340 400
#     4  10  28  42  76  98 128 190 240 258 320 438
#     4  11  23  42  66  97 133 176 224 290 346 409
#     4  12  25  41  69  98 136 178 219 282 343 406
#     4  11  22  45  69  92 135 182 229 280 341 409
#
# _framework density 21.353332999999999
#
# number of rings (size 3 to 8) (size 9 to 14) (size 15 to 20)
#    0.000    1.238    5.714    0.000    1.333    4.381 
#    5.143    3.810    0.000    0.000    0.000    0.000 
#    0.000    0.000    0.000    0.000    0.000    0.000 
#
# Total GULP energy -520649.421290 kJ/mol
# GULP energy per Si atom -12396.414793 kJ/mol
# Density = 2.130473 g / cm^3
# Si number density = 21.353333 Si / 1000 Ang^3
#
#
#
# Elastic Constant Matrix: (Units=GPa)
#
#
# Indices 1 2 3 4 5 6 
#
# 1 127.7988 69.9214 43.1253 0.0000 0.0000 0.0000
# 2 69.9214 127.7986 43.1254 0.0000 0.0000 0.0000
# 3 43.1253 43.1254 96.9958 0.0000 0.0000 0.0000
# 4 0.0000 0.0000 0.0000 27.6277 0.0000 0.0000
# 5 0.0000 0.0000 0.0000 0.0000 27.6272 0.0000
# 6 0.0000 0.0000 0.0000 0.0000 0.0000 34.8853
#
#
#
# Elastic Compliance Matrix: (Units=1/GPa)
#
#
# Indices 1 2 3 4 5 6 
#
# 1 0.011776 -0.005502 -0.002790 0.000000 0.000000 0.000000
# 2 -0.005502 0.011776 -0.002790 0.000000 0.000000 0.000000
# 3 -0.002790 -0.002790 0.012790 0.000000 0.000000 0.000000
# 4 0.000000 0.000000 0.000000 0.036196 0.000000 0.000000
# 5 0.000000 0.000000 0.000000 0.000000 0.036196 0.000000
# 6 0.000000 0.000000 0.000000 0.000000 0.000000 0.028665
#
#
# Mechanical properties :
#
#
# Convention : Reuss Voigt Hill
#
# Bulk Modulus (GPa) = 70.51871 73.88194 72.20033
# Shear Modulus (GPa) = 30.43410 31.12277 30.77843
#
# Velocity S-wave (km/s) = 3.77936 3.82188 3.80068
# Velocity P-wave (km/s) = 7.22088 7.35870 7.29012
#
# Compressibility (1/GPa) = 0.01418063
#
# Stress axis : x y z
#
# Youngs Moduli (GPa) = 84.91657 84.91634 78.18333
#
# Poissons Ratio (x) = 0.46718 0.21811
# Poissons Ratio (y) = 0.46718 0.21811
# Poissons Ratio (z) = 0.23690 0.23690
#
# Static dielectric constant tensor:
#      x y z
#    x 3.902660 0.000000 0.000000 
#    y 0.000000 3.902670 0.000000 
#    z 0.000000 0.000000 3.704310 
# 
# 
# High freq. dielectric constant tensor:
#      x y z
#    x 1.839470 0.000000 0.000000 
#    y 0.000000 1.839470 0.000000 
#    z 0.000000 0.000000 1.822630 
# 
# From -- ./inp_files/1639.got.cif
#   From: 2010.03.12/outbox.cif.g09.slc.cpg/sg111_1_cif.got.tgz:1639.got - 2010.04.14 01:59:48.
