data_PCOD8308842
_publ_section_title
;
Structure prediction by ZEFSAII (Michael W. Deem and Ramdas Pophale) SiO2 
 PCOD8308842
Probable space group: P -4 21 C
;
_chemical_formula_sum "Si O2"
_cell_formula_units_Z 40
_cell_length_a 8.306828
_cell_length_b 8.306828
_cell_length_c 27.922855
_cell_angle_alpha 90.000000
_cell_angle_beta 90.000000
_cell_angle_gamma 90.000000
_cell_volume 1926.771693
_symmetry_space_group_name_H-M "P -4 21 C"
_symmetry_group_IT_number 114
_symmetry_cell_setting 'tetragonal'
loop_
_space_group_symop_operation_xyz
x,y,z
y,-x,-z
-x,-y,z
-y,x,-z
1/2+x,1/2-y,1/2-z
1/2-x,1/2+y,1/2-z
1/2-y,1/2-x,1/2+z
1/2+y,1/2+x,1/2+z
loop_
_atom_site_type_symbol
_atom_site_label
_atom_site_fract_x
_atom_site_fract_y
_atom_site_fract_z
Si Si1 0.900575 0.238727 0.495095
Si Si2 0.264839 0.089828 0.198309
Si Si3 0.000000 0.500000 0.066724
Si Si4 0.000000 0.000000 0.649342
Si Si5 0.242149 0.395807 0.781071
Si Si6 0.767968 0.752433 0.602949
O O1 0.808365 0.305636 0.447939
O O2 0.085307 0.193331 0.483308
O O3 0.897393 0.377120 0.534575
O O4 0.429545 0.164235 0.217624
O O5 0.127599 0.180182 0.228626
O O6 0.236863 0.126410 0.142093
O O7 0.264803 0.897124 0.206431
O O8 0.913657 0.633476 0.099581
O O9 0.106004 0.109917 0.615747
O O10 0.887657 0.117231 0.681178
#
# Coordination Sequence:
#
# PCOD8308842 Si02
#       6
#     8   8   4   4   8   8
#     4   9  18  35  57  80 108 142 185 234 286 335
#     4  10  21  36  57  83 116 150 189 229 278 337
#     4  10  20  34  58  82 110 144 186 242 286 330
#     4  10  20  36  59  80 108 144 193 230 268 332
#     4  10  21  37  56  84 116 150 183 233 282 324
#     4  10  20  35  56  83 108 146 190 228 277 340
#
# _framework density 20.760111999999999
#
# number of rings (size 3 to 8) (size 9 to 14) (size 15 to 20)
#    0.000    2.200    0.000    4.800    0.000    6.400 
#    0.000    0.000    0.000   19.200    0.000    0.000 
#    0.000    0.000    0.000    0.000    0.000    0.000 
#
# Total GULP energy -495967.505381 kJ/mol
# GULP energy per Si atom -12399.187635 kJ/mol
# Density = 2.071286 g / cm^3
# Si number density = 20.760112 Si / 1000 Ang^3
#
#
#
# Elastic Constant Matrix: (Units=GPa)
#
#
# Indices 1 2 3 4 5 6 
#
# 1 77.5001 14.3539 34.1640 0.0000 0.0000 0.0000
# 2 14.3539 77.5001 34.1640 0.0000 0.0000 0.0000
# 3 34.1640 34.1640 94.8431 0.0000 0.0000 0.0000
# 4 0.0000 0.0000 0.0000 21.0318 0.0000 0.0000
# 5 0.0000 0.0000 0.0000 0.0000 21.0318 0.0000
# 6 0.0000 0.0000 0.0000 0.0000 0.0000 21.2958
#
#
#
# Elastic Compliance Matrix: (Units=1/GPa)
#
#
# Indices 1 2 3 4 5 6 
#
# 1 0.015354 -0.000482 -0.005357 0.000000 0.000000 0.000000
# 2 -0.000482 0.015354 -0.005357 0.000000 0.000000 0.000000
# 3 -0.005357 -0.005357 0.014403 0.000000 0.000000 0.000000
# 4 0.000000 0.000000 0.000000 0.047547 0.000000 0.000000
# 5 0.000000 0.000000 0.000000 0.000000 0.047547 0.000000
# 6 0.000000 0.000000 0.000000 0.000000 0.000000 0.046958
#
#
# Mechanical properties :
#
#
# Convention : Reuss Voigt Hill
#
# Bulk Modulus (GPa) = 44.01696 46.13413 45.07555
# Shear Modulus (GPa) = 23.02786 23.81600 23.42193
#
# Velocity S-wave (km/s) = 3.33413 3.39071 3.36254
# Velocity P-wave (km/s) = 6.00588 6.13188 6.06921
#
# Compressibility (1/GPa) = 0.02271851
#
# Stress axis : x y z
#
# Youngs Moduli (GPa) = 65.12942 65.12942 69.42930
#
# Poissons Ratio (x) = 0.03141 0.37194
# Poissons Ratio (y) = 0.03141 0.37194
# Poissons Ratio (z) = 0.34890 0.34890
#
# Static dielectric constant tensor:
#      x y z
#    x 3.844290 0.000000 0.000000 
#    y 0.000000 3.844290 0.000000 
#    z 0.000000 0.000000 3.835180 
# 
# 
# High freq. dielectric constant tensor:
#      x y z
#    x 1.804520 0.000000 0.000000 
#    y 0.000000 1.804520 0.000000 
#    z 0.000000 0.000000 1.813230 
# 
# From -- ./inp_files/3669.got.cif
#   From: 2010.03.12/outbox.cif.g09.slc.cpg/sg114_2_cif.got.tgz:3669.got - 2010.04.14 02:08:34.
