data_PCOD8308127
_publ_section_title
;
Structure prediction by ZEFSAII (Michael W. Deem and Ramdas Pophale) SiO2 
 PCOD8308127
Probable space group: P -4 2 M 
;
_chemical_formula_sum "Si O2"
_cell_formula_units_Z 48
_cell_length_a 12.772125
_cell_length_b 12.772125
_cell_length_c 17.055953
_cell_angle_alpha 90.000000
_cell_angle_beta 90.000000
_cell_angle_gamma 90.000000
_cell_volume 2782.289464
_symmetry_space_group_name_H-M "P -4 2 M "
_symmetry_group_IT_number 111
_symmetry_cell_setting 'tetragonal'
loop_
_space_group_symop_operation_xyz
x,y,z
y,-x,-z
-x,-y,z
-y,x,-z
x,-y,-z
-x,y,-z
-y,-x,z
y,x,z
loop_
_atom_site_type_symbol
_atom_site_label
_atom_site_fract_x
_atom_site_fract_y
_atom_site_fract_z
Si Si1 0.000000 0.375963 0.588213
Si Si2 0.376659 0.784426 1.000000
Si Si3 0.623324 0.208834 0.677834
Si Si4 0.114840 0.623226 0.841018
Si Si5 0.376774 0.114839 0.841019
Si Si6 0.623323 0.791165 0.677835
O O1 0.105417 0.338147 0.631552
O O2 0.000000 0.500000 0.588795
O O3 0.000000 0.331055 0.500000
O O4 0.894584 0.338147 0.631552
O O5 0.333314 0.666687 0.000000
O O6 0.332117 0.842574 0.076944
O O7 0.500000 0.775855 0.000000
O O8 0.332116 0.842573 0.923056
O O9 0.690847 0.309154 0.649113
O O10 0.649220 0.191678 0.769346
O O11 0.500000 0.231702 0.663354
O O12 0.103598 0.500000 0.848996
O O13 1.000000 0.671922 0.824826
O O14 0.350781 0.191677 0.769346
O O15 0.690846 0.690846 0.649114
#
# Coordination Sequence:
#
# PCOD8308127 Si02
#       6
#     8   8   8   8   8   8
#     4   9  18  34  54  74  98 132 173 210 245 295
#     4  10  19  28  41  65  96 130 165 201 245 296
#     4  10  19  32  52  78 107 136 167 206 253 304
#     4   9  16  29  47  67  93 126 168 214 249 282
#     4   9  16  29  47  67  93 126 168 214 249 282
#     4  10  19  32  52  78 107 136 167 206 253 304
#
# _framework density 17.251978000000001
#
# number of rings (size 3 to 8) (size 9 to 14) (size 15 to 20)
#    0.000    2.500    1.667    1.500    0.000    3.167 
#    0.000    0.000    0.000    6.500    0.000    5.833 
#    0.000    2.667    0.000    0.000    0.000    0.000 
#
# Total GULP energy -594877.963197 kJ/mol
# GULP energy per Si atom -12393.290900 kJ/mol
# Density = 1.721271 g / cm^3
# Si number density = 17.251978 Si / 1000 Ang^3
#
#
#
# Elastic Constant Matrix: (Units=GPa)
#
#
# Indices 1 2 3 4 5 6 
#
# 1 77.4949 55.1663 30.2320 0.0000 0.0000 0.0000
# 2 55.1663 77.4960 30.2320 0.0000 0.0000 0.0000
# 3 30.2320 30.2320 112.5800 0.0000 0.0000 0.0000
# 4 0.0000 0.0000 0.0000 12.1475 0.0000 0.0000
# 5 0.0000 0.0000 0.0000 0.0000 12.1469 0.0000
# 6 0.0000 0.0000 0.0000 0.0000 0.0000 10.8520
#
#
#
# Elastic Compliance Matrix: (Units=1/GPa)
#
#
# Indices 1 2 3 4 5 6 
#
# 1 0.026687 -0.018098 -0.002307 0.000000 0.000000 0.000000
# 2 -0.018098 0.026687 -0.002306 0.000000 0.000000 0.000000
# 3 -0.002307 -0.002306 0.010121 0.000000 0.000000 0.000000
# 4 0.000000 0.000000 0.000000 0.082321 0.000000 0.000000
# 5 0.000000 0.000000 0.000000 0.000000 0.082325 0.000000
# 6 0.000000 0.000000 0.000000 0.000000 0.000000 0.092149
#
#
# Mechanical properties :
#
#
# Convention : Reuss Voigt Hill
#
# Bulk Modulus (GPa) = 55.32907 55.42572 55.37739
# Shear Modulus (GPa) = 13.45039 17.15867 15.30453
#
# Velocity S-wave (km/s) = 2.79524 3.15714 2.98168
# Velocity P-wave (km/s) = 6.52369 6.74440 6.63496
#
# Compressibility (1/GPa) = 0.01807368
#
# Stress axis : x y z
#
# Youngs Moduli (GPa) = 37.47136 37.47194 98.80098
#
# Poissons Ratio (x) = 0.67815 0.22789
# Poissons Ratio (y) = 0.67814 0.22788
# Poissons Ratio (z) = 0.08643 0.08643
#
# Static dielectric constant tensor:
#      x y z
#    x 3.005560 0.000000 0.000000 
#    y 0.000000 3.005560 0.000000 
#    z 0.000000 0.000000 3.536130 
# 
# 
# High freq. dielectric constant tensor:
#      x y z
#    x 1.637670 0.000000 0.000000 
#    y 0.000000 1.637670 0.000000 
#    z 0.000000 0.000000 1.679100 
# 
# From -- ./inp_files/3637.got.cif
#   From: 2010.03.12/outbox.cif.g09.slc.cpg/sg111_2_cif.got.tgz:3637.got - 2010.04.14 01:59:48.
