data_PCOD8308711
_publ_section_title
;
Structure prediction by ZEFSAII (Michael W. Deem and Ramdas Pophale) SiO2 
 PCOD8308711
Probable space group: P -4 21 M 
;
_chemical_formula_sum "Si O2"
_cell_formula_units_Z 48
_cell_length_a 11.297270
_cell_length_b 11.297270
_cell_length_c 18.889807
_cell_angle_alpha 90.000000
_cell_angle_beta 90.000000
_cell_angle_gamma 90.000000
_cell_volume 2410.874133
_symmetry_space_group_name_H-M "P -4 21 M "
_symmetry_group_IT_number 113
_symmetry_cell_setting 'tetragonal'
loop_
_space_group_symop_operation_xyz
x,y,z
y,-x,-z
-x,-y,z
-y,x,-z
1/2+x,1/2-y,-z
1/2-x,1/2+y,-z
1/2-y,1/2-x,z
1/2+y,1/2+x,z
loop_
_atom_site_type_symbol
_atom_site_label
_atom_site_fract_x
_atom_site_fract_y
_atom_site_fract_z
Si Si1 0.865422 0.028087 0.873311
Si Si2 0.848690 0.845223 0.600357
Si Si3 0.342682 0.348929 0.756477
Si Si4 0.694812 0.998870 0.499512
Si Si5 0.810501 0.499968 0.002819
Si Si6 0.044944 0.732680 0.848388
O O1 0.854004 0.166273 0.853552
O O2 0.821909 0.954669 0.805731
O O3 0.797794 0.994363 0.944205
O O4 0.000000 0.000000 0.890222
O O5 0.766465 0.733536 0.611090
O O6 0.888727 0.888128 0.678471
O O7 0.776382 0.952605 0.563962
O O8 0.962737 0.793503 0.558224
O O9 0.273225 0.226776 0.752145
O O10 0.258758 0.452396 0.786459
O O11 0.609208 0.890793 0.472680
O O12 0.611161 0.111161 0.522112
O O13 0.871480 0.371480 0.003499
O O14 0.899573 0.600428 0.029530
O O15 0.769764 0.526784 0.922668
O O16 0.107296 0.607296 0.832346
#
# Coordination Sequence:
#
# PCOD8308711 Si02
#       6
#     8   8   8   8   8   8
#     4  10  22  36  54  80 112 147 186 228 289 343
#     4   9  19  37  60  90 115 150 198 232 285 350
#     4  10  21  38  60  83 116 150 188 237 285 346
#     4   9  18  36  60  88 123 156 194 244 291 346
#     4  10  21  37  58  81 104 140 196 245 283 335
#     4  10  22  37  54  80 114 151 190 236 289 341
#
# _framework density 19.909791999999999
#
# number of rings (size 3 to 8) (size 9 to 14) (size 15 to 20)
#    0.000    2.333    0.000    1.500    4.667    2.000 
#    9.000    3.333    0.000    4.000    0.000    0.000 
#    0.000    0.000    0.000    0.000    0.000    0.000 
#
# Total GULP energy -594956.870539 kJ/mol
# GULP energy per Si atom -12394.934803 kJ/mol
# Density = 1.986448 g / cm^3
# Si number density = 19.909792 Si / 1000 Ang^3
#
#
#
# Elastic Constant Matrix: (Units=GPa)
#
#
# Indices 1 2 3 4 5 6 
#
# 1 62.8143 36.6386 47.0364 0.0000 0.0000 0.0000
# 2 36.6386 62.8074 47.0330 0.0000 0.0000 0.0000
# 3 47.0364 47.0330 145.9239 0.0000 0.0000 0.0000
# 4 0.0000 0.0000 0.0000 25.9841 0.0000 0.0000
# 5 0.0000 0.0000 0.0000 0.0000 25.9837 0.0000
# 6 0.0000 0.0000 0.0000 0.0000 0.0000 29.1341
#
#
#
# Elastic Compliance Matrix: (Units=1/GPa)
#
#
# Indices 1 2 3 4 5 6 
#
# 1 0.026336 -0.011871 -0.004663 0.000000 0.000000 0.000000
# 2 -0.011871 0.026338 -0.004663 0.000000 0.000000 0.000000
# 3 -0.004663 -0.004663 0.009859 0.000000 0.000000 0.000000
# 4 0.000000 0.000000 0.000000 0.038485 0.000000 0.000000
# 5 0.000000 0.000000 0.000000 0.000000 0.038486 0.000000
# 6 0.000000 0.000000 0.000000 0.000000 0.000000 0.034324
#
#
# Mechanical properties :
#
#
# Convention : Reuss Voigt Hill
#
# Bulk Modulus (GPa) = 49.65353 59.21798 54.43575
# Shear Modulus (GPa) = 22.42816 25.60956 24.01886
#
# Velocity S-wave (km/s) = 3.35996 3.59037 3.47707
# Velocity P-wave (km/s) = 6.32818 6.85531 6.59701
#
# Compressibility (1/GPa) = 0.02013956
#
# Stress axis : x y z
#
# Youngs Moduli (GPa) = 37.97115 37.96738 101.43370
#
# Poissons Ratio (x) = 0.45072 0.47295
# Poissons Ratio (y) = 0.45077 0.47295
# Poissons Ratio (z) = 0.17705 0.17703
#
# Static dielectric constant tensor:
#      x y z
#    x 3.740540 0.000000 0.000000 
#    y 0.000000 3.740540 0.000000 
#    z 0.000000 0.000000 3.718600 
# 
# 
# High freq. dielectric constant tensor:
#      x y z
#    x 1.777620 0.000000 0.000000 
#    y 0.000000 1.777620 0.000000 
#    z 0.000000 0.000000 1.765340 
# 
# From -- ./inp_files/2472.got.cif
#   From: 2010.03.12/outbox.cif.g09.slc.cpg/sg113_cif.got.tgz:2472.got - 2010.04.14 02:06:34.
