data_PCOD8308988
_publ_section_title
;
Structure prediction by ZEFSAII (Michael W. Deem and Ramdas Pophale) SiO2 
 PCOD8308988
Probable space group: P -4 21 C
;
_chemical_formula_sum "Si O2"
_cell_formula_units_Z 32
_cell_length_a 8.595438
_cell_length_b 8.595438
_cell_length_c 18.954127
_cell_angle_alpha 90.000000
_cell_angle_beta 90.000000
_cell_angle_gamma 90.000000
_cell_volume 1400.360365
_symmetry_space_group_name_H-M "P -4 21 C"
_symmetry_group_IT_number 114
_symmetry_cell_setting 'tetragonal'
loop_
_space_group_symop_operation_xyz
x,y,z
y,-x,-z
-x,-y,z
-y,x,-z
1/2+x,1/2-y,1/2-z
1/2-x,1/2+y,1/2-z
1/2-y,1/2-x,1/2+z
1/2+y,1/2+x,1/2+z
loop_
_atom_site_type_symbol
_atom_site_label
_atom_site_fract_x
_atom_site_fract_y
_atom_site_fract_z
Si Si1 0.325488 0.684658 0.989264
Si Si2 0.315497 0.198070 0.654737
Si Si3 0.679803 0.506041 0.737441
Si Si4 0.604805 0.349737 0.600609
O O1 0.208433 0.784164 0.038075
O O2 0.503250 0.719233 0.007262
O O3 0.303982 0.731667 0.908398
O O4 0.274568 0.320636 0.715919
O O5 0.285748 0.034921 0.694668
O O6 0.489787 0.209549 0.623867
O O7 0.500000 0.500000 0.760868
O O8 0.707598 0.396852 0.668526
O O9 0.500000 0.500000 0.577376
#
# Coordination Sequence:
#
# PCOD8308988 Si02
#       4
#     8   8   8   8
#     4  11  27  45  71 103 147 192 239 301 359 438
#     4  10  23  43  73 100 139 191 230 303 352 434
#     4   9  22  43  69 101 137 179 231 299 350 430
#     4   9  23  46  72 103 142 185 240 296 360 437
#
# _framework density 22.851261000000001
#
# number of rings (size 3 to 8) (size 9 to 14) (size 15 to 20)
#    0.000    2.750    0.000    0.000   14.000    4.000 
#    4.500   10.000    0.000    0.000    0.000    0.000 
#    0.000    0.000    0.000    0.000    0.000    0.000 
#
# Total GULP energy -396641.326123 kJ/mol
# GULP energy per Si atom -12395.041441 kJ/mol
# Density = 2.279925 g / cm^3
# Si number density = 22.851261 Si / 1000 Ang^3
#
#
#
# Elastic Constant Matrix: (Units=GPa)
#
#
# Indices 1 2 3 4 5 6 
#
# 1 55.3986 29.9977 31.7384 0.0000 0.0000 0.0000
# 2 29.9977 55.3986 31.7384 0.0000 0.0000 0.0000
# 3 31.7384 31.7384 112.2641 0.0000 0.0000 0.0000
# 4 0.0000 0.0000 0.0000 35.5851 0.0000 0.0000
# 5 0.0000 0.0000 0.0000 0.0000 35.5851 0.0000
# 6 0.0000 0.0000 0.0000 0.0000 0.0000 40.4760
#
#
#
# Elastic Compliance Matrix: (Units=1/GPa)
#
#
# Indices 1 2 3 4 5 6 
#
# 1 0.027097 -0.012271 -0.004191 0.000000 0.000000 0.000000
# 2 -0.012271 0.027097 -0.004191 0.000000 0.000000 0.000000
# 3 -0.004191 -0.004191 0.011277 0.000000 0.000000 0.000000
# 4 0.000000 0.000000 0.000000 0.028102 0.000000 0.000000
# 5 0.000000 0.000000 0.000000 0.000000 0.028102 0.000000
# 6 0.000000 0.000000 0.000000 0.000000 0.000000 0.024706
#
#
# Mechanical properties :
#
#
# Convention : Reuss Voigt Hill
#
# Bulk Modulus (GPa) = 41.38518 45.55669 43.47094
# Shear Modulus (GPa) = 25.54357 30.96837 28.25597
#
# Velocity S-wave (km/s) = 3.34701 3.68532 3.52023
# Velocity P-wave (km/s) = 5.75210 6.17157 5.96552
#
# Compressibility (1/GPa) = 0.02416324
#
# Stress axis : x y z
#
# Youngs Moduli (GPa) = 36.90425 36.90425 88.67234
#
# Poissons Ratio (x) = 0.45287 0.37166
# Poissons Ratio (y) = 0.45287 0.37166
# Poissons Ratio (z) = 0.15468 0.15468
#
# Static dielectric constant tensor:
#      x y z
#    x 3.946930 0.000000 0.000000 
#    y 0.000000 3.946930 0.000000 
#    z 0.000000 0.000000 4.102600 
# 
# 
# High freq. dielectric constant tensor:
#      x y z
#    x 1.891350 0.000000 0.000000 
#    y 0.000000 1.891350 0.000000 
#    z 0.000000 0.000000 1.916050 
# 
# From -- ./inp_files/2847.got.cif
#   From: 2010.03.12/outbox.cif.g09.slc.cpg/sg114_2_cif.got.tgz:2847.got - 2010.04.14 02:08:34.
