data_PCOD8308805
_publ_section_title
;
Structure prediction by ZEFSAII (Michael W. Deem and Ramdas Pophale) SiO2 
 PCOD8308805
Probable space group: P -4 21 C
;
_chemical_formula_sum "Si O2"
_cell_formula_units_Z 56
_cell_length_a 14.454413
_cell_length_b 14.454413
_cell_length_c 14.125433
_cell_angle_alpha 90.000000
_cell_angle_beta 90.000000
_cell_angle_gamma 90.000000
_cell_volume 2951.227496
_symmetry_space_group_name_H-M "P -4 21 C"
_symmetry_group_IT_number 114
_symmetry_cell_setting 'tetragonal'
loop_
_space_group_symop_operation_xyz
x,y,z
y,-x,-z
-x,-y,z
-y,x,-z
1/2+x,1/2-y,1/2-z
1/2-x,1/2+y,1/2-z
1/2-y,1/2-x,1/2+z
1/2+y,1/2+x,1/2+z
loop_
_atom_site_type_symbol
_atom_site_label
_atom_site_fract_x
_atom_site_fract_y
_atom_site_fract_z
Si Si1 0.604076 0.118003 0.430543
Si Si2 0.843841 0.442682 0.700995
Si Si3 0.877812 0.824328 0.083010
Si Si4 0.200630 0.501468 0.209875
Si Si5 0.336010 0.583675 0.593974
Si Si6 0.989344 0.104884 0.782923
Si Si7 0.584168 0.069231 0.645447
O O1 0.499740 0.108684 0.386984
O O2 0.642267 0.217443 0.394847
O O3 0.671226 0.040491 0.390066
O O4 0.613432 0.105792 0.542992
O O5 0.740255 0.411548 0.676520
O O6 0.840515 0.509320 0.794317
O O7 0.897972 0.347105 0.719198
O O8 0.982584 0.838975 0.047526
O O9 0.869717 0.888113 0.175715
O O10 0.811017 0.851884 0.995725
O O11 0.312526 0.499433 0.207186
O O12 0.161599 0.440066 0.296306
O O13 0.434196 0.613495 0.635961
O O14 0.000000 0.000000 0.739169
O O15 0.500000 0.000000 0.632908
#
# Coordination Sequence:
#
# PCOD8308805 Si02
#       7
#     8   8   8   8   8   8   8
#     4  10  19  34  57  85 116 146 182 235 289 348
#     4   9  20  33  54  88 118 144 183 228 286 357
#     4  10  19  31  53  86 110 139 185 233 283 331
#     4  10  20  35  54  83 116 151 187 228 289 340
#     4  10  18  33  55  84 114 139 179 236 288 330
#     4  10  21  34  53  78 110 147 189 239 278 326
#     4   9  17  32  54  84 117 148 174 221 290 350
#
# _framework density 18.975154
#
# number of rings (size 3 to 8) (size 9 to 14) (size 15 to 20)
#    0.000    2.286    1.429    3.000    2.000    1.143 
#    0.000    2.857    0.000    0.000    0.000    0.000 
#    0.000    0.000    0.000    0.000    0.000    0.000 
#
# Total GULP energy -693760.107575 kJ/mol
# GULP energy per Si atom -12388.573350 kJ/mol
# Density = 1.893197 g / cm^3
# Si number density = 18.975154 Si / 1000 Ang^3
#
#
#
# Elastic Constant Matrix: (Units=GPa)
#
#
# Indices 1 2 3 4 5 6 
#
# 1 89.1279 16.4542 22.2040 0.0000 0.0000 0.0000
# 2 16.4542 89.1279 22.2040 0.0000 0.0000 0.0000
# 3 22.2040 22.2040 83.8808 0.0000 0.0000 0.0000
# 4 0.0000 0.0000 0.0000 21.9362 0.0000 0.0000
# 5 0.0000 0.0000 0.0000 0.0000 21.9362 0.0000
# 6 0.0000 0.0000 0.0000 0.0000 0.0000 15.3210
#
#
#
# Elastic Compliance Matrix: (Units=1/GPa)
#
#
# Indices 1 2 3 4 5 6 
#
# 1 0.012209 -0.001551 -0.002821 0.000000 0.000000 0.000000
# 2 -0.001551 0.012209 -0.002821 0.000000 0.000000 0.000000
# 3 -0.002821 -0.002821 0.013415 0.000000 0.000000 0.000000
# 4 0.000000 0.000000 0.000000 0.045587 0.000000 0.000000
# 5 0.000000 0.000000 0.000000 0.000000 0.045587 0.000000
# 6 0.000000 0.000000 0.000000 0.000000 0.000000 0.065270
#
#
# Mechanical properties :
#
#
# Convention : Reuss Voigt Hill
#
# Bulk Modulus (GPa) = 42.65090 42.65121 42.65105
# Shear Modulus (GPa) = 23.09688 25.25696 24.17692
#
# Velocity S-wave (km/s) = 3.49265 3.65232 3.57338
# Velocity P-wave (km/s) = 6.22823 6.34918 6.28900
#
# Compressibility (1/GPa) = 0.02344616
#
# Stress axis : x y z
#
# Youngs Moduli (GPa) = 81.90658 81.90658 74.54175
#
# Poissons Ratio (x) = 0.12705 0.21030
# Poissons Ratio (y) = 0.12705 0.21030
# Poissons Ratio (z) = 0.23108 0.23108
#
# Static dielectric constant tensor:
#      x y z
#    x 3.437240 0.000000 0.000000 
#    y 0.000000 3.437240 0.000000 
#    z 0.000000 0.000000 3.387720 
# 
# 
# High freq. dielectric constant tensor:
#      x y z
#    x 1.726500 0.000000 0.000000 
#    y 0.000000 1.726500 0.000000 
#    z 0.000000 0.000000 1.714560 
# 
# From -- ./inp_files/2265.got.cif
#   From: 2010.03.12/outbox.cif.g09.slc.cpg/sg114_2_cif.got.tgz:2265.got - 2010.04.14 02:08:34.
