data_PCOD8308735
_publ_section_title
;
Structure prediction by ZEFSAII (Michael W. Deem and Ramdas Pophale) SiO2 
 PCOD8308735
Probable space group: P -4 21 M 
;
_chemical_formula_sum "Si O2"
_cell_formula_units_Z 34
_cell_length_a 12.639103
_cell_length_b 12.639103
_cell_length_c 10.755646
_cell_angle_alpha 90.000000
_cell_angle_beta 90.000000
_cell_angle_gamma 90.000000
_cell_volume 1718.181371
_symmetry_space_group_name_H-M "P -4 21 M "
_symmetry_group_IT_number 113
_symmetry_cell_setting 'tetragonal'
loop_
_space_group_symop_operation_xyz
x,y,z
y,-x,-z
-x,-y,z
-y,x,-z
1/2+x,1/2-y,-z
1/2-x,1/2+y,-z
1/2-y,1/2-x,z
1/2+y,1/2+x,z
loop_
_atom_site_type_symbol
_atom_site_label
_atom_site_fract_x
_atom_site_fract_y
_atom_site_fract_z
Si Si1 0.354936 0.854936 0.470146
Si Si2 0.044567 0.134495 0.568979
Si Si3 0.000000 0.000000 0.000000
Si Si4 0.149301 0.350700 0.251533
Si Si5 0.858388 0.892452 0.191264
Si Si6 0.624670 0.875331 0.113067
Si Si7 0.500000 0.000000 0.910137
Si Si8 0.000000 0.500000 0.689145
O O1 0.234325 0.879213 0.436488
O O2 0.382110 0.882110 0.610524
O O3 0.428445 0.928445 0.393189
O O4 0.966302 0.124253 0.447437
O O5 0.977932 0.133851 0.696926
O O6 0.946457 0.912975 0.087745
O O7 0.125483 0.226548 0.237739
O O8 0.076764 0.423237 0.165629
O O9 0.748012 0.901863 0.118605
O O10 0.574923 0.925078 0.234388
O O11 0.575415 0.924586 0.989754
#
# Coordination Sequence:
#
# PCOD8308735 Si02
#       8
#     4   8   2   4   8   4   2   2
#     4  12  23  39  70 100 131 173 222 265 340 410
#     4  11  23  42  67  97 138 174 214 278 334 395
#     4  12  24  40  70  96 128 180 236 270 324 396
#     4  11  24  43  65  95 138 172 218 284 341 395
#     4  11  23  42  66  94 131 179 225 273 332 402
#     4  10  22  41  65  90 129 176 221 277 334 396
#     4  11  23  44  64  92 135 169 220 288 336 383
#     4  11  21  38  64  96 131 171 218 270 338 401
#
# _framework density 19.788364999999999
#
# number of rings (size 3 to 8) (size 9 to 14) (size 15 to 20)
#    0.000    0.941    4.706    3.176    0.000    0.941 
#    0.000    1.176    0.000    0.000    0.000    0.000 
#    0.000    0.000    0.000    0.000    0.000    0.000 
#
# Total GULP energy -421440.484444 kJ/mol
# GULP energy per Si atom -12395.308366 kJ/mol
# Density = 1.974333 g / cm^3
# Si number density = 19.788365 Si / 1000 Ang^3
#
#
#
# Elastic Constant Matrix: (Units=GPa)
#
#
# Indices 1 2 3 4 5 6 
#
# 1 105.5233 62.3578 40.2439 0.0000 0.0000 0.0000
# 2 62.3578 105.5224 40.2443 0.0000 0.0000 0.0000
# 3 40.2439 40.2443 112.1524 0.0000 0.0000 0.0000
# 4 0.0000 0.0000 0.0000 33.5924 0.0000 0.0000
# 5 0.0000 0.0000 0.0000 0.0000 33.5922 0.0000
# 6 0.0000 0.0000 0.0000 0.0000 0.0000 46.1660
#
#
#
# Elastic Compliance Matrix: (Units=1/GPa)
#
#
# Indices 1 2 3 4 5 6 
#
# 1 0.015181 -0.007986 -0.002581 0.000000 0.000000 0.000000
# 2 -0.007986 0.015181 -0.002582 0.000000 0.000000 0.000000
# 3 -0.002581 -0.002582 0.010769 0.000000 0.000000 0.000000
# 4 0.000000 0.000000 0.000000 0.029769 0.000000 0.000000
# 5 0.000000 0.000000 0.000000 0.000000 0.029769 0.000000
# 6 0.000000 0.000000 0.000000 0.000000 0.000000 0.021661
#
#
# Mechanical properties :
#
#
# Convention : Reuss Voigt Hill
#
# Bulk Modulus (GPa) = 67.42401 67.65445 67.53923
# Shear Modulus (GPa) = 32.55813 34.69358 33.62585
#
# Velocity S-wave (km/s) = 4.06065 4.19170 4.12670
# Velocity P-wave (km/s) = 7.49211 7.59542 7.54394
#
# Compressibility (1/GPa) = 0.01483151
#
# Stress axis : x y z
#
# Youngs Moduli (GPa) = 65.87394 65.87305 92.85790
#
# Poissons Ratio (x) = 0.52608 0.23971
# Poissons Ratio (y) = 0.52609 0.23973
# Poissons Ratio (z) = 0.17005 0.17006
#
# Static dielectric constant tensor:
#      x y z
#    x 3.776030 0.000000 0.000000 
#    y 0.000000 3.776060 0.000000 
#    z 0.000000 0.000000 3.661410 
# 
# 
# High freq. dielectric constant tensor:
#      x y z
#    x 1.781170 0.000000 0.000000 
#    y 0.000000 1.781180 0.000000 
#    z 0.000000 0.000000 1.776570 
# 
# From -- ./inp_files/1703.got.cif
#   From: 2010.03.12/outbox.cif.g09.slc.cpg/sg113_cif.got.tgz:1703.got - 2010.04.14 02:06:34.
