data_PCOD8308081
_publ_section_title
;
Structure prediction by ZEFSAII (Michael W. Deem and Ramdas Pophale) SiO2 
 PCOD8308081
Probable space group: I 41 C D
;
_chemical_formula_sum "Si O2"
_cell_formula_units_Z 96
_cell_length_a 15.127700
_cell_length_b 15.127700
_cell_length_c 19.171441
_cell_angle_alpha 90.000000
_cell_angle_beta 90.000000
_cell_angle_gamma 90.000000
_cell_volume 4387.332650
_symmetry_space_group_name_H-M "I 41 C D"
_symmetry_group_IT_number 110
_symmetry_cell_setting 'tetragonal'
loop_
_space_group_symop_operation_xyz
x,y,z
-y,1/2+x,1/4+z
-x,-y,z
y,1/2-x,1/4+z
-x,y,1/2+z
x,-y,1/2+z
1/2-y,-x,1/4+z
1/2+y,x,1/4+z
1/2+x,1/2+y,1/2+z
1/2-y,x,3/4+z
1/2-x,1/2-y,1/2+z
1/2+y,-x,3/4+z
1/2-x,1/2+y,z
1/2+x,1/2-y,z
-y,1/2-x,3/4+z
y,1/2+x,3/4+z
loop_
_atom_site_type_symbol
_atom_site_label
_atom_site_fract_x
_atom_site_fract_y
_atom_site_fract_z
Si Si1 0.481223 0.399711 0.578120
Si Si2 0.423875 0.572844 0.932410
Si Si3 0.727393 0.201730 0.668319
Si Si4 0.327708 0.350327 0.060842
Si Si5 0.577840 0.270961 0.194670
Si Si6 0.279010 0.013096 0.096220
O O1 0.500000 0.500000 0.600635
O O2 0.415569 0.391645 0.511866
O O3 0.567734 0.347262 0.554866
O O4 0.437841 0.349863 0.641754
O O5 0.500000 0.500000 0.931748
O O6 0.323864 0.538525 0.916983
O O7 0.452259 0.643150 0.875423
O O8 0.700194 0.266101 0.606168
O O9 0.656759 0.209033 0.731588
O O10 0.817210 0.238737 0.701264
O O11 0.738180 0.100199 0.642209
O O12 0.303713 0.445417 0.094915
O O13 0.538500 0.303014 0.267615
#
# Coordination Sequence:
#
# PCOD8308081 Si02
#       6
#    16  16  16  16  16  16
#     4  11  25  46  72 100 145 191 234 296 364 435
#     4  11  25  46  70 100 144 190 234 296 369 429
#     4  12  25  45  71 105 140 187 240 294 357 436
#     4  12  25  45  72 102 140 187 238 292 365 428
#     4  12  25  44  74 105 142 185 243 302 360 434
#     4  12  25  46  71 103 140 187 239 292 362 436
#
# _framework density 21.881177000000001
#
# number of rings (size 3 to 8) (size 9 to 14) (size 15 to 20)
#    0.000    0.333    5.000    5.000    2.333    0.667 
#    3.000    0.000    0.000    0.000    0.000    0.000 
#    0.000    0.000    0.000    0.000    0.000    0.000 
#
# Total GULP energy -595143.537559 kJ/mol
# GULP energy per Si atom -12398.823699 kJ/mol
# Density = 2.183137 g / cm^3
# Si number density = 21.881177 Si / 1000 Ang^3
#
#
#
# Elastic Constant Matrix: (Units=GPa)
#
#
# Indices 1 2 3 4 5 6 
#
# 1 98.6152 28.7742 43.4848 0.0000 0.0000 0.0000
# 2 28.7742 98.6152 43.4848 0.0000 0.0000 0.0000
# 3 43.4848 43.4848 97.9994 0.0000 0.0000 0.0000
# 4 0.0000 0.0000 0.0000 71.7060 0.0000 0.0000
# 5 0.0000 0.0000 0.0000 0.0000 71.7061 0.0000
# 6 0.0000 0.0000 0.0000 0.0000 0.0000 26.9804
#
#
#
# Elastic Compliance Matrix: (Units=1/GPa)
#
#
# Indices 1 2 3 4 5 6 
#
# 1 0.012790 -0.001528 -0.004997 0.000000 0.000000 0.000000
# 2 -0.001528 0.012790 -0.004997 0.000000 0.000000 0.000000
# 3 -0.004997 -0.004997 0.014639 0.000000 0.000000 0.000000
# 4 0.000000 0.000000 0.000000 0.013946 0.000000 0.000000
# 5 0.000000 0.000000 0.000000 0.000000 0.013946 0.000000
# 6 0.000000 0.000000 0.000000 0.000000 0.000000 0.037064
#
#
# Mechanical properties :
#
#
# Convention : Reuss Voigt Hill
#
# Bulk Modulus (GPa) = 58.22874 58.52414 58.37644
# Shear Modulus (GPa) = 37.32924 46.04422 41.68673
#
# Velocity S-wave (km/s) = 4.13485 4.59222 4.36953
# Velocity P-wave (km/s) = 7.03315 7.41097 7.22453
#
# Compressibility (1/GPa) = 0.01717365
#
# Stress axis : x y z
#
# Youngs Moduli (GPa) = 78.18713 78.18713 68.31209
#
# Poissons Ratio (x) = 0.11950 0.34135
# Poissons Ratio (y) = 0.11950 0.34135
# Poissons Ratio (z) = 0.39070 0.39070
#
# Static dielectric constant tensor:
#      x y z
#    x 4.109470 0.000000 0.000000 
#    y 0.000000 4.109470 0.000000 
#    z 0.000000 0.000000 4.055410 
# 
# 
# High freq. dielectric constant tensor:
#      x y z
#    x 1.869610 0.000000 0.000000 
#    y 0.000000 1.869610 0.000000 
#    z 0.000000 0.000000 1.863060 
# 
# From -- ./inp_files/2172.got.cif
#   From: 2010.03.12/outbox.cif.g09.slc.cpg/sg110_2_cif.got.tgz:2172.got - 2010.04.14 01:58:01.
