data_PCOD8308200
_publ_section_title
;
Structure prediction by ZEFSAII (Michael W. Deem and Ramdas Pophale) SiO2 
 PCOD8308200
Probable space group: P -4 2 M 
;
_chemical_formula_sum "Si O2"
_cell_formula_units_Z 16
_cell_length_a 10.152278
_cell_length_b 10.152278
_cell_length_c 7.720591
_cell_angle_alpha 90.000000
_cell_angle_beta 90.000000
_cell_angle_gamma 90.000000
_cell_volume 795.751653
_symmetry_space_group_name_H-M "P -4 2 M "
_symmetry_group_IT_number 111
_symmetry_cell_setting 'tetragonal'
loop_
_space_group_symop_operation_xyz
x,y,z
y,-x,-z
-x,-y,z
-y,x,-z
x,-y,-z
-x,y,-z
-y,-x,z
y,x,z
loop_
_atom_site_type_symbol
_atom_site_label
_atom_site_fract_x
_atom_site_fract_y
_atom_site_fract_z
Si Si1 0.500000 0.716346 0.500000
Si Si2 0.000000 0.206593 0.000000
Si Si3 0.813161 0.600833 0.154531
O O1 0.626494 0.626494 0.542166
O O2 0.474252 0.811875 0.662769
O O3 0.935407 0.296474 0.849274
O O4 0.885708 0.114293 0.084298
O O5 0.674193 0.674193 0.127743
O O6 0.833536 0.500000 0.000000
#
# Coordination Sequence:
#
# PCOD8308200 Si02
#       3
#     4   4   8
#     4   9  18  32  53  86 120 142 169 217 278 340
#     4   9  19  36  56  78 107 147 192 230 264 309
#     4  10  19  33  56  83 112 145 179 221 274 328
#
# _framework density 20.106777000000001
#
# number of rings (size 3 to 8) (size 9 to 14) (size 15 to 20)
#    0.000    2.500    0.000    2.250    0.000    2.500 
#    0.000    5.000    0.000    9.000    0.000   21.000 
#    0.000    0.000    0.000    0.000    0.000    0.000 
#
# Total GULP energy -198341.087908 kJ/mol
# GULP energy per Si atom -12396.317994 kJ/mol
# Density = 2.006101 g / cm^3
# Si number density = 20.106777 Si / 1000 Ang^3
#
#
#
# Elastic Constant Matrix: (Units=GPa)
#
#
# Indices 1 2 3 4 5 6 
#
# 1 106.8400 57.9092 80.1737 0.0000 0.0000 0.0000
# 2 57.9092 106.8396 80.1737 0.0000 0.0000 0.0000
# 3 80.1737 80.1737 158.5253 0.0000 0.0000 0.0000
# 4 0.0000 0.0000 0.0000 16.6964 0.0000 0.0000
# 5 0.0000 0.0000 0.0000 0.0000 16.6961 0.0000
# 6 0.0000 0.0000 0.0000 0.0000 0.0000 26.7886
#
#
#
# Elastic Compliance Matrix: (Units=1/GPa)
#
#
# Indices 1 2 3 4 5 6 
#
# 1 0.016196 -0.004242 -0.006046 0.000000 0.000000 0.000000
# 2 -0.004242 0.016196 -0.006046 0.000000 0.000000 0.000000
# 3 -0.006046 -0.006046 0.012423 0.000000 0.000000 0.000000
# 4 0.000000 0.000000 0.000000 0.059893 0.000000 0.000000
# 5 0.000000 0.000000 0.000000 0.000000 0.059894 0.000000
# 6 0.000000 0.000000 0.000000 0.000000 0.000000 0.037329
#
#
# Mechanical properties :
#
#
# Convention : Reuss Voigt Hill
#
# Bulk Modulus (GPa) = 82.31439 89.85755 86.08597
# Shear Modulus (GPa) = 20.95147 22.29943 21.62545
#
# Velocity S-wave (km/s) = 3.23152 3.33385 3.28309
# Velocity P-wave (km/s) = 7.41290 7.72053 7.56828
#
# Compressibility (1/GPa) = 0.01214854
#
# Stress axis : x y z
#
# Youngs Moduli (GPa) = 61.74548 61.74506 80.49367
#
# Poissons Ratio (x) = 0.26190 0.48664
# Poissons Ratio (y) = 0.26190 0.48664
# Poissons Ratio (z) = 0.37329 0.37329
#
# Static dielectric constant tensor:
#      x y z
#    x 3.937650 0.000000 0.000000 
#    y 0.000000 3.937650 0.000000 
#    z 0.000000 0.000000 3.367520 
# 
# 
# High freq. dielectric constant tensor:
#      x y z
#    x 1.796500 0.000000 0.000000 
#    y 0.000000 1.796500 0.000000 
#    z 0.000000 0.000000 1.744550 
# 
# From -- ./inp_files/69.got.cif
#   From: 2010.03.12/outbox.cif.g09.slc.cpg/sg111_1_cif.got.tgz:69.got - 2010.04.14 01:59:48.
