data_PCOD8308841
_publ_section_title
;
Structure prediction by ZEFSAII (Michael W. Deem and Ramdas Pophale) SiO2 
 PCOD8308841
Probable space group: P -4 21 C
;
_chemical_formula_sum "Si O2"
_cell_formula_units_Z 40
_cell_length_a 8.363933
_cell_length_b 8.363933
_cell_length_c 28.418160
_cell_angle_alpha 90.000000
_cell_angle_beta 90.000000
_cell_angle_gamma 90.000000
_cell_volume 1988.003046
_symmetry_space_group_name_H-M "P -4 21 C"
_symmetry_group_IT_number 114
_symmetry_cell_setting 'tetragonal'
loop_
_space_group_symop_operation_xyz
x,y,z
y,-x,-z
-x,-y,z
-y,x,-z
1/2+x,1/2-y,1/2-z
1/2-x,1/2+y,1/2-z
1/2-y,1/2-x,1/2+z
1/2+y,1/2+x,1/2+z
loop_
_atom_site_type_symbol
_atom_site_label
_atom_site_fract_x
_atom_site_fract_y
_atom_site_fract_z
Si Si1 0.000000 0.500000 0.949075
Si Si2 0.757537 0.396224 0.787337
Si Si3 0.000000 0.000000 0.641016
Si Si4 0.094667 0.262985 0.797445
Si Si5 0.913394 0.235920 0.013143
Si Si6 0.777959 0.740157 0.396043
O O1 0.109944 0.399860 0.914943
O O2 0.114618 0.605895 0.982428
O O3 0.628925 0.398624 0.829243
O O4 0.837462 0.567478 0.781560
O O5 0.658849 0.363899 0.740004
O O6 0.900135 0.268324 0.797904
O O7 0.908593 0.131369 0.609743
O O8 0.168122 0.209107 0.847541
O O9 0.866316 0.265265 0.067331
O O10 0.099973 0.192255 0.011611
#
# Coordination Sequence:
#
# PCOD8308841 Si02
#       6
#     4   8   4   8   8   8
#     4  10  20  38  58  80 112 146 184 238 294 336
#     4  10  20  36  57  82 117 151 187 234 284 327
#     4  10  20  34  55  86 114 144 191 236 280 342
#     4  10  20  37  58  83 114 153 190 231 279 339
#     4   9  20  39  59  81 111 144 184 234 287 341
#     4  10  20  36  58  82 110 148 192 231 283 349
#
# _framework density 20.120692999999999
#
# number of rings (size 3 to 8) (size 9 to 14) (size 15 to 20)
#    0.000    2.200    0.000    4.800    0.000    3.200 
#    0.000   22.000    0.000    0.000    0.000    0.000 
#    0.000    0.000    0.000    0.000    0.000    0.000 
#
# Total GULP energy -495974.814032 kJ/mol
# GULP energy per Si atom -12399.370351 kJ/mol
# Density = 2.007490 g / cm^3
# Si number density = 20.120693 Si / 1000 Ang^3
#
#
#
# Elastic Constant Matrix: (Units=GPa)
#
#
# Indices 1 2 3 4 5 6 
#
# 1 80.9954 12.9362 49.5643 0.0000 0.0000 0.0000
# 2 12.9362 80.9954 49.5643 0.0000 0.0000 0.0000
# 3 49.5643 49.5643 134.5552 0.0000 0.0000 0.0000
# 4 0.0000 0.0000 0.0000 29.6804 0.0000 0.0000
# 5 0.0000 0.0000 0.0000 0.0000 29.6804 0.0000
# 6 0.0000 0.0000 0.0000 0.0000 0.0000 21.0059
#
#
#
# Elastic Compliance Matrix: (Units=1/GPa)
#
#
# Indices 1 2 3 4 5 6 
#
# 1 0.016055 0.001362 -0.006415 0.000000 0.000000 0.000000
# 2 0.001362 0.016055 -0.006415 0.000000 0.000000 0.000000
# 3 -0.006415 -0.006415 0.012158 0.000000 0.000000 0.000000
# 4 0.000000 0.000000 0.000000 0.033692 0.000000 0.000000
# 5 0.000000 0.000000 0.000000 0.000000 0.033692 0.000000
# 6 0.000000 0.000000 0.000000 0.000000 0.000000 0.047606
#
#
# Mechanical properties :
#
#
# Convention : Reuss Voigt Hill
#
# Bulk Modulus (GPa) = 46.88387 57.85286 52.36836
# Shear Modulus (GPa) = 26.41223 28.37210 27.39216
#
# Velocity S-wave (km/s) = 3.62704 3.75920 3.69371
# Velocity P-wave (km/s) = 6.39472 6.90344 6.65394
#
# Compressibility (1/GPa) = 0.02132930
#
# Stress axis : x y z
#
# Youngs Moduli (GPa) = 62.28674 62.28674 82.24856
#
# Poissons Ratio (x) = -0.08482 0.52766
# Poissons Ratio (y) = -0.08482 0.52766
# Poissons Ratio (z) = 0.39960 0.39960
#
# Static dielectric constant tensor:
#      x y z
#    x 3.823990 0.000000 0.000000 
#    y 0.000000 3.823990 0.000000 
#    z 0.000000 0.000000 3.779190 
# 
# 
# High freq. dielectric constant tensor:
#      x y z
#    x 1.782840 0.000000 0.000000 
#    y 0.000000 1.782840 0.000000 
#    z 0.000000 0.000000 1.788610 
# 
# From -- ./inp_files/3680.got.cif
#   From: 2010.03.12/outbox.cif.g09.slc.cpg/sg114_2_cif.got.tgz:3680.got - 2010.04.14 02:08:34.
