data_PCOD8308977
_publ_section_title
;
Structure prediction by ZEFSAII (Michael W. Deem and Ramdas Pophale) SiO2 
 PCOD8308977
Probable space group: P -4 21 C
;
_chemical_formula_sum "Si O2"
_cell_formula_units_Z 28
_cell_length_a 8.764659
_cell_length_b 8.764659
_cell_length_c 17.360689
_cell_angle_alpha 90.000000
_cell_angle_beta 90.000000
_cell_angle_gamma 90.000000
_cell_volume 1333.635063
_symmetry_space_group_name_H-M "P -4 21 C"
_symmetry_group_IT_number 114
_symmetry_cell_setting 'tetragonal'
loop_
_space_group_symop_operation_xyz
x,y,z
y,-x,-z
-x,-y,z
-y,x,-z
1/2+x,1/2-y,1/2-z
1/2-x,1/2+y,1/2-z
1/2-y,1/2-x,1/2+z
1/2+y,1/2+x,1/2+z
loop_
_atom_site_type_symbol
_atom_site_label
_atom_site_fract_x
_atom_site_fract_y
_atom_site_fract_z
Si Si1 0.468346 0.167643 0.589776
Si Si2 0.133919 0.112234 0.807194
Si Si3 0.181972 0.323936 0.662486
Si Si4 0.000000 0.500000 0.557386
O O1 0.594761 0.291391 0.615907
O O2 0.305242 0.228485 0.615783
O O3 0.500000 0.000000 0.627617
O O4 0.469763 0.148986 0.496822
O O5 0.150859 0.236889 0.740792
O O6 0.277529 0.003019 0.821425
O O7 0.000000 0.000000 0.780883
O O8 0.032975 0.347160 0.608569
#
# Coordination Sequence:
#
# PCOD8308977 Si02
#       4
#     8   8   8   4
#     4   9  22  43  61  95 124 170 213 274 333 406
#     4  10  23  40  69  92 124 172 223 277 329 404
#     4  11  23  42  65  96 127 173 220 276 338 396
#     4  10  26  36  68  90 136 166 216 274 342 402
#
# _framework density 20.995248
#
# number of rings (size 3 to 8) (size 9 to 14) (size 15 to 20)
#    0.857    1.143    0.000    1.714   14.000    0.000 
#    5.143    0.000    0.000    0.000    0.000    0.000 
#    0.000    0.000    0.000    0.000    0.000    0.000 
#
# Total GULP energy -346888.637077 kJ/mol
# GULP energy per Si atom -12388.879896 kJ/mol
# Density = 2.094746 g / cm^3
# Si number density = 20.995248 Si / 1000 Ang^3
#
#
#
# Elastic Constant Matrix: (Units=GPa)
#
#
# Indices 1 2 3 4 5 6 
#
# 1 109.1341 49.7816 49.3529 0.0000 0.0000 0.0000
# 2 49.7816 109.1341 49.3529 0.0000 0.0000 0.0000
# 3 49.3529 49.3529 105.3193 0.0000 0.0000 0.0000
# 4 0.0000 0.0000 0.0000 19.8269 0.0000 0.0000
# 5 0.0000 0.0000 0.0000 0.0000 19.8269 0.0000
# 6 0.0000 0.0000 0.0000 0.0000 0.0000 29.6123
#
#
#
# Elastic Compliance Matrix: (Units=1/GPa)
#
#
# Indices 1 2 3 4 5 6 
#
# 1 0.012862 -0.003986 -0.004159 0.000000 0.000000 0.000000
# 2 -0.003986 0.012862 -0.004159 0.000000 0.000000 0.000000
# 3 -0.004159 -0.004159 0.013393 0.000000 0.000000 0.000000
# 4 0.000000 0.000000 0.000000 0.050437 0.000000 0.000000
# 5 0.000000 0.000000 0.000000 0.000000 0.050437 0.000000
# 6 0.000000 0.000000 0.000000 0.000000 0.000000 0.033770
#
#
# Mechanical properties :
#
#
# Convention : Reuss Voigt Hill
#
# Bulk Modulus (GPa) = 68.92813 68.95137 68.93975
# Shear Modulus (GPa) = 24.60552 25.52656 25.06604
#
# Velocity S-wave (km/s) = 3.42710 3.49065 3.45902
# Velocity P-wave (km/s) = 6.96862 7.01134 6.99001
#
# Compressibility (1/GPa) = 0.01450787
#
# Stress axis : x y z
#
# Youngs Moduli (GPa) = 77.74657 77.74657 74.66513
#
# Poissons Ratio (x) = 0.30991 0.31056
# Poissons Ratio (y) = 0.30991 0.31056
# Poissons Ratio (z) = 0.32338 0.32338
#
# Static dielectric constant tensor:
#      x y z
#    x 3.908700 0.000000 0.000000 
#    y 0.000000 3.908700 0.000000 
#    z 0.000000 0.000000 3.716050 
# 
# 
# High freq. dielectric constant tensor:
#      x y z
#    x 1.820380 0.000000 0.000000 
#    y 0.000000 1.820380 0.000000 
#    z 0.000000 0.000000 1.823950 
# 
# From -- ./inp_files/2427.got.cif
#   From: 2010.03.12/outbox.cif.g09.slc.cpg/sg114_2_cif.got.tgz:2427.got - 2010.04.14 02:08:34.
