data_PCOD8308954
_publ_section_title
;
Structure prediction by ZEFSAII (Michael W. Deem and Ramdas Pophale) SiO2 
 PCOD8308954
Probable space group: P -4 21 C
;
_chemical_formula_sum "Si O2"
_cell_formula_units_Z 40
_cell_length_a 11.252801
_cell_length_b 11.252801
_cell_length_c 14.991298
_cell_angle_alpha 90.000000
_cell_angle_beta 90.000000
_cell_angle_gamma 90.000000
_cell_volume 1898.281060
_symmetry_space_group_name_H-M "P -4 21 C"
_symmetry_group_IT_number 114
_symmetry_cell_setting 'tetragonal'
loop_
_space_group_symop_operation_xyz
x,y,z
y,-x,-z
-x,-y,z
-y,x,-z
1/2+x,1/2-y,1/2-z
1/2-x,1/2+y,1/2-z
1/2-y,1/2-x,1/2+z
1/2+y,1/2+x,1/2+z
loop_
_atom_site_type_symbol
_atom_site_label
_atom_site_fract_x
_atom_site_fract_y
_atom_site_fract_z
Si Si1 0.018421 0.636696 0.488560
Si Si2 0.632436 0.556085 0.408489
Si Si3 0.215586 0.366606 0.569941
Si Si4 0.886039 0.317369 0.141599
Si Si5 0.311448 0.135916 0.164537
O O1 0.119059 0.682898 0.558804
O O2 0.064250 0.654845 0.388082
O O3 0.000000 0.500000 0.506801
O O4 0.887386 0.692056 0.506702
O O5 0.500000 0.500000 0.401819
O O6 0.669261 0.586141 0.512154
O O7 0.639134 0.677569 0.353512
O O8 0.738215 0.478378 0.367650
O O9 0.163004 0.473332 0.629083
O O10 0.250321 0.268303 0.642019
O O11 0.840598 0.377368 0.232049
#
# Coordination Sequence:
#
# PCOD8308954 Si02
#       5
#     8   8   8   8   8
#     4  10  22  42  61  95 135 171 213 275 345 395
#     4  12  23  44  73 100 130 176 236 284 329 402
#     4  11  23  43  69  95 136 177 225 282 339 404
#     4  11  25  39  63 103 134 171 223 280 333 404
#     4  12  25  41  69 100 133 178 224 286 341 401
#
# _framework density 21.071695999999999
#
# number of rings (size 3 to 8) (size 9 to 14) (size 15 to 20)
#    0.000    0.800    8.000    0.000    5.600    4.000 
#    0.000    0.000    0.000    0.000    0.000    0.000 
#    0.000    0.000    0.000    0.000    0.000    0.000 
#
# Total GULP energy -495695.983290 kJ/mol
# GULP energy per Si atom -12392.399582 kJ/mol
# Density = 2.102374 g / cm^3
# Si number density = 21.071696 Si / 1000 Ang^3
#
#
#
# Elastic Constant Matrix: (Units=GPa)
#
#
# Indices 1 2 3 4 5 6 
#
# 1 73.4048 0.3864 14.9884 0.0000 0.0000 0.0000
# 2 0.3864 73.4048 14.9884 0.0000 0.0000 0.0000
# 3 14.9884 14.9884 116.5319 0.0000 0.0000 0.0000
# 4 0.0000 0.0000 0.0000 30.6745 0.0000 0.0000
# 5 0.0000 0.0000 0.0000 0.0000 30.6745 0.0000
# 6 0.0000 0.0000 0.0000 0.0000 0.0000 12.4594
#
#
#
# Elastic Compliance Matrix: (Units=1/GPa)
#
#
# Indices 1 2 3 4 5 6 
#
# 1 0.013997 0.000302 -0.001839 0.000000 0.000000 0.000000
# 2 0.000302 0.013997 -0.001839 0.000000 0.000000 0.000000
# 3 -0.001839 -0.001839 0.009054 0.000000 0.000000 0.000000
# 4 0.000000 0.000000 0.000000 0.032600 0.000000 0.000000
# 5 0.000000 0.000000 0.000000 0.000000 0.032600 0.000000
# 6 0.000000 0.000000 0.000000 0.000000 0.000000 0.080260
#
#
# Mechanical properties :
#
#
# Convention : Reuss Voigt Hill
#
# Bulk Modulus (GPa) = 33.00801 36.00753 34.50777
# Shear Modulus (GPa) = 25.08014 30.29360 27.68687
#
# Velocity S-wave (km/s) = 3.45371 3.79574 3.62876
# Velocity P-wave (km/s) = 5.62164 6.02789 5.82830
#
# Compressibility (1/GPa) = 0.03029568
#
# Stress axis : x y z
#
# Youngs Moduli (GPa) = 71.44377 71.44377 110.44309
#
# Poissons Ratio (x) = -0.02156 0.20312
# Poissons Ratio (y) = -0.02156 0.20312
# Poissons Ratio (z) = 0.13139 0.13139
#
# Static dielectric constant tensor:
#      x y z
#    x 4.238040 0.000000 0.000000 
#    y 0.000000 4.238040 0.000000 
#    z 0.000000 0.000000 3.534060 
# 
# 
# High freq. dielectric constant tensor:
#      x y z
#    x 1.823270 0.000000 0.000000 
#    y 0.000000 1.823270 0.000000 
#    z 0.000000 0.000000 1.807260 
# 
# From -- ./inp_files/2099.got.cif
#   From: 2010.03.12/outbox.cif.g09.slc.cpg/sg114_2_cif.got.tgz:2099.got - 2010.04.14 02:08:34.
