data_PCOD8308963
_publ_section_title
;
Structure prediction by ZEFSAII (Michael W. Deem and Ramdas Pophale) SiO2 
 PCOD8308963
Probable space group: P -4 21 C
;
_chemical_formula_sum "Si O2"
_cell_formula_units_Z 48
_cell_length_a 8.439795
_cell_length_b 8.439795
_cell_length_c 31.768278
_cell_angle_alpha 90.000000
_cell_angle_beta 90.000000
_cell_angle_gamma 90.000000
_cell_volume 2262.858878
_symmetry_space_group_name_H-M "P -4 21 C"
_symmetry_group_IT_number 114
_symmetry_cell_setting 'tetragonal'
loop_
_space_group_symop_operation_xyz
x,y,z
y,-x,-z
-x,-y,z
-y,x,-z
1/2+x,1/2-y,1/2-z
1/2-x,1/2+y,1/2-z
1/2-y,1/2-x,1/2+z
1/2+y,1/2+x,1/2+z
loop_
_atom_site_type_symbol
_atom_site_label
_atom_site_fract_x
_atom_site_fract_y
_atom_site_fract_z
Si Si1 0.089277 0.764697 0.511265
Si Si2 0.000000 0.000000 0.127186
Si Si3 0.233857 0.161853 0.187009
Si Si4 0.391520 0.853200 0.742650
Si Si5 0.717174 0.236978 0.592027
Si Si6 0.500000 0.000000 0.544655
Si Si7 0.816389 0.042564 0.669929
O O1 0.141160 0.729092 0.559194
O O2 0.903322 0.809161 0.510821
O O3 0.116475 0.604886 0.484679
O O4 0.887962 0.104872 0.097746
O O5 0.092542 0.130641 0.154853
O O6 0.217656 0.323107 0.214272
O O7 0.394071 0.197615 0.160429
O O8 0.237373 0.003192 0.215604
O O9 0.235228 0.895364 0.715788
O O10 0.500000 0.000000 0.755719
O O11 0.790660 0.181163 0.636118
O O12 0.613774 0.096188 0.574399
O O13 0.000000 0.000000 0.670305
#
# Coordination Sequence:
#
# PCOD8308963 Si02
#       7
#     8   4   8   8   8   4   8
#     4   9  21  42  69  97 124 166 219 262 316 400
#     4  12  26  40  63  98 144 170 210 278 339 386
#     4  11  24  42  65  93 134 176 226 273 329 389
#     4  10  23  40  67  92 128 178 228 275 325 388
#     4  11  24  43  66  98 132 172 211 273 328 392
#     4  10  22  42  72  92 128 170 216 256 332 398
#     4  11  24  42  66  96 126 177 221 274 329 385
#
# _framework density 21.212102999999999
#
# number of rings (size 3 to 8) (size 9 to 14) (size 15 to 20)
#    0.000    1.500    1.667    2.000   11.667    4.000 
#    3.000    0.000    0.000    0.000    0.000    0.000 
#    0.000    0.000    0.000    0.000    0.000    0.000 
#
# Total GULP energy -595145.247849 kJ/mol
# GULP energy per Si atom -12398.859330 kJ/mol
# Density = 2.116382 g / cm^3
# Si number density = 21.212103 Si / 1000 Ang^3
#
#
#
# Elastic Constant Matrix: (Units=GPa)
#
#
# Indices 1 2 3 4 5 6 
#
# 1 90.0992 13.8103 36.9402 0.0000 0.0000 0.0000
# 2 13.8103 90.0992 36.9402 0.0000 0.0000 0.0000
# 3 36.9402 36.9402 79.3428 0.0000 0.0000 0.0000
# 4 0.0000 0.0000 0.0000 23.0388 0.0000 0.0000
# 5 0.0000 0.0000 0.0000 0.0000 23.0388 0.0000
# 6 0.0000 0.0000 0.0000 0.0000 0.0000 29.7408
#
#
#
# Elastic Compliance Matrix: (Units=1/GPa)
#
#
# Indices 1 2 3 4 5 6 
#
# 1 0.013747 0.000639 -0.006698 0.000000 0.000000 0.000000
# 2 0.000639 0.013747 -0.006698 0.000000 0.000000 0.000000
# 3 -0.006698 -0.006698 0.018840 0.000000 0.000000 0.000000
# 4 0.000000 0.000000 0.000000 0.043405 0.000000 0.000000
# 5 0.000000 0.000000 0.000000 0.000000 0.043405 0.000000
# 6 0.000000 0.000000 0.000000 0.000000 0.000000 0.033624
#
#
# Mechanical properties :
#
#
# Convention : Reuss Voigt Hill
#
# Bulk Modulus (GPa) = 48.02844 48.32472 48.17658
# Shear Modulus (GPa) = 25.09770 26.62039 25.85905
#
# Velocity S-wave (km/s) = 3.44347 3.54639 3.49531
# Velocity P-wave (km/s) = 6.20493 6.29288 6.24906
#
# Compressibility (1/GPa) = 0.02082100
#
# Stress axis : x y z
#
# Youngs Moduli (GPa) = 72.74326 72.74326 53.07810
#
# Poissons Ratio (x) = -0.04648 0.35550
# Poissons Ratio (y) = -0.04648 0.35550
# Poissons Ratio (z) = 0.48721 0.48721
#
# Static dielectric constant tensor:
#      x y z
#    x 3.984950 0.000000 0.000000 
#    y 0.000000 3.984950 0.000000 
#    z 0.000000 0.000000 3.838750 
# 
# 
# High freq. dielectric constant tensor:
#      x y z
#    x 1.835000 0.000000 0.000000 
#    y 0.000000 1.835000 0.000000 
#    z 0.000000 0.000000 1.825370 
# 
# From -- ./inp_files/4022.got.cif
#   From: 2010.03.12/outbox.cif.g09.slc.cpg/sg114_3_cif.got.tgz:4022.got - 2010.04.14 02:08:34.
