data_PCOD8308174
_publ_section_title
;
Structure prediction by ZEFSAII (Michael W. Deem and Ramdas Pophale) SiO2 
 PCOD8308174
Probable space group: P -4 2 M 
;
_chemical_formula_sum "Si O2"
_cell_formula_units_Z 64
_cell_length_a 12.095532
_cell_length_b 12.095532
_cell_length_c 26.355595
_cell_angle_alpha 90.000000
_cell_angle_beta 90.000000
_cell_angle_gamma 90.000000
_cell_volume 3855.873476
_symmetry_space_group_name_H-M "P -4 2 M "
_symmetry_group_IT_number 111
_symmetry_cell_setting 'tetragonal'
loop_
_space_group_symop_operation_xyz
x,y,z
y,-x,-z
-x,-y,z
-y,x,-z
x,-y,-z
-x,y,-z
-y,-x,z
y,x,z
loop_
_atom_site_type_symbol
_atom_site_label
_atom_site_fract_x
_atom_site_fract_y
_atom_site_fract_z
Si Si1 0.374145 0.805761 0.999999
Si Si2 0.132227 0.499997 0.174431
Si Si3 0.685320 0.131378 0.634240
Si Si4 0.500000 0.130468 0.712073
Si Si5 0.500000 0.869379 0.556322
Si Si6 0.697532 0.123822 0.106763
Si Si7 0.876183 0.697535 0.106763
Si Si8 0.131378 0.685320 0.365760
O O1 0.307753 0.692248 0.999994
O O2 0.346858 0.877823 0.049359
O O3 0.500000 0.769785 0.000000
O O4 0.346867 0.877831 0.950639
O O5 0.181251 0.500000 0.231401
O O6 0.176460 0.607232 0.144664
O O7 0.176457 0.392757 0.144667
O O8 0.000000 0.500000 0.173403
O O9 0.799382 0.200619 0.634195
O O10 0.611963 0.166058 0.683072
O O11 0.611931 0.165924 0.585423
O O12 0.713621 0.000000 0.634254
O O13 0.388037 0.166058 0.683072
O O14 0.500000 0.000000 0.715090
O O15 0.500000 0.816236 0.500000
O O16 0.611930 0.834077 0.585423
O O17 0.500000 0.000000 0.553185
O O18 0.809539 0.190462 0.112189
O O19 0.725948 0.000003 0.123297
O O20 0.809545 0.809545 0.112183
O O21 0.200619 0.799382 0.365805
#
# Coordination Sequence:
#
# PCOD8308174 Si02
#       8
#     8   8   8   8   8   8   8   8
#     4  10  19  32  50  72  98 127 158 195 238 282
#     4   9  17  31  51  69  88 119 162 203 232 268
#     4   9  17  29  47  72  99 127 159 195 238 285
#     4   8  16  31  48  66  89 123 164 199 229 272
#     4   8  15  29  47  66  92 130 171 201 227 269
#     4  10  20  32  49  73  98 125 155 189 233 284
#     4  10  20  32  49  73  98 125 155 189 233 284
#     4   9  17  29  47  72  99 127 159 195 238 285
#
# _framework density 16.598054000000001
#
# number of rings (size 3 to 8) (size 9 to 14) (size 15 to 20)
#    0.000    2.875    1.250    1.875    0.000    2.625 
#    0.000    0.000    0.000    8.625    0.000   17.500 
#    0.000    0.000    0.000    0.000    0.000    0.000 
#
# Total GULP energy -793262.413369 kJ/mol
# GULP energy per Si atom -12394.725209 kJ/mol
# Density = 1.656028 g / cm^3
# Si number density = 16.598054 Si / 1000 Ang^3
#
#
#
# Elastic Constant Matrix: (Units=GPa)
#
#
# Indices 1 2 3 4 5 6 
#
# 1 84.8617 49.1560 37.1589 0.0000 0.0000 0.0000
# 2 49.1560 84.8615 37.1597 0.0000 0.0000 0.0000
# 3 37.1589 37.1597 140.7557 0.0000 0.0000 0.0000
# 4 0.0000 0.0000 0.0000 15.0549 0.0000 0.0000
# 5 0.0000 0.0000 0.0000 0.0000 15.0687 0.0000
# 6 0.0000 0.0000 0.0000 0.0000 0.0000 5.0142
#
#
#
# Elastic Compliance Matrix: (Units=1/GPa)
#
#
# Indices 1 2 3 4 5 6 
#
# 1 0.018374 -0.009633 -0.002308 0.000000 0.000000 0.000000
# 2 -0.009633 0.018374 -0.002308 0.000000 0.000000 0.000000
# 3 -0.002308 -0.002308 0.008323 0.000000 0.000000 0.000000
# 4 0.000000 0.000000 0.000000 0.066423 0.000000 0.000000
# 5 0.000000 0.000000 0.000000 0.000000 0.066363 0.000000
# 6 0.000000 0.000000 0.000000 0.000000 0.000000 0.199434
#
#
# Mechanical properties :
#
#
# Convention : Reuss Voigt Hill
#
# Bulk Modulus (GPa) = 60.33200 61.93647 61.13423
# Shear Modulus (GPa) = 12.15621 19.49452 15.82536
#
# Velocity S-wave (km/s) = 2.70920 3.43082 3.09114
# Velocity P-wave (km/s) = 6.79810 7.28633 7.04644
#
# Compressibility (1/GPa) = 0.01657495
#
# Stress axis : x y z
#
# Youngs Moduli (GPa) = 54.42456 54.42413 120.14928
#
# Poissons Ratio (x) = 0.52425 0.27726
# Poissons Ratio (y) = 0.52425 0.27728
# Poissons Ratio (z) = 0.12559 0.12560
#
# Static dielectric constant tensor:
#      x y z
#    x 2.857540 0.000000 0.000000 
#    y 0.000000 2.857540 0.000000 
#    z 0.000000 0.000000 3.762320 
# 
# 
# High freq. dielectric constant tensor:
#      x y z
#    x 1.618810 0.000000 0.000000 
#    y 0.000000 1.618810 0.000000 
#    z 0.000000 0.000000 1.648580 
# 
# From -- ./inp_files/4370.got.cif
#   From: 2010.03.12/outbox.cif.g09.slc.cpg/sg111_3_cif.got.tgz:4370.got - 2010.04.14 01:59:48.
