data_PCOD8308588
_publ_section_title
;
Structure prediction by ZEFSAII (Michael W. Deem and Ramdas Pophale) SiO2 
 PCOD8308588
Probable space group: P -4 21 M 
;
_chemical_formula_sum "Si O2"
_cell_formula_units_Z 40
_cell_length_a 13.664996
_cell_length_b 13.664996
_cell_length_c 12.581664
_cell_angle_alpha 90.000000
_cell_angle_beta 90.000000
_cell_angle_gamma 90.000000
_cell_volume 2349.400737
_symmetry_space_group_name_H-M "P -4 21 M "
_symmetry_group_IT_number 113
_symmetry_cell_setting 'tetragonal'
loop_
_space_group_symop_operation_xyz
x,y,z
y,-x,-z
-x,-y,z
-y,x,-z
1/2+x,1/2-y,-z
1/2-x,1/2+y,-z
1/2-y,1/2-x,z
1/2+y,1/2+x,z
loop_
_atom_site_type_symbol
_atom_site_label
_atom_site_fract_x
_atom_site_fract_y
_atom_site_fract_z
Si Si1 0.527589 0.384619 0.262947
Si Si2 0.839808 0.500186 0.117560
Si Si3 0.844826 0.000260 0.030329
Si Si4 0.156271 0.025852 0.481022
Si Si5 0.248396 0.090830 0.683605
O O1 0.500000 0.500000 0.271468
O O2 0.488289 0.333738 0.156680
O O3 0.475601 0.319075 0.355301
O O4 0.643928 0.376956 0.271362
O O5 0.899332 0.600669 0.118687
O O6 0.793520 0.487777 0.234633
O O7 0.908465 0.408465 0.089376
O O8 0.759209 0.508082 0.025743
O O9 0.900890 0.906123 0.986322
O O10 0.244339 0.043425 0.564614
O O11 0.079811 0.112021 0.497066
O O12 0.312589 0.187412 0.676737
#
# Coordination Sequence:
#
# PCOD8308588 Si02
#       5
#     8   8   8   8   8
#     4  11  17  32  55  79 105 141 175 217 280 325
#     4  10  22  39  56  76 109 152 190 228 277 328
#     4  11  20  32  56  85 112 137 182 231 276 328
#     4   9  16  29  53  73  99 138 171 211 270 322
#     4  10  19  33  52  78 106 138 183 226 265 323
#
# _framework density 17.025618999999999
#
# number of rings (size 3 to 8) (size 9 to 14) (size 15 to 20)
#    0.000    1.800    8.000    0.000    0.000    1.600 
#    0.000    5.000    0.000    0.000    0.000    2.800 
#    0.000    0.000    0.000    0.000    0.000    0.000 
#
# Total GULP energy -495743.377231 kJ/mol
# GULP energy per Si atom -12393.584431 kJ/mol
# Density = 1.698687 g / cm^3
# Si number density = 17.025619 Si / 1000 Ang^3
#
#
#
# Elastic Constant Matrix: (Units=GPa)
#
#
# Indices 1 2 3 4 5 6 
#
# 1 69.7054 22.2348 39.8392 0.0000 0.0000 0.0000
# 2 22.2348 69.7063 39.8384 0.0000 0.0000 0.0000
# 3 39.8392 39.8384 161.3263 0.0000 0.0000 0.0000
# 4 0.0000 0.0000 0.0000 26.4379 0.0000 0.0000
# 5 0.0000 0.0000 0.0000 0.0000 26.4398 0.0000
# 6 0.0000 0.0000 0.0000 0.0000 0.0000 36.9563
#
#
#
# Elastic Compliance Matrix: (Units=1/GPa)
#
#
# Indices 1 2 3 4 5 6 
#
# 1 0.017452 -0.003614 -0.003417 0.000000 0.000000 0.000000
# 2 -0.003614 0.017452 -0.003417 0.000000 0.000000 0.000000
# 3 -0.003417 -0.003417 0.007886 0.000000 0.000000 0.000000
# 4 0.000000 0.000000 0.000000 0.037825 0.000000 0.000000
# 5 0.000000 0.000000 0.000000 0.000000 0.037822 0.000000
# 6 0.000000 0.000000 0.000000 0.000000 0.000000 0.027059
#
#
# Mechanical properties :
#
#
# Convention : Reuss Voigt Hill
#
# Bulk Modulus (GPa) = 45.67573 56.06253 50.86913
# Shear Modulus (GPa) = 28.78703 31.22183 30.00443
#
# Velocity S-wave (km/s) = 4.11640 4.28695 4.20254
# Velocity P-wave (km/s) = 7.03412 7.58312 7.31378
#
# Compressibility (1/GPa) = 0.02189347
#
# Stress axis : x y z
#
# Youngs Moduli (GPa) = 57.30027 57.30145 126.80116
#
# Poissons Ratio (x) = 0.20707 0.43332
# Poissons Ratio (y) = 0.20707 0.43330
# Poissons Ratio (z) = 0.19581 0.19581
#
# Static dielectric constant tensor:
#      x y z
#    x 3.008230 0.000000 0.000000 
#    y 0.000000 3.008230 0.000000 
#    z 0.000000 0.000000 3.644380 
# 
# 
# High freq. dielectric constant tensor:
#      x y z
#    x 1.632310 0.000000 0.000000 
#    y 0.000000 1.632310 0.000000 
#    z 0.000000 0.000000 1.680510 
# 
# From -- ./inp_files/1725.got.cif
#   From: 2010.03.12/outbox.cif.g09.slc.cpg/sg113_cif.got.tgz:1725.got - 2010.04.14 02:06:34.
