data_PCOD8308238
_publ_section_title
;
Structure prediction by ZEFSAII (Michael W. Deem and Ramdas Pophale) SiO2 
 PCOD8308238
Probable space group: P -4 2 M 
;
_chemical_formula_sum "Si O2"
_cell_formula_units_Z 24
_cell_length_a 9.342612
_cell_length_b 9.342612
_cell_length_c 13.903795
_cell_angle_alpha 90.000000
_cell_angle_beta 90.000000
_cell_angle_gamma 90.000000
_cell_volume 1213.584390
_symmetry_space_group_name_H-M "P -4 2 M "
_symmetry_group_IT_number 111
_symmetry_cell_setting 'tetragonal'
loop_
_space_group_symop_operation_xyz
x,y,z
y,-x,-z
-x,-y,z
-y,x,-z
x,-y,-z
-x,y,-z
-y,-x,z
y,x,z
loop_
_atom_site_type_symbol
_atom_site_label
_atom_site_fract_x
_atom_site_fract_y
_atom_site_fract_z
Si Si1 0.767829 0.007850 0.103296
Si Si2 0.085553 0.683005 0.698255
Si Si3 0.186138 0.577896 0.398610
O O1 0.895169 0.895169 0.095537
O O2 0.665707 0.969518 0.192381
O O3 0.834789 0.165212 0.122485
O O4 0.684733 0.000000 0.000000
O O5 0.167425 0.832576 0.680977
O O6 0.191483 0.548735 0.680704
O O7 0.952316 0.677111 0.623691
O O8 0.168985 0.500000 0.500000
O O9 0.330700 0.669300 0.394863
#
# Coordination Sequence:
#
# PCOD8308238 Si02
#       3
#     8   8   8
#     4   8  14  27  51  84 118 147 175 215 272 329
#     4  10  20  36  60  87 111 140 185 232 269 317
#     4  11  24  40  56  78 111 148 185 227 281 337
#
# _framework density 19.776129000000001
#
# number of rings (size 3 to 8) (size 9 to 14) (size 15 to 20)
#    0.000    2.333    0.000    5.000    0.000    4.333 
#    0.000    5.000    0.000   12.000    0.000    2.333 
#    0.000   29.333    0.000    0.000    0.000    0.000 
#
# Total GULP energy -297358.792010 kJ/mol
# GULP energy per Si atom -12389.949667 kJ/mol
# Density = 1.973112 g / cm^3
# Si number density = 19.776129 Si / 1000 Ang^3
#
#
#
# Elastic Constant Matrix: (Units=GPa)
#
#
# Indices 1 2 3 4 5 6 
#
# 1 79.7368 40.0678 74.0058 0.0000 0.0000 0.0000
# 2 40.0678 79.7368 74.0059 0.0000 0.0000 0.0000
# 3 74.0058 74.0059 190.7290 0.0000 0.0000 0.0000
# 4 0.0000 0.0000 0.0000 28.8336 0.0000 0.0000
# 5 0.0000 0.0000 0.0000 0.0000 28.8344 0.0000
# 6 0.0000 0.0000 0.0000 0.0000 0.0000 50.8526
#
#
#
# Elastic Compliance Matrix: (Units=1/GPa)
#
#
# Indices 1 2 3 4 5 6 
#
# 1 0.020620 -0.004588 -0.006221 0.000000 0.000000 0.000000
# 2 -0.004588 0.020621 -0.006221 0.000000 0.000000 0.000000
# 3 -0.006221 -0.006221 0.010071 0.000000 0.000000 0.000000
# 4 0.000000 0.000000 0.000000 0.034682 0.000000 0.000000
# 5 0.000000 0.000000 0.000000 0.000000 0.034681 0.000000
# 6 0.000000 0.000000 0.000000 0.000000 0.000000 0.019665
#
#
# Mechanical properties :
#
#
# Convention : Reuss Voigt Hill
#
# Bulk Modulus (GPa) = 57.96400 80.70687 69.33544
# Shear Modulus (GPa) = 27.75478 32.51231 30.13355
#
# Velocity S-wave (km/s) = 3.75033 4.05905 3.90774
# Velocity P-wave (km/s) = 6.93736 7.92885 7.44962
#
# Compressibility (1/GPa) = 0.01725209
#
# Stress axis : x y z
#
# Youngs Moduli (GPa) = 48.49548 48.49534 99.29899
#
# Poissons Ratio (x) = 0.22250 0.61772
# Poissons Ratio (y) = 0.22250 0.61772
# Poissons Ratio (z) = 0.30168 0.30168
#
# Static dielectric constant tensor:
#      x y z
#    x 3.514690 0.000000 0.000000 
#    y 0.000000 3.514690 0.000000 
#    z 0.000000 0.000000 4.101970 
# 
# 
# High freq. dielectric constant tensor:
#      x y z
#    x 1.749480 0.000000 0.000000 
#    y 0.000000 1.749480 0.000000 
#    z 0.000000 0.000000 1.786250 
# 
# From -- ./inp_files/3018.got.cif
#   From: 2010.03.12/outbox.cif.g09.slc.cpg/sg111_2_cif.got.tgz:3018.got - 2010.04.14 01:59:48.
