data_PCOD8308470
_publ_section_title
;
Structure prediction by ZEFSAII (Michael W. Deem and Ramdas Pophale) SiO2 
 PCOD8308470
Probable space group: P -4 2 C
;
_chemical_formula_sum "Si O2"
_cell_formula_units_Z 34
_cell_length_a 7.502559
_cell_length_b 7.502559
_cell_length_c 26.295675
_cell_angle_alpha 90.000000
_cell_angle_beta 90.000000
_cell_angle_gamma 90.000000
_cell_volume 1480.141250
_symmetry_space_group_name_H-M "P -4 2 C"
_symmetry_group_IT_number 112
_symmetry_cell_setting 'tetragonal'
loop_
_space_group_symop_operation_xyz
x,y,z
y,-x,-z
-x,-y,z
-y,x,-z
x,-y,1/2-z
-x,y,1/2-z
-y,-x,1/2+z
y,x,1/2+z
loop_
_atom_site_type_symbol
_atom_site_label
_atom_site_fract_x
_atom_site_fract_y
_atom_site_fract_z
Si Si1 0.759540 0.161914 0.109965
Si Si2 0.259719 0.663537 0.500721
Si Si3 0.233393 0.145141 0.607803
Si Si4 0.558086 0.690558 0.177512
Si Si5 0.500000 0.000000 0.250000
O O1 0.603521 0.240635 0.143464
O O2 0.938647 0.278842 0.118837
O O3 0.801752 0.962531 0.127034
O O4 0.703432 0.148725 0.051148
O O5 0.454776 0.740442 0.510089
O O6 0.168844 0.754343 0.452569
O O7 0.359736 0.275353 0.640804
O O8 0.500000 0.500000 0.203034
O O9 0.611093 0.853275 0.216397
#
# Coordination Sequence:
#
# PCOD8308470 Si02
#       5
#     8   8   8   8   2
#     4  11  23  41  66  99 142 186 229 286 348 419
#     4  11  22  35  58  98 142 185 233 278 340 420
#     4  11  23  41  66  99 142 186 229 286 348 419
#     4  12  25  47  75 104 137 181 238 293 358 415
#     4  12  26  52  78 102 140 186 238 308 358 412
#
# _framework density 22.970779
#
# number of rings (size 3 to 8) (size 9 to 14) (size 15 to 20)
#    0.000    0.706    4.706    3.176    0.000    7.529 
#    0.000    2.353    0.000    2.824    0.000    0.000 
#    0.000    0.000    0.000    0.000    0.000    0.000 
#
# Total GULP energy -421355.285712 kJ/mol
# GULP energy per Si atom -12392.802521 kJ/mol
# Density = 2.291850 g / cm^3
# Si number density = 22.970779 Si / 1000 Ang^3
#
#
#
# Elastic Constant Matrix: (Units=GPa)
#
#
# Indices 1 2 3 4 5 6 
#
# 1 165.1287 -68.8327 30.6610 0.0000 0.0000 0.0000
# 2 -68.8327 165.1287 30.6610 0.0000 0.0000 0.0000
# 3 30.6610 30.6610 112.9017 0.0000 0.0000 0.0000
# 4 0.0000 0.0000 0.0000 8.9781 0.0000 0.0000
# 5 0.0000 0.0000 0.0000 0.0000 8.9781 0.0000
# 6 0.0000 0.0000 0.0000 0.0000 0.0000 27.0732
#
#
#
# Elastic Compliance Matrix: (Units=1/GPa)
#
#
# Indices 1 2 3 4 5 6 
#
# 1 0.008415 0.004141 -0.003410 0.000000 0.000000 0.000000
# 2 0.004141 0.008415 -0.003410 0.000000 0.000000 0.000000
# 3 -0.003410 -0.003410 0.010709 0.000000 0.000000 0.000000
# 4 0.000000 0.000000 0.000000 0.111382 0.000000 0.000000
# 5 0.000000 0.000000 0.000000 0.000000 0.111382 0.000000
# 6 0.000000 0.000000 0.000000 0.000000 0.000000 0.036937
#
#
# Mechanical properties :
#
#
# Convention : Reuss Voigt Hill
#
# Bulk Modulus (GPa) = 45.08168 47.57084 46.32626
# Shear Modulus (GPa) = 16.66714 39.05055 27.85885
#
# Velocity S-wave (km/s) = 2.69658 4.12759 3.48630
# Velocity P-wave (km/s) = 5.41883 6.59320 6.03465
#
# Compressibility (1/GPa) = 0.02218196
#
# Stress axis : x y z
#
# Youngs Moduli (GPa) = 118.83333 118.83333 93.37663
#
# Poissons Ratio (x) = -0.49208 0.31840
# Poissons Ratio (y) = -0.49208 0.31840
# Poissons Ratio (z) = 0.40521 0.40521
#
# Static dielectric constant tensor:
#      x y z
#    x 4.351210 0.000000 0.000000 
#    y 0.000000 4.351210 0.000000 
#    z 0.000000 0.000000 4.055110 
# 
# 
# High freq. dielectric constant tensor:
#      x y z
#    x 1.910600 0.000000 0.000000 
#    y 0.000000 1.910600 0.000000 
#    z 0.000000 0.000000 1.893890 
# 
# From -- ./inp_files/5207.got.cif
#   From: 2010.03.12/outbox.cif.g09.slc.cpg/sg112_3_cif.got.tgz:5207.got - 2010.04.14 02:02:48.
