data_PCOD8308795
_publ_section_title
;
Structure prediction by ZEFSAII (Michael W. Deem and Ramdas Pophale) SiO2 
 PCOD8308795
Probable space group: P -4 21 M 
;
_chemical_formula_sum "Si O2"
_cell_formula_units_Z 40
_cell_length_a 14.286911
_cell_length_b 14.286911
_cell_length_c 12.391535
_cell_angle_alpha 90.000000
_cell_angle_beta 90.000000
_cell_angle_gamma 90.000000
_cell_volume 2529.308401
_symmetry_space_group_name_H-M "P -4 21 M "
_symmetry_group_IT_number 113
_symmetry_cell_setting 'tetragonal'
loop_
_space_group_symop_operation_xyz
x,y,z
y,-x,-z
-x,-y,z
-y,x,-z
1/2+x,1/2-y,-z
1/2-x,1/2+y,-z
1/2-y,1/2-x,z
1/2+y,1/2+x,z
loop_
_atom_site_type_symbol
_atom_site_label
_atom_site_fract_x
_atom_site_fract_y
_atom_site_fract_z
Si Si1 0.892321 0.892307 0.499995
Si Si2 0.109075 0.238178 0.933162
Si Si3 0.106589 0.243461 0.686106
Si Si4 0.738177 0.390925 0.933172
Si Si5 0.606604 0.743444 0.313883
O O1 0.858052 0.837712 0.606240
O O2 0.837740 0.858044 0.393739
O O3 0.000009 0.872701 0.474577
O O4 0.165391 0.334610 0.957703
O O5 0.152100 0.152095 0.999989
O O6 0.120463 0.208918 0.808453
O O7 0.000001 0.253237 0.963917
O O8 0.163097 0.336904 0.661625
O O9 0.999989 0.269830 0.662967
O O10 0.834611 0.334611 0.957705
O O11 0.708907 0.379532 0.808467
O O12 0.663125 0.836876 0.338374
#
# Coordination Sequence:
#
# PCOD8308795 Si02
#       5
#     8   8   8   8   8
#     4   9  17  28  42  62  87 113 142 174 208 249
#     4   9  18  31  46  66  90 115 146 182 219 261
#     4   9  17  29  45  64  86 112 141 174 212 252
#     4   9  18  31  46  66  90 115 146 182 219 261
#     4   9  17  29  45  64  86 112 141 174 212 252
#
# _framework density 15.8146
#
# number of rings (size 3 to 8) (size 9 to 14) (size 15 to 20)
#    0.000    3.000    0.000    0.600    0.000    2.800 
#    0.000    8.000    0.000    0.000    0.000    0.000 
#    0.000    9.600    0.000    0.000    0.000    0.000 
#
# Total GULP energy -495922.042948 kJ/mol
# GULP energy per Si atom -12398.051074 kJ/mol
# Density = 1.577861 g / cm^3
# Si number density = 15.814600 Si / 1000 Ang^3
#
#
#
# Elastic Constant Matrix: (Units=GPa)
#
#
# Indices 1 2 3 4 5 6 
#
# 1 94.7595 56.7592 61.3648 0.0000 0.0000 0.0000
# 2 56.7592 94.7548 61.3647 0.0000 0.0000 0.0000
# 3 61.3648 61.3647 90.7969 0.0000 0.0000 0.0000
# 4 0.0000 0.0000 0.0000 27.7722 0.0000 0.0000
# 5 0.0000 0.0000 0.0000 0.0000 27.7725 0.0000
# 6 0.0000 0.0000 0.0000 0.0000 0.0000 23.1146
#
#
#
# Elastic Compliance Matrix: (Units=1/GPa)
#
#
# Indices 1 2 3 4 5 6 
#
# 1 0.020450 -0.005867 -0.009856 0.000000 0.000000 0.000000
# 2 -0.005867 0.020451 -0.009857 0.000000 0.000000 0.000000
# 3 -0.009856 -0.009857 0.024336 0.000000 0.000000 0.000000
# 4 0.000000 0.000000 0.000000 0.036007 0.000000 0.000000
# 5 0.000000 0.000000 0.000000 0.000000 0.036007 0.000000
# 6 0.000000 0.000000 0.000000 0.000000 0.000000 0.043263
#
#
# Mechanical properties :
#
#
# Convention : Reuss Voigt Hill
#
# Bulk Modulus (GPa) = 71.03100 71.03206 71.03153
# Shear Modulus (GPa) = 21.15370 22.45337 21.80353
#
# Velocity S-wave (km/s) = 3.66130 3.77209 3.71711
# Velocity P-wave (km/s) = 7.93006 7.99904 7.96462
#
# Compressibility (1/GPa) = 0.01407836
#
# Stress axis : x y z
#
# Youngs Moduli (GPa) = 48.90088 48.89674 41.09101
#
# Poissons Ratio (x) = 0.28687 0.40498
# Poissons Ratio (y) = 0.28689 0.40503
# Poissons Ratio (z) = 0.48195 0.48197
#
# Static dielectric constant tensor:
#      x y z
#    x 3.014960 0.000000 0.000000 
#    y 0.000000 3.014960 0.000000 
#    z 0.000000 0.000000 3.147280 
# 
# 
# High freq. dielectric constant tensor:
#      x y z
#    x 1.603380 0.000000 0.000000 
#    y 0.000000 1.603380 0.000000 
#    z 0.000000 0.000000 1.610420 
# 
# From -- ./inp_files/987.got.cif
#   From: 2010.03.12/outbox.cif.g09.slc.cpg/sg113_cif.got.tgz:987.got - 2010.04.14 02:06:34.
