data_PCOD8308944
_publ_section_title
;
Structure prediction by ZEFSAII (Michael W. Deem and Ramdas Pophale) SiO2 
 PCOD8308944
Probable space group: P -4 21 C
;
_chemical_formula_sum "Si O2"
_cell_formula_units_Z 52
_cell_length_a 17.178650
_cell_length_b 17.178650
_cell_length_c 8.603120
_cell_angle_alpha 90.000000
_cell_angle_beta 90.000000
_cell_angle_gamma 90.000000
_cell_volume 2538.832467
_symmetry_space_group_name_H-M "P -4 21 C"
_symmetry_group_IT_number 114
_symmetry_cell_setting 'tetragonal'
loop_
_space_group_symop_operation_xyz
x,y,z
y,-x,-z
-x,-y,z
-y,x,-z
1/2+x,1/2-y,1/2-z
1/2-x,1/2+y,1/2-z
1/2-y,1/2-x,1/2+z
1/2+y,1/2+x,1/2+z
loop_
_atom_site_type_symbol
_atom_site_label
_atom_site_fract_x
_atom_site_fract_y
_atom_site_fract_z
Si Si1 0.795214 0.949627 0.417691
Si Si2 0.925790 0.900824 0.000722
Si Si3 0.126692 0.476766 0.038273
Si Si4 0.810031 0.168657 0.781577
Si Si5 0.286663 0.828284 0.472900
Si Si6 0.889695 0.855902 0.673538
Si Si7 0.000000 0.500000 0.789380
O O1 0.782545 0.884850 0.280341
O O2 0.838865 0.910649 0.562650
O O3 0.710380 0.980890 0.465265
O O4 0.853780 0.018625 0.368431
O O5 0.874796 0.880075 0.850290
O O6 0.911935 0.844161 0.148208
O O7 0.014328 0.898369 0.946760
O O8 0.078975 0.500138 0.190588
O O9 0.136144 0.382158 0.033437
O O10 0.078322 0.504722 0.889857
O O11 0.750826 0.155457 0.641204
O O12 0.762866 0.202909 0.930421
O O13 0.231788 0.859360 0.336108
#
# Coordination Sequence:
#
# PCOD8308944 Si02
#       7
#     8   8   8   8   8   8   4
#     4  10  23  40  67  93 133 166 229 258 354 385
#     4  11  24  38  60  92 131 164 215 262 327 394
#     4  10  22  42  63  98 121 176 211 281 328 400
#     4  11  22  42  62  97 124 175 214 278 322 406
#     4  10  22  39  69  88 131 164 227 261 340 384
#     4  10  22  40  61  95 125 175 206 281 315 414
#     4  10  22  42  68  90 134 162 228 268 336 390
#
# _framework density 20.481857000000002
#
# number of rings (size 3 to 8) (size 9 to 14) (size 15 to 20)
#    0.000    1.692    1.538    1.846    6.462    4.000 
#    0.000    1.538    0.000    0.000    0.000    0.000 
#    0.000    0.000    0.000    0.000    0.000    0.000 
#
# Total GULP energy -644330.240718 kJ/mol
# GULP energy per Si atom -12390.966168 kJ/mol
# Density = 2.043524 g / cm^3
# Si number density = 20.481857 Si / 1000 Ang^3
#
#
#
# Elastic Constant Matrix: (Units=GPa)
#
#
# Indices 1 2 3 4 5 6 
#
# 1 111.6398 52.3663 57.8704 0.0000 0.0000 0.0000
# 2 52.3663 111.6398 57.8704 0.0000 0.0000 0.0000
# 3 57.8704 57.8704 127.0955 0.0000 0.0000 0.0000
# 4 0.0000 0.0000 0.0000 23.1586 0.0000 0.0000
# 5 0.0000 0.0000 0.0000 0.0000 23.1586 0.0000
# 6 0.0000 0.0000 0.0000 0.0000 0.0000 30.6799
#
#
#
# Elastic Compliance Matrix: (Units=1/GPa)
#
#
# Indices 1 2 3 4 5 6 
#
# 1 0.012928 -0.003943 -0.004091 0.000000 0.000000 0.000000
# 2 -0.003943 0.012928 -0.004091 0.000000 0.000000 0.000000
# 3 -0.004091 -0.004091 0.011593 0.000000 0.000000 0.000000
# 4 0.000000 0.000000 0.000000 0.043181 0.000000 0.000000
# 5 0.000000 0.000000 0.000000 0.000000 0.043181 0.000000
# 6 0.000000 0.000000 0.000000 0.000000 0.000000 0.032595
#
#
# Mechanical properties :
#
#
# Convention : Reuss Voigt Hill
#
# Bulk Modulus (GPa) = 75.76483 76.28769 76.02626
# Shear Modulus (GPa) = 27.01917 27.55061 27.28489
#
# Velocity S-wave (km/s) = 3.63599 3.67157 3.65382
# Velocity P-wave (km/s) = 7.39586 7.43648 7.41620
#
# Compressibility (1/GPa) = 0.01319874
#
# Stress axis : x y z
#
# Youngs Moduli (GPa) = 77.35387 77.35387 86.25577
#
# Poissons Ratio (x) = 0.30503 0.35286
# Poissons Ratio (y) = 0.30503 0.35286
# Poissons Ratio (z) = 0.31644 0.31644
#
# Static dielectric constant tensor:
#      x y z
#    x 3.789280 0.000000 0.000000 
#    y 0.000000 3.789280 0.000000 
#    z 0.000000 0.000000 3.747650 
# 
# 
# High freq. dielectric constant tensor:
#      x y z
#    x 1.796990 0.000000 0.000000 
#    y 0.000000 1.796990 0.000000 
#    z 0.000000 0.000000 1.812770 
# 
# From -- ./inp_files/975.got.cif
#   From: 2010.03.12/outbox.cif.g09.slc.cpg/sg114_1_cif.got.tgz:975.got - 2010.04.14 02:08:34.
