data_PCOD8308281
_publ_section_title
;
Structure prediction by ZEFSAII (Michael W. Deem and Ramdas Pophale) SiO2 
 PCOD8308281
Probable space group: P -4 2 M 
;
_chemical_formula_sum "Si O2"
_cell_formula_units_Z 24
_cell_length_a 13.541132
_cell_length_b 13.541132
_cell_length_c 6.483005
_cell_angle_alpha 90.000000
_cell_angle_beta 90.000000
_cell_angle_gamma 90.000000
_cell_volume 1188.738421
_symmetry_space_group_name_H-M "P -4 2 M "
_symmetry_group_IT_number 111
_symmetry_cell_setting 'tetragonal'
loop_
_space_group_symop_operation_xyz
x,y,z
y,-x,-z
-x,-y,z
-y,x,-z
x,-y,-z
-x,y,-z
-y,-x,z
y,x,z
loop_
_atom_site_type_symbol
_atom_site_label
_atom_site_fract_x
_atom_site_fract_y
_atom_site_fract_z
Si Si1 0.596716 0.596716 0.622695
Si Si2 0.251358 0.251358 0.781734
Si Si3 0.500000 0.500000 0.000000
Si Si4 0.314968 0.096374 0.097043
Si Si5 0.000000 0.500000 0.000000
Si Si6 0.000000 0.000000 0.500000
Si Si7 0.843003 0.156998 0.592447
O O1 0.636946 0.500000 0.500000
O O2 0.680595 0.680595 0.633829
O O3 0.568630 0.568630 0.856918
O O4 0.180711 0.180711 0.644541
O O5 0.317560 0.183463 0.928965
O O6 0.259306 0.123058 0.305508
O O7 0.429596 0.068311 0.145002
O O8 0.260812 0.000000 0.000000
O O9 0.073075 0.926926 0.626446
#
# Coordination Sequence:
#
# PCOD8308281 Si02
#       7
#     4   4   1   8   2   1   4
#     4   9  21  38  59  95 126 159 209 253 306 372
#     4  11  22  36  63  93 125 161 209 259 308 374
#     4   8  18  40  60  78 124 168 206 244 312 362
#     4   9  21  41  59  87 123 160 214 251 307 377
#     4   8  20  42  62  82 124 168 192 264 320 346
#     4  12  24  40  70  84 128 174 196 268 334 336
#     4  11  23  39  62  93 125 163 216 256 314 379
#
# _framework density 20.189474000000001
#
# number of rings (size 3 to 8) (size 9 to 14) (size 15 to 20)
#    1.000    1.500    0.000    2.000    0.000   10.667 
#    0.000    5.000    0.000    0.000    0.000    0.000 
#    0.000    0.000    0.000    0.000    0.000    0.000 
#
# Total GULP energy -297314.609234 kJ/mol
# GULP energy per Si atom -12388.108718 kJ/mol
# Density = 2.014352 g / cm^3
# Si number density = 20.189474 Si / 1000 Ang^3
#
#
#
# Elastic Constant Matrix: (Units=GPa)
#
#
# Indices 1 2 3 4 5 6 
#
# 1 125.6838 61.8803 37.4546 0.0000 0.0000 0.0000
# 2 61.8803 125.6840 37.4552 0.0000 0.0000 0.0000
# 3 37.4546 37.4552 88.0172 0.0000 0.0000 0.0000
# 4 0.0000 0.0000 0.0000 12.5190 0.0000 0.0000
# 5 0.0000 0.0000 0.0000 0.0000 12.5185 0.0000
# 6 0.0000 0.0000 0.0000 0.0000 0.0000 45.1413
#
#
#
# Elastic Compliance Matrix: (Units=1/GPa)
#
#
# Indices 1 2 3 4 5 6 
#
# 1 0.011048 -0.004625 -0.002733 0.000000 0.000000 0.000000
# 2 -0.004625 0.011048 -0.002733 0.000000 0.000000 0.000000
# 3 -0.002733 -0.002733 0.013688 0.000000 0.000000 0.000000
# 4 0.000000 0.000000 0.000000 0.079879 0.000000 0.000000
# 5 0.000000 0.000000 0.000000 0.000000 0.079882 0.000000
# 6 0.000000 0.000000 0.000000 0.000000 0.000000 0.022153
#
#
# Mechanical properties :
#
#
# Convention : Reuss Voigt Hill
#
# Bulk Modulus (GPa) = 64.09956 68.10726 66.10341
# Shear Modulus (GPa) = 20.56931 27.54209 24.05570
#
# Velocity S-wave (km/s) = 3.19535 3.69749 3.45555
# Velocity P-wave (km/s) = 6.74030 7.21359 6.98095
#
# Compressibility (1/GPa) = 0.01560073
#
# Stress axis : x y z
#
# Youngs Moduli (GPa) = 90.51326 90.51300 73.05840
#
# Poissons Ratio (x) = 0.41862 0.19969
# Poissons Ratio (y) = 0.41862 0.19970
# Poissons Ratio (z) = 0.24739 0.24741
#
# Static dielectric constant tensor:
#      x y z
#    x 3.609980 0.000000 0.000000 
#    y 0.000000 3.609970 0.000000 
#    z 0.000000 0.000000 3.309110 
# 
# 
# High freq. dielectric constant tensor:
#      x y z
#    x 1.789350 0.000000 0.000000 
#    y 0.000000 1.789350 0.000000 
#    z 0.000000 0.000000 1.765410 
# 
# From -- ./inp_files/295.got.cif
#   From: 2010.03.12/outbox.cif.g09.slc.cpg/sg111_1_cif.got.tgz:295.got - 2010.04.14 01:59:48.
