data_PCOD8308527
_publ_section_title
;
Structure prediction by ZEFSAII (Michael W. Deem and Ramdas Pophale) SiO2 
 PCOD8308527
Probable space group: P -4 21 M 
;
_chemical_formula_sum "Si O2"
_cell_formula_units_Z 38
_cell_length_a 11.769909
_cell_length_b 11.769909
_cell_length_c 14.885824
_cell_angle_alpha 90.000000
_cell_angle_beta 90.000000
_cell_angle_gamma 90.000000
_cell_volume 2062.144480
_symmetry_space_group_name_H-M "P -4 21 M "
_symmetry_group_IT_number 113
_symmetry_cell_setting 'tetragonal'
loop_
_space_group_symop_operation_xyz
x,y,z
y,-x,-z
-x,-y,z
-y,x,-z
1/2+x,1/2-y,-z
1/2-x,1/2+y,-z
1/2-y,1/2-x,z
1/2+y,1/2+x,z
loop_
_atom_site_type_symbol
_atom_site_label
_atom_site_fract_x
_atom_site_fract_y
_atom_site_fract_z
Si Si1 0.406898 0.093103 0.978543
Si Si2 0.524534 0.716562 0.316638
Si Si3 0.822024 0.677977 0.603557
Si Si4 0.324292 0.175709 0.466425
Si Si5 0.500000 0.500000 0.214808
Si Si6 0.091477 0.591477 0.810234
Si Si7 0.500000 0.000000 0.476742
Si Si8 0.535695 0.652567 0.947570
O O1 0.396647 0.103354 0.084383
O O2 0.500000 0.000000 0.949353
O O3 0.442955 0.214184 0.938985
O O4 0.390276 0.728500 0.339459
O O5 0.600444 0.742783 0.403765
O O6 0.550510 0.591270 0.283388
O O7 0.553687 0.790046 0.229897
O O8 0.755853 0.744148 0.525218
O O9 0.917651 0.582350 0.579892
O O10 0.410413 0.089587 0.524047
O O11 0.601972 0.453139 0.152578
O O12 0.000000 0.500000 0.780013
O O13 0.627864 0.590401 0.012286
#
# Coordination Sequence:
#
# PCOD8308527 Si02
#       8
#     4   8   4   4   4   4   2   8
#     4  11  23  34  59  91 111 151 208 240 297 356
#     4  10  20  35  57  84 110 145 196 240 298 353
#     4  10  19  35  58  84 111 148 190 242 309 347
#     4   9  20  35  57  85 110 148 184 246 309 345
#     4  10  21  36  53  80 116 160 186 232 291 354
#     4  10  17  34  59  85 103 135 192 260 282 337
#     4   8  18  36  54  76 118 136 176 248 278 338
#     4   9  20  39  55  79 119 156 190 242 299 338
#
# _framework density 18.427420000000001
#
# number of rings (size 3 to 8) (size 9 to 14) (size 15 to 20)
#    0.000    2.526    1.053    3.158    2.947    4.211 
#    3.789    0.000    0.000    1.263    2.737    0.000 
#    0.000    0.000    0.000    0.000    0.000    0.000 
#
# Total GULP energy -470834.355434 kJ/mol
# GULP energy per Si atom -12390.377775 kJ/mol
# Density = 1.838548 g / cm^3
# Si number density = 18.427420 Si / 1000 Ang^3
#
#
#
# Elastic Constant Matrix: (Units=GPa)
#
#
# Indices 1 2 3 4 5 6 
#
# 1 106.8576 62.6635 38.7050 0.0000 0.0000 0.0000
# 2 62.6635 106.8563 38.7048 0.0000 0.0000 0.0000
# 3 38.7050 38.7048 60.6262 0.0000 0.0000 0.0000
# 4 0.0000 0.0000 0.0000 21.3581 0.0000 0.0000
# 5 0.0000 0.0000 0.0000 0.0000 21.3580 0.0000
# 6 0.0000 0.0000 0.0000 0.0000 0.0000 28.0157
#
#
#
# Elastic Compliance Matrix: (Units=1/GPa)
#
#
# Indices 1 2 3 4 5 6 
#
# 1 0.015477 -0.007151 -0.005316 0.000000 0.000000 0.000000
# 2 -0.007151 0.015477 -0.005316 0.000000 0.000000 0.000000
# 3 -0.005316 -0.005316 0.023282 0.000000 0.000000 0.000000
# 4 0.000000 0.000000 0.000000 0.046821 0.000000 0.000000
# 5 0.000000 0.000000 0.000000 0.000000 0.046821 0.000000
# 6 0.000000 0.000000 0.000000 0.000000 0.000000 0.035694
#
#
# Mechanical properties :
#
#
# Convention : Reuss Voigt Hill
#
# Bulk Modulus (GPa) = 53.55696 61.60961 57.58328
# Shear Modulus (GPa) = 22.18676 23.09750 22.64213
#
# Velocity S-wave (km/s) = 3.47365 3.54422 3.50911
# Velocity P-wave (km/s) = 6.72422 7.08907 6.90905
#
# Compressibility (1/GPa) = 0.01867171
#
# Stress axis : x y z
#
# Youngs Moduli (GPa) = 64.61212 64.61131 42.95208
#
# Poissons Ratio (x) = 0.46202 0.22832
# Poissons Ratio (y) = 0.46202 0.22832
# Poissons Ratio (z) = 0.34346 0.34345
#
# Static dielectric constant tensor:
#      x y z
#    x 3.439580 0.000000 0.000000 
#    y 0.000000 3.439570 0.000000 
#    z 0.000000 0.000000 3.117700 
# 
# 
# High freq. dielectric constant tensor:
#      x y z
#    x 1.714730 0.000000 0.000000 
#    y 0.000000 1.714730 0.000000 
#    z 0.000000 0.000000 1.690500 
# 
# From -- ./inp_files/2230.got.cif
#   From: 2010.03.12/outbox.cif.g09.slc.cpg/sg113_cif.got.tgz:2230.got - 2010.04.14 02:06:34.
