data_PCOD8308607
_publ_section_title
;
Structure prediction by ZEFSAII (Michael W. Deem and Ramdas Pophale) SiO2 
 PCOD8308607
Probable space group: P -4 21 M 
;
_chemical_formula_sum "Si O2"
_cell_formula_units_Z 40
_cell_length_a 10.936066
_cell_length_b 10.936066
_cell_length_c 16.272168
_cell_angle_alpha 90.000000
_cell_angle_beta 90.000000
_cell_angle_gamma 90.000000
_cell_volume 1946.111256
_symmetry_space_group_name_H-M "P -4 21 M "
_symmetry_group_IT_number 113
_symmetry_cell_setting 'tetragonal'
loop_
_space_group_symop_operation_xyz
x,y,z
y,-x,-z
-x,-y,z
-y,x,-z
1/2+x,1/2-y,-z
1/2-x,1/2+y,-z
1/2-y,1/2-x,z
1/2+y,1/2+x,z
loop_
_atom_site_type_symbol
_atom_site_label
_atom_site_fract_x
_atom_site_fract_y
_atom_site_fract_z
Si Si1 0.246253 0.553928 0.413717
Si Si2 0.397256 0.602744 0.698556
Si Si3 0.253747 0.946071 0.413718
Si Si4 0.897403 0.102598 0.883649
Si Si5 0.500000 0.805035 0.999999
O O1 0.137297 0.637297 0.376912
O O2 0.277213 0.447602 0.348434
O O3 0.201858 0.499999 0.500000
O O4 0.367017 0.632983 0.431413
O O5 0.500000 0.500000 0.702277
O O6 0.277213 0.552398 0.651565
O O7 0.361083 0.638915 0.790962
O O8 0.362702 0.862702 0.376912
O O9 0.776393 0.050388 0.925906
O O10 0.949613 0.223607 0.925908
O O11 0.000000 0.000000 0.888887
O O12 0.610368 0.889633 0.966049
O O13 0.389635 0.889635 0.033948
#
# Coordination Sequence:
#
# PCOD8308607 Si02
#       5
#     8   8   8   8   8
#     4  10  19  34  58  86 118 159 201 243 293 348
#     4   9  20  35  59  89 121 155 196 249 298 348
#     4  10  19  34  58  86 118 159 201 243 293 348
#     4  11  21  39  65  94 122 159 203 252 308 361
#     4  11  23  40  64  92 125 163 200 246 302 365
#
# _framework density 20.553809999999999
#
# number of rings (size 3 to 8) (size 9 to 14) (size 15 to 20)
#    0.000    1.800    4.000    0.600    0.000    2.000 
#    0.000    8.000    0.000    0.000    0.000    0.000 
#    0.000    0.000    0.000    0.000    0.000    0.000 
#
# Total GULP energy -496023.348034 kJ/mol
# GULP energy per Si atom -12400.583701 kJ/mol
# Density = 2.050703 g / cm^3
# Si number density = 20.553810 Si / 1000 Ang^3
#
#
#
# Elastic Constant Matrix: (Units=GPa)
#
#
# Indices 1 2 3 4 5 6 
#
# 1 107.9597 64.8329 63.8648 0.0000 0.0000 0.0000
# 2 64.8329 107.9599 63.8647 0.0000 0.0000 0.0000
# 3 63.8648 63.8647 171.3541 0.0000 0.0000 0.0000
# 4 0.0000 0.0000 0.0000 4.9320 0.0000 0.0000
# 5 0.0000 0.0000 0.0000 0.0000 4.9335 0.0000
# 6 0.0000 0.0000 0.0000 0.0000 0.0000 43.4961
#
#
#
# Elastic Compliance Matrix: (Units=1/GPa)
#
#
# Indices 1 2 3 4 5 6 
#
# 1 0.015588 -0.007600 -0.002977 0.000000 0.000000 0.000000
# 2 -0.007600 0.015588 -0.002977 0.000000 0.000000 0.000000
# 3 -0.002977 -0.002977 0.008055 0.000000 0.000000 0.000000
# 4 0.000000 0.000000 0.000000 0.202757 0.000000 0.000000
# 5 0.000000 0.000000 0.000000 0.000000 0.202698 0.000000
# 6 0.000000 0.000000 0.000000 0.000000 0.000000 0.022991
#
#
# Mechanical properties :
#
#
# Convention : Reuss Voigt Hill
#
# Bulk Modulus (GPa) = 82.49181 85.82207 84.15694
# Shear Modulus (GPa) = 10.02355 23.65307 16.83831
#
# Velocity S-wave (km/s) = 2.21073 3.39601 2.86533
# Velocity P-wave (km/s) = 6.83653 7.56456 7.20974
#
# Compressibility (1/GPa) = 0.01212242
#
# Stress axis : x y z
#
# Youngs Moduli (GPa) = 64.15300 64.15324 124.14484
#
# Poissons Ratio (x) = 0.48754 0.36961
# Poissons Ratio (y) = 0.48754 0.36960
# Poissons Ratio (z) = 0.19100 0.19100
#
# Static dielectric constant tensor:
#      x y z
#    x 3.784520 0.000000 0.000000 
#    y 0.000000 3.784520 0.000000 
#    z 0.000000 0.000000 3.746020 
# 
# 
# High freq. dielectric constant tensor:
#      x y z
#    x 1.806100 0.000000 0.000000 
#    y 0.000000 1.806100 0.000000 
#    z 0.000000 0.000000 1.784970 
# 
# From -- ./inp_files/2163.got.cif
#   From: 2010.03.12/outbox.cif.g09.slc.cpg/sg113_cif.got.tgz:2163.got - 2010.04.14 02:06:34.
