data_PCOD8308421
_publ_section_title
;
Structure prediction by ZEFSAII (Michael W. Deem and Ramdas Pophale) SiO2 
 PCOD8308421
Probable space group: P -4 2 C
;
_chemical_formula_sum "Si O2"
_cell_formula_units_Z 40
_cell_length_a 8.891384
_cell_length_b 8.891384
_cell_length_c 20.517554
_cell_angle_alpha 90.000000
_cell_angle_beta 90.000000
_cell_angle_gamma 90.000000
_cell_volume 1622.050305
_symmetry_space_group_name_H-M "P -4 2 C"
_symmetry_group_IT_number 112
_symmetry_cell_setting 'tetragonal'
loop_
_space_group_symop_operation_xyz
x,y,z
y,-x,-z
-x,-y,z
-y,x,-z
x,-y,1/2-z
-x,y,1/2-z
-y,-x,1/2+z
y,x,1/2+z
loop_
_atom_site_type_symbol
_atom_site_label
_atom_site_fract_x
_atom_site_fract_y
_atom_site_fract_z
Si Si1 0.165445 0.991612 0.860262
Si Si2 0.205350 0.379697 0.078110
Si Si3 0.637881 0.391067 0.160978
Si Si4 0.176425 0.492229 0.563556
Si Si5 0.240389 0.166246 0.254569
O O1 0.295163 0.957219 0.913467
O O2 0.182654 0.853320 0.810306
O O3 0.187194 0.142711 0.820393
O O4 0.000000 0.000000 0.892996
O O5 0.225198 0.503169 0.135768
O O6 0.329574 0.246983 0.078947
O O7 0.208103 0.467476 0.010854
O O8 0.500000 0.500000 0.165171
O O9 0.614004 0.258029 0.108728
O O10 0.652083 0.310273 0.233073
O O11 0.000000 0.500000 0.580435
O O12 0.317934 0.000000 0.250000
#
# Coordination Sequence:
#
# PCOD8308421 Si02
#       5
#     8   8   8   8   8
#     4   9  21  40  71 101 133 179 228 298 363 431
#     4  11  23  44  69 100 145 184 246 295 355 440
#     4  10  23  43  72  99 141 185 240 291 353 438
#     4  11  25  42  69 102 137 195 235 300 362 421
#     4   9  20  42  72 100 137 177 228 298 370 424
#
# _framework density 24.660149000000001
#
# number of rings (size 3 to 8) (size 9 to 14) (size 15 to 20)
#    0.000    2.000    2.000    1.200    8.400    0.800 
#    0.000    9.000    0.000    0.000    0.000    0.000 
#    0.000    0.000    0.000    0.000    0.000    0.000 
#
# Total GULP energy -495581.117420 kJ/mol
# GULP energy per Si atom -12389.527935 kJ/mol
# Density = 2.460402 g / cm^3
# Si number density = 24.660149 Si / 1000 Ang^3
#
#
#
# Elastic Constant Matrix: (Units=GPa)
#
#
# Indices 1 2 3 4 5 6 
#
# 1 109.5377 41.6142 27.1158 0.0000 0.0000 0.0000
# 2 41.6142 109.5377 27.1158 0.0000 0.0000 0.0000
# 3 27.1158 27.1158 50.9954 0.0000 0.0000 0.0000
# 4 0.0000 0.0000 0.0000 37.7408 0.0000 0.0000
# 5 0.0000 0.0000 0.0000 0.0000 37.7408 0.0000
# 6 0.0000 0.0000 0.0000 0.0000 0.0000 33.2234
#
#
#
# Elastic Compliance Matrix: (Units=1/GPa)
#
#
# Indices 1 2 3 4 5 6 
#
# 1 0.011449 -0.003273 -0.004347 0.000000 0.000000 0.000000
# 2 -0.003273 0.011449 -0.004347 0.000000 0.000000 0.000000
# 3 -0.004347 -0.004347 0.024233 0.000000 0.000000 0.000000
# 4 0.000000 0.000000 0.000000 0.026497 0.000000 0.000000
# 5 0.000000 0.000000 0.000000 0.000000 0.026497 0.000000
# 6 0.000000 0.000000 0.000000 0.000000 0.000000 0.030099
#
#
# Mechanical properties :
#
#
# Convention : Reuss Voigt Hill
#
# Bulk Modulus (GPa) = 43.11265 51.30693 47.20979
# Shear Modulus (GPa) = 30.88508 33.35599 32.12054
#
# Velocity S-wave (km/s) = 3.54281 3.68180 3.61297
# Velocity P-wave (km/s) = 5.85286 6.23899 6.04901
#
# Compressibility (1/GPa) = 0.02319505
#
# Stress axis : x y z
#
# Youngs Moduli (GPa) = 87.34378 87.34378 41.26656
#
# Poissons Ratio (x) = 0.28591 0.17939
# Poissons Ratio (y) = 0.28591 0.17939
# Poissons Ratio (z) = 0.37970 0.37970
#
# Static dielectric constant tensor:
#      x y z
#    x 4.830380 0.000000 0.000000 
#    y 0.000000 4.830380 0.000000 
#    z 0.000000 0.000000 4.414320 
# 
# 
# High freq. dielectric constant tensor:
#      x y z
#    x 1.987770 0.000000 0.000000 
#    y 0.000000 1.987770 0.000000 
#    z 0.000000 0.000000 1.969430 
# 
# From -- ./inp_files/5356.got.cif
#   From: 2010.03.12/outbox.cif.g09.slc.cpg/sg112_3_cif.got.tgz:5356.got - 2010.04.14 02:02:48.
