data_PCOD8308924
_publ_section_title
;
Structure prediction by ZEFSAII (Michael W. Deem and Ramdas Pophale) SiO2 
 PCOD8308924
Probable space group: P -4 21 C
;
_chemical_formula_sum "Si O2"
_cell_formula_units_Z 40
_cell_length_a 8.981801
_cell_length_b 8.981801
_cell_length_c 23.838428
_cell_angle_alpha 90.000000
_cell_angle_beta 90.000000
_cell_angle_gamma 90.000000
_cell_volume 1923.111523
_symmetry_space_group_name_H-M "P -4 21 C"
_symmetry_group_IT_number 114
_symmetry_cell_setting 'tetragonal'
loop_
_space_group_symop_operation_xyz
x,y,z
y,-x,-z
-x,-y,z
-y,x,-z
1/2+x,1/2-y,1/2-z
1/2-x,1/2+y,1/2-z
1/2-y,1/2-x,1/2+z
1/2+y,1/2+x,1/2+z
loop_
_atom_site_type_symbol
_atom_site_label
_atom_site_fract_x
_atom_site_fract_y
_atom_site_fract_z
Si Si1 0.637839 0.903023 0.798196
Si Si2 0.626429 0.699460 0.597127
Si Si3 0.200019 0.130961 0.912623
Si Si4 0.871073 0.207333 0.493445
Si Si5 0.128667 0.878822 0.777460
O O1 0.735152 0.851078 0.850507
O O2 0.590892 0.751744 0.766275
O O3 0.500000 0.000000 0.820134
O O4 0.729974 0.019799 0.759051
O O5 0.669996 0.539893 0.571617
O O6 0.451633 0.727292 0.585515
O O7 0.725443 0.825358 0.566985
O O8 0.660342 0.701958 0.663373
O O9 0.317859 0.186114 0.957345
O O10 0.047653 0.201980 0.496797
O O11 0.000000 0.000000 0.784444
#
# Coordination Sequence:
#
# PCOD8308924 Si02
#       5
#     8   8   8   8   8
#     4  11  24  39  69  98 134 177 217 278 334 390
#     4  10  21  43  68  89 126 171 220 267 314 400
#     4  10  22  42  65  94 122 171 220 257 323 397
#     4  11  26  43  61  96 133 164 212 277 337 388
#     4  11  22  45  64 100 137 175 228 273 328 406
#
# _framework density 20.799624999999999
#
# number of rings (size 3 to 8) (size 9 to 14) (size 15 to 20)
#    0.000    1.400    4.000    2.400    5.600    5.600 
#    3.600    0.000    0.000    0.000    0.000    0.000 
#    0.000    0.000    0.000    0.000    0.000    0.000 
#
# Total GULP energy -495958.321526 kJ/mol
# GULP energy per Si atom -12398.958038 kJ/mol
# Density = 2.075228 g / cm^3
# Si number density = 20.799625 Si / 1000 Ang^3
#
#
#
# Elastic Constant Matrix: (Units=GPa)
#
#
# Indices 1 2 3 4 5 6 
#
# 1 90.6574 48.9493 48.1923 0.0000 0.0000 0.0000
# 2 48.9493 90.6574 48.1923 0.0000 0.0000 0.0000
# 3 48.1923 48.1923 95.2016 0.0000 0.0000 0.0000
# 4 0.0000 0.0000 0.0000 28.9669 0.0000 0.0000
# 5 0.0000 0.0000 0.0000 0.0000 28.9669 0.0000
# 6 0.0000 0.0000 0.0000 0.0000 0.0000 38.5432
#
#
#
# Elastic Compliance Matrix: (Units=1/GPa)
#
#
# Indices 1 2 3 4 5 6 
#
# 1 0.017494 -0.006482 -0.005574 0.000000 0.000000 0.000000
# 2 -0.006482 0.017494 -0.005574 0.000000 0.000000 0.000000
# 3 -0.005574 -0.005574 0.016147 0.000000 0.000000 0.000000
# 4 0.000000 0.000000 0.000000 0.034522 0.000000 0.000000
# 5 0.000000 0.000000 0.000000 0.000000 0.034522 0.000000
# 6 0.000000 0.000000 0.000000 0.000000 0.000000 0.025945
#
#
# Mechanical properties :
#
#
# Convention : Reuss Voigt Hill
#
# Bulk Modulus (GPa) = 62.99722 63.02044 63.00883
# Shear Modulus (GPa) = 26.78430 28.04090 27.41260
#
# Velocity S-wave (km/s) = 3.59239 3.67569 3.63428
# Velocity P-wave (km/s) = 6.89641 6.95549 6.92601
#
# Compressibility (1/GPa) = 0.01587372
#
# Stress axis : x y z
#
# Youngs Moduli (GPa) = 57.16326 57.16326 61.92957
#
# Poissons Ratio (x) = 0.37056 0.34520
# Poissons Ratio (y) = 0.37056 0.34520
# Poissons Ratio (z) = 0.31863 0.31863
#
# Static dielectric constant tensor:
#      x y z
#    x 3.897400 0.000000 0.000000 
#    y 0.000000 3.897400 0.000000 
#    z 0.000000 0.000000 3.594390 
# 
# 
# High freq. dielectric constant tensor:
#      x y z
#    x 1.819190 0.000000 0.000000 
#    y 0.000000 1.819190 0.000000 
#    z 0.000000 0.000000 1.804460 
# 
# From -- ./inp_files/3368.got.cif
#   From: 2010.03.12/outbox.cif.g09.slc.cpg/sg114_2_cif.got.tgz:3368.got - 2010.04.14 02:08:34.
