data_PCOD8308677
_publ_section_title
;
Structure prediction by ZEFSAII (Michael W. Deem and Ramdas Pophale) SiO2 
 PCOD8308677
Probable space group: P -4 21 M 
;
_chemical_formula_sum "Si O2"
_cell_formula_units_Z 56
_cell_length_a 11.192964
_cell_length_b 11.192964
_cell_length_c 21.110417
_cell_angle_alpha 90.000000
_cell_angle_beta 90.000000
_cell_angle_gamma 90.000000
_cell_volume 2644.764617
_symmetry_space_group_name_H-M "P -4 21 M "
_symmetry_group_IT_number 113
_symmetry_cell_setting 'tetragonal'
loop_
_space_group_symop_operation_xyz
x,y,z
y,-x,-z
-x,-y,z
-y,x,-z
1/2+x,1/2-y,-z
1/2-x,1/2+y,-z
1/2-y,1/2-x,z
1/2+y,1/2+x,z
loop_
_atom_site_type_symbol
_atom_site_label
_atom_site_fract_x
_atom_site_fract_y
_atom_site_fract_z
Si Si1 0.653559 0.650793 0.706650
Si Si2 0.900935 0.899635 0.849369
Si Si3 0.985797 0.807465 0.498602
Si Si4 0.494213 0.808915 0.631477
Si Si5 0.941707 0.252583 0.935059
Si Si6 0.943786 0.745994 0.066087
Si Si7 0.309520 0.006515 0.369416
O O1 0.752319 0.747682 0.689740
O O2 0.645111 0.637254 0.781241
O O3 0.527831 0.698457 0.677908
O O4 0.692684 0.525503 0.673221
O O5 0.953547 0.784671 0.886561
O O6 0.783702 0.953487 0.884131
O O7 0.000000 0.000000 0.841459
O O8 0.948072 0.737256 0.435970
O O9 0.878656 0.894267 0.518367
O O10 0.007061 0.718566 0.556341
O O11 0.608362 0.891639 0.619322
O O12 0.385806 0.885806 0.662270
O O13 0.861619 0.361619 0.906949
O O14 0.860542 0.137458 0.949265
O O15 0.997365 0.296396 0.000847
O O16 0.863761 0.636240 0.093380
O O17 0.410419 0.910419 0.354975
O O18 0.362312 0.137689 0.351045
#
# Coordination Sequence:
#
# PCOD8308677 Si02
#       7
#     8   8   8   8   8   8   8
#     4  10  22  40  58  82 120 160 203 250 301 366
#     4  10  22  38  60  86 124 162 199 250 303 362
#     4  11  22  35  56  88 120 151 196 253 312 368
#     4  10  21  38  60  84 114 157 205 253 309 367
#     4  10  20  36  61  90 120 158 203 252 308 362
#     4  10  20  36  61  90 120 158 203 252 308 362
#     4  10  21  38  60  84 114 157 205 253 309 367
#
# _framework density 21.173908000000001
#
# number of rings (size 3 to 8) (size 9 to 14) (size 15 to 20)
#    0.000    1.857    2.857    0.857    0.000    6.571 
#    0.000    0.000    0.000    0.000    0.000    0.000 
#    0.000    0.000    0.000    0.000    0.000    0.000 
#
# Total GULP energy -694353.368264 kJ/mol
# GULP energy per Si atom -12399.167290 kJ/mol
# Density = 2.112572 g / cm^3
# Si number density = 21.173908 Si / 1000 Ang^3
#
#
#
# Elastic Constant Matrix: (Units=GPa)
#
#
# Indices 1 2 3 4 5 6 
#
# 1 84.9493 52.2668 43.7200 0.0000 0.0000 0.0000
# 2 52.2668 84.9486 43.7198 0.0000 0.0000 0.0000
# 3 43.7200 43.7198 131.6192 0.0000 0.0000 0.0000
# 4 0.0000 0.0000 0.0000 26.3250 0.0000 0.0000
# 5 0.0000 0.0000 0.0000 0.0000 26.3245 0.0000
# 6 0.0000 0.0000 0.0000 0.0000 0.0000 36.5786
#
#
#
# Elastic Compliance Matrix: (Units=1/GPa)
#
#
# Indices 1 2 3 4 5 6 
#
# 1 0.019921 -0.010677 -0.003071 0.000000 0.000000 0.000000
# 2 -0.010677 0.019921 -0.003071 0.000000 0.000000 0.000000
# 3 -0.003071 -0.003071 0.009638 0.000000 0.000000 0.000000
# 4 0.000000 0.000000 0.000000 0.037987 0.000000 0.000000
# 5 0.000000 0.000000 0.000000 0.000000 0.037987 0.000000
# 6 0.000000 0.000000 0.000000 0.000000 0.000000 0.027338
#
#
# Mechanical properties :
#
#
# Convention : Reuss Voigt Hill
#
# Bulk Modulus (GPa) = 63.11602 64.54782 63.83192
# Shear Modulus (GPa) = 26.08103 28.63298 27.35700
#
# Velocity S-wave (km/s) = 3.51344 3.68132 3.59836
# Velocity P-wave (km/s) = 6.80677 6.97282 6.89030
#
# Compressibility (1/GPa) = 0.01584384
#
# Stress axis : x y z
#
# Youngs Moduli (GPa) = 50.19796 50.19757 103.75893
#
# Poissons Ratio (x) = 0.53594 0.31862
# Poissons Ratio (y) = 0.53594 0.31862
# Poissons Ratio (z) = 0.15415 0.15415
#
# Static dielectric constant tensor:
#      x y z
#    x 3.948120 0.000000 0.000000 
#    y 0.000000 3.948120 0.000000 
#    z 0.000000 0.000000 3.541040 
# 
# 
# High freq. dielectric constant tensor:
#      x y z
#    x 1.829930 0.000000 0.000000 
#    y 0.000000 1.829930 0.000000 
#    z 0.000000 0.000000 1.809970 
# 
# From -- ./inp_files/2730.got.cif
#   From: 2010.03.12/outbox.cif.g09.slc.cpg/sg113_cif.got.tgz:2730.got - 2010.04.14 02:06:34.
