data_PCOD8308469
_publ_section_title
;
Structure prediction by ZEFSAII (Michael W. Deem and Ramdas Pophale) SiO2 
 PCOD8308469
Probable space group: P -4 2 C
;
_chemical_formula_sum "Si O2"
_cell_formula_units_Z 48
_cell_length_a 14.947384
_cell_length_b 14.947384
_cell_length_c 14.151584
_cell_angle_alpha 90.000000
_cell_angle_beta 90.000000
_cell_angle_gamma 90.000000
_cell_volume 3161.807586
_symmetry_space_group_name_H-M "P -4 2 C"
_symmetry_group_IT_number 112
_symmetry_cell_setting 'tetragonal'
loop_
_space_group_symop_operation_xyz
x,y,z
y,-x,-z
-x,-y,z
-y,x,-z
x,-y,1/2-z
-x,y,1/2-z
-y,-x,1/2+z
y,x,1/2+z
loop_
_atom_site_type_symbol
_atom_site_label
_atom_site_fract_x
_atom_site_fract_y
_atom_site_fract_z
Si Si1 0.500000 0.106197 0.352731
Si Si2 0.894483 0.355164 0.996611
Si Si3 0.154951 0.845049 0.500000
Si Si4 0.105197 0.000000 0.857397
Si Si5 0.500000 0.893340 0.643817
Si Si6 0.644836 0.894483 0.496611
O O1 0.500000 0.151156 0.250000
O O2 0.588529 0.137594 0.406507
O O3 0.411471 0.137594 0.406507
O O4 0.500000 0.000000 0.346785
O O5 0.860913 0.409285 0.090076
O O6 0.853683 0.258762 0.977431
O O7 0.000000 0.344315 0.002951
O O8 0.134391 0.909770 0.588628
O O9 0.146317 0.741238 0.522569
O O10 0.090230 0.865609 0.411372
O O11 0.145036 0.000000 0.750000
O O12 0.000000 0.000000 0.852330
O O13 0.500000 0.854025 0.750000
O O14 0.590715 0.860913 0.590076
O O15 0.500000 0.000000 0.644380
#
# Coordination Sequence:
#
# PCOD8308469 Si02
#       6
#     8   8   8   8   8   8
#     4   8  15  29  46  63  83 110 151 196 237 280
#     4   9  17  28  46  65  87 122 153 191 239 270
#     4  12  19  34  46  66 100 125 164 202 224 276
#     4  11  22  34  46  59  88 137 173 196 223 251
#     4   8  15  29  46  65  85 110 151 196 241 288
#     4   9  17  28  46  65  87 122 153 191 239 270
#
# _framework density 15.181189
#
# number of rings (size 3 to 8) (size 9 to 14) (size 15 to 20)
#    0.000    2.500    3.333    2.000    0.000    2.667 
#    0.000    3.333    0.000    0.000    0.000    0.000 
#    0.000   10.667    0.000   12.000    0.000    0.000 
#
# Total GULP energy -594662.820103 kJ/mol
# GULP energy per Si atom -12388.808752 kJ/mol
# Density = 1.514664 g / cm^3
# Si number density = 15.181189 Si / 1000 Ang^3
#
#
#
# Elastic Constant Matrix: (Units=GPa)
#
#
# Indices 1 2 3 4 5 6 
#
# 1 102.2657 29.3605 53.1204 0.0000 0.0000 0.0000
# 2 29.3605 102.2657 53.1204 0.0000 0.0000 0.0000
# 3 53.1204 53.1204 151.6324 0.0000 0.0000 0.0000
# 4 0.0000 0.0000 0.0000 6.9564 0.0000 0.0000
# 5 0.0000 0.0000 0.0000 0.0000 6.9564 0.0000
# 6 0.0000 0.0000 0.0000 0.0000 0.0000 7.9894
#
#
#
# Elastic Compliance Matrix: (Units=1/GPa)
#
#
# Indices 1 2 3 4 5 6 
#
# 1 0.012154 -0.001562 -0.003711 0.000000 0.000000 0.000000
# 2 -0.001562 0.012154 -0.003711 0.000000 0.000000 0.000000
# 3 -0.003711 -0.003711 0.009195 0.000000 0.000000 0.000000
# 4 0.000000 0.000000 0.000000 0.143752 0.000000 0.000000
# 5 0.000000 0.000000 0.000000 0.000000 0.143752 0.000000
# 6 0.000000 0.000000 0.000000 0.000000 0.000000 0.125166
#
#
# Mechanical properties :
#
#
# Convention : Reuss Voigt Hill
#
# Bulk Modulus (GPa) = 64.36437 69.70738 67.03587
# Shear Modulus (GPa) = 10.65372 19.08462 14.86917
#
# Velocity S-wave (km/s) = 2.65197 3.54944 3.13301
# Velocity P-wave (km/s) = 7.20186 7.92557 7.57236
#
# Compressibility (1/GPa) = 0.01553655
#
# Stress axis : x y z
#
# Youngs Moduli (GPa) = 82.27467 82.27467 108.75682
#
# Poissons Ratio (x) = 0.12852 0.40357
# Poissons Ratio (y) = 0.12852 0.40357
# Poissons Ratio (z) = 0.30530 0.30530
#
# Static dielectric constant tensor:
#      x y z
#    x 0.429610 0.000000 0.000000 
#    y 0.000000 0.429610 0.000000 
#    z 0.000000 0.000000 3.496390 
# 
# 
# High freq. dielectric constant tensor:
#      x y z
#    x 1.554150 0.000000 0.000000 
#    y 0.000000 1.554150 0.000000 
#    z 0.000000 0.000000 1.592140 
# 
# From -- ./inp_files/3395.got.cif
#   From: 2010.03.12/outbox.cif.g09.slc.cpg/sg112_2_cif.got.tgz:3395.got - 2010.04.14 02:02:48.
