data_PCOD8308433
_publ_section_title
;
Structure prediction by ZEFSAII (Michael W. Deem and Ramdas Pophale) SiO2 
 PCOD8308433
Probable space group: P -4 2 C
;
_chemical_formula_sum "Si O2"
_cell_formula_units_Z 48
_cell_length_a 7.913177
_cell_length_b 7.913177
_cell_length_c 30.769321
_cell_angle_alpha 90.000000
_cell_angle_beta 90.000000
_cell_angle_gamma 90.000000
_cell_volume 1926.724734
_symmetry_space_group_name_H-M "P -4 2 C"
_symmetry_group_IT_number 112
_symmetry_cell_setting 'tetragonal'
loop_
_space_group_symop_operation_xyz
x,y,z
y,-x,-z
-x,-y,z
-y,x,-z
x,-y,1/2-z
-x,y,1/2-z
-y,-x,1/2+z
y,x,1/2+z
loop_
_atom_site_type_symbol
_atom_site_label
_atom_site_fract_x
_atom_site_fract_y
_atom_site_fract_z
Si Si1 0.056759 0.312861 0.701065
Si Si2 0.430772 0.315648 0.665560
Si Si3 0.334441 0.791714 0.055997
Si Si4 0.888193 0.659919 0.089494
Si Si5 0.679950 0.169701 0.476660
Si Si6 0.172847 0.228621 0.354521
O O1 0.260386 0.283468 0.694861
O O2 0.000000 0.500000 0.686565
O O3 0.000000 0.278463 0.750000
O O4 0.942778 0.185786 0.672875
O O5 0.500000 0.500000 0.675514
O O6 0.383082 0.286021 0.615070
O O7 0.596396 0.193218 0.674138
O O8 0.517170 0.727635 0.040639
O O9 0.315223 0.767669 0.107423
O O10 0.319580 0.984096 0.041658
O O11 0.188635 0.689622 0.029243
O O12 0.846721 0.743275 0.043507
O O13 0.000000 0.500000 0.078923
O O14 0.990597 0.781896 0.122469
#
# Coordination Sequence:
#
# PCOD8308433 Si02
#       6
#     8   8   8   8   8   8
#     4  11  25  45  72 111 143 182 240 304 379 459
#     4  11  22  42  73 101 143 186 237 297 360 443
#     4  11  26  42  68 101 144 188 244 301 362 436
#     4  10  24  43  72 101 144 188 242 294 364 438
#     4  11  25  43  66 100 142 190 241 302 360 421
#     4  11  24  45  71 106 138 191 243 298 373 438
#
# _framework density 24.912742999999999
#
# number of rings (size 3 to 8) (size 9 to 14) (size 15 to 20)
#    0.000    1.167    1.667    3.000    9.333    5.333 
#    0.000    1.667    0.000    3.000    0.000    0.000 
#    0.000    0.000    0.000    0.000    0.000    0.000 
#
# Total GULP energy -594765.316848 kJ/mol
# GULP energy per Si atom -12390.944101 kJ/mol
# Density = 2.485604 g / cm^3
# Si number density = 24.912743 Si / 1000 Ang^3
#
#
#
# Elastic Constant Matrix: (Units=GPa)
#
#
# Indices 1 2 3 4 5 6 
#
# 1 114.5423 33.1620 41.1718 0.0000 0.0000 0.0000
# 2 33.1620 114.5423 41.1718 0.0000 0.0000 0.0000
# 3 41.1718 41.1718 103.6521 0.0000 0.0000 0.0000
# 4 0.0000 0.0000 0.0000 27.9595 0.0000 0.0000
# 5 0.0000 0.0000 0.0000 0.0000 27.9595 0.0000
# 6 0.0000 0.0000 0.0000 0.0000 0.0000 32.7273
#
#
#
# Elastic Compliance Matrix: (Units=1/GPa)
#
#
# Indices 1 2 3 4 5 6 
#
# 1 0.010492 -0.001796 -0.003454 0.000000 0.000000 0.000000
# 2 -0.001796 0.010492 -0.003454 0.000000 0.000000 0.000000
# 3 -0.003454 -0.003454 0.012392 0.000000 0.000000 0.000000
# 4 0.000000 0.000000 0.000000 0.035766 0.000000 0.000000
# 5 0.000000 0.000000 0.000000 0.000000 0.035766 0.000000
# 6 0.000000 0.000000 0.000000 0.000000 0.000000 0.030556
#
#
# Mechanical properties :
#
#
# Convention : Reuss Voigt Hill
#
# Bulk Modulus (GPa) = 62.62899 62.63868 62.63384
# Shear Modulus (GPa) = 31.60673 32.21132 31.90903
#
# Velocity S-wave (km/s) = 3.56574 3.59968 3.58275
# Velocity P-wave (km/s) = 6.49204 6.51727 6.50467
#
# Compressibility (1/GPa) = 0.01596705
#
# Stress axis : x y z
#
# Youngs Moduli (GPa) = 95.31112 95.31112 80.69925
#
# Poissons Ratio (x) = 0.17118 0.27875
# Poissons Ratio (y) = 0.17118 0.27875
# Poissons Ratio (z) = 0.32922 0.32922
#
# Static dielectric constant tensor:
#      x y z
#    x 4.941690 0.000000 0.000000 
#    y 0.000000 4.941690 0.000000 
#    z 0.000000 0.000000 4.227130 
# 
# 
# High freq. dielectric constant tensor:
#      x y z
#    x 2.000390 0.000000 0.000000 
#    y 0.000000 2.000390 0.000000 
#    z 0.000000 0.000000 1.968610 
# 
# From -- ./inp_files/6274.got.cif
#   From: 2010.03.12/outbox.cif.g09.slc.cpg/sg112_4_cif.got.tgz:6274.got - 2010.04.14 02:02:48.
