data_PCOD8308791
_publ_section_title
;
Structure prediction by ZEFSAII (Michael W. Deem and Ramdas Pophale) SiO2 
 PCOD8308791
Probable space group: P -4 21 M 
;
_chemical_formula_sum "Si O2"
_cell_formula_units_Z 20
_cell_length_a 9.517726
_cell_length_b 9.517726
_cell_length_c 12.708797
_cell_angle_alpha 90.000000
_cell_angle_beta 90.000000
_cell_angle_gamma 90.000000
_cell_volume 1151.253169
_symmetry_space_group_name_H-M "P -4 21 M "
_symmetry_group_IT_number 113
_symmetry_cell_setting 'tetragonal'
loop_
_space_group_symop_operation_xyz
x,y,z
y,-x,-z
-x,-y,z
-y,x,-z
1/2+x,1/2-y,-z
1/2-x,1/2+y,-z
1/2-y,1/2-x,z
1/2+y,1/2+x,z
loop_
_atom_site_type_symbol
_atom_site_label
_atom_site_fract_x
_atom_site_fract_y
_atom_site_fract_z
Si Si1 0.000000 0.000000 0.250000
Si Si2 0.336001 0.606134 0.440101
Si Si3 0.164001 0.106132 0.059899
O O1 0.118958 0.074273 0.179400
O O2 0.925728 0.118958 0.320599
O O3 0.460603 0.691517 0.498202
O O4 0.193682 0.693682 0.440255
O O5 0.306323 0.193678 0.059744
O O6 0.039401 0.191516 0.001797
#
# Coordination Sequence:
#
# PCOD8308791 Si02
#       3
#     4   8   8
#     4   8  18  32  52  74 100 128 162 204 244 286
#     4   9  19  35  52  72 100 131 163 201 244 290
#     4   9  19  35  52  72 100 131 163 201 244 290
#
# _framework density 17.372375000000002
#
# number of rings (size 3 to 8) (size 9 to 14) (size 15 to 20)
#    0.000    4.000    0.000    0.000    0.000   14.400 
#    0.000    0.000    0.000    0.000    0.000    0.000 
#    0.000    0.000    0.000    0.000    0.000    0.000 
#
# Total GULP energy -247917.708227 kJ/mol
# GULP energy per Si atom -12395.885411 kJ/mol
# Density = 1.733283 g / cm^3
# Si number density = 17.372375 Si / 1000 Ang^3
#
#
#
# Elastic Constant Matrix: (Units=GPa)
#
#
# Indices 1 2 3 4 5 6 
#
# 1 27.1373 0.6454 6.2533 0.0000 0.0000 0.0000
# 2 0.6454 27.1416 6.2542 0.0000 0.0000 0.0000
# 3 6.2533 6.2542 116.7259 0.0000 0.0000 0.0000
# 4 0.0000 0.0000 0.0000 11.1502 0.0000 0.0000
# 5 0.0000 0.0000 0.0000 0.0000 11.1501 0.0000
# 6 0.0000 0.0000 0.0000 0.0000 0.0000 60.3334
#
#
#
# Elastic Compliance Matrix: (Units=1/GPa)
#
#
# Indices 1 2 3 4 5 6 
#
# 1 0.037315 -0.000432 -0.001976 0.000000 0.000000 0.000000
# 2 -0.000432 0.037309 -0.001976 0.000000 0.000000 0.000000
# 3 -0.001976 -0.001976 0.008779 0.000000 0.000000 0.000000
# 4 0.000000 0.000000 0.000000 0.089685 0.000000 0.000000
# 5 0.000000 0.000000 0.000000 0.000000 0.089685 0.000000
# 6 0.000000 0.000000 0.000000 0.000000 0.000000 0.016575
#
#
# Mechanical properties :
#
#
# Convention : Reuss Voigt Hill
#
# Bulk Modulus (GPa) = 13.39843 21.92341 17.66092
# Shear Modulus (GPa) = 15.97475 27.05020 21.51248
#
# Velocity S-wave (km/s) = 3.03570 3.95027 3.52279
# Velocity P-wave (km/s) = 4.47398 5.78388 5.17058
#
# Compressibility (1/GPa) = 0.07463562
#
# Stress axis : x y z
#
# Youngs Moduli (GPa) = 26.79873 26.80294 113.91069
#
# Poissons Ratio (x) = 0.01158 0.22508
# Poissons Ratio (y) = 0.01158 0.22508
# Poissons Ratio (z) = 0.05295 0.05296
#
# Static dielectric constant tensor:
#      x y z
#    x 2.955660 0.000000 0.000000 
#    y 0.000000 2.955650 0.000000 
#    z 0.000000 0.000000 3.368600 
# 
# 
# High freq. dielectric constant tensor:
#      x y z
#    x 1.653250 0.000000 0.000000 
#    y 0.000000 1.653250 0.000000 
#    z 0.000000 0.000000 1.687670 
# 
# From -- ./inp_files/403.got.cif
#   From: 2010.03.12/outbox.cif.g09.slc.cpg/sg113_cif.got.tgz:403.got - 2010.04.14 02:06:34.
