data_PCOD8308029
_publ_section_title
;
Structure prediction by ZEFSAII (Michael W. Deem and Ramdas Pophale) SiO2 
 PCOD8308029
Probable space group: I 41 C D
;
_chemical_formula_sum "Si O2"
_cell_formula_units_Z 112
_cell_length_a 32.850634
_cell_length_b 32.850634
_cell_length_c 4.956126
_cell_angle_alpha 90.000000
_cell_angle_beta 90.000000
_cell_angle_gamma 90.000000
_cell_volume 5348.473523
_symmetry_space_group_name_H-M "I 41 C D"
_symmetry_group_IT_number 110
_symmetry_cell_setting 'tetragonal'
loop_
_space_group_symop_operation_xyz
x,y,z
-y,1/2+x,1/4+z
-x,-y,z
y,1/2-x,1/4+z
-x,y,1/2+z
x,-y,1/2+z
1/2-y,-x,1/4+z
1/2+y,x,1/4+z
1/2+x,1/2+y,1/2+z
1/2-y,x,3/4+z
1/2-x,1/2-y,1/2+z
1/2+y,-x,3/4+z
1/2-x,1/2+y,z
1/2+x,1/2-y,z
-y,1/2-x,3/4+z
y,1/2+x,3/4+z
loop_
_atom_site_type_symbol
_atom_site_label
_atom_site_fract_x
_atom_site_fract_y
_atom_site_fract_z
Si Si1 0.221385 0.860512 0.307990
Si Si2 0.472624 0.611624 0.438545
Si Si3 0.313447 0.851560 0.303786
Si Si4 0.096320 0.822388 0.047871
Si Si5 0.910063 0.729054 0.545819
Si Si6 0.525526 0.164633 0.604409
Si Si7 0.073886 0.971751 0.913002
O O1 0.266263 0.843806 0.365643
O O2 0.189642 0.827477 0.411246
O O3 0.213238 0.900040 0.495728
O O4 0.220024 0.871388 0.991352
O O5 0.510711 0.617375 0.637618
O O6 0.439194 0.645609 0.499652
O O7 0.454643 0.566475 0.470547
O O8 0.332111 0.866216 0.590803
O O9 0.325256 0.888114 0.102923
O O10 0.078376 0.776599 0.019392
O O11 0.945731 0.702346 0.674259
O O12 0.485731 0.168280 0.790430
O O13 0.545185 0.120449 0.669076
O O14 0.065036 0.992773 0.627730
#
# Coordination Sequence:
#
# PCOD8308029 Si02
#       7
#    16  16  16  16  16  16  16
#     4  10  21  36  59  88 121 159 204 241 295 358
#     4  12  26  42  63  92 119 163 211 245 316 381
#     4  10  21  39  60  89 122 161 203 249 301 351
#     4  10  23  41  60  90 126 157 203 253 300 364
#     4  10  21  38  60  90 121 160 198 244 304 361
#     4  10  21  37  58  89 118 150 197 241 302 360
#     4  10  23  41  60  88 123 153 201 260 303 362
#
# _framework density 20.940555
#
# number of rings (size 3 to 8) (size 9 to 14) (size 15 to 20)
#    0.000    1.714    0.000    3.429    4.000    2.857 
#    0.000    4.286    0.000    0.000    0.000    0.000 
#    0.000    0.000    0.000    0.000    0.000    0.000 
#
# Total GULP energy -694140.479109 kJ/mol
# GULP energy per Si atom -12395.365698 kJ/mol
# Density = 2.089289 g / cm^3
# Si number density = 20.940555 Si / 1000 Ang^3
#
#
#
# Elastic Constant Matrix: (Units=GPa)
#
#
# Indices 1 2 3 4 5 6 
#
# 1 90.3850 59.4795 16.9083 0.0000 0.0000 0.0000
# 2 59.4795 90.3850 16.9083 0.0000 0.0000 0.0000
# 3 16.9083 16.9083 85.4503 0.0000 0.0000 0.0000
# 4 0.0000 0.0000 0.0000 29.2485 0.0000 0.0000
# 5 0.0000 0.0000 0.0000 0.0000 29.2485 0.0000
# 6 0.0000 0.0000 0.0000 0.0000 0.0000 24.6054
#
#
#
# Elastic Compliance Matrix: (Units=1/GPa)
#
#
# Indices 1 2 3 4 5 6 
#
# 1 0.019671 -0.012686 -0.001382 0.000000 0.000000 0.000000
# 2 -0.012686 0.019671 -0.001382 0.000000 0.000000 0.000000
# 3 -0.001382 -0.001382 0.012250 0.000000 0.000000 0.000000
# 4 0.000000 0.000000 0.000000 0.034190 0.000000 0.000000
# 5 0.000000 0.000000 0.000000 0.000000 0.034190 0.000000
# 6 0.000000 0.000000 0.000000 0.000000 0.000000 0.040642
#
#
# Mechanical properties :
#
#
# Convention : Reuss Voigt Hill
#
# Bulk Modulus (GPa) = 48.33125 50.31248 49.32187
# Shear Modulus (GPa) = 25.20046 28.14878 26.67462
#
# Velocity S-wave (km/s) = 3.47281 3.67034 3.57294
# Velocity P-wave (km/s) = 6.26186 6.48386 6.37382
#
# Compressibility (1/GPa) = 0.02069055
#
# Stress axis : x y z
#
# Youngs Moduli (GPa) = 50.83724 50.83724 81.63493
#
# Poissons Ratio (x) = 0.64492 0.11282
# Poissons Ratio (y) = 0.64492 0.11282
# Poissons Ratio (z) = 0.07026 0.07026
#
# Static dielectric constant tensor:
#      x y z
#    x 3.641700 0.000000 0.000000 
#    y 0.000000 3.641700 0.000000 
#    z 0.000000 0.000000 4.043000 
# 
# 
# High freq. dielectric constant tensor:
#      x y z
#    x 1.810430 0.000000 0.000000 
#    y 0.000000 1.810430 0.000000 
#    z 0.000000 0.000000 1.843380 
# 
# From -- ./inp_files/165.got.cif
#   From: 2010.03.12/outbox.cif.g09.slc.cpg/sg110_1_cif.got.tgz:165.got - 2010.04.14 01:58:01.
