data_PCOD8308244
_publ_section_title
;
Structure prediction by ZEFSAII (Michael W. Deem and Ramdas Pophale) SiO2 
 PCOD8308244
Probable space group: P -4 2 M 
;
_chemical_formula_sum "Si O2"
_cell_formula_units_Z 64
_cell_length_a 12.469769
_cell_length_b 12.469769
_cell_length_c 24.373766
_cell_angle_alpha 90.000000
_cell_angle_beta 90.000000
_cell_angle_gamma 90.000000
_cell_volume 3790.002130
_symmetry_space_group_name_H-M "P -4 2 M "
_symmetry_group_IT_number 111
_symmetry_cell_setting 'tetragonal'
loop_
_space_group_symop_operation_xyz
x,y,z
y,-x,-z
-x,-y,z
-y,x,-z
x,-y,-z
-x,y,-z
-y,-x,z
y,x,z
loop_
_atom_site_type_symbol
_atom_site_label
_atom_site_fract_x
_atom_site_fract_y
_atom_site_fract_z
Si Si1 0.499998 0.872354 0.795618
Si Si2 0.870716 0.686893 1.000000
Si Si3 0.208001 0.614780 0.500000
Si Si4 0.880781 0.708181 0.397175
Si Si5 0.875182 0.700464 0.725802
Si Si6 0.880780 0.291822 0.397175
Si Si7 0.700468 0.124815 0.725803
Si Si8 0.500000 0.126453 0.081606
O O1 0.606176 0.831195 0.764706
O O2 0.393819 0.831197 0.764707
O O3 0.499999 0.824805 0.857193
O O4 0.500000 0.000000 0.795231
O O5 0.795465 0.795465 1.000000
O O6 0.839654 0.611152 0.051781
O O7 0.839654 0.611152 0.948219
O O8 0.000000 0.717050 0.000000
O O9 0.264291 0.500000 0.500000
O O10 0.300827 0.699174 0.500000
O O11 0.136223 0.621298 0.555037
O O12 0.136221 0.621297 0.444964
O O13 0.809863 0.809863 0.410908
O O14 0.856524 0.660112 0.336783
O O15 0.000001 0.752635 0.398901
O O16 0.808375 0.808375 0.737990
O O17 0.856525 0.660106 0.663217
O O18 0.999998 0.726497 0.737280
O O19 0.809860 0.190141 0.410907
O O20 0.808381 0.191620 0.737992
O O21 0.500000 0.000000 0.083619
#
# Coordination Sequence:
#
# PCOD8308244 Si02
#       8
#     8   8   8   8   8   8   8   8
#     4   9  17  30  49  70  94 129 170 205 236 276
#     4   9  17  30  50  76 105 133 164 202 242 285
#     4  10  21  34  48  66  88 116 153 196 242 292
#     4   9  18  31  46  68  95 121 151 186 230 285
#     4   9  18  31  48  71  98 127 160 200 244 291
#     4   9  18  31  46  68  95 121 151 186 230 285
#     4   9  18  31  48  71  98 127 160 200 244 291
#     4   8  16  31  48  68  97 136 174 198 227 281
#
# _framework density 16.886534000000001
#
# number of rings (size 3 to 8) (size 9 to 14) (size 15 to 20)
#    0.000    3.000    0.000    1.125    1.750    2.750 
#    0.000    2.500    0.000    5.625    0.000   10.500 
#    0.000    0.000    0.000    0.000    0.000    0.000 
#
# Total GULP energy -792920.376890 kJ/mol
# GULP energy per Si atom -12389.380889 kJ/mol
# Density = 1.684810 g / cm^3
# Si number density = 16.886534 Si / 1000 Ang^3
#
#
#
# Elastic Constant Matrix: (Units=GPa)
#
#
# Indices 1 2 3 4 5 6 
#
# 1 82.3200 39.6748 49.9166 0.0000 0.0000 0.0000
# 2 39.6748 82.3184 49.9162 0.0000 0.0000 0.0000
# 3 49.9166 49.9162 138.8915 0.0000 0.0000 0.0000
# 4 0.0000 0.0000 0.0000 19.4391 0.0000 0.0000
# 5 0.0000 0.0000 0.0000 0.0000 19.4390 0.0000
# 6 0.0000 0.0000 0.0000 0.0000 0.0000 8.3713
#
#
#
# Elastic Compliance Matrix: (Units=1/GPa)
#
#
# Indices 1 2 3 4 5 6 
#
# 1 0.017531 -0.005919 -0.004173 0.000000 0.000000 0.000000
# 2 -0.005919 0.017531 -0.004173 0.000000 0.000000 0.000000
# 3 -0.004173 -0.004173 0.010200 0.000000 0.000000 0.000000
# 4 0.000000 0.000000 0.000000 0.051443 0.000000 0.000000
# 5 0.000000 0.000000 0.000000 0.000000 0.051443 0.000000
# 6 0.000000 0.000000 0.000000 0.000000 0.000000 0.119455
#
#
# Mechanical properties :
#
#
# Convention : Reuss Voigt Hill
#
# Bulk Modulus (GPa) = 59.76989 64.72723 62.24856
# Shear Modulus (GPa) = 16.57219 20.38472 18.47845
#
# Velocity S-wave (km/s) = 3.13610 3.47819 3.31157
# Velocity P-wave (km/s) = 6.97032 7.38541 7.18087
#
# Compressibility (1/GPa) = 0.01673083
#
# Stress axis : x y z
#
# Youngs Moduli (GPa) = 57.04214 57.04096 98.04280
#
# Poissons Ratio (x) = 0.33761 0.40917
# Poissons Ratio (y) = 0.33762 0.40917
# Poissons Ratio (z) = 0.23806 0.23806
#
# Static dielectric constant tensor:
#      x y z
#    x 2.986500 0.000000 0.000000 
#    y 0.000000 2.986500 0.000000 
#    z 0.000000 0.000000 3.768950 
# 
# 
# High freq. dielectric constant tensor:
#      x y z
#    x 1.630600 0.000000 0.000000 
#    y 0.000000 1.630600 0.000000 
#    z 0.000000 0.000000 1.663140 
# 
# From -- ./inp_files/4250.got.cif
#   From: 2010.03.12/outbox.cif.g09.slc.cpg/sg111_3_cif.got.tgz:4250.got - 2010.04.14 01:59:48.
