data_PCOD8308218
_publ_section_title
;
Structure prediction by ZEFSAII (Michael W. Deem and Ramdas Pophale) SiO2 
 PCOD8308218
Probable space group: P -4 2 M 
;
_chemical_formula_sum "Si O2"
_cell_formula_units_Z 56
_cell_length_a 12.321573
_cell_length_b 12.321573
_cell_length_c 21.631244
_cell_angle_alpha 90.000000
_cell_angle_beta 90.000000
_cell_angle_gamma 90.000000
_cell_volume 3284.080582
_symmetry_space_group_name_H-M "P -4 2 M "
_symmetry_group_IT_number 111
_symmetry_cell_setting 'tetragonal'
loop_
_space_group_symop_operation_xyz
x,y,z
y,-x,-z
-x,-y,z
-y,x,-z
x,-y,-z
-x,y,-z
-y,-x,z
y,x,z
loop_
_atom_site_type_symbol
_atom_site_label
_atom_site_fract_x
_atom_site_fract_y
_atom_site_fract_z
Si Si1 0.186390 0.369962 1.000000
Si Si2 0.629586 0.000001 0.768547
Si Si3 0.796577 0.378420 0.692407
Si Si4 0.701070 0.124991 0.568608
Si Si5 0.203422 0.378418 0.692408
Si Si6 0.627982 0.000000 0.906944
Si Si7 0.701070 0.875010 0.568608
O O1 0.296872 0.296872 1.000000
O O2 0.111477 0.337523 0.941217
O O3 0.215958 0.500000 0.000000
O O4 0.111477 0.337523 0.058783
O O5 0.672376 0.894113 0.732662
O O6 0.677383 0.000001 0.837998
O O7 0.500000 0.000000 0.767360
O O8 0.672375 0.105889 0.732662
O O9 0.689944 0.310057 0.706045
O O10 0.827653 0.380311 0.619790
O O11 0.770162 0.500001 0.713460
O O12 0.817099 0.182902 0.574790
O O13 0.650629 0.143848 0.500000
O O14 0.722794 0.000000 0.581517
O O15 0.310054 0.310054 0.706047
O O16 0.172348 0.380308 0.619790
O O17 0.500000 0.000000 0.904037
O O18 0.817101 0.817101 0.574789
#
# Coordination Sequence:
#
# PCOD8308218 Si02
#       7
#     8   8   8   8   8   8   8
#     4   9  17  30  50  78 107 135 168 202 238 281
#     4   9  17  32  52  71  93 126 168 208 241 279
#     4  10  20  33  49  71  98 127 162 202 245 296
#     4   9  17  29  46  69  96 126 161 203 252 301
#     4  10  20  33  49  71  98 127 162 202 245 296
#     4   8  16  31  50  71  98 134 170 199 233 283
#     4   9  17  29  46  69  96 126 161 203 252 301
#
# _framework density 17.051957000000002
#
# number of rings (size 3 to 8) (size 9 to 14) (size 15 to 20)
#    0.000    2.857    1.429    0.857    0.000    2.429 
#    0.000    2.857    0.000    3.857    0.000   16.000 
#    0.000    0.000    0.000    0.000    0.000    0.000 
#
# Total GULP energy -694002.856675 kJ/mol
# GULP energy per Si atom -12392.908155 kJ/mol
# Density = 1.701315 g / cm^3
# Si number density = 17.051957 Si / 1000 Ang^3
#
#
#
# Elastic Constant Matrix: (Units=GPa)
#
#
# Indices 1 2 3 4 5 6 
#
# 1 84.1056 48.9115 37.8040 0.0000 0.0000 0.0000
# 2 48.9115 84.1040 37.8045 0.0000 0.0000 0.0000
# 3 37.8040 37.8045 111.7221 0.0000 0.0000 0.0000
# 4 0.0000 0.0000 0.0000 16.1409 0.0000 0.0000
# 5 0.0000 0.0000 0.0000 0.0000 16.1411 0.0000
# 6 0.0000 0.0000 0.0000 0.0000 0.0000 12.3420
#
#
#
# Elastic Compliance Matrix: (Units=1/GPa)
#
#
# Indices 1 2 3 4 5 6 
#
# 1 0.018861 -0.009553 -0.003150 0.000000 0.000000 0.000000
# 2 -0.009553 0.018862 -0.003150 0.000000 0.000000 0.000000
# 3 -0.003150 -0.003150 0.011082 0.000000 0.000000 0.000000
# 4 0.000000 0.000000 0.000000 0.061955 0.000000 0.000000
# 5 0.000000 0.000000 0.000000 0.000000 0.061954 0.000000
# 6 0.000000 0.000000 0.000000 0.000000 0.000000 0.081024
#
#
# Mechanical properties :
#
#
# Convention : Reuss Voigt Hill
#
# Bulk Modulus (GPa) = 58.47949 58.77462 58.62705
# Shear Modulus (GPa) = 17.17374 19.28558 18.22966
#
# Velocity S-wave (km/s) = 3.17699 3.36667 3.27320
# Velocity P-wave (km/s) = 6.91571 7.04666 6.98149
#
# Compressibility (1/GPa) = 0.01710001
#
# Stress axis : x y z
#
# Youngs Moduli (GPa) = 53.01923 53.01773 90.23358
#
# Poissons Ratio (x) = 0.50649 0.28419
# Poissons Ratio (y) = 0.50650 0.28422
# Poissons Ratio (z) = 0.16699 0.16700
#
# Static dielectric constant tensor:
#      x y z
#    x 2.966340 0.000000 0.000000 
#    y 0.000000 2.966340 0.000000 
#    z 0.000000 0.000000 3.675470 
# 
# 
# High freq. dielectric constant tensor:
#      x y z
#    x 1.637410 0.000000 0.000000 
#    y 0.000000 1.637410 0.000000 
#    z 0.000000 0.000000 1.666690 
# 
# From -- ./inp_files/3960.got.cif
#   From: 2010.03.12/outbox.cif.g09.slc.cpg/sg111_2_cif.got.tgz:3960.got - 2010.04.14 01:59:48.
