data_PCOD8308868
_publ_section_title
;
Structure prediction by ZEFSAII (Michael W. Deem and Ramdas Pophale) SiO2 
 PCOD8308868
Probable space group: P -4 21 C
;
_chemical_formula_sum "Si O2"
_cell_formula_units_Z 36
_cell_length_a 10.774820
_cell_length_b 10.774820
_cell_length_c 13.604564
_cell_angle_alpha 90.000000
_cell_angle_beta 90.000000
_cell_angle_gamma 90.000000
_cell_volume 1579.445612
_symmetry_space_group_name_H-M "P -4 21 C"
_symmetry_group_IT_number 114
_symmetry_cell_setting 'tetragonal'
loop_
_space_group_symop_operation_xyz
x,y,z
y,-x,-z
-x,-y,z
-y,x,-z
1/2+x,1/2-y,1/2-z
1/2-x,1/2+y,1/2-z
1/2-y,1/2-x,1/2+z
1/2+y,1/2+x,1/2+z
loop_
_atom_site_type_symbol
_atom_site_label
_atom_site_fract_x
_atom_site_fract_y
_atom_site_fract_z
Si Si1 0.221803 0.136465 0.418544
Si Si2 0.000000 0.000000 0.310987
Si Si3 0.817367 0.617858 0.078939
Si Si4 0.705074 0.642961 0.286481
Si Si5 0.299849 0.471793 0.480056
O O1 0.187206 0.210160 0.516622
O O2 0.283802 0.221255 0.334351
O O3 0.100308 0.067532 0.378132
O O4 0.319913 0.028396 0.447151
O O5 0.935846 0.106897 0.244215
O O6 0.796836 0.636327 0.194569
O O7 0.948494 0.681642 0.050773
O O8 0.745051 0.538269 0.366930
O O9 0.358208 0.603020 0.504620
#
# Coordination Sequence:
#
# PCOD8308868 Si02
#       5
#     8   4   8   8   8
#     4  10  21  39  63  97 123 167 217 270 319 383
#     4  10  20  39  69  90 130 174 215 266 329 390
#     4  10  21  38  62  91 128 158 218 267 318 387
#     4  10  22  35  63  96 121 167 217 256 326 389
#     4  10  22  39  62  90 124 168 214 267 327 396
#
# _framework density 22.792808000000001
#
# number of rings (size 3 to 8) (size 9 to 14) (size 15 to 20)
#    0.000    2.000    0.000    4.000    9.333    0.889 
#    0.000    4.444    0.000    2.667    0.000    0.000 
#    0.000    0.000    0.000    0.000    0.000    0.000 
#
# Total GULP energy -446240.667271 kJ/mol
# GULP energy per Si atom -12395.574091 kJ/mol
# Density = 2.274093 g / cm^3
# Si number density = 22.792808 Si / 1000 Ang^3
#
#
#
# Elastic Constant Matrix: (Units=GPa)
#
#
# Indices 1 2 3 4 5 6 
#
# 1 58.3822 33.4048 21.3158 0.0000 0.0000 0.0000
# 2 33.4048 58.3822 21.3158 0.0000 0.0000 0.0000
# 3 21.3158 21.3158 142.7639 0.0000 0.0000 0.0000
# 4 0.0000 0.0000 0.0000 31.3570 0.0000 0.0000
# 5 0.0000 0.0000 0.0000 0.0000 31.3570 0.0000
# 6 0.0000 0.0000 0.0000 0.0000 0.0000 49.6806
#
#
#
# Elastic Compliance Matrix: (Units=1/GPa)
#
#
# Indices 1 2 3 4 5 6 
#
# 1 0.025871 -0.014165 -0.001748 0.000000 0.000000 0.000000
# 2 -0.014165 0.025871 -0.001748 0.000000 0.000000 0.000000
# 3 -0.001748 -0.001748 0.007527 0.000000 0.000000 0.000000
# 4 0.000000 0.000000 0.000000 0.031891 0.000000 0.000000
# 5 0.000000 0.000000 0.000000 0.000000 0.031891 0.000000
# 6 0.000000 0.000000 0.000000 0.000000 0.000000 0.020129
#
#
# Mechanical properties :
#
#
# Convention : Reuss Voigt Hill
#
# Bulk Modulus (GPa) = 41.75678 45.73342 43.74510
# Shear Modulus (GPa) = 26.81202 34.71170 30.76186
#
# Velocity S-wave (km/s) = 3.43350 3.90670 3.67772
# Velocity P-wave (km/s) = 5.83768 6.36067 6.10478
#
# Compressibility (1/GPa) = 0.02394821
#
# Stress axis : x y z
#
# Youngs Moduli (GPa) = 38.65267 38.65267 132.86349
#
# Poissons Ratio (x) = 0.54751 0.23223
# Poissons Ratio (y) = 0.54751 0.23223
# Poissons Ratio (z) = 0.06756 0.06756
#
# Static dielectric constant tensor:
#      x y z
#    x 4.273150 0.000000 0.000000 
#    y 0.000000 4.273150 0.000000 
#    z 0.000000 0.000000 4.275070 
# 
# 
# High freq. dielectric constant tensor:
#      x y z
#    x 1.891900 0.000000 0.000000 
#    y 0.000000 1.891900 0.000000 
#    z 0.000000 0.000000 1.912440 
# 
# From -- ./inp_files/2060.got.cif
#   From: 2010.03.12/outbox.cif.g09.slc.cpg/sg114_2_cif.got.tgz:2060.got - 2010.04.14 02:08:34.
