data_PCOD8308623
_publ_section_title
;
Structure prediction by ZEFSAII (Michael W. Deem and Ramdas Pophale) SiO2 
 PCOD8308623
Probable space group: P -4 21 M 
;
_chemical_formula_sum "Si O2"
_cell_formula_units_Z 56
_cell_length_a 14.331028
_cell_length_b 14.331028
_cell_length_c 13.749066
_cell_angle_alpha 90.000000
_cell_angle_beta 90.000000
_cell_angle_gamma 90.000000
_cell_volume 2823.760675
_symmetry_space_group_name_H-M "P -4 21 M "
_symmetry_group_IT_number 113
_symmetry_cell_setting 'tetragonal'
loop_
_space_group_symop_operation_xyz
x,y,z
y,-x,-z
-x,-y,z
-y,x,-z
1/2+x,1/2-y,-z
1/2-x,1/2+y,-z
1/2-y,1/2-x,z
1/2+y,1/2+x,z
loop_
_atom_site_type_symbol
_atom_site_label
_atom_site_fract_x
_atom_site_fract_y
_atom_site_fract_z
Si Si1 0.617523 0.732909 0.211651
Si Si2 0.598710 0.752047 0.836812
Si Si3 0.968986 0.686689 0.644918
Si Si4 0.672902 0.678021 0.642985
Si Si5 0.908938 0.736896 0.266592
Si Si6 0.637621 0.436940 0.983178
Si Si7 0.688470 0.961787 0.564650
O O1 0.698075 0.801926 0.172579
O O2 0.547231 0.797734 0.273630
O O3 0.665012 0.648490 0.274812
O O4 0.562990 0.686234 0.121961
O O5 0.645921 0.854080 0.836958
O O6 0.646117 0.686782 0.755897
O O7 0.490090 0.758762 0.812472
O O8 0.613834 0.705638 0.941056
O O9 0.894093 0.605908 0.677028
O O10 0.926198 0.790133 0.626208
O O11 0.015886 0.656760 0.543970
O O12 0.760157 0.739844 0.613698
O O13 0.588376 0.709729 0.572547
O O14 0.839441 0.660560 0.223796
O O15 0.945349 0.700111 0.371254
O O16 0.541771 0.379668 0.980315
O O17 0.609080 0.890921 0.608597
#
# Coordination Sequence:
#
# PCOD8308623 Si02
#       7
#     8   8   8   8   8   8   8
#     4  11  24  41  61  89 128 165 204 257 316 375
#     4  10  19  37  62  85 115 152 197 252 312 373
#     4  11  23  39  62  89 124 169 212 253 308 372
#     4   8  18  36  57  84 115 152 196 249 305 362
#     4  10  21  38  60  88 121 157 199 254 311 365
#     4  11  22  39  63  89 118 156 206 257 308 377
#     4  10  21  37  61  89 121 161 209 254 302 366
#
# _framework density 19.831709
#
# number of rings (size 3 to 8) (size 9 to 14) (size 15 to 20)
#    0.000    1.857    1.429    3.429    2.000    2.857 
#    0.000    1.429    0.000    1.714    0.000    0.000 
#    0.000    0.000    0.000    0.000    0.000    0.000 
#
# Total GULP energy -694004.424710 kJ/mol
# GULP energy per Si atom -12392.936156 kJ/mol
# Density = 1.978657 g / cm^3
# Si number density = 19.831709 Si / 1000 Ang^3
#
#
#
# Elastic Constant Matrix: (Units=GPa)
#
#
# Indices 1 2 3 4 5 6 
#
# 1 93.4930 43.4374 31.9899 0.0000 0.0000 0.0000
# 2 43.4374 93.4931 31.9895 0.0000 0.0000 0.0000
# 3 31.9899 31.9895 99.1218 0.0000 0.0000 0.0000
# 4 0.0000 0.0000 0.0000 25.4681 0.0000 0.0000
# 5 0.0000 0.0000 0.0000 0.0000 25.4690 0.0000
# 6 0.0000 0.0000 0.0000 0.0000 0.0000 38.0200
#
#
#
# Elastic Compliance Matrix: (Units=1/GPa)
#
#
# Indices 1 2 3 4 5 6 
#
# 1 0.014289 -0.005689 -0.002775 0.000000 0.000000 0.000000
# 2 -0.005689 0.014289 -0.002775 0.000000 0.000000 0.000000
# 3 -0.002775 -0.002775 0.011880 0.000000 0.000000 0.000000
# 4 0.000000 0.000000 0.000000 0.039265 0.000000 0.000000
# 5 0.000000 0.000000 0.000000 0.000000 0.039263 0.000000
# 6 0.000000 0.000000 0.000000 0.000000 0.000000 0.026302
#
#
# Mechanical properties :
#
#
# Convention : Reuss Voigt Hill
#
# Bulk Modulus (GPa) = 55.62384 55.66015 55.64199
# Shear Modulus (GPa) = 28.77530 29.70415 29.23972
#
# Velocity S-wave (km/s) = 3.81330 3.87435 3.84395
# Velocity P-wave (km/s) = 6.89182 6.93840 6.91515
#
# Compressibility (1/GPa) = 0.01797790
#
# Stress axis : x y z
#
# Youngs Moduli (GPa) = 69.98484 69.98518 84.17492
#
# Poissons Ratio (x) = 0.39815 0.23362
# Poissons Ratio (y) = 0.39814 0.23362
# Poissons Ratio (z) = 0.19424 0.19423
#
# Static dielectric constant tensor:
#      x y z
#    x 3.723870 0.000000 0.000000 
#    y 0.000000 3.723860 0.000000 
#    z 0.000000 0.000000 3.372020 
# 
# 
# High freq. dielectric constant tensor:
#      x y z
#    x 1.775910 0.000000 0.000000 
#    y 0.000000 1.775910 0.000000 
#    z 0.000000 0.000000 1.757660 
# 
# From -- ./inp_files/1929.got.cif
#   From: 2010.03.12/outbox.cif.g09.slc.cpg/sg113_cif.got.tgz:1929.got - 2010.04.14 02:06:34.
