data_PCOD8308321
_publ_section_title
;
Structure prediction by ZEFSAII (Michael W. Deem and Ramdas Pophale) SiO2 
 PCOD8308321
Probable space group: P -4 2 C
;
_chemical_formula_sum "Si O2"
_cell_formula_units_Z 48
_cell_length_a 14.165996
_cell_length_b 14.165996
_cell_length_c 11.991160
_cell_angle_alpha 90.000000
_cell_angle_beta 90.000000
_cell_angle_gamma 90.000000
_cell_volume 2406.331341
_symmetry_space_group_name_H-M "P -4 2 C"
_symmetry_group_IT_number 112
_symmetry_cell_setting 'tetragonal'
loop_
_space_group_symop_operation_xyz
x,y,z
y,-x,-z
-x,-y,z
-y,x,-z
x,-y,1/2-z
-x,y,1/2-z
-y,-x,1/2+z
y,x,1/2+z
loop_
_atom_site_type_symbol
_atom_site_label
_atom_site_fract_x
_atom_site_fract_y
_atom_site_fract_z
Si Si1 0.491297 0.700291 0.965955
Si Si2 0.164690 0.671188 0.505317
Si Si3 0.610327 0.989934 0.881897
Si Si4 0.396149 0.413546 0.821751
Si Si5 0.193091 0.612564 0.744143
Si Si6 0.186497 0.671647 0.979756
O O1 0.417904 0.784418 0.946970
O O2 0.512290 0.653730 0.844259
O O3 0.448183 0.628393 0.053950
O O4 0.591707 0.734080 0.013766
O O5 0.140336 0.650594 0.634759
O O6 0.225289 0.767311 0.496605
O O7 0.066711 0.678400 0.439876
O O8 0.500000 0.000000 0.916226
O O9 0.622861 0.000000 0.750000
O O10 0.651606 0.890896 0.925690
O O11 0.431790 0.500000 0.750000
O O12 0.305055 0.361785 0.767792
O O13 0.181745 0.500000 0.750000
O O14 0.147764 0.663339 0.852256
#
# Coordination Sequence:
#
# PCOD8308321 Si02
#       6
#     8   8   8   8   8   8
#     4  11  19  36  56  85 122 168 216 262 310 382
#     4  11  24  41  62  93 128 169 222 263 333 394
#     4  11  25  44  66  97 135 176 221 269 332 400
#     4  10  20  35  50  78 125 171 222 263 306 368
#     4  10  18  35  61  85 119 163 214 267 316 377
#     4  12  22  40  63  91 128 169 213 275 326 388
#
# _framework density 19.947378
#
# number of rings (size 3 to 8) (size 9 to 14) (size 15 to 20)
#    0.000    1.167   10.000    0.000    2.333    1.000 
#    0.000   10.833    0.000    0.500    0.000    1.167 
#    0.000    0.000    0.000    0.000    0.000    0.000 
#
# Total GULP energy -595053.821993 kJ/mol
# GULP energy per Si atom -12396.954625 kJ/mol
# Density = 1.990198 g / cm^3
# Si number density = 19.947378 Si / 1000 Ang^3
#
#
#
# Elastic Constant Matrix: (Units=GPa)
#
#
# Indices 1 2 3 4 5 6 
#
# 1 70.1642 25.1081 36.5613 0.0000 0.0000 0.0000
# 2 25.1081 70.1642 36.5613 0.0000 0.0000 0.0000
# 3 36.5613 36.5613 137.9309 0.0000 0.0000 0.0000
# 4 0.0000 0.0000 0.0000 29.4463 0.0000 0.0000
# 5 0.0000 0.0000 0.0000 0.0000 29.4463 0.0000
# 6 0.0000 0.0000 0.0000 0.0000 0.0000 20.5659
#
#
#
# Elastic Compliance Matrix: (Units=1/GPa)
#
#
# Indices 1 2 3 4 5 6 
#
# 1 0.017686 -0.004509 -0.003493 0.000000 0.000000 0.000000
# 2 -0.004509 0.017686 -0.003493 0.000000 0.000000 0.000000
# 3 -0.003493 -0.003493 0.009102 0.000000 0.000000 0.000000
# 4 0.000000 0.000000 0.000000 0.033960 0.000000 0.000000
# 5 0.000000 0.000000 0.000000 0.000000 0.033960 0.000000
# 6 0.000000 0.000000 0.000000 0.000000 0.000000 0.048624
#
#
# Mechanical properties :
#
#
# Convention : Reuss Voigt Hill
#
# Bulk Modulus (GPa) = 46.54538 52.74677 49.64607
# Shear Modulus (GPa) = 26.15500 27.89361 27.02430
#
# Velocity S-wave (km/s) = 3.62498 3.74352 3.68473
# Velocity P-wave (km/s) = 6.39573 6.72203 6.56091
#
# Compressibility (1/GPa) = 0.02148441
#
# Stress axis : x y z
#
# Youngs Moduli (GPa) = 56.54256 56.54256 109.86967
#
# Poissons Ratio (x) = 0.25494 0.38376
# Poissons Ratio (y) = 0.25494 0.38376
# Poissons Ratio (z) = 0.19749 0.19749
#
# Static dielectric constant tensor:
#      x y z
#    x 3.292160 0.000000 0.000000 
#    y 0.000000 3.292160 0.000000 
#    z 0.000000 0.000000 4.066330 
# 
# 
# High freq. dielectric constant tensor:
#      x y z
#    x 1.741620 0.000000 0.000000 
#    y 0.000000 1.741620 0.000000 
#    z 0.000000 0.000000 1.804520 
# 
# From -- ./inp_files/2573.got.cif
#   From: 2010.03.12/outbox.cif.g09.slc.cpg/sg112_2_cif.got.tgz:2573.got - 2010.04.14 02:02:48.
