data_PCOD8308520
_publ_section_title
;
Structure prediction by ZEFSAII (Michael W. Deem and Ramdas Pophale) SiO2 
 PCOD8308520
Probable space group: P -4 21 M 
;
_chemical_formula_sum "Si O2"
_cell_formula_units_Z 64
_cell_length_a 20.319350
_cell_length_b 20.319350
_cell_length_c 10.420091
_cell_angle_alpha 90.000000
_cell_angle_beta 90.000000
_cell_angle_gamma 90.000000
_cell_volume 4302.205329
_symmetry_space_group_name_H-M "P -4 21 M "
_symmetry_group_IT_number 113
_symmetry_cell_setting 'tetragonal'
loop_
_space_group_symop_operation_xyz
x,y,z
y,-x,-z
-x,-y,z
-y,x,-z
1/2+x,1/2-y,-z
1/2-x,1/2+y,-z
1/2-y,1/2-x,z
1/2+y,1/2+x,z
loop_
_atom_site_type_symbol
_atom_site_label
_atom_site_fract_x
_atom_site_fract_y
_atom_site_fract_z
Si Si1 0.919473 0.691577 0.626498
Si Si2 0.560929 0.831774 0.284085
Si Si3 0.336864 0.273615 0.269814
Si Si4 0.253714 0.864105 0.126754
Si Si5 0.160257 0.770941 0.015205
Si Si6 0.240777 0.369764 0.369260
Si Si7 0.811687 0.578047 0.116471
Si Si8 0.440425 0.166228 0.980985
O O1 0.870400 0.629601 0.628091
O O2 0.906089 0.742127 0.743332
O O3 0.912399 0.735130 0.498267
O O4 0.993389 0.663793 0.636490
O O5 0.606271 0.893730 0.324115
O O6 0.597233 0.762755 0.320396
O O7 0.545591 0.834601 0.132879
O O8 0.280583 0.219418 0.261863
O O9 0.312512 0.333997 0.360078
O O10 0.348487 0.301980 0.126648
O O11 0.310316 0.810316 0.128641
O O12 0.182577 0.828076 0.114439
O O13 0.263159 0.910384 0.003377
O O14 0.215782 0.715782 0.005684
O O15 0.093034 0.735778 0.059548
O O16 0.185539 0.314462 0.370008
O O17 0.229951 0.417064 0.247224
O O18 0.871071 0.628930 0.116674
O O19 0.842370 0.505857 0.102134
O O20 0.394364 0.105637 0.942058
#
# Coordination Sequence:
#
# PCOD8308520 Si02
#       8
#     8   8   8   8   8   8   8   8
#     4  10  19  29  41  64  93 118 146 178 210 248
#     4   9  17  28  43  63  89 119 147 175 207 254
#     4   8  13  25  44  62  79 106 144 179 217 257
#     4   9  15  25  42  61  81 105 139 181 218 246
#     4   8  13  24  42  62  83 107 137 179 226 256
#     4   9  17  29  44  60  82 112 145 184 220 248
#     4  10  17  27  43  62  84 113 147 177 208 251
#     4   9  17  27  41  64  91 116 145 179 212 254
#
# _framework density 14.87609
#
# number of rings (size 3 to 8) (size 9 to 14) (size 15 to 20)
#    0.000    3.000    2.500    1.500    0.000    0.500 
#    0.000    3.125    0.000    5.250    0.000    0.000 
#    0.000    6.000    0.000    0.000    0.000    0.000 
#
# Total GULP energy -793081.922299 kJ/mol
# GULP energy per Si atom -12391.905036 kJ/mol
# Density = 1.484223 g / cm^3
# Si number density = 14.876090 Si / 1000 Ang^3
#
#
#
# Elastic Constant Matrix: (Units=GPa)
#
#
# Indices 1 2 3 4 5 6 
#
# 1 45.3193 41.0018 32.4685 0.0000 0.0000 0.0000
# 2 41.0018 45.3237 32.4689 0.0000 0.0000 0.0000
# 3 32.4685 32.4689 89.4203 0.0000 0.0000 0.0000
# 4 0.0000 0.0000 0.0000 17.5807 0.0000 0.0000
# 5 0.0000 0.0000 0.0000 0.0000 17.5806 0.0000
# 6 0.0000 0.0000 0.0000 0.0000 0.0000 14.1651
#
#
#
# Elastic Compliance Matrix: (Units=1/GPa)
#
#
# Indices 1 2 3 4 5 6 
#
# 1 0.123726 -0.107781 -0.005789 0.000000 0.000000 0.000000
# 2 -0.107781 0.123711 -0.005785 0.000000 0.000000 0.000000
# 3 -0.005789 -0.005785 0.015386 0.000000 0.000000 0.000000
# 4 0.000000 0.000000 0.000000 0.056881 0.000000 0.000000
# 5 0.000000 0.000000 0.000000 0.000000 0.056881 0.000000
# 6 0.000000 0.000000 0.000000 0.000000 0.000000 0.070596
#
#
# Mechanical properties :
#
#
# Convention : Reuss Voigt Hill
#
# Bulk Modulus (GPa) = 41.47134 43.54908 42.51021
# Shear Modulus (GPa) = 7.20537 14.80687 11.00612
#
# Velocity S-wave (km/s) = 2.20320 3.15833 2.72298
# Velocity P-wave (km/s) = 5.86605 6.52979 6.20680
#
# Compressibility (1/GPa) = 0.02411304
#
# Stress axis : x y z
#
# Youngs Moduli (GPa) = 8.08239 8.08338 64.99541
#
# Poissons Ratio (x) = 0.87123 0.37627
# Poissons Ratio (y) = 0.87112 0.37599
# Poissons Ratio (z) = 0.04679 0.04676
#
# Static dielectric constant tensor:
#      x y z
#    x 2.795840 0.000000 0.000000 
#    y 0.000000 2.795840 0.000000 
#    z 0.000000 0.000000 2.906170 
# 
# 
# High freq. dielectric constant tensor:
#      x y z
#    x 1.544870 0.000000 0.000000 
#    y 0.000000 1.544870 0.000000 
#    z 0.000000 0.000000 1.554740 
# 
# From -- ./inp_files/1398.got.cif
#   From: 2010.03.12/outbox.cif.g09.slc.cpg/sg113_cif.got.tgz:1398.got - 2010.04.14 02:06:34.
