data_PCOD8308109
_publ_section_title
;
Structure prediction by ZEFSAII (Michael W. Deem and Ramdas Pophale) SiO2 
 PCOD8308109
Probable space group: P -4 2 M 
;
_chemical_formula_sum "Si O2"
_cell_formula_units_Z 56
_cell_length_a 12.461946
_cell_length_b 12.461946
_cell_length_c 21.689303
_cell_angle_alpha 90.000000
_cell_angle_beta 90.000000
_cell_angle_gamma 90.000000
_cell_volume 3368.350884
_symmetry_space_group_name_H-M "P -4 2 M "
_symmetry_group_IT_number 111
_symmetry_cell_setting 'tetragonal'
loop_
_space_group_symop_operation_xyz
x,y,z
y,-x,-z
-x,-y,z
-y,x,-z
x,-y,-z
-x,y,-z
-y,-x,z
y,x,z
loop_
_atom_site_type_symbol
_atom_site_label
_atom_site_fract_x
_atom_site_fract_y
_atom_site_fract_z
Si Si1 0.293759 0.122565 0.496306
Si Si2 0.813002 0.646210 0.253592
Si Si3 0.400194 0.769172 0.611905
Si Si4 0.639210 0.189915 0.369243
Si Si5 0.753870 0.573477 0.809558
Si Si6 0.619598 0.956293 0.744992
Si Si7 0.326122 0.505371 0.933175
O O1 0.187343 0.187343 0.477756
O O2 0.384173 0.147452 0.444678
O O3 0.335703 0.153847 0.562616
O O4 0.261558 0.000000 0.500000
O O5 0.734444 0.734444 0.224080
O O6 0.816959 0.655157 0.327358
O O7 0.764053 0.529135 0.235561
O O8 0.934609 0.680042 0.233634
O O9 0.345840 0.654161 0.595078
O O10 0.524330 0.752993 0.627371
O O11 0.721976 0.278025 0.344106
O O12 0.647806 0.089375 0.322656
O O13 0.647710 0.647710 0.796909
O O14 0.863427 0.639947 0.796486
O O15 0.755605 0.529302 0.879457
O O16 0.500000 0.000000 0.740917
O O17 0.376350 0.623650 0.919456
O O18 0.423237 0.423237 0.936671
O O19 0.266512 0.500000 0.000000
#
# Coordination Sequence:
#
# PCOD8308109 Si02
#       7
#     8   8   8   8   8   8   8
#     4  10  22  35  52  71  90 120 162 206 251 299
#     4  10  20  32  49  69  95 131 166 200 244 290
#     4  10  20  34  49  71  96 122 156 199 248 298
#     4  11  21  34  51  73  94 122 159 199 247 298
#     4  10  18  29  49  75 100 128 161 200 244 286
#     4  10  19  32  49  68  99 130 160 200 242 284
#     4   8  14  25  42  68 103 136 163 194 234 284
#
# _framework density 16.625344999999999
#
# number of rings (size 3 to 8) (size 9 to 14) (size 15 to 20)
#    0.000    2.143    2.857    2.571    0.000    1.857 
#    0.000    1.429    0.000    9.000    0.000    0.000 
#    0.000    0.000    0.000    0.000    0.000   87.286 
#
# Total GULP energy -693731.836952 kJ/mol
# GULP energy per Si atom -12388.068517 kJ/mol
# Density = 1.658751 g / cm^3
# Si number density = 16.625345 Si / 1000 Ang^3
#
#
#
# Elastic Constant Matrix: (Units=GPa)
#
#
# Indices 1 2 3 4 5 6 
#
# 1 88.8709 43.6458 27.5195 0.0000 0.0000 0.0000
# 2 43.6458 88.8720 27.5196 0.0000 0.0000 0.0000
# 3 27.5195 27.5196 102.8738 0.0000 0.0000 0.0000
# 4 0.0000 0.0000 0.0000 17.8163 0.0000 0.0000
# 5 0.0000 0.0000 0.0000 0.0000 17.8165 0.0000
# 6 0.0000 0.0000 0.0000 0.0000 0.0000 15.0127
#
#
#
# Elastic Compliance Matrix: (Units=1/GPa)
#
#
# Indices 1 2 3 4 5 6 
#
# 1 0.015300 -0.006811 -0.002271 0.000000 0.000000 0.000000
# 2 -0.006811 0.015300 -0.002271 0.000000 0.000000 0.000000
# 3 -0.002271 -0.002271 0.010936 0.000000 0.000000 0.000000
# 4 0.000000 0.000000 0.000000 0.056128 0.000000 0.000000
# 5 0.000000 0.000000 0.000000 0.000000 0.056128 0.000000
# 6 0.000000 0.000000 0.000000 0.000000 0.000000 0.066610
#
#
# Mechanical properties :
#
#
# Convention : Reuss Voigt Hill
#
# Bulk Modulus (GPa) = 53.10523 53.10962 53.10742
# Shear Modulus (GPa) = 20.04927 22.25788 21.15357
#
# Velocity S-wave (km/s) = 3.47644 3.66292 3.57090
# Velocity P-wave (km/s) = 6.93728 7.06425 7.00105
#
# Compressibility (1/GPa) = 0.01883054
#
# Stress axis : x y z
#
# Youngs Moduli (GPa) = 65.35746 65.35833 91.44390
#
# Poissons Ratio (x) = 0.44515 0.20767
# Poissons Ratio (y) = 0.44515 0.20767
# Poissons Ratio (z) = 0.14843 0.14843
#
# Static dielectric constant tensor:
#      x y z
#    x 3.730930 0.000000 0.000000 
#    y 0.000000 3.730910 0.000000 
#    z 0.000000 0.000000 3.485630 
# 
# 
# High freq. dielectric constant tensor:
#      x y z
#    x 1.623420 0.000000 0.000000 
#    y 0.000000 1.623420 0.000000 
#    z 0.000000 0.000000 1.635710 
# 
# From -- ./inp_files/3984.got.cif
#   From: 2010.03.12/outbox.cif.g09.slc.cpg/sg111_2_cif.got.tgz:3984.got - 2010.04.14 01:59:48.
