data_PCOD8308720
_publ_section_title
;
Structure prediction by ZEFSAII (Michael W. Deem and Ramdas Pophale) SiO2 
 PCOD8308720
Probable space group: P -4 21 M 
;
_chemical_formula_sum "Si O2"
_cell_formula_units_Z 40
_cell_length_a 13.702233
_cell_length_b 13.702233
_cell_length_c 9.641244
_cell_angle_alpha 90.000000
_cell_angle_beta 90.000000
_cell_angle_gamma 90.000000
_cell_volume 1810.155026
_symmetry_space_group_name_H-M "P -4 21 M "
_symmetry_group_IT_number 113
_symmetry_cell_setting 'tetragonal'
loop_
_space_group_symop_operation_xyz
x,y,z
y,-x,-z
-x,-y,z
-y,x,-z
1/2+x,1/2-y,-z
1/2-x,1/2+y,-z
1/2-y,1/2-x,z
1/2+y,1/2+x,z
loop_
_atom_site_type_symbol
_atom_site_label
_atom_site_fract_x
_atom_site_fract_y
_atom_site_fract_z
Si Si1 0.678413 0.975013 0.523664
Si Si2 0.838198 0.010758 0.005033
Si Si3 0.107382 0.240397 0.252030
Si Si4 0.001614 0.342330 0.796828
Si Si5 0.079316 0.874844 0.539479
O O1 0.581155 0.918845 0.567428
O O2 0.771612 0.901568 0.535690
O O3 0.690811 0.063865 0.628422
O O4 0.671996 0.014374 0.367481
O O5 0.764663 0.998191 0.133921
O O6 0.768345 0.032731 0.874451
O O7 0.911735 0.101951 0.025080
O O8 0.209674 0.290327 0.205994
O O9 0.124677 0.131215 0.311046
O O10 0.094155 0.405846 0.850589
O O11 0.901225 0.401225 0.828296
O O12 0.961818 0.884429 0.561315
#
# Coordination Sequence:
#
# PCOD8308720 Si02
#       5
#     8   8   8   8   8
#     4  10  21  38  63  93 124 160 205 258 314 374
#     4  11  26  44  64  92 128 169 214 264 323 390
#     4  11  23  40  64  92 123 161 208 264 316 370
#     4  10  22  42  67  94 128 172 218 266 326 395
#     4   9  19  34  56  87 123 158 199 250 312 374
#
# _framework density 22.097556000000001
#
# number of rings (size 3 to 8) (size 9 to 14) (size 15 to 20)
#    0.000    1.800    0.000    3.000    0.000   19.600 
#    0.000    4.000    0.000    0.000    0.000    0.000 
#    0.000    0.000    0.000    0.000    0.000    0.000 
#
# Total GULP energy -495793.894396 kJ/mol
# GULP energy per Si atom -12394.847360 kJ/mol
# Density = 2.204726 g / cm^3
# Si number density = 22.097556 Si / 1000 Ang^3
#
#
#
# Elastic Constant Matrix: (Units=GPa)
#
#
# Indices 1 2 3 4 5 6 
#
# 1 105.4726 70.6627 43.4098 0.0000 0.0000 0.0000
# 2 70.6627 105.4748 43.4114 0.0000 0.0000 0.0000
# 3 43.4098 43.4114 84.7096 0.0000 0.0000 0.0000
# 4 0.0000 0.0000 0.0000 29.1921 0.0000 0.0000
# 5 0.0000 0.0000 0.0000 0.0000 29.1918 0.0000
# 6 0.0000 0.0000 0.0000 0.0000 0.0000 35.8843
#
#
#
# Elastic Compliance Matrix: (Units=1/GPa)
#
#
# Indices 1 2 3 4 5 6 
#
# 1 0.018161 -0.010565 -0.003893 0.000000 0.000000 0.000000
# 2 -0.010565 0.018161 -0.003893 0.000000 0.000000 0.000000
# 3 -0.003893 -0.003893 0.015795 0.000000 0.000000 0.000000
# 4 0.000000 0.000000 0.000000 0.034256 0.000000 0.000000
# 5 0.000000 0.000000 0.000000 0.000000 0.034256 0.000000
# 6 0.000000 0.000000 0.000000 0.000000 0.000000 0.027867
#
#
# Mechanical properties :
#
#
# Convention : Reuss Voigt Hill
#
# Bulk Modulus (GPa) = 64.86695 67.84720 66.35708
# Shear Modulus (GPa) = 26.26915 28.06518 27.16717
#
# Velocity S-wave (km/s) = 3.45161 3.56765 3.51011
# Velocity P-wave (km/s) = 6.73078 6.90949 6.82072
#
# Compressibility (1/GPa) = 0.01541617
#
# Stress axis : x y z
#
# Youngs Moduli (GPa) = 55.06162 55.06201 63.31165
#
# Poissons Ratio (x) = 0.58174 0.24645
# Poissons Ratio (y) = 0.58173 0.24647
# Poissons Ratio (z) = 0.21433 0.21436
#
# Static dielectric constant tensor:
#      x y z
#    x 4.174790 0.000000 0.000000 
#    y 0.000000 4.174780 0.000000 
#    z 0.000000 0.000000 3.666910 
# 
# 
# High freq. dielectric constant tensor:
#      x y z
#    x 1.879140 0.000000 0.000000 
#    y 0.000000 1.879140 0.000000 
#    z 0.000000 0.000000 1.844530 
# 
# From -- ./inp_files/991.got.cif
#   From: 2010.03.12/outbox.cif.g09.slc.cpg/sg113_cif.got.tgz:991.got - 2010.04.14 02:06:34.
