data_PCOD8308774
_publ_section_title
;
Structure prediction by ZEFSAII (Michael W. Deem and Ramdas Pophale) SiO2 
 PCOD8308774
Probable space group: P -4 21 M 
;
_chemical_formula_sum "Si O2"
_cell_formula_units_Z 40
_cell_length_a 10.964320
_cell_length_b 10.964320
_cell_length_c 16.428193
_cell_angle_alpha 90.000000
_cell_angle_beta 90.000000
_cell_angle_gamma 90.000000
_cell_volume 1974.936793
_symmetry_space_group_name_H-M "P -4 21 M "
_symmetry_group_IT_number 113
_symmetry_cell_setting 'tetragonal'
loop_
_space_group_symop_operation_xyz
x,y,z
y,-x,-z
-x,-y,z
-y,x,-z
1/2+x,1/2-y,-z
1/2-x,1/2+y,-z
1/2-y,1/2-x,z
1/2+y,1/2+x,z
loop_
_atom_site_type_symbol
_atom_site_label
_atom_site_fract_x
_atom_site_fract_y
_atom_site_fract_z
Si Si1 0.803255 0.505830 0.910895
Si Si2 0.000000 0.305159 0.500002
Si Si3 0.005829 0.696746 0.089101
Si Si4 0.602596 0.397402 0.614902
Si Si5 0.599524 0.599522 0.203914
O O1 0.914097 0.414097 0.914032
O O2 0.710433 0.463136 0.842646
O O3 0.858679 0.641322 0.892070
O O4 0.738533 0.500005 0.999998
O O5 0.110038 0.389963 0.533543
O O6 0.050454 0.223557 0.426818
O O7 0.889964 0.389964 0.466462
O O8 0.949546 0.223558 0.573186
O O9 0.914095 0.585906 0.085972
O O10 0.963143 0.789572 0.157350
O O11 0.141323 0.641323 0.107920
O O12 0.500000 0.500000 0.609524
O O13 0.641352 0.358640 0.706397
O O14 0.500000 0.500000 0.219033
#
# Coordination Sequence:
#
# PCOD8308774 Si02
#       5
#     8   8   8   8   8
#     4   9  20  39  60  84 119 163 208 253 298 349
#     4  11  23  40  68  96 119 159 204 246 304 367
#     4   9  20  39  60  84 119 163 208 253 298 349
#     4  11  23  43  63  88 128 163 197 252 306 359
#     4  11  25  37  59  93 123 160 199 246 306 358
#
# _framework density 20.253813999999998
#
# number of rings (size 3 to 8) (size 9 to 14) (size 15 to 20)
#    0.000    1.800    2.000    2.400    2.800    5.600 
#    0.000    8.000    0.000    0.000    0.000    0.000 
#    0.000    0.000    0.000    0.000    0.000    0.000 
#
# Total GULP energy -495801.636684 kJ/mol
# GULP energy per Si atom -12395.040917 kJ/mol
# Density = 2.020771 g / cm^3
# Si number density = 20.253814 Si / 1000 Ang^3
#
#
#
# Elastic Constant Matrix: (Units=GPa)
#
#
# Indices 1 2 3 4 5 6 
#
# 1 111.2031 51.9092 73.5544 0.0000 0.0000 0.0000
# 2 51.9092 111.2029 73.5543 0.0000 0.0000 0.0000
# 3 73.5544 73.5543 189.9337 0.0000 0.0000 0.0000
# 4 0.0000 0.0000 0.0000 -15.3799 0.0000 0.0000
# 5 0.0000 0.0000 0.0000 0.0000 -15.3773 0.0000
# 6 0.0000 0.0000 0.0000 0.0000 0.0000 36.8053
#
#
#
# Elastic Compliance Matrix: (Units=1/GPa)
#
#
# Indices 1 2 3 4 5 6 
#
# 1 0.013143 -0.003722 -0.003649 0.000000 0.000000 0.000000
# 2 -0.003722 0.013143 -0.003649 0.000000 0.000000 0.000000
# 3 -0.003649 -0.003649 0.008091 0.000000 0.000000 0.000000
# 4 0.000000 0.000000 0.000000 -0.065020 0.000000 0.000000
# 5 0.000000 0.000000 0.000000 0.000000 -0.065031 0.000000
# 6 0.000000 0.000000 0.000000 0.000000 0.000000 0.027170
#
#
# Mechanical properties :
#
#
# Convention : Reuss Voigt Hill
#
# Bulk Modulus (GPa) = 81.04133 90.04174 85.54153
# Shear Modulus (GPa) = -118.05801 15.43104 -51.31348
#
# Velocity S-wave (km/s) = -7.64302 2.76322 -5.03887
# Velocity P-wave (km/s) = 6.14720 7.39822 2.91081
#
# Compressibility (1/GPa) = 0.01233938
#
# Stress axis : x y z
#
# Youngs Moduli (GPa) = 76.08474 76.08462 123.59591
#
# Poissons Ratio (x) = 0.28318 0.45094
# Poissons Ratio (y) = 0.28318 0.45094
# Poissons Ratio (z) = 0.27760 0.27760
#
# Static dielectric constant tensor:
#      x y z
#    x 3.758810 0.000000 0.000000 
#    y 0.000000 3.758810 0.000000 
#    z 0.000000 0.000000 4.894750 
# 
# 
# High freq. dielectric constant tensor:
#      x y z
#    x 1.799740 0.000000 0.000000 
#    y 0.000000 1.799740 0.000000 
#    z 0.000000 0.000000 1.784570 
# 
# From -- ./inp_files/2172.got.cif
#   From: 2010.03.12/outbox.cif.g09.slc.cpg/sg113_cif.got.tgz:2172.got - 2010.04.14 02:06:34.
