data_PCOD8308641
_publ_section_title
;
Structure prediction by ZEFSAII (Michael W. Deem and Ramdas Pophale) SiO2 
 PCOD8308641
Probable space group: P -4 21 M 
;
_chemical_formula_sum "Si O2"
_cell_formula_units_Z 64
_cell_length_a 12.211572
_cell_length_b 12.211572
_cell_length_c 22.801928
_cell_angle_alpha 90.000000
_cell_angle_beta 90.000000
_cell_angle_gamma 90.000000
_cell_volume 3400.280296
_symmetry_space_group_name_H-M "P -4 21 M "
_symmetry_group_IT_number 113
_symmetry_cell_setting 'tetragonal'
loop_
_space_group_symop_operation_xyz
x,y,z
y,-x,-z
-x,-y,z
-y,x,-z
1/2+x,1/2-y,-z
1/2-x,1/2+y,-z
1/2-y,1/2-x,z
1/2+y,1/2+x,z
loop_
_atom_site_type_symbol
_atom_site_label
_atom_site_fract_x
_atom_site_fract_y
_atom_site_fract_z
Si Si1 0.504461 0.827532 0.933306
Si Si2 0.890851 0.062448 0.744864
Si Si3 0.767422 0.083373 0.572098
Si Si4 0.839097 0.979115 0.368258
Si Si5 0.839597 0.962439 0.023254
Si Si6 0.723353 0.409100 0.337564
Si Si7 0.673794 0.993200 0.460085
Si Si8 0.356385 0.675994 0.867495
O O1 0.601075 0.898926 0.903972
O O2 0.469192 0.733818 0.887651
O O3 0.400967 0.900967 0.949371
O O4 0.546865 0.780188 0.995186
O O5 0.918605 0.151559 0.694287
O O6 0.851082 0.133060 0.799478
O O7 0.797633 0.974970 0.723604
O O8 0.000000 0.000000 0.764176
O O9 0.693232 0.193232 0.577685
O O10 0.895886 0.104954 0.584830
O O11 0.764285 0.031709 0.506980
O O12 0.718593 0.991873 0.616964
O O13 0.888920 0.100952 0.363567
O O14 0.717339 0.994832 0.393087
O O15 0.838238 0.930966 0.091964
O O16 0.914153 0.881673 0.983957
O O17 0.799964 0.299964 0.328670
O O18 0.574100 0.074100 0.463500
O O19 0.628783 0.871218 0.475119
O O20 0.252786 0.752786 0.876926
#
# Coordination Sequence:
#
# PCOD8308641 Si02
#       8
#     8   8   8   8   8   8   8   8
#     4   9  18  32  50  77 115 147 176 224 281 336
#     4   9  21  37  55  77 109 144 187 235 276 327
#     4  10  21  36  56  85 116 144 179 228 289 350
#     4  10  21  39  57  81 107 150 191 232 277 333
#     4   9  18  31  53  82 107 147 184 224 275 329
#     4  10  21  39  59  82 113 149 189 236 287 341
#     4  10  21  35  54  83 115 147 184 232 289 348
#     4  10  20  33  55  82 110 144 186 230 272 328
#
# _framework density 18.821978999999999
#
# number of rings (size 3 to 8) (size 9 to 14) (size 15 to 20)
#    0.000    2.375    0.000    2.625    5.250    4.250 
#    0.000    0.000    0.000    1.500    0.000    1.750 
#    0.000    0.000    0.000    0.000    0.000    0.000 
#
# Total GULP energy -792894.889256 kJ/mol
# GULP energy per Si atom -12388.982645 kJ/mol
# Density = 1.877914 g / cm^3
# Si number density = 18.821979 Si / 1000 Ang^3
#
#
#
# Elastic Constant Matrix: (Units=GPa)
#
#
# Indices 1 2 3 4 5 6 
#
# 1 60.5888 10.7604 38.0014 0.0000 0.0000 0.0000
# 2 10.7604 60.5910 38.0022 0.0000 0.0000 0.0000
# 3 38.0014 38.0022 114.4108 0.0000 0.0000 0.0000
# 4 0.0000 0.0000 0.0000 22.1534 0.0000 0.0000
# 5 0.0000 0.0000 0.0000 0.0000 22.1537 0.0000
# 6 0.0000 0.0000 0.0000 0.0000 0.0000 13.2737
#
#
#
# Elastic Compliance Matrix: (Units=1/GPa)
#
#
# Indices 1 2 3 4 5 6 
#
# 1 0.020879 0.000810 -0.007204 0.000000 0.000000 0.000000
# 2 0.000810 0.020879 -0.007204 0.000000 0.000000 0.000000
# 3 -0.007204 -0.007204 0.013526 0.000000 0.000000 0.000000
# 4 0.000000 0.000000 0.000000 0.045140 0.000000 0.000000
# 5 0.000000 0.000000 0.000000 0.000000 0.045139 0.000000
# 6 0.000000 0.000000 0.000000 0.000000 0.000000 0.075337
#
#
# Mechanical properties :
#
#
# Convention : Reuss Voigt Hill
#
# Bulk Modulus (GPa) = 35.60207 45.45762 40.52985
# Shear Modulus (GPa) = 19.42059 21.43792 20.42925
#
# Velocity S-wave (km/s) = 3.21565 3.37854 3.29811
# Velocity P-wave (km/s) = 5.72219 6.27879 6.00694
#
# Compressibility (1/GPa) = 0.02808826
#
# Stress axis : x y z
#
# Youngs Moduli (GPa) = 47.89436 47.89610 73.93053
#
# Poissons Ratio (x) = -0.03882 0.53261
# Poissons Ratio (y) = -0.03882 0.53260
# Poissons Ratio (z) = 0.34504 0.34505
#
# Static dielectric constant tensor:
#      x y z
#    x 3.628600 0.000000 0.000000 
#    y 0.000000 3.628600 0.000000 
#    z 0.000000 0.000000 3.366070 
# 
# 
# High freq. dielectric constant tensor:
#      x y z
#    x 1.731000 0.000000 0.000000 
#    y 0.000000 1.731000 0.000000 
#    z 0.000000 0.000000 1.712500 
# 
# From -- ./inp_files/2891.got.cif
#   From: 2010.03.12/outbox.cif.g09.slc.cpg/sg113_cif.got.tgz:2891.got - 2010.04.14 02:06:34.
