data_PCOD8308727
_publ_section_title
;
Structure prediction by ZEFSAII (Michael W. Deem and Ramdas Pophale) SiO2 
 PCOD8308727
Probable space group: P -4 21 M 
;
_chemical_formula_sum "Si O2"
_cell_formula_units_Z 56
_cell_length_a 13.625199
_cell_length_b 13.625199
_cell_length_c 15.953808
_cell_angle_alpha 90.000000
_cell_angle_beta 90.000000
_cell_angle_gamma 90.000000
_cell_volume 2961.761402
_symmetry_space_group_name_H-M "P -4 21 M "
_symmetry_group_IT_number 113
_symmetry_cell_setting 'tetragonal'
loop_
_space_group_symop_operation_xyz
x,y,z
y,-x,-z
-x,-y,z
-y,x,-z
1/2+x,1/2-y,-z
1/2-x,1/2+y,-z
1/2-y,1/2-x,z
1/2+y,1/2+x,z
loop_
_atom_site_type_symbol
_atom_site_label
_atom_site_fract_x
_atom_site_fract_y
_atom_site_fract_z
Si Si1 0.578539 0.760419 0.331919
Si Si2 0.421541 0.239443 0.666102
Si Si3 0.374805 0.397244 0.091634
Si Si4 0.599012 0.372718 0.092202
Si Si5 0.379473 0.726162 0.741217
Si Si6 0.497493 0.839447 0.499212
Si Si7 0.775138 0.121679 0.259287
O O1 0.641220 0.858781 0.311216
O O2 0.650030 0.665636 0.327719
O O3 0.520607 0.770786 0.419660
O O4 0.494517 0.739921 0.264024
O O5 0.359145 0.140855 0.686088
O O6 0.504359 0.259506 0.735201
O O7 0.480601 0.229675 0.578824
O O8 0.349578 0.333968 0.670000
O O9 0.483443 0.355689 0.102111
O O10 0.375273 0.513866 0.100068
O O11 0.309095 0.351552 0.165257
O O12 0.333444 0.366938 0.999546
O O13 0.651759 0.314348 0.167135
O O14 0.331774 0.831774 0.725768
O O15 0.570563 0.929438 0.499986
O O16 0.386111 0.886111 0.498742
O O17 0.669146 0.169146 0.272918
#
# Coordination Sequence:
#
# PCOD8308727 Si02
#       7
#     8   8   8   8   8   8   8
#     4  10  22  37  55  84 112 144 193 232 278 343
#     4  10  22  37  55  84 112 144 193 232 278 343
#     4   9  17  32  55  79 106 144 185 229 281 337
#     4   9  17  32  55  79 106 144 185 229 281 337
#     4  11  21  34  57  82 111 149 183 235 289 328
#     4   9  18  36  58  77 109 151 182 221 273 327
#     4  11  21  34  57  82 111 149 183 235 289 328
#
# _framework density 18.907668000000001
#
# number of rings (size 3 to 8) (size 9 to 14) (size 15 to 20)
#    0.000    2.143    2.857    1.714    0.000    4.000 
#    0.000    2.857    0.000    2.571    0.000    2.000 
#    0.000    0.000    0.000    0.000    0.000    0.000 
#
# Total GULP energy -693929.061824 kJ/mol
# GULP energy per Si atom -12391.590390 kJ/mol
# Density = 1.886463 g / cm^3
# Si number density = 18.907668 Si / 1000 Ang^3
#
#
#
# Elastic Constant Matrix: (Units=GPa)
#
#
# Indices 1 2 3 4 5 6 
#
# 1 76.0644 34.5588 23.0487 0.0000 0.0000 0.0000
# 2 34.5588 76.0646 23.0488 0.0000 0.0000 0.0000
# 3 23.0487 23.0488 98.4159 0.0000 0.0000 0.0000
# 4 0.0000 0.0000 0.0000 25.1364 0.0000 0.0000
# 5 0.0000 0.0000 0.0000 0.0000 25.1366 0.0000
# 6 0.0000 0.0000 0.0000 0.0000 0.0000 18.7727
#
#
#
# Elastic Compliance Matrix: (Units=1/GPa)
#
#
# Indices 1 2 3 4 5 6 
#
# 1 0.017055 -0.007038 -0.002346 0.000000 0.000000 0.000000
# 2 -0.007038 0.017055 -0.002346 0.000000 0.000000 0.000000
# 3 -0.002346 -0.002346 0.011260 0.000000 0.000000 0.000000
# 4 0.000000 0.000000 0.000000 0.039783 0.000000 0.000000
# 5 0.000000 0.000000 0.000000 0.000000 0.039783 0.000000
# 6 0.000000 0.000000 0.000000 0.000000 0.000000 0.053269
#
#
# Mechanical properties :
#
#
# Convention : Reuss Voigt Hill
#
# Bulk Modulus (GPa) = 45.64059 45.76193 45.70126
# Shear Modulus (GPa) = 23.92712 25.13505 24.53109
#
# Velocity S-wave (km/s) = 3.56121 3.64999 3.60587
# Velocity P-wave (km/s) = 6.41098 6.48218 6.44668
#
# Compressibility (1/GPa) = 0.02191032
#
# Stress axis : x y z
#
# Youngs Moduli (GPa) = 58.63321 58.63327 88.81131
#
# Poissons Ratio (x) = 0.41265 0.20835
# Poissons Ratio (y) = 0.41265 0.20835
# Poissons Ratio (z) = 0.13755 0.13756
#
# Static dielectric constant tensor:
#      x y z
#    x 3.272360 0.000000 0.000000 
#    y 0.000000 3.272360 0.000000 
#    z 0.000000 0.000000 3.647190 
# 
# 
# High freq. dielectric constant tensor:
#      x y z
#    x 1.721100 0.000000 0.000000 
#    y 0.000000 1.721100 0.000000 
#    z 0.000000 0.000000 1.736850 
# 
# From -- ./inp_files/2325.got.cif
#   From: 2010.03.12/outbox.cif.g09.slc.cpg/sg113_cif.got.tgz:2325.got - 2010.04.14 02:06:34.
