data_PCOD8308765
_publ_section_title
;
Structure prediction by ZEFSAII (Michael W. Deem and Ramdas Pophale) SiO2 
 PCOD8308765
Probable space group: P -4 21 M 
;
_chemical_formula_sum "Si O2"
_cell_formula_units_Z 40
_cell_length_a 13.849710
_cell_length_b 13.849710
_cell_length_c 10.003114
_cell_angle_alpha 90.000000
_cell_angle_beta 90.000000
_cell_angle_gamma 90.000000
_cell_volume 1918.741981
_symmetry_space_group_name_H-M "P -4 21 M "
_symmetry_group_IT_number 113
_symmetry_cell_setting 'tetragonal'
loop_
_space_group_symop_operation_xyz
x,y,z
y,-x,-z
-x,-y,z
-y,x,-z
1/2+x,1/2-y,-z
1/2-x,1/2+y,-z
1/2-y,1/2-x,z
1/2+y,1/2+x,z
loop_
_atom_site_type_symbol
_atom_site_label
_atom_site_fract_x
_atom_site_fract_y
_atom_site_fract_z
Si Si1 0.350089 0.447410 0.730560
Si Si2 0.580557 0.919444 0.910764
Si Si3 0.148551 0.951941 0.772505
Si Si4 0.564411 0.224263 0.018503
Si Si5 0.919497 0.419497 0.388846
Si Si6 0.566643 0.225395 0.525033
O O1 0.433927 0.369128 0.752692
O O2 0.391423 0.553123 0.750132
O O3 0.261109 0.429952 0.830198
O O4 0.311443 0.437105 0.580645
O O5 0.613001 0.887000 0.760987
O O6 0.500000 0.000000 0.898565
O O7 0.537899 0.828749 0.992054
O O8 0.230436 0.915612 0.671133
O O9 0.183608 0.929167 0.921796
O O10 0.653010 0.153010 0.990391
O O11 0.830777 0.463902 0.472772
O O12 0.000000 0.500000 0.368740
O O13 0.653743 0.153743 0.489707
#
# Coordination Sequence:
#
# PCOD8308765 Si02
#       6
#     8   4   8   8   4   8
#     4  11  25  43  62  91 132 169 202 259 323 364
#     4   9  18  37  65  89 125 167 195 246 322 375
#     4  11  23  45  64  85 130 179 206 241 319 390
#     4  11  22  42  66  96 126 159 214 265 307 369
#     4   9  18  37  65  89 125 167 195 246 322 375
#     4  11  22  42  66  96 126 159 214 265 307 369
#
# _framework density 20.846992
#
# number of rings (size 3 to 8) (size 9 to 14) (size 15 to 20)
#    0.000    1.400    2.000    3.600    0.000    4.000 
#   21.600    3.000    0.000    0.000    0.000    0.000 
#    0.000    0.000    0.000    0.000    0.000    0.000 
#
# Total GULP energy -496183.499084 kJ/mol
# GULP energy per Si atom -12404.587477 kJ/mol
# Density = 2.079954 g / cm^3
# Si number density = 20.846992 Si / 1000 Ang^3
#
#
#
# Elastic Constant Matrix: (Units=GPa)
#
#
# Indices 1 2 3 4 5 6 
#
# 1 83.2547 27.7678 17.8112 0.0000 0.0000 0.0000
# 2 27.7678 83.2544 17.8111 0.0000 0.0000 0.0000
# 3 17.8112 17.8111 76.4916 0.0000 0.0000 0.0000
# 4 0.0000 0.0000 0.0000 37.4201 0.0000 0.0000
# 5 0.0000 0.0000 0.0000 0.0000 37.4200 0.0000
# 6 0.0000 0.0000 0.0000 0.0000 0.0000 26.6851
#
#
#
# Elastic Compliance Matrix: (Units=1/GPa)
#
#
# Indices 1 2 3 4 5 6 
#
# 1 0.013878 -0.004144 -0.002267 0.000000 0.000000 0.000000
# 2 -0.004144 0.013878 -0.002267 0.000000 0.000000 0.000000
# 3 -0.002267 -0.002267 0.014129 0.000000 0.000000 0.000000
# 4 0.000000 0.000000 0.000000 0.026724 0.000000 0.000000
# 5 0.000000 0.000000 0.000000 0.000000 0.026724 0.000000
# 6 0.000000 0.000000 0.000000 0.000000 0.000000 0.037474
#
#
# Mechanical properties :
#
#
# Convention : Reuss Voigt Hill
#
# Bulk Modulus (GPa) = 40.76447 41.08674 40.92560
# Shear Modulus (GPa) = 31.57787 32.27908 31.92848
#
# Velocity S-wave (km/s) = 3.89619 3.93922 3.91776
# Velocity P-wave (km/s) = 6.31166 6.35935 6.33555
#
# Compressibility (1/GPa) = 0.02453117
#
# Stress axis : x y z
#
# Youngs Moduli (GPa) = 72.05454 72.05432 70.77675
#
# Poissons Ratio (x) = 0.29859 0.16043
# Poissons Ratio (y) = 0.29859 0.16043
# Poissons Ratio (z) = 0.16333 0.16332
#
# Static dielectric constant tensor:
#      x y z
#    x 3.805940 0.000000 0.000000 
#    y 0.000000 3.805940 0.000000 
#    z 0.000000 0.000000 3.671410 
# 
# 
# High freq. dielectric constant tensor:
#      x y z
#    x 1.817630 0.000000 0.000000 
#    y 0.000000 1.817630 0.000000 
#    z 0.000000 0.000000 1.817610 
# 
# From -- ./inp_files/1057.got.cif
#   From: 2010.03.12/outbox.cif.g09.slc.cpg/sg113_cif.got.tgz:1057.got - 2010.04.14 02:06:34.
