data_PCOD8308223
_publ_section_title
;
Structure prediction by ZEFSAII (Michael W. Deem and Ramdas Pophale) SiO2 
 PCOD8308223
Probable space group: P -4 2 M 
;
_chemical_formula_sum "Si O2"
_cell_formula_units_Z 40
_cell_length_a 12.805194
_cell_length_b 12.805194
_cell_length_c 12.859343
_cell_angle_alpha 90.000000
_cell_angle_beta 90.000000
_cell_angle_gamma 90.000000
_cell_volume 2108.584965
_symmetry_space_group_name_H-M "P -4 2 M "
_symmetry_group_IT_number 111
_symmetry_cell_setting 'tetragonal'
loop_
_space_group_symop_operation_xyz
x,y,z
y,-x,-z
-x,-y,z
-y,x,-z
x,-y,-z
-x,y,-z
-y,-x,z
y,x,z
loop_
_atom_site_type_symbol
_atom_site_label
_atom_site_fract_x
_atom_site_fract_y
_atom_site_fract_z
Si Si1 0.763897 0.062798 0.892101
Si Si2 0.786409 0.622266 0.220901
Si Si3 0.435127 0.733902 0.098518
Si Si4 0.297130 0.129757 0.764737
Si Si5 0.882026 0.487007 0.388290
O O1 0.874740 0.125261 0.887657
O O2 0.668498 0.144707 0.875607
O O3 0.752199 0.981965 0.795824
O O4 0.754944 0.000000 0.000000
O O5 0.711069 0.711069 0.264738
O O6 0.716771 0.523126 0.186237
O O7 0.856993 0.585164 0.315344
O O8 0.374264 0.625737 0.077928
O O9 0.355431 0.824898 0.132743
O O10 0.500000 0.772247 0.000000
O O11 0.202396 0.202396 0.730414
O O12 0.375485 0.133109 0.667361
O O13 0.821278 0.500000 0.500000
O O14 0.000000 0.500000 0.416447
#
# Coordination Sequence:
#
# PCOD8308223 Si02
#       5
#     8   8   8   8   8
#     4  11  22  36  55  81 115 155 192 229 277 335
#     4  10  21  36  55  82 113 146 187 233 281 333
#     4  10  20  33  52  78 112 152 189 229 277 334
#     4  10  21  37  56  84 114 144 187 235 281 333
#     4  10  20  38  61  82 106 141 187 231 280 332
#
# _framework density 18.970068000000001
#
# number of rings (size 3 to 8) (size 9 to 14) (size 15 to 20)
#    0.000    1.800    2.000    2.400    0.000    6.800 
#    0.000    3.000    0.000    0.000    0.000    2.800 
#    0.000    0.000    0.000    0.000    0.000    0.000 
#
# Total GULP energy -495569.438865 kJ/mol
# GULP energy per Si atom -12389.235972 kJ/mol
# Density = 1.892689 g / cm^3
# Si number density = 18.970068 Si / 1000 Ang^3
#
#
#
# Elastic Constant Matrix: (Units=GPa)
#
#
# Indices 1 2 3 4 5 6 
#
# 1 89.3019 44.2759 25.3487 0.0000 0.0000 0.0000
# 2 44.2759 89.3025 25.3489 0.0000 0.0000 0.0000
# 3 25.3487 25.3489 87.9609 0.0000 0.0000 0.0000
# 4 0.0000 0.0000 0.0000 18.4234 0.0000 0.0000
# 5 0.0000 0.0000 0.0000 0.0000 18.4228 0.0000
# 6 0.0000 0.0000 0.0000 0.0000 0.0000 23.9509
#
#
#
# Elastic Compliance Matrix: (Units=1/GPa)
#
#
# Indices 1 2 3 4 5 6 
#
# 1 0.015307 -0.006902 -0.002422 0.000000 0.000000 0.000000
# 2 -0.006902 0.015307 -0.002422 0.000000 0.000000 0.000000
# 3 -0.002422 -0.002422 0.012765 0.000000 0.000000 0.000000
# 4 0.000000 0.000000 0.000000 0.054279 0.000000 0.000000
# 5 0.000000 0.000000 0.000000 0.000000 0.054280 0.000000
# 6 0.000000 0.000000 0.000000 0.000000 0.000000 0.041752
#
#
# Mechanical properties :
#
#
# Convention : Reuss Voigt Hill
#
# Bulk Modulus (GPa) = 50.28491 50.72359 50.50425
# Shear Modulus (GPa) = 22.34008 23.59888 22.96948
#
# Velocity S-wave (km/s) = 3.43541 3.53087 3.48347
# Velocity P-wave (km/s) = 6.50393 6.58935 6.54678
#
# Compressibility (1/GPa) = 0.01988668
#
# Stress axis : x y z
#
# Youngs Moduli (GPa) = 65.32750 65.32793 78.34015
#
# Poissons Ratio (x) = 0.45088 0.18977
# Poissons Ratio (y) = 0.45088 0.18977
# Poissons Ratio (z) = 0.15825 0.15825
#
# Static dielectric constant tensor:
#      x y z
#    x 3.548390 0.000000 0.000000 
#    y 0.000000 3.548380 0.000000 
#    z 0.000000 0.000000 3.436630 
# 
# 
# High freq. dielectric constant tensor:
#      x y z
#    x 1.738230 0.000000 0.000000 
#    y 0.000000 1.738230 0.000000 
#    z 0.000000 0.000000 1.722660 
# 
# From -- ./inp_files/3197.got.cif
#   From: 2010.03.12/outbox.cif.g09.slc.cpg/sg111_2_cif.got.tgz:3197.got - 2010.04.14 01:59:48.
