data_PCOD8308655
_publ_section_title
;
Structure prediction by ZEFSAII (Michael W. Deem and Ramdas Pophale) SiO2 
 PCOD8308655
Probable space group: P -4 21 M 
;
_chemical_formula_sum "Si O2"
_cell_formula_units_Z 48
_cell_length_a 16.823462
_cell_length_b 16.823462
_cell_length_c 9.140830
_cell_angle_alpha 90.000000
_cell_angle_beta 90.000000
_cell_angle_gamma 90.000000
_cell_volume 2587.118819
_symmetry_space_group_name_H-M "P -4 21 M "
_symmetry_group_IT_number 113
_symmetry_cell_setting 'tetragonal'
loop_
_space_group_symop_operation_xyz
x,y,z
y,-x,-z
-x,-y,z
-y,x,-z
1/2+x,1/2-y,-z
1/2-x,1/2+y,-z
1/2-y,1/2-x,z
1/2+y,1/2+x,z
loop_
_atom_site_type_symbol
_atom_site_label
_atom_site_fract_x
_atom_site_fract_y
_atom_site_fract_z
Si Si1 0.594844 0.564450 0.076712
Si Si2 0.064451 0.094843 0.423288
Si Si3 0.731977 0.106305 0.580163
Si Si4 0.505589 0.872054 0.086046
Si Si5 0.005588 0.627946 0.586057
Si Si6 0.268024 0.893696 0.919829
O O1 0.576655 0.558010 0.250000
O O2 0.674508 0.615588 0.046735
O O3 0.607152 0.476466 0.009223
O O4 0.115588 0.174507 0.453269
O O5 0.976466 0.107153 0.490777
O O6 0.683793 0.183793 0.520036
O O7 0.716192 0.096856 0.749996
O O8 0.701525 0.023514 0.510750
O O9 0.438148 0.938148 0.085143
O O10 0.519852 0.840416 0.249994
O O11 0.587679 0.912322 0.026830
O O12 0.476487 0.798476 0.989239
O O13 0.087678 0.587678 0.526842
O O14 0.938148 0.561853 0.585154
O O15 0.316208 0.816208 0.979956
#
# Coordination Sequence:
#
# PCOD8308655 Si02
#       6
#     8   8   8   8   8   8
#     4  10  20  35  55  75  97 127 165 205 243 288
#     4  10  20  35  55  75  97 127 165 205 243 288
#     4   9  18  32  50  73 100 129 161 200 247 294
#     4   8  14  25  42  66  96 129 163 196 233 282
#     4   8  14  25  42  66  96 129 163 196 233 282
#     4   9  18  32  50  73 100 129 161 200 247 294
#
# _framework density 18.553457000000002
#
# number of rings (size 3 to 8) (size 9 to 14) (size 15 to 20)
#    0.000    3.000    0.000    3.000    0.000    3.333 
#    0.000    5.000    0.000    6.000    0.000    0.000 
#    0.000    0.000    0.000    0.000    0.000    0.000 
#
# Total GULP energy -594720.749647 kJ/mol
# GULP energy per Si atom -12390.015618 kJ/mol
# Density = 1.851123 g / cm^3
# Si number density = 18.553457 Si / 1000 Ang^3
#
#
#
# Elastic Constant Matrix: (Units=GPa)
#
#
# Indices 1 2 3 4 5 6 
#
# 1 76.6295 33.1612 27.5061 0.0000 0.0000 0.0000
# 2 33.1612 76.6295 27.5060 0.0000 0.0000 0.0000
# 3 27.5061 27.5060 61.1776 0.0000 0.0000 0.0000
# 4 0.0000 0.0000 0.0000 22.9807 0.0000 0.0000
# 5 0.0000 0.0000 0.0000 0.0000 22.9806 0.0000
# 6 0.0000 0.0000 0.0000 0.0000 0.0000 16.9300
#
#
#
# Elastic Compliance Matrix: (Units=1/GPa)
#
#
# Indices 1 2 3 4 5 6 
#
# 1 0.017381 -0.005624 -0.005286 0.000000 0.000000 0.000000
# 2 -0.005624 0.017381 -0.005286 0.000000 0.000000 0.000000
# 3 -0.005286 -0.005286 0.021099 0.000000 0.000000 0.000000
# 4 0.000000 0.000000 0.000000 0.043515 0.000000 0.000000
# 5 0.000000 0.000000 0.000000 0.000000 0.043515 0.000000
# 6 0.000000 0.000000 0.000000 0.000000 0.000000 0.059067
#
#
# Mechanical properties :
#
#
# Convention : Reuss Voigt Hill
#
# Bulk Modulus (GPa) = 42.60966 43.42034 43.01500
# Shear Modulus (GPa) = 20.64636 20.99578 20.82107
#
# Velocity S-wave (km/s) = 3.33949 3.36763 3.35359
# Velocity P-wave (km/s) = 6.15511 6.21087 6.18305
#
# Compressibility (1/GPa) = 0.02346886
#
# Stress axis : x y z
#
# Youngs Moduli (GPa) = 57.53381 57.53391 47.39528
#
# Poissons Ratio (x) = 0.32358 0.25053
# Poissons Ratio (y) = 0.32358 0.25053
# Poissons Ratio (z) = 0.30413 0.30412
#
# Static dielectric constant tensor:
#      x y z
#    x 3.460770 0.000000 0.000000 
#    y 0.000000 3.460770 0.000000 
#    z 0.000000 0.000000 3.488050 
# 
# 
# High freq. dielectric constant tensor:
#      x y z
#    x 1.703220 0.000000 0.000000 
#    y 0.000000 1.703220 0.000000 
#    z 0.000000 0.000000 1.716480 
# 
# From -- ./inp_files/1159.got.cif
#   From: 2010.03.12/outbox.cif.g09.slc.cpg/sg113_cif.got.tgz:1159.got - 2010.04.14 02:06:34.
