data_PCOD8308932
_publ_section_title
;
Structure prediction by ZEFSAII (Michael W. Deem and Ramdas Pophale) SiO2 
 PCOD8308932
Probable space group: P -4 21 C
;
_chemical_formula_sum "Si O2"
_cell_formula_units_Z 60
_cell_length_a 16.868049
_cell_length_b 16.868049
_cell_length_c 9.263971
_cell_angle_alpha 90.000000
_cell_angle_beta 90.000000
_cell_angle_gamma 90.000000
_cell_volume 2635.887647
_symmetry_space_group_name_H-M "P -4 21 C"
_symmetry_group_IT_number 114
_symmetry_cell_setting 'tetragonal'
loop_
_space_group_symop_operation_xyz
x,y,z
y,-x,-z
-x,-y,z
-y,x,-z
1/2+x,1/2-y,1/2-z
1/2-x,1/2+y,1/2-z
1/2-y,1/2-x,1/2+z
1/2+y,1/2+x,1/2+z
loop_
_atom_site_type_symbol
_atom_site_label
_atom_site_fract_x
_atom_site_fract_y
_atom_site_fract_z
Si Si1 0.174358 0.774318 0.208805
Si Si2 0.000000 0.500000 0.312813
Si Si3 0.112647 0.040492 0.538916
Si Si4 0.579229 0.150539 0.084015
Si Si5 0.246922 0.150825 0.464963
Si Si6 0.273775 0.497682 0.702596
Si Si7 0.333267 0.015894 0.325714
Si Si8 0.076162 0.249656 0.901235
O O1 0.181426 0.748108 0.373278
O O2 0.247204 0.729684 0.130388
O O3 0.086519 0.746658 0.157260
O O4 0.185401 0.868523 0.180798
O O5 0.977496 0.573847 0.412224
O O6 0.924881 0.479962 0.214361
O O7 0.168479 0.098160 0.444722
O O8 0.150268 0.010993 0.691025
O O9 0.032843 0.091370 0.566468
O O10 0.553630 0.208022 0.214044
O O11 0.670868 0.128654 0.085162
O O12 0.559301 0.188399 0.928676
O O13 0.319512 0.096178 0.414481
O O14 0.289296 0.449900 0.554171
O O15 0.274236 0.002659 0.189142
#
# Coordination Sequence:
#
# PCOD8308932 Si02
#       8
#     8   4   8   8   8   8   8   8
#     4  11  27  45  71 108 143 193 240 303 375 433
#     4  10  22  36  66  98 146 184 242 290 352 438
#     4  10  24  48  79 105 133 194 250 302 363 434
#     4  11  22  42  67  99 140 193 236 289 354 444
#     4  11  26  42  72 101 145 180 243 300 360 440
#     4  11  25  49  70 107 153 179 248 307 357 451
#     4  11  23  42  66 101 140 194 236 291 363 437
#     4  11  27  43  72 105 145 191 238 302 376 436
#
# _framework density 22.762730000000001
#
# number of rings (size 3 to 8) (size 9 to 14) (size 15 to 20)
#    0.000    1.200    2.667    2.800   11.200    2.133 
#    0.000    0.000    0.000    0.000    0.000    0.000 
#    0.000    0.000    0.000    0.000    0.000    0.000 
#
# Total GULP energy -743458.482329 kJ/mol
# GULP energy per Si atom -12390.974705 kJ/mol
# Density = 2.271092 g / cm^3
# Si number density = 22.762730 Si / 1000 Ang^3
#
#
#
# Elastic Constant Matrix: (Units=GPa)
#
#
# Indices 1 2 3 4 5 6 
#
# 1 90.3851 49.6192 54.8557 0.0000 0.0000 0.0000
# 2 49.6192 90.3851 54.8557 0.0000 0.0000 0.0000
# 3 54.8557 54.8557 133.8281 0.0000 0.0000 0.0000
# 4 0.0000 0.0000 0.0000 38.0810 0.0000 0.0000
# 5 0.0000 0.0000 0.0000 0.0000 38.0810 0.0000
# 6 0.0000 0.0000 0.0000 0.0000 0.0000 46.1176
#
#
#
# Elastic Compliance Matrix: (Units=1/GPa)
#
#
# Indices 1 2 3 4 5 6 
#
# 1 0.017526 -0.007004 -0.004313 0.000000 0.000000 0.000000
# 2 -0.007004 0.017526 -0.004313 0.000000 0.000000 0.000000
# 3 -0.004313 -0.004313 0.011008 0.000000 0.000000 0.000000
# 4 0.000000 0.000000 0.000000 0.026260 0.000000 0.000000
# 5 0.000000 0.000000 0.000000 0.000000 0.026260 0.000000
# 6 0.000000 0.000000 0.000000 0.000000 0.000000 0.021684
#
#
# Mechanical properties :
#
#
# Convention : Reuss Voigt Hill
#
# Bulk Modulus (GPa) = 67.56466 70.36219 68.96343
# Shear Modulus (GPa) = 31.95737 34.80707 33.38222
#
# Velocity S-wave (km/s) = 3.75098 3.91465 3.83368
# Velocity P-wave (km/s) = 6.96465 7.17014 7.06814
#
# Compressibility (1/GPa) = 0.01480064
#
# Stress axis : x y z
#
# Youngs Moduli (GPa) = 57.05665 57.05665 90.84153
#
# Poissons Ratio (x) = 0.39962 0.39181
# Poissons Ratio (y) = 0.39962 0.39181
# Poissons Ratio (z) = 0.24609 0.24609
#
# Static dielectric constant tensor:
#      x y z
#    x 4.133010 0.000000 0.000000 
#    y 0.000000 4.133010 0.000000 
#    z 0.000000 0.000000 4.102280 
# 
# 
# High freq. dielectric constant tensor:
#      x y z
#    x 1.898150 0.000000 0.000000 
#    y 0.000000 1.898150 0.000000 
#    z 0.000000 0.000000 1.894820 
# 
# From -- ./inp_files/1045.got.cif
#   From: 2010.03.12/outbox.cif.g09.slc.cpg/sg114_1_cif.got.tgz:1045.got - 2010.04.14 02:08:34.
