data_PCOD8308730
_publ_section_title
;
Structure prediction by ZEFSAII (Michael W. Deem and Ramdas Pophale) SiO2 
 PCOD8308730
Probable space group: P -4 21 M 
;
_chemical_formula_sum "Si O2"
_cell_formula_units_Z 40
_cell_length_a 13.764277
_cell_length_b 13.764277
_cell_length_c 11.443104
_cell_angle_alpha 90.000000
_cell_angle_beta 90.000000
_cell_angle_gamma 90.000000
_cell_volume 2167.956945
_symmetry_space_group_name_H-M "P -4 21 M "
_symmetry_group_IT_number 113
_symmetry_cell_setting 'tetragonal'
loop_
_space_group_symop_operation_xyz
x,y,z
y,-x,-z
-x,-y,z
-y,x,-z
1/2+x,1/2-y,-z
1/2-x,1/2+y,-z
1/2-y,1/2-x,z
1/2+y,1/2+x,z
loop_
_atom_site_type_symbol
_atom_site_label
_atom_site_fract_x
_atom_site_fract_y
_atom_site_fract_z
Si Si1 0.099117 0.241909 0.857470
Si Si2 0.395289 0.265898 0.256838
Si Si3 0.597492 0.257027 0.870861
Si Si4 0.848584 0.948243 0.501157
Si Si5 0.902301 0.240146 0.257617
O O1 0.162507 0.337494 0.833949
O O2 0.144182 0.149591 0.791584
O O3 0.993387 0.263533 0.807989
O O4 0.094385 0.216238 0.993476
O O5 0.323945 0.176056 0.240367
O O6 0.350844 0.362247 0.197728
O O7 0.412618 0.285453 0.392608
O O8 0.663817 0.163817 0.845715
O O9 0.490545 0.231570 0.826556
O O10 0.779805 0.941769 0.613204
O O11 0.941139 0.879510 0.519502
O O12 0.830629 0.330629 0.259037
#
# Coordination Sequence:
#
# PCOD8308730 Si02
#       5
#     8   8   8   8   8
#     4  10  22  39  60  88 120 154 194 239 291 352
#     4  11  22  39  61  86 119 156 195 242 294 345
#     4  10  22  39  60  88 120 154 194 239 291 352
#     4  11  21  38  62  87 116 152 194 245 298 342
#     4  11  22  39  61  86 119 156 195 242 294 345
#
# _framework density 18.450551000000001
#
# number of rings (size 3 to 8) (size 9 to 14) (size 15 to 20)
#    0.000    1.400    4.000    1.800    0.000    4.000 
#    0.000    5.000    0.000    2.400    0.000    0.000 
#    0.000    0.000    0.000    0.000    0.000    0.000 
#
# Total GULP energy -496273.675481 kJ/mol
# GULP energy per Si atom -12406.841887 kJ/mol
# Density = 1.840856 g / cm^3
# Si number density = 18.450551 Si / 1000 Ang^3
#
#
#
# Elastic Constant Matrix: (Units=GPa)
#
#
# Indices 1 2 3 4 5 6 
#
# 1 88.5158 19.8980 26.2967 0.0000 0.0000 0.0000
# 2 19.8980 88.5144 26.2943 0.0000 0.0000 0.0000
# 3 26.2967 26.2943 84.6871 0.0000 0.0000 0.0000
# 4 0.0000 0.0000 0.0000 34.3360 0.0000 0.0000
# 5 0.0000 0.0000 0.0000 0.0000 34.3355 0.0000
# 6 0.0000 0.0000 0.0000 0.0000 0.0000 16.0716
#
#
#
# Elastic Compliance Matrix: (Units=1/GPa)
#
#
# Indices 1 2 3 4 5 6 
#
# 1 0.012717 -0.001857 -0.003372 0.000000 0.000000 0.000000
# 2 -0.001857 0.012717 -0.003372 0.000000 0.000000 0.000000
# 3 -0.003372 -0.003372 0.013902 0.000000 0.000000 0.000000
# 4 0.000000 0.000000 0.000000 0.029124 0.000000 0.000000
# 5 0.000000 0.000000 0.000000 0.000000 0.029124 0.000000
# 6 0.000000 0.000000 0.000000 0.000000 0.000000 0.062222
#
#
# Mechanical properties :
#
#
# Convention : Reuss Voigt Hill
#
# Bulk Modulus (GPa) = 45.17986 45.18836 45.18411
# Shear Modulus (GPa) = 27.11716 29.56385 28.34050
#
# Velocity S-wave (km/s) = 3.83785 4.00725 3.92347
# Velocity P-wave (km/s) = 6.64673 6.77905 6.71322
#
# Compressibility (1/GPa) = 0.02213376
#
# Stress axis : x y z
#
# Youngs Moduli (GPa) = 78.63692 78.63703 71.93125
#
# Poissons Ratio (x) = 0.14603 0.24256
# Poissons Ratio (y) = 0.14603 0.24253
# Poissons Ratio (z) = 0.26518 0.26514
#
# Static dielectric constant tensor:
#      x y z
#    x 3.340160 0.000000 0.000000 
#    y 0.000000 3.340160 0.000000 
#    z 0.000000 0.000000 3.511430 
# 
# 
# High freq. dielectric constant tensor:
#      x y z
#    x 1.715910 0.000000 0.000000 
#    y 0.000000 1.715910 0.000000 
#    z 0.000000 0.000000 1.734700 
# 
# From -- ./inp_files/1002.got.cif
#   From: 2010.03.12/outbox.cif.g09.slc.cpg/sg113_cif.got.tgz:1002.got - 2010.04.14 02:06:34.
