data_PCOD8308414
_publ_section_title
;
Structure prediction by ZEFSAII (Michael W. Deem and Ramdas Pophale) SiO2 
 PCOD8308414
Probable space group: P -4 2 C
;
_chemical_formula_sum "Si O2"
_cell_formula_units_Z 26
_cell_length_a 9.029643
_cell_length_b 9.029643
_cell_length_c 15.314858
_cell_angle_alpha 90.000000
_cell_angle_beta 90.000000
_cell_angle_gamma 90.000000
_cell_volume 1248.688565
_symmetry_space_group_name_H-M "P -4 2 C"
_symmetry_group_IT_number 112
_symmetry_cell_setting 'tetragonal'
loop_
_space_group_symop_operation_xyz
x,y,z
y,-x,-z
-x,-y,z
-y,x,-z
x,-y,1/2-z
-x,y,1/2-z
-y,-x,1/2+z
y,x,1/2+z
loop_
_atom_site_type_symbol
_atom_site_label
_atom_site_fract_x
_atom_site_fract_y
_atom_site_fract_z
Si Si1 0.475930 0.671460 0.849723
Si Si2 0.000000 0.000000 0.750000
Si Si3 0.089618 0.636017 0.033465
Si Si4 0.835532 0.802795 0.115871
O O1 0.500000 0.500000 0.869382
O O2 0.500000 0.717617 0.750000
O O3 0.580575 0.762287 0.917047
O O4 0.301746 0.697402 0.861839
O O5 0.912819 0.118590 0.807996
O O6 0.000000 0.500000 0.986925
O O7 0.978826 0.699850 0.105383
O O8 0.112138 0.775169 0.969236
#
# Coordination Sequence:
#
# PCOD8308414 Si02
#       4
#     8   2   8   8
#     4  10  23  41  65  97 131 169 218 277 334 395
#     4  12  24  42  64  96 136 178 226 270 348 398
#     4  10  23  40  66  97 128 172 225 273 342 401
#     4  11  23  41  66  92 131 176 216 280 328 409
#
# _framework density 20.821843999999999
#
# number of rings (size 3 to 8) (size 9 to 14) (size 15 to 20)
#    0.000    1.538    0.000    3.692    8.615    4.308 
#    5.538    0.000    0.000    0.000    0.000    0.000 
#    0.000    0.000    0.000    0.000    0.000    0.000 
#
# Total GULP energy -322213.549977 kJ/mol
# GULP energy per Si atom -12392.828845 kJ/mol
# Density = 2.077445 g / cm^3
# Si number density = 20.821844 Si / 1000 Ang^3
#
#
#
# Elastic Constant Matrix: (Units=GPa)
#
#
# Indices 1 2 3 4 5 6 
#
# 1 130.4659 60.2736 51.1901 0.0000 0.0000 0.0000
# 2 60.2736 130.4659 51.1901 0.0000 0.0000 0.0000
# 3 51.1901 51.1901 99.1216 0.0000 0.0000 0.0000
# 4 0.0000 0.0000 0.0000 49.7293 0.0000 0.0000
# 5 0.0000 0.0000 0.0000 0.0000 49.7293 0.0000
# 6 0.0000 0.0000 0.0000 0.0000 0.0000 32.1209
#
#
#
# Elastic Compliance Matrix: (Units=1/GPa)
#
#
# Indices 1 2 3 4 5 6 
#
# 1 0.010750 -0.003497 -0.003746 0.000000 0.000000 0.000000
# 2 -0.003497 0.010750 -0.003746 0.000000 0.000000 0.000000
# 3 -0.003746 -0.003746 0.013958 0.000000 0.000000 0.000000
# 4 0.000000 0.000000 0.000000 0.020109 0.000000 0.000000
# 5 0.000000 0.000000 0.000000 0.000000 0.020109 0.000000
# 6 0.000000 0.000000 0.000000 0.000000 0.000000 0.031132
#
#
# Mechanical properties :
#
#
# Convention : Reuss Voigt Hill
#
# Bulk Modulus (GPa) = 74.17966 76.15121 75.16543
# Shear Modulus (GPa) = 37.51552 39.47588 38.49570
#
# Velocity S-wave (km/s) = 4.24929 4.35890 4.30445
# Velocity P-wave (km/s) = 7.73166 7.87309 7.80269
#
# Compressibility (1/GPa) = 0.01348078
#
# Stress axis : x y z
#
# Youngs Moduli (GPa) = 93.02343 93.02343 71.64509
#
# Poissons Ratio (x) = 0.32526 0.26838
# Poissons Ratio (y) = 0.32526 0.26838
# Poissons Ratio (z) = 0.34846 0.34846
#
# Static dielectric constant tensor:
#      x y z
#    x 3.731900 0.000000 0.000000 
#    y 0.000000 3.731900 0.000000 
#    z 0.000000 0.000000 3.677390 
# 
# 
# High freq. dielectric constant tensor:
#      x y z
#    x 1.828970 0.000000 0.000000 
#    y 0.000000 1.828970 0.000000 
#    z 0.000000 0.000000 1.806950 
# 
# From -- ./inp_files/3721.got.cif
#   From: 2010.03.12/outbox.cif.g09.slc.cpg/sg112_2_cif.got.tgz:3721.got - 2010.04.14 02:02:48.
