data_PCOD8308971
_publ_section_title
;
Structure prediction by ZEFSAII (Michael W. Deem and Ramdas Pophale) SiO2 
 PCOD8308971
Probable space group: P -4 21 C
;
_chemical_formula_sum "Si O2"
_cell_formula_units_Z 56
_cell_length_a 14.390966
_cell_length_b 14.390966
_cell_length_c 10.791403
_cell_angle_alpha 90.000000
_cell_angle_beta 90.000000
_cell_angle_gamma 90.000000
_cell_volume 2234.898508
_symmetry_space_group_name_H-M "P -4 21 C"
_symmetry_group_IT_number 114
_symmetry_cell_setting 'tetragonal'
loop_
_space_group_symop_operation_xyz
x,y,z
y,-x,-z
-x,-y,z
-y,x,-z
1/2+x,1/2-y,1/2-z
1/2-x,1/2+y,1/2-z
1/2-y,1/2-x,1/2+z
1/2+y,1/2+x,1/2+z
loop_
_atom_site_type_symbol
_atom_site_label
_atom_site_fract_x
_atom_site_fract_y
_atom_site_fract_z
Si Si1 0.097319 0.899202 0.049492
Si Si2 0.882226 0.510997 0.383127
Si Si3 0.693264 0.910889 0.671461
Si Si4 0.698197 0.696451 0.644994
Si Si5 0.310123 0.504389 0.261991
Si Si6 0.006583 0.848478 0.497856
Si Si7 0.557739 0.138382 0.340880
O O1 0.113246 0.928188 0.193106
O O2 0.167301 0.818510 0.999876
O O3 0.990257 0.873835 0.032489
O O4 0.922934 0.406617 0.396207
O O5 0.773904 0.507921 0.356866
O O6 0.900031 0.558581 0.517759
O O7 0.929668 0.560135 0.264882
O O8 0.720181 0.803141 0.678548
O O9 0.774104 0.968640 0.605061
O O10 0.686639 0.957449 0.809114
O O11 0.611410 0.656920 0.725175
O O12 0.790690 0.641952 0.679125
O O13 0.287651 0.482603 0.120119
O O14 0.916371 0.908634 0.463554
#
# Coordination Sequence:
#
# PCOD8308971 Si02
#       7
#     8   8   8   8   8   8   8
#     4   9  18  37  70 108 152 196 253 321 387 467
#     4  11  28  49  80 112 158 207 267 327 396 475
#     4  11  28  49  77 112 158 204 260 331 396 486
#     4  10  23  45  72 116 146 204 260 322 397 468
#     4  10  22  45  71 108 156 201 258 318 392 479
#     4  11  27  49  76 115 159 206 260 330 408 478
#     4  12  27  51  78 116 153 208 265 332 396 473
#
# _framework density 25.057065999999999
#
# number of rings (size 3 to 8) (size 9 to 14) (size 15 to 20)
#    0.000    1.429    1.429    1.286    8.000    8.000 
#    2.571    0.000    0.000    0.000    0.000    0.000 
#    0.000    0.000    0.000    0.000    0.000    0.000 
#
# Total GULP energy -693884.073428 kJ/mol
# GULP energy per Si atom -12390.787026 kJ/mol
# Density = 2.500003 g / cm^3
# Si number density = 25.057066 Si / 1000 Ang^3
#
#
#
# Elastic Constant Matrix: (Units=GPa)
#
#
# Indices 1 2 3 4 5 6 
#
# 1 90.1172 42.6927 39.9488 0.0000 0.0000 0.0000
# 2 42.6927 90.1172 39.9488 0.0000 0.0000 0.0000
# 3 39.9488 39.9488 129.1807 0.0000 0.0000 0.0000
# 4 0.0000 0.0000 0.0000 24.1731 0.0000 0.0000
# 5 0.0000 0.0000 0.0000 0.0000 24.1731 0.0000
# 6 0.0000 0.0000 0.0000 0.0000 0.0000 30.7717
#
#
#
# Elastic Compliance Matrix: (Units=1/GPa)
#
#
# Indices 1 2 3 4 5 6 
#
# 1 0.015168 -0.005918 -0.002861 0.000000 0.000000 0.000000
# 2 -0.005918 0.015168 -0.002861 0.000000 0.000000 0.000000
# 3 -0.002861 -0.002861 0.009510 0.000000 0.000000 0.000000
# 4 0.000000 0.000000 0.000000 0.041368 0.000000 0.000000
# 5 0.000000 0.000000 0.000000 0.000000 0.041368 0.000000
# 6 0.000000 0.000000 0.000000 0.000000 0.000000 0.032497
#
#
# Mechanical properties :
#
#
# Convention : Reuss Voigt Hill
#
# Bulk Modulus (GPa) = 60.35483 61.62176 60.98830
# Shear Modulus (GPa) = 27.19131 28.27858 27.73494
#
# Velocity S-wave (km/s) = 3.29777 3.36306 3.33058
# Velocity P-wave (km/s) = 6.21608 6.30287 6.25963
#
# Compressibility (1/GPa) = 0.01656868
#
# Stress axis : x y z
#
# Youngs Moduli (GPa) = 65.92678 65.92678 105.14777
#
# Poissons Ratio (x) = 0.39014 0.30080
# Poissons Ratio (y) = 0.39014 0.30080
# Poissons Ratio (z) = 0.18860 0.18860
#
# Static dielectric constant tensor:
#      x y z
#    x 4.656350 0.000000 0.000000 
#    y 0.000000 4.656350 0.000000 
#    z 0.000000 0.000000 4.329510 
# 
# 
# High freq. dielectric constant tensor:
#      x y z
#    x 2.004500 0.000000 0.000000 
#    y 0.000000 2.004500 0.000000 
#    z 0.000000 0.000000 1.987020 
# 
# From -- ./inp_files/1766.got.cif
#   From: 2010.03.12/outbox.cif.g09.slc.cpg/sg114_1_cif.got.tgz:1766.got - 2010.04.14 02:08:34.
