data_PCOD8308549
_publ_section_title
;
Structure prediction by ZEFSAII (Michael W. Deem and Ramdas Pophale) SiO2 
 PCOD8308549
Probable space group: P -4 21 M 
;
_chemical_formula_sum "Si O2"
_cell_formula_units_Z 52
_cell_length_a 16.569155
_cell_length_b 16.569155
_cell_length_c 9.420480
_cell_angle_alpha 90.000000
_cell_angle_beta 90.000000
_cell_angle_gamma 90.000000
_cell_volume 2586.269351
_symmetry_space_group_name_H-M "P -4 21 M "
_symmetry_group_IT_number 113
_symmetry_cell_setting 'tetragonal'
loop_
_space_group_symop_operation_xyz
x,y,z
y,-x,-z
-x,-y,z
-y,x,-z
1/2+x,1/2-y,-z
1/2-x,1/2+y,-z
1/2-y,1/2-x,z
1/2+y,1/2+x,z
loop_
_atom_site_type_symbol
_atom_site_label
_atom_site_fract_x
_atom_site_fract_y
_atom_site_fract_z
Si Si1 0.482487 0.758302 0.602254
Si Si2 0.195054 0.939701 0.890174
Si Si3 0.037569 0.838712 0.833887
Si Si4 0.863530 0.636471 0.038801
Si Si5 0.431546 0.931546 0.688345
Si Si6 0.439853 0.187886 0.344454
Si Si7 0.614149 0.543997 0.556665
Si Si8 0.563741 0.063741 0.238339
O O1 0.497552 0.723648 0.760078
O O2 0.452142 0.848658 0.612725
O O3 0.559874 0.765173 0.496387
O O4 0.421916 0.697565 0.513472
O O5 0.121334 0.885916 0.836540
O O6 0.268333 0.881125 0.938177
O O7 0.162963 0.997701 0.012324
O O8 0.055153 0.747782 0.787851
O O9 0.974821 0.880116 0.724083
O O10 0.917809 0.582192 0.144147
O O11 0.888016 0.611985 0.881300
O O12 0.500000 0.000000 0.664468
O O13 0.354889 0.145112 0.329404
O O14 0.515426 0.126387 0.337011
O O15 0.602790 0.460215 0.467949
O O16 0.500000 0.000000 0.170070
#
# Coordination Sequence:
#
# PCOD8308549 Si02
#       8
#     8   8   8   4   4   8   8   4
#     4  10  21  39  59  92 123 158 209 261 311 378
#     4  11  24  41  63  89 128 168 215 259 315 379
#     4  11  24  39  62  92 125 170 213 260 313 376
#     4  10  21  40  60  88 130 165 200 264 324 379
#     4  10  20  36  65  91 121 163 202 255 318 385
#     4  10  21  38  64  93 125 161 207 262 320 382
#     4  10  21  39  63  89 123 167 211 264 312 368
#     4  10  18  36  65  95 123 161 210 261 318 382
#
# _framework density 20.106180999999999
#
# number of rings (size 3 to 8) (size 9 to 14) (size 15 to 20)
#    0.000    1.692    3.077    1.154    3.231    0.923 
#    0.000    0.769    1.692    0.000    0.000    0.000 
#    0.000    0.000    0.000    0.000    0.000    0.000 
#
# Total GULP energy -644335.341333 kJ/mol
# GULP energy per Si atom -12391.064256 kJ/mol
# Density = 2.006042 g / cm^3
# Si number density = 20.106181 Si / 1000 Ang^3
#
#
#
# Elastic Constant Matrix: (Units=GPa)
#
#
# Indices 1 2 3 4 5 6 
#
# 1 82.7454 26.6802 28.4196 0.0000 0.0000 0.0000
# 2 26.6802 82.7444 28.4187 0.0000 0.0000 0.0000
# 3 28.4196 28.4187 125.5117 0.0000 0.0000 0.0000
# 4 0.0000 0.0000 0.0000 23.2782 0.0000 0.0000
# 5 0.0000 0.0000 0.0000 0.0000 23.2781 0.0000
# 6 0.0000 0.0000 0.0000 0.0000 0.0000 24.4669
#
#
#
# Elastic Compliance Matrix: (Units=1/GPa)
#
#
# Indices 1 2 3 4 5 6 
#
# 1 0.014097 -0.003740 -0.002345 0.000000 0.000000 0.000000
# 2 -0.003740 0.014097 -0.002345 0.000000 0.000000 0.000000
# 3 -0.002345 -0.002345 0.009029 0.000000 0.000000 0.000000
# 4 0.000000 0.000000 0.000000 0.042959 0.000000 0.000000
# 5 0.000000 0.000000 0.000000 0.000000 0.042959 0.000000
# 6 0.000000 0.000000 0.000000 0.000000 0.000000 0.040872
#
#
# Mechanical properties :
#
#
# Convention : Reuss Voigt Hill
#
# Bulk Modulus (GPa) = 49.10944 50.89315 50.00130
# Shear Modulus (GPa) = 26.64406 28.03684 27.34045
#
# Velocity S-wave (km/s) = 3.64423 3.73827 3.69155
# Velocity P-wave (km/s) = 6.49502 6.63325 6.56450
#
# Compressibility (1/GPa) = 0.02036268
#
# Stress axis : x y z
#
# Youngs Moduli (GPa) = 70.93917 70.93861 110.75002
#
# Poissons Ratio (x) = 0.26530 0.25972
# Poissons Ratio (y) = 0.26530 0.25971
# Poissons Ratio (z) = 0.16636 0.16635
#
# Static dielectric constant tensor:
#      x y z
#    x 3.750310 0.000000 0.000000 
#    y 0.000000 3.750300 0.000000 
#    z 0.000000 0.000000 3.766620 
# 
# 
# High freq. dielectric constant tensor:
#      x y z
#    x 1.776510 0.000000 0.000000 
#    y 0.000000 1.776510 0.000000 
#    z 0.000000 0.000000 1.802410 
# 
# From -- ./inp_files/1291.got.cif
#   From: 2010.03.12/outbox.cif.g09.slc.cpg/sg113_cif.got.tgz:1291.got - 2010.04.14 02:06:34.
