data_PCOD8308119
_publ_section_title
;
Structure prediction by ZEFSAII (Michael W. Deem and Ramdas Pophale) SiO2 
 PCOD8308119
Probable space group: P -4 2 M 
;
_chemical_formula_sum "Si O2"
_cell_formula_units_Z 56
_cell_length_a 17.053420
_cell_length_b 17.053420
_cell_length_c 11.695069
_cell_angle_alpha 90.000000
_cell_angle_beta 90.000000
_cell_angle_gamma 90.000000
_cell_volume 3401.149835
_symmetry_space_group_name_H-M "P -4 2 M "
_symmetry_group_IT_number 111
_symmetry_cell_setting 'tetragonal'
loop_
_space_group_symop_operation_xyz
x,y,z
y,-x,-z
-x,-y,z
-y,x,-z
x,-y,-z
-x,y,-z
-y,-x,z
y,x,z
loop_
_atom_site_type_symbol
_atom_site_label
_atom_site_fract_x
_atom_site_fract_y
_atom_site_fract_z
Si Si1 0.411062 0.883001 0.039255
Si Si2 0.846079 0.407467 0.388397
Si Si3 0.406220 0.853101 0.646608
Si Si4 0.264331 0.611835 0.201836
Si Si5 0.011350 0.592381 0.241302
Si Si6 0.345449 0.220370 0.140250
Si Si7 0.651740 0.531945 0.119778
O O1 0.407696 0.809838 0.124352
O O2 0.385076 0.961864 0.110293
O O3 0.500000 0.895986 0.000000
O O4 0.354431 0.862295 0.930697
O O5 0.847083 0.500714 0.366560
O O6 0.847510 0.375123 0.517431
O O7 0.767152 0.374089 0.330397
O O8 0.923853 0.374360 0.328357
O O9 0.369399 0.785221 0.725766
O O10 0.372922 0.929822 0.712982
O O11 0.310402 0.689599 0.160521
O O12 0.322926 0.537667 0.203951
O O13 0.000000 0.500000 0.249093
O O14 0.258160 0.258160 0.129533
O O15 0.410154 0.277249 0.084720
O O16 0.581740 0.581740 0.179456
O O17 0.620134 0.500000 0.000000
#
# Coordination Sequence:
#
# PCOD8308119 Si02
#       7
#     8   8   8   8   8   8   8
#     4  11  18  30  44  65  91 113 142 181 235 280
#     4   9  18  31  46  65  85 109 144 186 232 276
#     4  10  18  32  47  62  86 112 145 182 228 277
#     4  11  19  30  45  62  84 114 152 195 237 277
#     4   9  18  28  47  70  86 107 134 183 230 278
#     4  11  20  30  44  61  88 121 150 185 228 277
#     4  11  20  30  43  61  83 112 153 202 252 287
#
# _framework density 16.465019999999999
#
# number of rings (size 3 to 8) (size 9 to 14) (size 15 to 20)
#    0.000    1.714    4.286    3.000    0.000    5.286 
#    0.000    0.000    0.000    0.000    0.000    0.000 
#    0.000    0.000    0.000    0.000    0.000   40.000 
#
# Total GULP energy -693738.862712 kJ/mol
# GULP energy per Si atom -12388.193977 kJ/mol
# Density = 1.642755 g / cm^3
# Si number density = 16.465020 Si / 1000 Ang^3
#
#
#
# Elastic Constant Matrix: (Units=GPa)
#
#
# Indices 1 2 3 4 5 6 
#
# 1 39.2309 14.7348 21.3576 0.0000 0.0000 0.0000
# 2 14.7348 39.2310 21.3583 0.0000 0.0000 0.0000
# 3 21.3576 21.3583 114.2536 0.0000 0.0000 0.0000
# 4 0.0000 0.0000 0.0000 18.0248 0.0000 0.0000
# 5 0.0000 0.0000 0.0000 0.0000 18.0249 0.0000
# 6 0.0000 0.0000 0.0000 0.0000 0.0000 8.7615
#
#
#
# Elastic Compliance Matrix: (Units=1/GPa)
#
#
# Indices 1 2 3 4 5 6 
#
# 1 0.031285 -0.009537 -0.004065 0.000000 0.000000 0.000000
# 2 -0.009537 0.031286 -0.004066 0.000000 0.000000 0.000000
# 3 -0.004065 -0.004066 0.010272 0.000000 0.000000 0.000000
# 4 0.000000 0.000000 0.000000 0.055479 0.000000 0.000000
# 5 0.000000 0.000000 0.000000 0.000000 0.055479 0.000000
# 6 0.000000 0.000000 0.000000 0.000000 0.000000 0.114136
#
#
# Mechanical properties :
#
#
# Convention : Reuss Voigt Hill
#
# Bulk Modulus (GPa) = 26.66170 34.17963 30.42066
# Shear Modulus (GPa) = 14.46022 17.97989 16.22005
#
# Velocity S-wave (km/s) = 2.96672 3.30814 3.14207
# Velocity P-wave (km/s) = 5.28804 5.94943 5.62846
#
# Compressibility (1/GPa) = 0.03750699
#
# Stress axis : x y z
#
# Youngs Moduli (GPa) = 31.96376 31.96363 97.34803
#
# Poissons Ratio (x) = 0.30484 0.39575
# Poissons Ratio (y) = 0.30485 0.39578
# Poissons Ratio (z) = 0.12994 0.12995
#
# Static dielectric constant tensor:
#      x y z
#    x 3.020780 0.000000 0.000000 
#    y 0.000000 3.020790 0.000000 
#    z 0.000000 0.000000 3.421140 
# 
# 
# High freq. dielectric constant tensor:
#      x y z
#    x 1.597970 0.000000 0.000000 
#    y 0.000000 1.597970 0.000000 
#    z 0.000000 0.000000 1.644170 
# 
# From -- ./inp_files/2859.got.cif
#   From: 2010.03.12/outbox.cif.g09.slc.cpg/sg111_2_cif.got.tgz:2859.got - 2010.04.14 01:59:48.
