data_PCOD8308271
_publ_section_title
;
Structure prediction by ZEFSAII (Michael W. Deem and Ramdas Pophale) SiO2 
 PCOD8308271
Probable space group: P -4 2 M 
;
_chemical_formula_sum "Si O2"
_cell_formula_units_Z 32
_cell_length_a 15.293380
_cell_length_b 15.293380
_cell_length_c 7.530504
_cell_angle_alpha 90.000000
_cell_angle_beta 90.000000
_cell_angle_gamma 90.000000
_cell_volume 1761.290542
_symmetry_space_group_name_H-M "P -4 2 M "
_symmetry_group_IT_number 111
_symmetry_cell_setting 'tetragonal'
loop_
_space_group_symop_operation_xyz
x,y,z
y,-x,-z
-x,-y,z
-y,x,-z
x,-y,-z
-x,y,-z
-y,-x,z
y,x,z
loop_
_atom_site_type_symbol
_atom_site_label
_atom_site_fract_x
_atom_site_fract_y
_atom_site_fract_z
Si Si1 0.863769 0.003418 0.290025
Si Si2 0.872068 0.726505 0.238718
Si Si3 0.594724 0.101293 0.458609
Si Si4 0.898876 0.594898 0.949909
O O1 0.936064 0.936064 0.218963
O O2 0.768738 0.971100 0.218761
O O3 0.857745 0.000000 0.500000
O O4 0.898247 0.101754 0.232019
O O5 0.804118 0.804118 0.253953
O O6 0.859315 0.669798 0.416936
O O7 0.850967 0.667916 0.067943
O O8 0.500000 0.144533 0.500000
O O9 0.618874 0.117845 0.254217
O O10 0.587176 0.000000 0.500000
O O11 0.859237 0.500000 0.000000
O O12 0.000000 0.593866 0.000000
#
# Coordination Sequence:
#
# PCOD8308271 Si02
#       4
#     8   8   8   8
#     4   8  15  29  48  69 101 149 192 223 260 307
#     4  11  22  34  53  84 114 140 187 240 278 332
#     4  11  19  35  60  79 102 146 188 229 282 337
#     4  11  20  36  58  79 104 143 188 232 280 336
#
# _framework density 18.168496999999999
#
# number of rings (size 3 to 8) (size 9 to 14) (size 15 to 20)
#    0.000    1.750    5.000    3.000    0.000    1.000 
#    0.000    1.250    0.000    0.000    0.000    7.000 
#    0.000    3.000    0.000    0.000    0.000    0.000 
#
# Total GULP energy -396466.737762 kJ/mol
# GULP energy per Si atom -12389.585555 kJ/mol
# Density = 1.812714 g / cm^3
# Si number density = 18.168497 Si / 1000 Ang^3
#
#
#
# Elastic Constant Matrix: (Units=GPa)
#
#
# Indices 1 2 3 4 5 6 
#
# 1 87.2368 36.5743 41.5833 0.0000 0.0000 0.0000
# 2 36.5743 87.2362 41.5832 0.0000 0.0000 0.0000
# 3 41.5833 41.5832 157.6703 0.0000 0.0000 0.0000
# 4 0.0000 0.0000 0.0000 19.9658 0.0000 0.0000
# 5 0.0000 0.0000 0.0000 0.0000 19.9659 0.0000
# 6 0.0000 0.0000 0.0000 0.0000 0.0000 11.0587
#
#
#
# Elastic Compliance Matrix: (Units=1/GPa)
#
#
# Indices 1 2 3 4 5 6 
#
# 1 0.014777 -0.004961 -0.002589 0.000000 0.000000 0.000000
# 2 -0.004961 0.014777 -0.002589 0.000000 0.000000 0.000000
# 3 -0.002589 -0.002589 0.007708 0.000000 0.000000 0.000000
# 4 0.000000 0.000000 0.000000 0.050086 0.000000 0.000000
# 5 0.000000 0.000000 0.000000 0.000000 0.050085 0.000000
# 6 0.000000 0.000000 0.000000 0.000000 0.000000 0.090427
#
#
# Mechanical properties :
#
#
# Convention : Reuss Voigt Hill
#
# Bulk Modulus (GPa) = 58.87781 63.51387 61.19584
# Shear Modulus (GPa) = 19.70058 24.35824 22.02941
#
# Velocity S-wave (km/s) = 3.29648 3.66551 3.48588
# Velocity P-wave (km/s) = 6.85317 7.27659 7.06805
#
# Compressibility (1/GPa) = 0.01698433
#
# Stress axis : x y z
#
# Youngs Moduli (GPa) = 67.67219 67.67172 129.73799
#
# Poissons Ratio (x) = 0.33575 0.33586
# Poissons Ratio (y) = 0.33575 0.33586
# Poissons Ratio (z) = 0.17519 0.17519
#
# Static dielectric constant tensor:
#      x y z
#    x 3.484570 0.000000 0.000000 
#    y 0.000000 3.484580 0.000000 
#    z 0.000000 0.000000 3.831240 
# 
# 
# High freq. dielectric constant tensor:
#      x y z
#    x 1.671240 0.000000 0.000000 
#    y 0.000000 1.671240 0.000000 
#    z 0.000000 0.000000 1.716920 
# 
# From -- ./inp_files/1309.got.cif
#   From: 2010.03.12/outbox.cif.g09.slc.cpg/sg111_1_cif.got.tgz:1309.got - 2010.04.14 01:59:48.
