data_PCOD8308178
_publ_section_title
;
Structure prediction by ZEFSAII (Michael W. Deem and Ramdas Pophale) SiO2 
 PCOD8308178
Probable space group: P -4 2 M 
;
_chemical_formula_sum "Si O2"
_cell_formula_units_Z 36
_cell_length_a 12.012088
_cell_length_b 12.012088
_cell_length_c 13.819115
_cell_angle_alpha 90.000000
_cell_angle_beta 90.000000
_cell_angle_gamma 90.000000
_cell_volume 1993.963670
_symmetry_space_group_name_H-M "P -4 2 M "
_symmetry_group_IT_number 111
_symmetry_cell_setting 'tetragonal'
loop_
_space_group_symop_operation_xyz
x,y,z
y,-x,-z
-x,-y,z
-y,x,-z
x,-y,-z
-x,y,-z
-y,-x,z
y,x,z
loop_
_atom_site_type_symbol
_atom_site_label
_atom_site_fract_x
_atom_site_fract_y
_atom_site_fract_z
Si Si1 0.000000 0.188496 0.500000
Si Si2 0.303666 0.126564 0.016075
Si Si3 0.812938 0.363543 0.194139
Si Si4 0.372559 0.012466 0.336513
Si Si5 0.393391 0.787960 0.792786
O O1 0.012723 0.273072 0.589463
O O2 0.109883 0.109883 0.492380
O O3 0.188226 0.188226 0.038979
O O4 0.385081 0.142867 0.107130
O O5 0.361746 0.175067 0.921152
O O6 0.271954 0.000000 0.000000
O O7 0.736971 0.263030 0.232485
O O8 0.753070 0.478784 0.221846
O O9 0.931776 0.356508 0.245357
O O10 0.354022 0.136927 0.297272
O O11 0.500000 0.000000 0.378799
O O12 0.324553 0.675448 0.795431
#
# Coordination Sequence:
#
# PCOD8308178 Si02
#       5
#     4   8   8   8   8
#     4  11  23  38  56  78 107 135 160 206 266 315
#     4  10  19  32  50  74 106 141 178 213 248 296
#     4  10  20  33  52  77 105 138 173 212 253 297
#     4  10  20  36  58  78 100 132 175 213 249 303
#     4  10  20  33  52  77 105 138 173 212 253 297
#
# _framework density 18.054492
#
# number of rings (size 3 to 8) (size 9 to 14) (size 15 to 20)
#    0.000    1.889    2.222    2.333    0.000    1.556 
#    0.000    0.000    0.000    4.000    0.000    0.000 
#    0.000   16.000    0.000    0.000    0.000    0.000 
#
# Total GULP energy -446265.075672 kJ/mol
# GULP energy per Si atom -12396.252102 kJ/mol
# Density = 1.801340 g / cm^3
# Si number density = 18.054492 Si / 1000 Ang^3
#
#
#
# Elastic Constant Matrix: (Units=GPa)
#
#
# Indices 1 2 3 4 5 6 
#
# 1 85.1993 28.3155 14.7160 0.0000 0.0000 0.0000
# 2 28.3155 85.2037 14.7174 0.0000 0.0000 0.0000
# 3 14.7160 14.7174 64.4778 0.0000 0.0000 0.0000
# 4 0.0000 0.0000 0.0000 25.3943 0.0000 0.0000
# 5 0.0000 0.0000 0.0000 0.0000 25.3945 0.0000
# 6 0.0000 0.0000 0.0000 0.0000 0.0000 22.4630
#
#
#
# Elastic Compliance Matrix: (Units=1/GPa)
#
#
# Indices 1 2 3 4 5 6 
#
# 1 0.013472 -0.004108 -0.002137 0.000000 0.000000 0.000000
# 2 -0.004108 0.013471 -0.002137 0.000000 0.000000 0.000000
# 3 -0.002137 -0.002137 0.016485 0.000000 0.000000 0.000000
# 4 0.000000 0.000000 0.000000 0.039379 0.000000 0.000000
# 5 0.000000 0.000000 0.000000 0.000000 0.039379 0.000000
# 6 0.000000 0.000000 0.000000 0.000000 0.000000 0.044518
#
#
# Mechanical properties :
#
#
# Convention : Reuss Voigt Hill
#
# Bulk Modulus (GPa) = 37.50514 38.93094 38.21804
# Shear Modulus (GPa) = 25.99372 26.45916 26.22644
#
# Velocity S-wave (km/s) = 3.79850 3.83236 3.81547
# Velocity P-wave (km/s) = 6.32903 6.41814 6.37374
#
# Compressibility (1/GPa) = 0.02666301
#
# Stress axis : x y z
#
# Youngs Moduli (GPa) = 74.23070 74.23419 60.66198
#
# Poissons Ratio (x) = 0.30494 0.12964
# Poissons Ratio (y) = 0.30493 0.12965
# Poissons Ratio (z) = 0.15863 0.15866
#
# Static dielectric constant tensor:
#      x y z
#    x 3.340990 0.000000 0.000000 
#    y 0.000000 3.340980 0.000000 
#    z 0.000000 0.000000 3.272410 
# 
# 
# High freq. dielectric constant tensor:
#      x y z
#    x 1.700710 0.000000 0.000000 
#    y 0.000000 1.700710 0.000000 
#    z 0.000000 0.000000 1.690580 
# 
# From -- ./inp_files/3193.got.cif
#   From: 2010.03.12/outbox.cif.g09.slc.cpg/sg111_2_cif.got.tgz:3193.got - 2010.04.14 01:59:48.
