data_PCOD8308422
_publ_section_title
;
Structure prediction by ZEFSAII (Michael W. Deem and Ramdas Pophale) SiO2 
 PCOD8308422
Probable space group: P -4 2 C
;
_chemical_formula_sum "Si O2"
_cell_formula_units_Z 40
_cell_length_a 8.918222
_cell_length_b 8.918222
_cell_length_c 21.411278
_cell_angle_alpha 90.000000
_cell_angle_beta 90.000000
_cell_angle_gamma 90.000000
_cell_volume 1702.939222
_symmetry_space_group_name_H-M "P -4 2 C"
_symmetry_group_IT_number 112
_symmetry_cell_setting 'tetragonal'
loop_
_space_group_symop_operation_xyz
x,y,z
y,-x,-z
-x,-y,z
-y,x,-z
x,-y,1/2-z
-x,y,1/2-z
-y,-x,1/2+z
y,x,1/2+z
loop_
_atom_site_type_symbol
_atom_site_label
_atom_site_fract_x
_atom_site_fract_y
_atom_site_fract_z
Si Si1 0.226653 0.100778 0.503000
Si Si2 0.166505 0.157819 0.765197
Si Si3 0.400679 0.677632 0.306600
Si Si4 0.832020 0.538848 0.108223
Si Si5 0.249974 0.322419 0.888557
O O1 0.316189 0.161555 0.563458
O O2 0.331098 0.124039 0.442140
O O3 0.074810 0.193962 0.492458
O O4 0.189513 0.299463 0.719578
O O5 0.199540 0.204126 0.835870
O O6 0.000000 0.114875 0.750000
O O7 0.255592 0.000000 0.750000
O O8 0.500000 0.608577 0.250000
O O9 0.277928 0.559323 0.331747
O O10 0.509549 0.729004 0.362492
O O11 0.748614 0.396664 0.076808
O O12 0.000000 0.500000 0.130396
#
# Coordination Sequence:
#
# PCOD8308422 Si02
#       5
#     8   8   8   8   8
#     4  11  27  48  75 106 145 197 250 310 370 444
#     4  10  23  43  73 108 145 192 248 309 379 445
#     4  10  25  46  72 106 149 194 240 307 374 454
#     4  12  25  47  72 107 144 197 251 309 380 453
#     4  11  25  45  70 107 147 191 243 304 381 453
#
# _framework density 23.488799
#
# number of rings (size 3 to 8) (size 9 to 14) (size 15 to 20)
#    0.000    1.200    2.000    1.800    5.600   10.800 
#    0.000    5.000    0.000    0.000    0.000    0.000 
#    0.000    0.000    0.000    0.000    0.000    0.000 
#
# Total GULP energy -495531.025182 kJ/mol
# GULP energy per Si atom -12388.275630 kJ/mol
# Density = 2.343534 g / cm^3
# Si number density = 23.488799 Si / 1000 Ang^3
#
#
#
# Elastic Constant Matrix: (Units=GPa)
#
#
# Indices 1 2 3 4 5 6 
#
# 1 130.5441 46.0871 56.7670 0.0000 0.0000 0.0000
# 2 46.0871 130.5441 56.7670 0.0000 0.0000 0.0000
# 3 56.7670 56.7670 111.6181 0.0000 0.0000 0.0000
# 4 0.0000 0.0000 0.0000 9.9870 0.0000 0.0000
# 5 0.0000 0.0000 0.0000 0.0000 9.9870 0.0000
# 6 0.0000 0.0000 0.0000 0.0000 0.0000 27.3668
#
#
#
# Elastic Compliance Matrix: (Units=1/GPa)
#
#
# Indices 1 2 3 4 5 6 
#
# 1 0.010126 -0.001715 -0.004278 0.000000 0.000000 0.000000
# 2 -0.001715 0.010126 -0.004278 0.000000 0.000000 0.000000
# 3 -0.004278 -0.004278 0.013310 0.000000 0.000000 0.000000
# 4 0.000000 0.000000 0.000000 0.100131 0.000000 0.000000
# 5 0.000000 0.000000 0.000000 0.000000 0.100131 0.000000
# 6 0.000000 0.000000 0.000000 0.000000 0.000000 0.036541
#
#
# Mechanical properties :
#
#
# Convention : Reuss Voigt Hill
#
# Bulk Modulus (GPa) = 76.79573 76.88317 76.83945
# Shear Modulus (GPa) = 16.93512 23.67383 20.30448
#
# Velocity S-wave (km/s) = 2.68803 3.17815 2.94331
# Velocity P-wave (km/s) = 6.51150 6.80224 6.65846
#
# Compressibility (1/GPa) = 0.01302156
#
# Stress axis : x y z
#
# Youngs Moduli (GPa) = 98.75818 98.75818 75.12975
#
# Poissons Ratio (x) = 0.16933 0.32139
# Poissons Ratio (y) = 0.16933 0.32139
# Poissons Ratio (z) = 0.42246 0.42246
#
# Static dielectric constant tensor:
#      x y z
#    x 4.335630 0.000000 0.000000 
#    y 0.000000 4.335630 0.000000 
#    z 0.000000 0.000000 4.132050 
# 
# 
# High freq. dielectric constant tensor:
#      x y z
#    x 1.942980 0.000000 0.000000 
#    y 0.000000 1.942980 0.000000 
#    z 0.000000 0.000000 1.916740 
# 
# From -- ./inp_files/5360.got.cif
#   From: 2010.03.12/outbox.cif.g09.slc.cpg/sg112_3_cif.got.tgz:5360.got - 2010.04.14 02:02:48.
