data_PCOD8308318
_publ_section_title
;
Structure prediction by ZEFSAII (Michael W. Deem and Ramdas Pophale) SiO2 
 PCOD8308318
Probable space group: P -4 2 C
;
_chemical_formula_sum "Si O2"
_cell_formula_units_Z 56
_cell_length_a 12.128228
_cell_length_b 12.128228
_cell_length_c 22.699231
_cell_angle_alpha 90.000000
_cell_angle_beta 90.000000
_cell_angle_gamma 90.000000
_cell_volume 3338.918742
_symmetry_space_group_name_H-M "P -4 2 C"
_symmetry_group_IT_number 112
_symmetry_cell_setting 'tetragonal'
loop_
_space_group_symop_operation_xyz
x,y,z
y,-x,-z
-x,-y,z
-y,x,-z
x,-y,1/2-z
-x,y,1/2-z
-y,-x,1/2+z
y,x,1/2+z
loop_
_atom_site_type_symbol
_atom_site_label
_atom_site_fract_x
_atom_site_fract_y
_atom_site_fract_z
Si Si1 0.996806 0.875825 0.592619
Si Si2 0.621595 0.491980 0.593478
Si Si3 0.290077 0.391596 0.484605
Si Si4 0.889620 0.553499 0.999027
Si Si5 0.318839 0.994034 0.182345
Si Si6 0.846878 0.501334 0.862578
Si Si7 0.196774 0.159734 0.506295
O O1 0.877217 0.852969 0.564305
O O2 0.016925 0.793051 0.646119
O O3 0.096813 0.864364 0.546450
O O4 0.000000 0.000000 0.617468
O O5 0.500000 0.500000 0.621675
O O6 0.633434 0.582964 0.541695
O O7 0.640601 0.368829 0.568933
O O8 0.714611 0.511931 0.643050
O O9 0.215880 0.498433 0.469296
O O10 0.207353 0.289939 0.494916
O O11 0.000000 0.500000 0.024881
O O12 0.880415 0.526486 0.929790
O O13 0.893535 0.682431 0.014094
O O14 0.395345 0.885834 0.176146
O O15 0.284481 0.000000 0.250000
O O16 0.388273 0.099215 0.159823
#
# Coordination Sequence:
#
# PCOD8308318 Si02
#       7
#     8   8   8   8   8   8   8
#     4  12  23  36  54  79 107 148 174 220 292 330
#     4  11  17  29  44  76 115 145 177 211 266 329
#     4  11  18  27  44  69 110 153 179 210 259 328
#     4  11  19  29  50  75 111 148 184 217 266 334
#     4  11  22  39  59  77 104 139 195 241 269 317
#     4  10  18  33  53  80 101 142 185 229 270 309
#     4  12  19  35  49  77 116 144 177 221 267 346
#
# _framework density 16.771898
#
# number of rings (size 3 to 8) (size 9 to 14) (size 15 to 20)
#    0.000    0.857    8.571    3.429    0.000    0.286 
#    0.000    0.000    0.000    1.714    0.000    0.000 
#    0.000    0.000    0.286    0.000    0.000    0.000 
#
# Total GULP energy -694339.680979 kJ/mol
# GULP energy per Si atom -12398.922875 kJ/mol
# Density = 1.673372 g / cm^3
# Si number density = 16.771898 Si / 1000 Ang^3
#
#
#
# Elastic Constant Matrix: (Units=GPa)
#
#
# Indices 1 2 3 4 5 6 
#
# 1 100.8615 7.4830 11.2816 0.0000 0.0000 0.0000
# 2 7.4830 100.8615 11.2816 0.0000 0.0000 0.0000
# 3 11.2816 11.2816 44.5448 0.0000 0.0000 0.0000
# 4 0.0000 0.0000 0.0000 11.4059 0.0000 0.0000
# 5 0.0000 0.0000 0.0000 0.0000 11.4059 0.0000
# 6 0.0000 0.0000 0.0000 0.0000 0.0000 25.1374
#
#
#
# Elastic Compliance Matrix: (Units=1/GPa)
#
#
# Indices 1 2 3 4 5 6 
#
# 1 0.010226 -0.000483 -0.002468 0.000000 0.000000 0.000000
# 2 -0.000483 0.010226 -0.002468 0.000000 0.000000 0.000000
# 3 -0.002468 -0.002468 0.023699 0.000000 0.000000 0.000000
# 4 0.000000 0.000000 0.000000 0.087674 0.000000 0.000000
# 5 0.000000 0.000000 0.000000 0.000000 0.087674 0.000000
# 6 0.000000 0.000000 0.000000 0.000000 0.000000 0.039781
#
#
# Mechanical properties :
#
#
# Convention : Reuss Voigt Hill
#
# Bulk Modulus (GPa) = 30.01578 34.04004 32.02791
# Shear Modulus (GPa) = 17.77945 24.00459 20.89202
#
# Velocity S-wave (km/s) = 3.25941 3.78728 3.53321
# Velocity P-wave (km/s) = 5.66571 6.28208 5.98184
#
# Compressibility (1/GPa) = 0.03331581
#
# Stress axis : x y z
#
# Youngs Moduli (GPa) = 97.78595 97.78595 42.19532
#
# Poissons Ratio (x) = 0.04720 0.10413
# Poissons Ratio (y) = 0.04720 0.10413
# Poissons Ratio (z) = 0.24131 0.24131
#
# Static dielectric constant tensor:
#      x y z
#    x 3.442420 0.000000 0.000000 
#    y 0.000000 3.442420 0.000000 
#    z 0.000000 0.000000 2.693500 
# 
# 
# High freq. dielectric constant tensor:
#      x y z
#    x 1.662920 0.000000 0.000000 
#    y 0.000000 1.662920 0.000000 
#    z 0.000000 0.000000 1.581140 
# 
# From -- ./inp_files/5543.got.cif
#   From: 2010.03.12/outbox.cif.g09.slc.cpg/sg112_3_cif.got.tgz:5543.got - 2010.04.14 02:02:48.
