data_PCOD8308262
_publ_section_title
;
Structure prediction by ZEFSAII (Michael W. Deem and Ramdas Pophale) SiO2 
 PCOD8308262
Probable space group: P -4 2 M 
;
_chemical_formula_sum "Si O2"
_cell_formula_units_Z 40
_cell_length_a 16.697817
_cell_length_b 16.697817
_cell_length_c 7.500934
_cell_angle_alpha 90.000000
_cell_angle_beta 90.000000
_cell_angle_gamma 90.000000
_cell_volume 2091.388609
_symmetry_space_group_name_H-M "P -4 2 M "
_symmetry_group_IT_number 111
_symmetry_cell_setting 'tetragonal'
loop_
_space_group_symop_operation_xyz
x,y,z
y,-x,-z
-x,-y,z
-y,x,-z
x,-y,-z
-x,y,-z
-y,-x,z
y,x,z
loop_
_atom_site_type_symbol
_atom_site_label
_atom_site_fract_x
_atom_site_fract_y
_atom_site_fract_z
Si Si1 0.693631 0.000000 0.711495
Si Si2 0.873242 0.000000 0.288109
Si Si3 0.592362 0.849487 0.705247
Si Si4 0.722583 0.591973 0.000001
Si Si5 0.407638 0.150514 0.294755
O O1 0.646878 0.921699 0.778264
O O2 0.695208 0.000000 0.500000
O O3 0.783618 1.000000 0.791891
O O4 0.646879 0.078302 0.778263
O O5 0.920789 0.920789 0.222140
O O6 0.869521 0.000000 0.500000
O O7 0.920789 0.079212 0.222140
O O8 0.611589 0.828475 0.500001
O O9 0.500000 0.875358 0.728946
O O10 0.612897 0.772463 0.822835
O O11 0.642077 0.642077 0.999999
O O12 0.772462 0.612897 0.177168
O O13 0.696428 0.500000 0.000000
#
# Coordination Sequence:
#
# PCOD8308262 Si02
#       5
#     8   8   8   8   8
#     4   9  16  27  48  75 101 136 174 203 247 310
#     4   8  14  24  37  58  92 130 168 208 242 278
#     4   9  18  33  53  78 107 134 164 209 260 309
#     4  10  22  38  55  77 104 136 174 216 265 316
#     4   9  18  33  53  78 107 134 164 209 260 309
#
# _framework density 19.126048999999998
#
# number of rings (size 3 to 8) (size 9 to 14) (size 15 to 20)
#    0.000    3.000    0.000    1.200    0.000    5.800 
#    0.000    7.000    0.000    0.000    0.000    5.600 
#    0.000    4.800    0.000    0.400    0.000    0.000 
#
# Total GULP energy -495938.556046 kJ/mol
# GULP energy per Si atom -12398.463901 kJ/mol
# Density = 1.908252 g / cm^3
# Si number density = 19.126049 Si / 1000 Ang^3
#
#
#
# Elastic Constant Matrix: (Units=GPa)
#
#
# Indices 1 2 3 4 5 6 
#
# 1 142.8754 96.3988 40.0263 0.0000 0.0000 0.0000
# 2 96.3988 142.8749 40.0262 0.0000 0.0000 0.0000
# 3 40.0263 40.0262 72.9478 0.0000 0.0000 0.0000
# 4 0.0000 0.0000 0.0000 -6.4641 0.0000 0.0000
# 5 0.0000 0.0000 0.0000 0.0000 -6.4645 0.0000
# 6 0.0000 0.0000 0.0000 0.0000 0.0000 31.2619
#
#
#
# Elastic Compliance Matrix: (Units=1/GPa)
#
#
# Indices 1 2 3 4 5 6 
#
# 1 0.013318 -0.008199 -0.002809 0.000000 0.000000 0.000000
# 2 -0.008199 0.013318 -0.002809 0.000000 0.000000 0.000000
# 3 -0.002809 -0.002809 0.016791 0.000000 0.000000 0.000000
# 4 0.000000 0.000000 0.000000 -0.154702 0.000000 0.000000
# 5 0.000000 0.000000 0.000000 0.000000 -0.154691 0.000000
# 6 0.000000 0.000000 0.000000 0.000000 0.000000 0.031988
#
#
# Mechanical properties :
#
#
# Convention : Reuss Voigt Hill
#
# Bulk Modulus (GPa) = 63.31655 79.06675 71.19165
# Shear Modulus (GPa) = -24.86555 15.81646 -4.52454
#
# Velocity S-wave (km/s) = -3.60959 2.87881 -1.53973
# Velocity P-wave (km/s) = 3.97550 7.24428 5.84313
#
# Compressibility (1/GPa) = 0.01579366
#
# Stress axis : x y z
#
# Youngs Moduli (GPa) = 75.08831 75.08802 59.55647
#
# Poissons Ratio (x) = 0.61562 0.16728
# Poissons Ratio (y) = 0.61562 0.16728
# Poissons Ratio (z) = 0.21091 0.21091
#
# Static dielectric constant tensor:
#      x y z
#    x 3.523620 0.000000 0.000000 
#    y 0.000000 3.523620 0.000000 
#    z 0.000000 0.000000 3.388580 
# 
# 
# High freq. dielectric constant tensor:
#      x y z
#    x 1.736240 0.000000 0.000000 
#    y 0.000000 1.736240 0.000000 
#    z 0.000000 0.000000 1.735790 
# 
# From -- ./inp_files/1551.got.cif
#   From: 2010.03.12/outbox.cif.g09.slc.cpg/sg111_1_cif.got.tgz:1551.got - 2010.04.14 01:59:48.
