data_PCOD8308592
_publ_section_title
;
Structure prediction by ZEFSAII (Michael W. Deem and Ramdas Pophale) SiO2 
 PCOD8308592
Probable space group: P -4 21 M 
;
_chemical_formula_sum "Si O2"
_cell_formula_units_Z 56
_cell_length_a 12.189928
_cell_length_b 12.189928
_cell_length_c 20.521586
_cell_angle_alpha 90.000000
_cell_angle_beta 90.000000
_cell_angle_gamma 90.000000
_cell_volume 3049.391623
_symmetry_space_group_name_H-M "P -4 21 M "
_symmetry_group_IT_number 113
_symmetry_cell_setting 'tetragonal'
loop_
_space_group_symop_operation_xyz
x,y,z
y,-x,-z
-x,-y,z
-y,x,-z
1/2+x,1/2-y,-z
1/2-x,1/2+y,-z
1/2-y,1/2-x,z
1/2+y,1/2+x,z
loop_
_atom_site_type_symbol
_atom_site_label
_atom_site_fract_x
_atom_site_fract_y
_atom_site_fract_z
Si Si1 0.113481 0.207466 0.438783
Si Si2 0.360481 0.317276 0.579685
Si Si3 0.871434 0.996856 0.078672
Si Si4 0.725910 0.399140 0.050138
Si Si5 0.088542 0.094140 0.207826
Si Si6 0.503167 0.820810 0.826577
Si Si7 0.371298 0.521545 0.656375
O O1 0.177603 0.322398 0.428899
O O2 0.121944 0.166205 0.512412
O O3 0.168934 0.114641 0.393574
O O4 0.986969 0.220753 0.418093
O O5 0.292894 0.207107 0.589625
O O6 0.322507 0.402868 0.636397
O O7 0.842524 0.125070 0.089746
O O8 0.840832 0.918526 0.140827
O O9 0.000000 0.000000 0.063079
O O10 0.807202 0.959336 0.015451
O O11 0.805399 0.305399 0.026653
O O12 0.785138 0.485221 0.098258
O O13 0.028545 0.212700 0.215910
O O14 0.161506 0.065082 0.271424
O O15 0.000000 0.000000 0.199755
O O16 0.402501 0.902501 0.820109
O O17 0.616295 0.883706 0.803542
O O18 0.500000 0.500000 0.650929
#
# Coordination Sequence:
#
# PCOD8308592 Si02
#       7
#     8   8   8   8   8   8   8
#     4  10  19  33  56  83 112 146 186 228 279 332
#     4  10  19  34  57  84 115 145 183 235 279 324
#     4  11  18  34  51  74 105 141 188 230 268 335
#     4  11  20  32  54  79 108 142 179 236 291 331
#     4  10  19  35  55  77 108 148 191 226 267 338
#     4  10  21  36  56  84 116 145 179 234 297 339
#     4   9  19  34  55  79 107 148 184 225 271 328
#
# _framework density 18.364318999999998
#
# number of rings (size 3 to 8) (size 9 to 14) (size 15 to 20)
#    0.000    1.857    5.714    0.000    0.000    3.143 
#    0.000    7.143    0.000    0.429    0.000    0.000 
#    0.000    5.143    0.000    0.000    0.000    0.000 
#
# Total GULP energy -693750.592742 kJ/mol
# GULP energy per Si atom -12388.403442 kJ/mol
# Density = 1.832252 g / cm^3
# Si number density = 18.364319 Si / 1000 Ang^3
#
#
#
# Elastic Constant Matrix: (Units=GPa)
#
#
# Indices 1 2 3 4 5 6 
#
# 1 91.3573 40.8105 28.3741 0.0000 0.0000 0.0000
# 2 40.8105 91.3587 28.3755 0.0000 0.0000 0.0000
# 3 28.3741 28.3755 83.7288 0.0000 0.0000 0.0000
# 4 0.0000 0.0000 0.0000 21.2684 0.0000 0.0000
# 5 0.0000 0.0000 0.0000 0.0000 21.2674 0.0000
# 6 0.0000 0.0000 0.0000 0.0000 0.0000 18.3589
#
#
#
# Elastic Compliance Matrix: (Units=1/GPa)
#
#
# Indices 1 2 3 4 5 6 
#
# 1 0.014319 -0.005464 -0.003001 0.000000 0.000000 0.000000
# 2 -0.005464 0.014319 -0.003001 0.000000 0.000000 0.000000
# 3 -0.003001 -0.003001 0.013977 0.000000 0.000000 0.000000
# 4 0.000000 0.000000 0.000000 0.047018 0.000000 0.000000
# 5 0.000000 0.000000 0.000000 0.000000 0.047020 0.000000
# 6 0.000000 0.000000 0.000000 0.000000 0.000000 0.054470
#
#
# Mechanical properties :
#
#
# Convention : Reuss Voigt Hill
#
# Bulk Modulus (GPa) = 50.80433 51.28500 51.04466
# Shear Modulus (GPa) = 22.66383 23.43791 23.05087
#
# Velocity S-wave (km/s) = 3.51682 3.57637 3.54672
# Velocity P-wave (km/s) = 6.64947 6.71126 6.68044
#
# Compressibility (1/GPa) = 0.01968336
#
# Stress axis : x y z
#
# Youngs Moduli (GPa) = 69.83730 69.83771 71.54542
#
# Poissons Ratio (x) = 0.38162 0.21468
# Poissons Ratio (y) = 0.38162 0.21470
# Poissons Ratio (z) = 0.20955 0.20957
#
# Static dielectric constant tensor:
#      x y z
#    x 3.536460 0.000000 0.000000 
#    y 0.000000 3.536470 0.000000 
#    z 0.000000 0.000000 3.836650 
# 
# 
# High freq. dielectric constant tensor:
#      x y z
#    x 1.694890 0.000000 0.000000 
#    y 0.000000 1.694890 0.000000 
#    z 0.000000 0.000000 1.715020 
# 
# From -- ./inp_files/2844.got.cif
#   From: 2010.03.12/outbox.cif.g09.slc.cpg/sg113_cif.got.tgz:2844.got - 2010.04.14 02:06:34.
