data_PCOD8308461
_publ_section_title
;
Structure prediction by ZEFSAII (Michael W. Deem and Ramdas Pophale) SiO2 
 PCOD8308461
Probable space group: P -4 2 C
;
_chemical_formula_sum "Si O2"
_cell_formula_units_Z 60
_cell_length_a 12.520170
_cell_length_b 12.520170
_cell_length_c 19.718058
_cell_angle_alpha 90.000000
_cell_angle_beta 90.000000
_cell_angle_gamma 90.000000
_cell_volume 3090.897415
_symmetry_space_group_name_H-M "P -4 2 C"
_symmetry_group_IT_number 112
_symmetry_cell_setting 'tetragonal'
loop_
_space_group_symop_operation_xyz
x,y,z
y,-x,-z
-x,-y,z
-y,x,-z
x,-y,1/2-z
-x,y,1/2-z
-y,-x,1/2+z
y,x,1/2+z
loop_
_atom_site_type_symbol
_atom_site_label
_atom_site_fract_x
_atom_site_fract_y
_atom_site_fract_z
Si Si1 0.541023 0.386331 0.674443
Si Si2 0.228527 0.500083 0.055767
Si Si3 0.838896 0.633838 0.672154
Si Si4 0.297892 0.266845 0.037672
Si Si5 0.390877 0.789506 0.182534
Si Si6 0.102388 0.877282 0.512339
Si Si7 0.500000 0.000000 0.986064
Si Si8 0.313616 0.960044 0.092708
O O1 0.500000 0.500000 0.646056
O O2 0.500000 0.363555 0.750000
O O3 0.507253 0.287693 0.627544
O O4 0.665655 0.399487 0.672421
O O5 0.252516 0.384334 0.024014
O O6 0.262275 0.593071 0.004570
O O7 0.100851 0.508411 0.064199
O O8 0.752631 0.673885 0.616725
O O9 0.810034 0.674600 0.747506
O O10 0.842014 0.506934 0.679334
O O11 0.956491 0.674518 0.653651
O O12 0.209138 0.178893 0.016607
O O13 0.330868 0.840030 0.118981
O O14 0.045150 0.809292 0.571390
O O15 0.998571 0.877014 0.460641
O O16 0.605506 0.006444 0.032771
#
# Coordination Sequence:
#
# PCOD8308461 Si02
#       8
#     8   8   8   8   8   8   4   8
#     4  11  24  44  62  88 130 177 220 263 321 404
#     4  12  26  38  65  93 131 170 213 262 332 383
#     4  11  21  38  60  93 129 167 202 261 325 383
#     4  12  24  40  62  96 133 166 208 271 325 393
#     4  11  22  36  62  90 126 170 211 256 321 391
#     4  11  23  41  63  88 120 171 212 257 321 386
#     4  12  22  40  58  94 136 162 202 280 322 384
#     4  12  20  37  61  93 127 156 211 266 326 379
#
# _framework density 19.411836999999998
#
# number of rings (size 3 to 8) (size 9 to 14) (size 15 to 20)
#    0.000    0.533    5.333    4.400    3.733    1.067 
#    0.000    0.333    0.000    0.800    0.000    0.000 
#    0.000    0.000    0.000    0.000    0.000    0.000 
#
# Total GULP energy -743546.884424 kJ/mol
# GULP energy per Si atom -12392.448074 kJ/mol
# Density = 1.936766 g / cm^3
# Si number density = 19.411837 Si / 1000 Ang^3
#
#
#
# Elastic Constant Matrix: (Units=GPa)
#
#
# Indices 1 2 3 4 5 6 
#
# 1 135.8424 30.1149 46.3296 0.0000 0.0000 0.0000
# 2 30.1149 135.8424 46.3296 0.0000 0.0000 0.0000
# 3 46.3296 46.3296 67.3435 0.0000 0.0000 0.0000
# 4 0.0000 0.0000 0.0000 32.6666 0.0000 0.0000
# 5 0.0000 0.0000 0.0000 0.0000 32.6666 0.0000
# 6 0.0000 0.0000 0.0000 0.0000 0.0000 32.4573
#
#
#
# Elastic Compliance Matrix: (Units=1/GPa)
#
#
# Indices 1 2 3 4 5 6 
#
# 1 0.009621 0.000163 -0.006731 0.000000 0.000000 0.000000
# 2 0.000163 0.009621 -0.006731 0.000000 0.000000 0.000000
# 3 -0.006731 -0.006731 0.024110 0.000000 0.000000 0.000000
# 4 0.000000 0.000000 0.000000 0.030612 0.000000 0.000000
# 5 0.000000 0.000000 0.000000 0.000000 0.030612 0.000000
# 6 0.000000 0.000000 0.000000 0.000000 0.000000 0.030810
#
#
# Mechanical properties :
#
#
# Convention : Reuss Voigt Hill
#
# Bulk Modulus (GPa) = 59.68545 64.95292 62.31919
# Shear Modulus (GPa) = 29.83850 33.97507 31.90679
#
# Velocity S-wave (km/s) = 3.92488 4.18811 4.05863
# Velocity P-wave (km/s) = 7.16612 7.54454 7.35776
#
# Compressibility (1/GPa) = 0.01675450
#
# Stress axis : x y z
#
# Youngs Moduli (GPa) = 103.93987 103.93987 41.47625
#
# Poissons Ratio (x) = -0.01691 0.27917
# Poissons Ratio (y) = -0.01691 0.27917
# Poissons Ratio (z) = 0.69959 0.69959
#
# Static dielectric constant tensor:
#      x y z
#    x 3.746930 0.000000 0.000000 
#    y 0.000000 3.746930 0.000000 
#    z 0.000000 0.000000 3.668950 
# 
# 
# High freq. dielectric constant tensor:
#      x y z
#    x 1.768320 0.000000 0.000000 
#    y 0.000000 1.768320 0.000000 
#    z 0.000000 0.000000 1.732660 
# 
# From -- ./inp_files/4984.got.cif
#   From: 2010.03.12/outbox.cif.g09.slc.cpg/sg112_3_cif.got.tgz:4984.got - 2010.04.14 02:02:48.
