data_PCOD8308202
_publ_section_title
;
Structure prediction by ZEFSAII (Michael W. Deem and Ramdas Pophale) SiO2 
 PCOD8308202
Probable space group: P -4 2 M 
;
_chemical_formula_sum "Si O2"
_cell_formula_units_Z 64
_cell_length_a 12.380002
_cell_length_b 12.380002
_cell_length_c 22.500267
_cell_angle_alpha 90.000000
_cell_angle_beta 90.000000
_cell_angle_gamma 90.000000
_cell_volume 3448.491036
_symmetry_space_group_name_H-M "P -4 2 M "
_symmetry_group_IT_number 111
_symmetry_cell_setting 'tetragonal'
loop_
_space_group_symop_operation_xyz
x,y,z
y,-x,-z
-x,-y,z
-y,x,-z
x,-y,-z
-x,y,-z
-y,-x,z
y,x,z
loop_
_atom_site_type_symbol
_atom_site_label
_atom_site_fract_x
_atom_site_fract_y
_atom_site_fract_z
Si Si1 0.496249 0.124565 0.860213
Si Si2 0.995780 0.375968 0.663900
Si Si3 0.414294 0.758781 0.677260
Si Si4 0.618086 0.202422 0.256167
Si Si5 0.128978 0.302585 0.940879
Si Si6 0.061913 0.230797 0.441675
Si Si7 0.886582 0.714780 0.079530
Si Si8 0.401643 0.237272 0.460143
O O1 0.444207 0.188812 0.805827
O O2 0.422295 0.150339 0.916994
O O3 0.618170 0.157765 0.878403
O O4 0.500000 0.000000 0.842431
O O5 0.877209 0.365827 0.694401
O O6 0.008980 0.288320 0.610373
O O7 0.000000 0.500000 0.639302
O O8 0.087597 0.351978 0.713083
O O9 0.329243 0.670758 0.700389
O O10 0.531423 0.734075 0.704153
O O11 0.435334 0.751461 0.607663
O O12 0.726389 0.273612 0.248616
O O13 0.217901 0.217901 0.917499
O O14 0.014198 0.262265 0.914233
O O15 0.134147 0.314745 0.011264
O O16 0.128809 0.128809 0.414372
O O17 0.142969 0.317045 0.468468
O O18 0.000000 0.188863 0.500000
O O19 0.822892 0.822892 0.097950
O O20 0.500000 0.203706 0.500000
O O21 0.349998 0.349998 0.482465
#
# Coordination Sequence:
#
# PCOD8308202 Si02
#       8
#     8   8   8   8   8   8   8   8
#     4  10  19  34  54  76 105 143 189 226 262 314
#     4   9  19  36  57  78 100 134 176 218 264 314
#     4   9  19  37  56  75 102 136 172 214 265 324
#     4  11  23  36  54  81 107 136 179 230 279 323
#     4   9  17  31  53  80 113 146 179 227 273 313
#     4  10  22  35  53  80 108 137 170 212 264 330
#     4   9  18  31  51  82 113 146 183 219 271 327
#     4   9  19  33  51  76 104 133 168 208 258 317
#
# _framework density 18.558841000000001
#
# number of rings (size 3 to 8) (size 9 to 14) (size 15 to 20)
#    0.000    2.500    0.000    3.000    5.250    3.750 
#    0.000    2.500    0.000    3.000    0.000    3.500 
#    0.000    0.000    0.000    0.000    0.000    0.000 
#
# Total GULP energy -793117.852983 kJ/mol
# GULP energy per Si atom -12392.466453 kJ/mol
# Density = 1.851660 g / cm^3
# Si number density = 18.558841 Si / 1000 Ang^3
#
#
#
# Elastic Constant Matrix: (Units=GPa)
#
#
# Indices 1 2 3 4 5 6 
#
# 1 72.2624 44.9537 31.0368 0.0000 0.0000 0.0000
# 2 44.9537 72.2649 31.0374 0.0000 0.0000 0.0000
# 3 31.0368 31.0374 49.9840 0.0000 0.0000 0.0000
# 4 0.0000 0.0000 0.0000 3.5807 0.0000 0.0000
# 5 0.0000 0.0000 0.0000 0.0000 3.5721 0.0000
# 6 0.0000 0.0000 0.0000 0.0000 0.0000 24.7302
#
#
#
# Elastic Compliance Matrix: (Units=1/GPa)
#
#
# Indices 1 2 3 4 5 6 
#
# 1 0.024664 -0.011953 -0.007893 0.000000 0.000000 0.000000
# 2 -0.011953 0.024663 -0.007893 0.000000 0.000000 0.000000
# 3 -0.007893 -0.007893 0.029808 0.000000 0.000000 0.000000
# 4 0.000000 0.000000 0.000000 0.279277 0.000000 0.000000
# 5 0.000000 0.000000 0.000000 0.000000 0.279948 0.000000
# 6 0.000000 0.000000 0.000000 0.000000 0.000000 0.040436
#
#
# Mechanical properties :
#
#
# Convention : Reuss Voigt Hill
#
# Bulk Modulus (GPa) = 42.26698 45.39635 43.83167
# Shear Modulus (GPa) = 6.73709 12.20882 9.47295
#
# Velocity S-wave (km/s) = 1.90736 2.56763 2.26172
# Velocity P-wave (km/s) = 5.26067 5.77098 5.52172
#
# Compressibility (1/GPa) = 0.02365913
#
# Stress axis : x y z
#
# Youngs Moduli (GPa) = 40.54466 40.54597 33.54781
#
# Poissons Ratio (x) = 0.48464 0.26478
# Poissons Ratio (y) = 0.48463 0.26478
# Poissons Ratio (z) = 0.32001 0.32002
#
# Static dielectric constant tensor:
#      x y z
#    x 3.558200 0.000000 0.000000 
#    y 0.000000 3.558210 0.000000 
#    z 0.000000 0.000000 3.281300 
# 
# 
# High freq. dielectric constant tensor:
#      x y z
#    x 1.714060 0.000000 0.000000 
#    y 0.000000 1.714060 0.000000 
#    z 0.000000 0.000000 1.709460 
# 
# From -- ./inp_files/4255.got.cif
#   From: 2010.03.12/outbox.cif.g09.slc.cpg/sg111_3_cif.got.tgz:4255.got - 2010.04.14 01:59:48.
