data_PCOD8308071
_publ_section_title
;
Structure prediction by ZEFSAII (Michael W. Deem and Ramdas Pophale) SiO2 
 PCOD8308071
Probable space group: I 41 C D
;
_chemical_formula_sum "Si O2"
_cell_formula_units_Z 120
_cell_length_a 17.562243
_cell_length_b 17.562243
_cell_length_c 16.838562
_cell_angle_alpha 90.000000
_cell_angle_beta 90.000000
_cell_angle_gamma 90.000000
_cell_volume 5193.557740
_symmetry_space_group_name_H-M "I 41 C D"
_symmetry_group_IT_number 110
_symmetry_cell_setting 'tetragonal'
loop_
_space_group_symop_operation_xyz
x,y,z
-y,1/2+x,1/4+z
-x,-y,z
y,1/2-x,1/4+z
-x,y,1/2+z
x,-y,1/2+z
1/2-y,-x,1/4+z
1/2+y,x,1/4+z
1/2+x,1/2+y,1/2+z
1/2-y,x,3/4+z
1/2-x,1/2-y,1/2+z
1/2+y,-x,3/4+z
1/2-x,1/2+y,z
1/2+x,1/2-y,z
-y,1/2-x,3/4+z
y,1/2+x,3/4+z
loop_
_atom_site_type_symbol
_atom_site_label
_atom_site_fract_x
_atom_site_fract_y
_atom_site_fract_z
Si Si1 0.767257 0.089787 0.764850
Si Si2 0.497283 0.379488 0.318856
Si Si3 0.877605 0.647903 0.667656
Si Si4 0.985685 0.284027 0.755068
Si Si5 0.873991 0.904698 0.130229
Si Si6 0.500000 0.000000 0.442412
Si Si7 0.360547 0.151726 0.646430
Si Si8 0.761419 0.592218 0.275586
O O1 0.779886 0.121986 0.854960
O O2 0.698861 0.132906 0.718489
O O3 0.844249 0.115494 0.718406
O O4 0.759162 0.997133 0.761838
O O5 0.576079 0.398429 0.362439
O O6 0.491799 0.302219 0.268694
O O7 0.470062 0.435342 0.250429
O O8 0.434949 0.387866 0.387817
O O9 0.941661 0.664169 0.733546
O O10 0.945162 0.304438 0.837027
O O11 0.923410 0.294786 0.686849
O O12 0.907398 0.832994 0.084553
O O13 0.937083 0.969360 0.133112
O O14 0.354891 0.193083 0.560824
O O15 0.282308 0.140820 0.696042
#
# Coordination Sequence:
#
# PCOD8308071 Si02
#       8
#    16  16  16  16  16   8  16  16
#     4  12  25  50  73 111 152 200 255 321 378 466
#     4  12  24  46  70 107 144 192 249 316 372 454
#     4  12  26  46  79 102 155 197 253 318 392 445
#     4  11  25  45  70 108 146 193 254 315 373 460
#     4  11  25  43  72 105 154 192 250 315 383 450
#     4  12  24  36  74 106 138 196 250 308 388 446
#     4  11  23  45  75 100 152 194 242 315 378 439
#     4  11  24  45  73 107 148 198 251 313 379 456
#
# _framework density 23.105549
#
# number of rings (size 3 to 8) (size 9 to 14) (size 15 to 20)
#    0.000    0.533    5.333    2.400    1.867    0.000 
#    4.800    0.000    0.000    0.000    0.000    0.000 
#    0.000    0.000    0.000    0.000    0.000    0.000 
#
# Total GULP energy -743406.936433 kJ/mol
# GULP energy per Si atom -12390.115607 kJ/mol
# Density = 2.305296 g / cm^3
# Si number density = 23.105549 Si / 1000 Ang^3
#
#
#
# Elastic Constant Matrix: (Units=GPa)
#
#
# Indices 1 2 3 4 5 6 
#
# 1 55.0702 44.4533 32.4046 0.0000 0.0000 0.0000
# 2 44.4533 55.0702 32.4046 0.0000 0.0000 0.0000
# 3 32.4046 32.4046 82.3445 0.0000 0.0000 0.0000
# 4 0.0000 0.0000 0.0000 32.4479 0.0000 0.0000
# 5 0.0000 0.0000 0.0000 0.0000 32.4479 0.0000
# 6 0.0000 0.0000 0.0000 0.0000 0.0000 33.7014
#
#
#
# Elastic Compliance Matrix: (Units=1/GPa)
#
#
# Indices 1 2 3 4 5 6 
#
# 1 0.053850 -0.040340 -0.005317 0.000000 0.000000 0.000000
# 2 -0.040340 0.053850 -0.005317 0.000000 0.000000 0.000000
# 3 -0.005317 -0.005317 0.016328 0.000000 0.000000 0.000000
# 4 0.000000 0.000000 0.000000 0.030819 0.000000 0.000000
# 5 0.000000 0.000000 0.000000 0.000000 0.030819 0.000000
# 6 0.000000 0.000000 0.000000 0.000000 0.000000 0.029672
#
#
# Mechanical properties :
#
#
# Convention : Reuss Voigt Hill
#
# Bulk Modulus (GPa) = 45.28501 45.66776 45.47638
# Shear Modulus (GPa) = 15.40148 25.26758 20.33453
#
# Velocity S-wave (km/s) = 2.58460 3.31051 2.96982
# Velocity P-wave (km/s) = 5.34309 5.86689 5.61111
#
# Compressibility (1/GPa) = 0.02208236
#
# Stress axis : x y z
#
# Youngs Moduli (GPa) = 18.57019 18.57019 61.24276
#
# Poissons Ratio (x) = 0.74912 0.32560
# Poissons Ratio (y) = 0.74912 0.32560
# Poissons Ratio (z) = 0.09873 0.09873
#
# Static dielectric constant tensor:
#      x y z
#    x 4.007320 0.000000 0.000000 
#    y 0.000000 4.007320 0.000000 
#    z 0.000000 0.000000 4.568670 
# 
# 
# High freq. dielectric constant tensor:
#      x y z
#    x 1.910640 0.000000 0.000000 
#    y 0.000000 1.910640 0.000000 
#    z 0.000000 0.000000 1.931680 
# 
# From -- ./inp_files/1776.got.cif
#   From: 2010.03.12/outbox.cif.g09.slc.cpg/sg110_1_cif.got.tgz:1776.got - 2010.04.14 01:58:01.
