data_PCOD8308062
_publ_section_title
;
Structure prediction by ZEFSAII (Michael W. Deem and Ramdas Pophale) SiO2 
 PCOD8308062
Probable space group: I 41 C D
;
_chemical_formula_sum "Si O2"
_cell_formula_units_Z 64
_cell_length_a 12.318558
_cell_length_b 12.318558
_cell_length_c 20.967993
_cell_angle_alpha 90.000000
_cell_angle_beta 90.000000
_cell_angle_gamma 90.000000
_cell_volume 3181.827333
_symmetry_space_group_name_H-M "I 41 C D"
_symmetry_group_IT_number 110
_symmetry_cell_setting 'tetragonal'
loop_
_space_group_symop_operation_xyz
x,y,z
-y,1/2+x,1/4+z
-x,-y,z
y,1/2-x,1/4+z
-x,y,1/2+z
x,-y,1/2+z
1/2-y,-x,1/4+z
1/2+y,x,1/4+z
1/2+x,1/2+y,1/2+z
1/2-y,x,3/4+z
1/2-x,1/2-y,1/2+z
1/2+y,-x,3/4+z
1/2-x,1/2+y,z
1/2+x,1/2-y,z
-y,1/2-x,3/4+z
y,1/2+x,3/4+z
loop_
_atom_site_type_symbol
_atom_site_label
_atom_site_fract_x
_atom_site_fract_y
_atom_site_fract_z
Si Si1 0.377052 0.377052 0.083290
Si Si2 0.500000 0.500000 0.982327
Si Si3 0.940192 0.140463 0.367960
Si Si4 0.640464 0.559808 0.798620
Si Si5 0.000000 0.000000 0.184253
O O1 0.258527 0.389213 0.113519
O O2 0.389212 0.258527 0.053061
O O3 0.461183 0.399196 0.140660
O O4 0.399196 0.461183 0.025920
O O5 0.454306 0.600589 0.940851
O O6 0.058194 0.139904 0.335016
O O7 0.860095 0.058194 0.331564
O O8 0.600589 0.545694 0.725729
#
# Coordination Sequence:
#
# PCOD8308062 Si02
#       5
#    16   8  16  16   8
#     4  11  20  36  64  85 112 162 194 227 296 346
#     4   9  21  38  56  90 121 143 196 248 272 343
#     4   9  21  39  55  83 122 151 189 242 286 338
#     4   9  21  39  55  83 122 151 189 242 286 338
#     4   9  21  38  56  90 121 143 196 248 272 343
#
# _framework density 20.114229000000002
#
# number of rings (size 3 to 8) (size 9 to 14) (size 15 to 20)
#    0.000    3.000    0.000    1.500    0.000   12.000 
#    0.000   10.000    0.000    0.000    0.000    0.000 
#    0.000    0.000    0.000    0.000    0.000    0.000 
#
# Total GULP energy -396701.149448 kJ/mol
# GULP energy per Si atom -12396.910920 kJ/mol
# Density = 2.006845 g / cm^3
# Si number density = 20.114229 Si / 1000 Ang^3
#
#
#
# Elastic Constant Matrix: (Units=GPa)
#
#
# Indices 1 2 3 4 5 6 
#
# 1 103.1548 69.2107 47.9514 0.0000 0.0000 0.0000
# 2 69.2107 103.1548 47.9514 0.0000 0.0000 0.0000
# 3 47.9514 47.9514 137.2319 0.0000 0.0000 0.0000
# 4 0.0000 0.0000 0.0000 18.4856 0.0000 0.0000
# 5 0.0000 0.0000 0.0000 0.0000 18.4856 0.0000
# 6 0.0000 0.0000 0.0000 0.0000 0.0000 26.5988
#
#
#
# Elastic Compliance Matrix: (Units=1/GPa)
#
#
# Indices 1 2 3 4 5 6 
#
# 1 0.018331 -0.011129 -0.002516 0.000000 0.000000 0.000000
# 2 -0.011129 0.018331 -0.002516 0.000000 0.000000 0.000000
# 3 -0.002516 -0.002516 0.009046 0.000000 0.000000 0.000000
# 4 0.000000 0.000000 0.000000 0.054096 0.000000 0.000000
# 5 0.000000 0.000000 0.000000 0.000000 0.054096 0.000000
# 6 0.000000 0.000000 0.000000 0.000000 0.000000 0.037596
#
#
# Mechanical properties :
#
#
# Convention : Reuss Voigt Hill
#
# Bulk Modulus (GPa) = 74.72002 74.86318 74.79160
# Shear Modulus (GPa) = 21.90288 24.60920 23.25604
#
# Velocity S-wave (km/s) = 3.30347 3.50161 3.40398
# Velocity P-wave (km/s) = 7.19576 7.32449 7.26041
#
# Compressibility (1/GPa) = 0.01338329
#
# Stress axis : x y z
#
# Youngs Moduli (GPa) = 54.55256 54.55256 110.55205
#
# Poissons Ratio (x) = 0.60713 0.27820
# Poissons Ratio (y) = 0.60713 0.27820
# Poissons Ratio (z) = 0.13728 0.13728
#
# Static dielectric constant tensor:
#      x y z
#    x 3.432070 0.000000 0.000000 
#    y 0.000000 3.432070 0.000000 
#    z 0.000000 0.000000 3.840060 
# 
# 
# High freq. dielectric constant tensor:
#      x y z
#    x 1.770510 0.000000 0.000000 
#    y 0.000000 1.770510 0.000000 
#    z 0.000000 0.000000 1.801140 
# 
# From -- ./inp_files/2047.got.cif
#   From: 2010.03.12/outbox.cif.g09.slc.cpg/sg110_2_cif.got.tgz:2047.got - 2010.04.14 01:58:01.
