data_PCOD8308581
_publ_section_title
;
Structure prediction by ZEFSAII (Michael W. Deem and Ramdas Pophale) SiO2 
 PCOD8308581
Probable space group: P -4 21 M 
;
_chemical_formula_sum "Si O2"
_cell_formula_units_Z 64
_cell_length_a 12.531385
_cell_length_b 12.531385
_cell_length_c 22.121026
_cell_angle_alpha 90.000000
_cell_angle_beta 90.000000
_cell_angle_gamma 90.000000
_cell_volume 3473.788812
_symmetry_space_group_name_H-M "P -4 21 M "
_symmetry_group_IT_number 113
_symmetry_cell_setting 'tetragonal'
loop_
_space_group_symop_operation_xyz
x,y,z
y,-x,-z
-x,-y,z
-y,x,-z
1/2+x,1/2-y,-z
1/2-x,1/2+y,-z
1/2-y,1/2-x,z
1/2+y,1/2+x,z
loop_
_atom_site_type_symbol
_atom_site_label
_atom_site_fract_x
_atom_site_fract_y
_atom_site_fract_z
Si Si1 0.826976 0.502675 0.348884
Si Si2 0.574230 0.601480 0.687963
Si Si3 0.403833 0.729127 0.000269
Si Si4 0.809145 0.130238 0.190264
Si Si5 0.005494 0.670404 0.889854
Si Si6 0.961146 0.119913 0.088493
Si Si7 0.455472 0.215943 0.516513
Si Si8 0.871508 0.799751 0.569843
O O1 0.896016 0.396016 0.335607
O O2 0.712793 0.492618 0.315308
O O3 0.808071 0.514362 0.420469
O O4 0.892025 0.607976 0.326849
O O5 0.500000 0.500000 0.699612
O O6 0.659731 0.606457 0.741426
O O7 0.639634 0.579568 0.626950
O O8 0.300593 0.800593 0.990968
O O9 0.492574 0.788528 0.041458
O O10 0.370591 0.622031 0.034063
O O11 0.444498 0.698655 0.933100
O O12 0.725830 0.225830 0.187282
O O13 0.762811 0.022321 0.158799
O O14 0.913282 0.163888 0.151454
O O15 0.924241 0.575760 0.877139
O O16 0.126175 0.626175 0.880934
O O17 0.000000 0.000000 0.097936
O O18 0.383994 0.116007 0.496687
O O19 0.539129 0.231134 0.463130
O O20 0.384818 0.322915 0.522656
O O21 0.776768 0.723233 0.593376
#
# Coordination Sequence:
#
# PCOD8308581 Si02
#       8
#     8   8   8   8   8   8   8   8
#     4   9  18  36  62  85 110 149 196 242 287 344
#     4  11  23  39  57  82 111 152 190 238 290 348
#     4  10  19  32  53  81 114 147 178 222 282 338
#     4  10  21  38  59  77 106 149 195 238 285 339
#     4   8  16  31  52  78 105 139 182 223 266 324
#     4  11  19  36  54  80 110 147 183 227 275 335
#     4   9  19  33  54  84 115 149 185 229 286 345
#     4  10  21  35  55  82 113 146 185 231 282 341
#
# _framework density 18.423687000000001
#
# number of rings (size 3 to 8) (size 9 to 14) (size 15 to 20)
#    0.000    2.250    1.250    3.750    3.500    1.750 
#    0.000    1.875    0.000    2.250    0.000    0.000 
#    0.000    0.000    0.000    0.000    0.000    0.000 
#
# Total GULP energy -793427.388549 kJ/mol
# GULP energy per Si atom -12397.302946 kJ/mol
# Density = 1.838175 g / cm^3
# Si number density = 18.423687 Si / 1000 Ang^3
#
#
#
# Elastic Constant Matrix: (Units=GPa)
#
#
# Indices 1 2 3 4 5 6 
#
# 1 82.2296 34.9917 24.2929 0.0000 0.0000 0.0000
# 2 34.9917 82.2293 24.2929 0.0000 0.0000 0.0000
# 3 24.2929 24.2929 57.9541 0.0000 0.0000 0.0000
# 4 0.0000 0.0000 0.0000 22.3328 0.0000 0.0000
# 5 0.0000 0.0000 0.0000 0.0000 22.3326 0.0000
# 6 0.0000 0.0000 0.0000 0.0000 0.0000 34.1630
#
#
#
# Elastic Compliance Matrix: (Units=1/GPa)
#
#
# Indices 1 2 3 4 5 6 
#
# 1 0.015747 -0.005422 -0.004328 0.000000 0.000000 0.000000
# 2 -0.005422 0.015747 -0.004328 0.000000 0.000000 0.000000
# 3 -0.004328 -0.004328 0.020883 0.000000 0.000000 0.000000
# 4 0.000000 0.000000 0.000000 0.044777 0.000000 0.000000
# 5 0.000000 0.000000 0.000000 0.000000 0.044778 0.000000
# 6 0.000000 0.000000 0.000000 0.000000 0.000000 0.029271
#
#
# Mechanical properties :
#
#
# Convention : Reuss Voigt Hill
#
# Bulk Modulus (GPa) = 41.28601 43.28532 42.28566
# Shear Modulus (GPa) = 24.10408 25.02137 24.56272
#
# Velocity S-wave (km/s) = 3.62099 3.68925 3.65528
# Velocity P-wave (km/s) = 6.31981 6.45700 6.38877
#
# Compressibility (1/GPa) = 0.02422128
#
# Stress axis : x y z
#
# Youngs Moduli (GPa) = 63.50391 63.50356 47.88516
#
# Poissons Ratio (x) = 0.34434 0.20724
# Poissons Ratio (y) = 0.34434 0.20724
# Poissons Ratio (z) = 0.27483 0.27484
#
# Static dielectric constant tensor:
#      x y z
#    x 3.527710 0.000000 0.000000 
#    y 0.000000 3.527710 0.000000 
#    z 0.000000 0.000000 3.214890 
# 
# 
# High freq. dielectric constant tensor:
#      x y z
#    x 1.712920 0.000000 0.000000 
#    y 0.000000 1.712920 0.000000 
#    z 0.000000 0.000000 1.692980 
# 
# From -- ./inp_files/2862.got.cif
#   From: 2010.03.12/outbox.cif.g09.slc.cpg/sg113_cif.got.tgz:2862.got - 2010.04.14 02:06:34.
