data_PCOD8308806
_publ_section_title
;
Structure prediction by ZEFSAII (Michael W. Deem and Ramdas Pophale) SiO2 
 PCOD8308806
Probable space group: P -4 21 C
;
_chemical_formula_sum "Si O2"
_cell_formula_units_Z 64
_cell_length_a 24.230181
_cell_length_b 24.230181
_cell_length_c 5.173420
_cell_angle_alpha 90.000000
_cell_angle_beta 90.000000
_cell_angle_gamma 90.000000
_cell_volume 3037.323528
_symmetry_space_group_name_H-M "P -4 21 C"
_symmetry_group_IT_number 114
_symmetry_cell_setting 'tetragonal'
loop_
_space_group_symop_operation_xyz
x,y,z
y,-x,-z
-x,-y,z
-y,x,-z
1/2+x,1/2-y,1/2-z
1/2-x,1/2+y,1/2-z
1/2-y,1/2-x,1/2+z
1/2+y,1/2+x,1/2+z
loop_
_atom_site_type_symbol
_atom_site_label
_atom_site_fract_x
_atom_site_fract_y
_atom_site_fract_z
Si Si1 0.411364 0.863425 0.740871
Si Si2 0.475487 0.075603 0.732645
Si Si3 0.116366 0.662549 0.802314
Si Si4 0.718853 0.420744 0.200331
Si Si5 0.056398 0.068117 0.505260
Si Si6 0.051258 0.237581 0.719710
Si Si7 0.659158 0.427322 0.696755
Si Si8 0.324647 0.444952 0.718084
O O1 0.373819 0.873365 0.489895
O O2 0.460942 0.907528 0.738884
O O3 0.433094 0.801022 0.739906
O O4 0.461559 0.039341 0.480759
O O5 0.442230 0.132852 0.734055
O O6 0.158691 0.635281 0.599484
O O7 0.113106 0.725862 0.733091
O O8 0.731521 0.485478 0.214559
O O9 0.676625 0.401076 0.425257
O O10 0.691431 0.399751 0.936249
O O11 0.093296 0.079861 0.759182
O O12 0.070768 0.111432 0.278197
O O13 0.992971 0.071649 0.602370
O O14 0.076089 0.214353 0.452316
O O15 0.078216 0.199726 0.948417
O O16 0.678920 0.489808 0.700027
#
# Coordination Sequence:
#
# PCOD8308806 Si02
#       8
#     8   8   8   8   8   8   8   8
#     4  12  24  36  54  78 106 146 191 240 293 333
#     4  10  21  35  50  73 108 145 181 223 290 357
#     4  10  19  31  51  76 101 140 185 230 286 325
#     4  10  18  34  53  75 108 143 185 234 268 314
#     4   9  18  36  59  93 131 153 171 203 255 337
#     4  10  20  37  53  77 105 140 191 239 266 316
#     4   9  19  31  53  82 111 148 181 209 259 320
#     4   9  19  34  57  78 109 150 181 213 265 313
#
# _framework density 21.071179999999998
#
# number of rings (size 3 to 8) (size 9 to 14) (size 15 to 20)
#    0.000    2.125    1.250    2.250    0.000    2.500 
#    0.000    3.750    0.000   10.500    0.000   17.500 
#    0.000    0.000    0.000    0.000    0.000    0.000 
#
# Total GULP energy -793383.589370 kJ/mol
# GULP energy per Si atom -12396.618584 kJ/mol
# Density = 2.102322 g / cm^3
# Si number density = 21.071180 Si / 1000 Ang^3
#
#
#
# Elastic Constant Matrix: (Units=GPa)
#
#
# Indices 1 2 3 4 5 6 
#
# 1 78.7696 9.1730 15.2731 0.0000 0.0000 0.0000
# 2 9.1730 78.7696 15.2731 0.0000 0.0000 0.0000
# 3 15.2731 15.2731 120.1287 0.0000 0.0000 0.0000
# 4 0.0000 0.0000 0.0000 4.6522 0.0000 0.0000
# 5 0.0000 0.0000 0.0000 0.0000 4.6522 0.0000
# 6 0.0000 0.0000 0.0000 0.0000 0.0000 10.5967
#
#
#
# Elastic Compliance Matrix: (Units=1/GPa)
#
#
# Indices 1 2 3 4 5 6 
#
# 1 0.013132 -0.001236 -0.001513 0.000000 0.000000 0.000000
# 2 -0.001236 0.013132 -0.001513 0.000000 0.000000 0.000000
# 3 -0.001513 -0.001513 0.008709 0.000000 0.000000 0.000000
# 4 0.000000 0.000000 0.000000 0.214952 0.000000 0.000000
# 5 0.000000 0.000000 0.000000 0.000000 0.214952 0.000000
# 6 0.000000 0.000000 0.000000 0.000000 0.000000 0.094369
#
#
# Mechanical properties :
#
#
# Convention : Reuss Voigt Hill
#
# Bulk Modulus (GPa) = 37.80459 39.67848 38.74154
# Shear Modulus (GPa) = 8.67172 19.84347 14.25760
#
# Velocity S-wave (km/s) = 2.03086 3.07210 2.60405
# Velocity P-wave (km/s) = 4.84556 5.60850 5.24093
#
# Compressibility (1/GPa) = 0.02645181
#
# Stress axis : x y z
#
# Youngs Moduli (GPa) = 76.14715 76.14715 114.82366
#
# Poissons Ratio (x) = 0.09412 0.17367
# Poissons Ratio (y) = 0.09412 0.17367
# Poissons Ratio (z) = 0.11517 0.11517
#
# Static dielectric constant tensor:
#      x y z
#    x 3.612620 0.000000 0.000000 
#    y 0.000000 3.612620 0.000000 
#    z 0.000000 0.000000 4.155910 
# 
# 
# High freq. dielectric constant tensor:
#      x y z
#    x 1.804400 0.000000 0.000000 
#    y 0.000000 1.804400 0.000000 
#    z 0.000000 0.000000 1.840880 
# 
# From -- ./inp_files/301.got.cif
#   From: 2010.03.12/outbox.cif.g09.slc.cpg/sg114_1_cif.got.tgz:301.got - 2010.04.14 02:08:34.
