data_PCOD8308138
_publ_section_title
;
Structure prediction by ZEFSAII (Michael W. Deem and Ramdas Pophale) SiO2 
 PCOD8308138
Probable space group: P -4 2 M 
;
_chemical_formula_sum "Si O2"
_cell_formula_units_Z 48
_cell_length_a 23.024960
_cell_length_b 23.024960
_cell_length_c 5.076179
_cell_angle_alpha 90.000000
_cell_angle_beta 90.000000
_cell_angle_gamma 90.000000
_cell_volume 2691.130119
_symmetry_space_group_name_H-M "P -4 2 M "
_symmetry_group_IT_number 111
_symmetry_cell_setting 'tetragonal'
loop_
_space_group_symop_operation_xyz
x,y,z
y,-x,-z
-x,-y,z
-y,x,-z
x,-y,-z
-x,y,-z
-y,-x,z
y,x,z
loop_
_atom_site_type_symbol
_atom_site_label
_atom_site_fract_x
_atom_site_fract_y
_atom_site_fract_z
Si Si1 0.767924 0.934553 0.483263
Si Si2 0.534767 0.242202 0.753068
Si Si3 0.935549 0.158207 0.020035
Si Si4 0.273769 0.818026 0.311808
Si Si5 0.532683 0.621270 0.251354
Si Si6 0.328104 0.235303 0.187635
O O1 0.822270 0.928433 0.679263
O O2 0.723801 0.884685 0.584236
O O3 0.740536 0.000000 0.500000
O O4 0.788351 0.923774 0.182546
O O5 0.500000 0.216015 0.500000
O O6 0.530920 0.310482 0.740543
O O7 0.602640 0.229308 0.792837
O O8 0.500000 0.216305 0.000000
O O9 0.892353 0.107648 0.944151
O O10 0.000000 0.132937 0.000000
O O11 0.207426 0.792575 0.287659
O O12 0.307653 0.780025 0.522044
O O13 0.305679 0.811057 0.030187
O O14 0.500000 0.594579 0.500000
O O15 0.599198 0.599198 0.250117
O O16 0.500000 0.596223 0.000000
O O17 0.299331 0.299331 0.119353
#
# Coordination Sequence:
#
# PCOD8308138 Si02
#       6
#     8   8   8   8   8   8
#     4  10  20  33  49  70  98 131 165 202 248 302
#     4  10  20  34  50  68  94 126 158 193 238 293
#     4  10  19  30  45  64  90 128 170 210 247 283
#     4  10  19  31  50  74 100 130 163 203 249 295
#     4  10  20  31  44  61  83 116 154 193 233 270
#     4  10  20  33  51  75 101 129 163 205 248 293
#
# _framework density 17.836372000000001
#
# number of rings (size 3 to 8) (size 9 to 14) (size 15 to 20)
#    0.000    2.000    0.000    4.500    0.000    2.500 
#    0.000    5.000    0.000    3.000    0.000    0.000 
#    0.000   10.000    0.000    0.000    0.000    0.000 
#
# Total GULP energy -594651.762760 kJ/mol
# GULP energy per Si atom -12388.578391 kJ/mol
# Density = 1.779578 g / cm^3
# Si number density = 17.836372 Si / 1000 Ang^3
#
#
#
# Elastic Constant Matrix: (Units=GPa)
#
#
# Indices 1 2 3 4 5 6 
#
# 1 156.1980 -50.2381 16.8490 0.0000 0.0000 0.0000
# 2 -50.2381 156.2106 16.8551 0.0000 0.0000 0.0000
# 3 16.8490 16.8551 96.7459 0.0000 0.0000 0.0000
# 4 0.0000 0.0000 0.0000 23.7820 0.0000 0.0000
# 5 0.0000 0.0000 0.0000 0.0000 23.7827 0.0000
# 6 0.0000 0.0000 0.0000 0.0000 0.0000 18.2349
#
#
#
# Elastic Compliance Matrix: (Units=1/GPa)
#
#
# Indices 1 2 3 4 5 6 
#
# 1 0.007417 0.002573 -0.001740 0.000000 0.000000 0.000000
# 2 0.002573 0.007417 -0.001740 0.000000 0.000000 0.000000
# 3 -0.001740 -0.001740 0.010943 0.000000 0.000000 0.000000
# 4 0.000000 0.000000 0.000000 0.042049 0.000000 0.000000
# 5 0.000000 0.000000 0.000000 0.000000 0.042047 0.000000
# 6 0.000000 0.000000 0.000000 0.000000 0.000000 0.054840
#
#
# Mechanical properties :
#
#
# Convention : Reuss Voigt Hill
#
# Bulk Modulus (GPa) = 41.73162 41.78740 41.75951
# Shear Modulus (GPa) = 28.65086 41.53915 35.09500
#
# Velocity S-wave (km/s) = 4.01224 4.83110 4.44059
# Velocity P-wave (km/s) = 6.70162 7.38908 7.05373
#
# Compressibility (1/GPa) = 0.02396265
#
# Stress axis : x y z
#
# Youngs Moduli (GPa) = 134.81680 134.82595 91.38590
#
# Poissons Ratio (x) = -0.34694 0.15902
# Poissons Ratio (y) = -0.34692 0.15904
# Poissons Ratio (z) = 0.23460 0.23464
#
# Static dielectric constant tensor:
#      x y z
#    x 3.160860 0.000000 0.000000 
#    y 0.000000 3.160860 0.000000 
#    z 0.000000 0.000000 3.661460 
# 
# 
# High freq. dielectric constant tensor:
#      x y z
#    x 1.660070 0.000000 0.000000 
#    y 0.000000 1.660070 0.000000 
#    z 0.000000 0.000000 1.719660 
# 
# From -- ./inp_files/617.got.cif
#   From: 2010.03.12/outbox.cif.g09.slc.cpg/sg111_1_cif.got.tgz:617.got - 2010.04.14 01:59:48.
