data_PCOD8308754
_publ_section_title
;
Structure prediction by ZEFSAII (Michael W. Deem and Ramdas Pophale) SiO2 
 PCOD8308754
Probable space group: P -4 21 M 
;
_chemical_formula_sum "Si O2"
_cell_formula_units_Z 40
_cell_length_a 14.243312
_cell_length_b 14.243312
_cell_length_c 8.112689
_cell_angle_alpha 90.000000
_cell_angle_beta 90.000000
_cell_angle_gamma 90.000000
_cell_volume 1645.836930
_symmetry_space_group_name_H-M "P -4 21 M "
_symmetry_group_IT_number 113
_symmetry_cell_setting 'tetragonal'
loop_
_space_group_symop_operation_xyz
x,y,z
y,-x,-z
-x,-y,z
-y,x,-z
1/2+x,1/2-y,-z
1/2-x,1/2+y,-z
1/2-y,1/2-x,z
1/2+y,1/2+x,z
loop_
_atom_site_type_symbol
_atom_site_label
_atom_site_fract_x
_atom_site_fract_y
_atom_site_fract_z
Si Si1 0.422192 0.077809 0.918169
Si Si2 0.658128 0.681754 0.493227
Si Si3 0.987946 0.761776 0.665332
Si Si4 0.367522 0.708974 0.008144
Si Si5 0.924409 0.424409 0.719383
Si Si6 0.042948 0.775963 0.184553
O O1 0.335326 0.037485 0.818136
O O2 0.500000 0.000000 0.922113
O O3 0.389103 0.110898 0.100973
O O4 0.731883 0.768118 0.479704
O O5 0.585107 0.676222 0.338578
O O6 0.712673 0.584235 0.517627
O O7 0.585381 0.690861 0.644282
O O8 0.027029 0.658998 0.617888
O O9 0.935781 0.762549 0.839829
O O10 0.293241 0.793241 0.977559
O O11 0.314097 0.612441 0.041745
O O12 0.435360 0.691214 0.850455
O O13 0.000000 0.500000 0.762307
#
# Coordination Sequence:
#
# PCOD8308754 Si02
#       6
#     4   8   8   8   4   8
#     4  11  20  37  67 101 133 165 216 268 331 386
#     4  11  24  45  63  92 136 174 217 276 337 384
#     4  11  23  41  68  92 130 178 219 267 326 395
#     4  11  23  43  68  97 131 176 223 267 329 393
#     4  11  20  37  69 103 123 167 228 266 315 390
#     4  11  22  41  66  96 136 173 209 279 332 388
#
# _framework density 24.303743999999998
#
# number of rings (size 3 to 8) (size 9 to 14) (size 15 to 20)
#    0.000    1.000    5.000    3.600    0.000    2.400 
#    0.000   13.000    0.000    0.000    0.000    0.000 
#    0.000    0.000    0.000    0.000    0.000    0.000 
#
# Total GULP energy -495677.693531 kJ/mol
# GULP energy per Si atom -12391.942338 kJ/mol
# Density = 2.424843 g / cm^3
# Si number density = 24.303744 Si / 1000 Ang^3
#
#
#
# Elastic Constant Matrix: (Units=GPa)
#
#
# Indices 1 2 3 4 5 6 
#
# 1 105.5596 59.0817 -0.7288 0.0000 0.0000 0.0000
# 2 59.0817 105.5590 -0.7292 0.0000 0.0000 0.0000
# 3 -0.7288 -0.7292 13.3254 0.0000 0.0000 0.0000
# 4 0.0000 0.0000 0.0000 45.0961 0.0000 0.0000
# 5 0.0000 0.0000 0.0000 0.0000 45.0969 0.0000
# 6 0.0000 0.0000 0.0000 0.0000 0.0000 52.4828
#
#
#
# Elastic Compliance Matrix: (Units=1/GPa)
#
#
# Indices 1 2 3 4 5 6 
#
# 1 0.013796 -0.007719 0.000332 0.000000 0.000000 0.000000
# 2 -0.007719 0.013796 0.000333 0.000000 0.000000 0.000000
# 3 0.000332 0.000333 0.075081 0.000000 0.000000 0.000000
# 4 0.000000 0.000000 0.000000 0.022175 0.000000 0.000000
# 5 0.000000 0.000000 0.000000 0.000000 0.022174 0.000000
# 6 0.000000 0.000000 0.000000 0.000000 0.000000 0.019054
#
#
# Mechanical properties :
#
#
# Convention : Reuss Voigt Hill
#
# Bulk Modulus (GPa) = 11.29125 37.74349 24.51737
# Shear Modulus (GPa) = 23.84279 39.65653 31.74966
#
# Velocity S-wave (km/s) = 3.13554 4.04382 3.61829
# Velocity P-wave (km/s) = 4.21483 6.11285 5.25032
#
# Compressibility (1/GPa) = 0.08856416
#
# Stress axis : x y z
#
# Youngs Moduli (GPa) = 72.48377 72.48332 13.31898
#
# Poissons Ratio (x) = 0.55953 -0.00442
# Poissons Ratio (y) = 0.55954 -0.00443
# Poissons Ratio (z) = -0.02407 -0.02412
#
# Static dielectric constant tensor:
#      x y z
#    x 4.515990 0.000000 0.000000 
#    y 0.000000 4.516060 0.000000 
#    z 0.000000 0.000000 4.422640 
# 
# 
# High freq. dielectric constant tensor:
#      x y z
#    x 1.975620 0.000000 0.000000 
#    y 0.000000 1.975610 0.000000 
#    z 0.000000 0.000000 1.954080 
# 
# From -- ./inp_files/1070.got.cif
#   From: 2010.03.12/outbox.cif.g09.slc.cpg/sg113_cif.got.tgz:1070.got - 2010.04.14 02:06:34.
