data_PCOD8308290
_publ_section_title
;
Structure prediction by ZEFSAII (Michael W. Deem and Ramdas Pophale) SiO2 
 PCOD8308290
Probable space group: P -4 2 M 
;
_chemical_formula_sum "Si O2"
_cell_formula_units_Z 48
_cell_length_a 20.280519
_cell_length_b 20.280519
_cell_length_c 9.462831
_cell_angle_alpha 90.000000
_cell_angle_beta 90.000000
_cell_angle_gamma 90.000000
_cell_volume 3892.057194
_symmetry_space_group_name_H-M "P -4 2 M "
_symmetry_group_IT_number 111
_symmetry_cell_setting 'tetragonal'
loop_
_space_group_symop_operation_xyz
x,y,z
y,-x,-z
-x,-y,z
-y,x,-z
x,-y,-z
-x,y,-z
-y,-x,z
y,x,z
loop_
_atom_site_type_symbol
_atom_site_label
_atom_site_fract_x
_atom_site_fract_y
_atom_site_fract_z
Si Si1 0.317698 0.575513 0.163089
Si Si2 0.806908 0.578542 0.659142
Si Si3 0.578420 0.926897 0.158578
Si Si4 0.421458 0.193092 0.340857
Si Si5 0.421580 0.073104 0.841422
Si Si6 0.575513 0.682303 0.163086
O O1 0.382423 0.617578 0.198678
O O2 0.257514 0.602638 0.256813
O O3 0.334766 0.500000 0.200510
O O4 0.296652 0.582516 0.000002
O O5 0.809516 0.500000 0.659660
O O6 0.804269 0.606308 0.499999
O O7 0.872191 0.607637 0.735109
O O8 0.607637 0.872192 0.264892
O O9 0.500000 0.923399 0.158970
O O10 0.601435 0.000000 0.207565
O O11 0.604165 0.912463 0.000000
O O12 0.397362 0.257512 0.256809
O O13 0.617579 0.617579 0.198675
#
# Coordination Sequence:
#
# PCOD8308290 Si02
#       6
#     8   8   8   8   8   8
#     4   9  17  28  40  51  62  78 102 134 172 211
#     4   9  16  24  34  48  65  83 101 123 153 190
#     4   8  13  21  33  48  65  84 103 121 143 175
#     4   9  16  24  34  48  65  83 101 123 153 190
#     4   8  13  21  33  48  65  84 103 121 143 175
#     4   9  17  28  40  51  62  78 102 134 172 211
#
# _framework density 12.33281
#
# number of rings (size 3 to 8) (size 9 to 14) (size 15 to 20)
#    0.000    3.333    0.000    2.000    0.000    5.667 
#    0.000    5.000    0.000    0.000    0.000    4.667 
#    0.000    0.000    0.000    0.000    0.000    0.000 
#
# Total GULP energy -594937.742468 kJ/mol
# GULP energy per Si atom -12394.536301 kJ/mol
# Density = 1.230474 g / cm^3
# Si number density = 12.332810 Si / 1000 Ang^3
#
#
#
# Elastic Constant Matrix: (Units=GPa)
#
#
# Indices 1 2 3 4 5 6 
#
# 1 60.1245 29.8773 42.3326 0.0000 0.0000 0.0000
# 2 29.8773 60.1269 42.3330 0.0000 0.0000 0.0000
# 3 42.3326 42.3330 88.1501 0.0000 0.0000 0.0000
# 4 0.0000 0.0000 0.0000 11.8974 0.0000 0.0000
# 5 0.0000 0.0000 0.0000 0.0000 11.8975 0.0000
# 6 0.0000 0.0000 0.0000 0.0000 0.0000 0.5344
#
#
#
# Elastic Compliance Matrix: (Units=1/GPa)
#
#
# Indices 1 2 3 4 5 6 
#
# 1 0.026663 -0.006397 -0.009733 0.000000 0.000000 0.000000
# 2 -0.006397 0.026662 -0.009732 0.000000 0.000000 0.000000
# 3 -0.009733 -0.009732 0.020692 0.000000 0.000000 0.000000
# 4 0.000000 0.000000 0.000000 0.084052 0.000000 0.000000
# 5 0.000000 0.000000 0.000000 0.000000 0.084051 0.000000
# 6 0.000000 0.000000 0.000000 0.000000 0.000000 1.871084
#
#
# Mechanical properties :
#
#
# Convention : Reuss Voigt Hill
#
# Bulk Modulus (GPa) = 44.85460 48.60970 46.73215
# Shear Modulus (GPa) = 2.30164 11.12309 6.71237
#
# Velocity S-wave (km/s) = 1.36760 3.00644 2.33549
# Velocity P-wave (km/s) = 6.24042 7.17998 6.72662
#
# Compressibility (1/GPa) = 0.02229426
#
# Stress axis : x y z
#
# Youngs Moduli (GPa) = 37.50447 37.50627 48.32766
#
# Poissons Ratio (x) = 0.23992 0.47036
# Poissons Ratio (y) = 0.23991 0.47034
# Poissons Ratio (z) = 0.36502 0.36502
#
# Static dielectric constant tensor:
#      x y z
#    x 2.350720 0.000000 0.000000 
#    y 0.000000 2.350720 0.000000 
#    z 0.000000 0.000000 2.737620 
# 
# 
# High freq. dielectric constant tensor:
#      x y z
#    x 1.429590 0.000000 0.000000 
#    y 0.000000 1.429590 0.000000 
#    z 0.000000 0.000000 1.478510 
# 
# From -- ./inp_files/1897.got.cif
#   From: 2010.03.12/outbox.cif.g09.slc.cpg/sg111_1_cif.got.tgz:1897.got - 2010.04.14 01:59:48.
