data_PCOD8308056
_publ_section_title
;
Structure prediction by ZEFSAII (Michael W. Deem and Ramdas Pophale) SiO2 
 PCOD8308056
Probable space group: I 41 C D
;
_chemical_formula_sum "Si O2"
_cell_formula_units_Z 120
_cell_length_a 24.931226
_cell_length_b 24.931226
_cell_length_c 9.469380
_cell_angle_alpha 90.000000
_cell_angle_beta 90.000000
_cell_angle_gamma 90.000000
_cell_volume 5885.844932
_symmetry_space_group_name_H-M "I 41 C D"
_symmetry_group_IT_number 110
_symmetry_cell_setting 'tetragonal'
loop_
_space_group_symop_operation_xyz
x,y,z
-y,1/2+x,1/4+z
-x,-y,z
y,1/2-x,1/4+z
-x,y,1/2+z
x,-y,1/2+z
1/2-y,-x,1/4+z
1/2+y,x,1/4+z
1/2+x,1/2+y,1/2+z
1/2-y,x,3/4+z
1/2-x,1/2-y,1/2+z
1/2+y,-x,3/4+z
1/2-x,1/2+y,z
1/2+x,1/2-y,z
-y,1/2-x,3/4+z
y,1/2+x,3/4+z
loop_
_atom_site_type_symbol
_atom_site_label
_atom_site_fract_x
_atom_site_fract_y
_atom_site_fract_z
Si Si1 0.436973 0.681777 0.264630
Si Si2 0.500000 0.000000 0.368870
Si Si3 0.883624 0.910790 0.858915
Si Si4 0.699949 0.436434 0.620950
Si Si5 0.896432 0.657594 0.599148
Si Si6 0.933019 0.022086 0.866730
Si Si7 0.199435 0.061340 0.078467
Si Si8 0.819996 0.456760 0.693919
O O1 0.382297 0.653084 0.318119
O O2 0.425410 0.744927 0.251936
O O3 0.483313 0.672641 0.381685
O O4 0.455965 0.662493 0.109150
O O5 0.538852 0.034303 0.474190
O O6 0.463498 0.036456 0.263596
O O7 0.842366 0.915248 0.732379
O O8 0.916725 0.855961 0.851517
O O9 0.926998 0.958141 0.857785
O O10 0.850216 0.910914 0.002481
O O11 0.692821 0.394098 0.491687
O O12 0.687472 0.497950 0.581270
O O13 0.759909 0.434378 0.680186
O O14 0.950417 0.623585 0.616167
O O15 0.908950 0.701115 0.479100
#
# Coordination Sequence:
#
# PCOD8308056 Si02
#       8
#    16   8  16  16  16  16  16  16
#     4  11  27  42  64  99 134 170 212 276 332 384
#     4  10  24  34  48  76 138 164 196 246 304 364
#     4  12  22  40  67  89 129 173 217 263 324 379
#     4  11  23  42  65  95 124 172 223 266 310 400
#     4  12  24  40  68  93 127 170 223 261 326 382
#     4  11  22  36  56  88 122 176 205 247 299 400
#     4  11  21  44  66  89 129 172 220 262 316 391
#     4  11  27  42  64  98 136 168 214 274 333 382
#
# _framework density 20.387896999999999
#
# number of rings (size 3 to 8) (size 9 to 14) (size 15 to 20)
#    0.000    0.800    5.333    1.600   11.200    0.000 
#    0.000    0.000    0.000    4.800    0.000    0.000 
#    0.000    0.000    0.000    0.000    0.000    0.000 
#
# Total GULP energy -743752.145277 kJ/mol
# GULP energy per Si atom -12395.869088 kJ/mol
# Density = 2.034149 g / cm^3
# Si number density = 20.387897 Si / 1000 Ang^3
#
#
#
# Elastic Constant Matrix: (Units=GPa)
#
#
# Indices 1 2 3 4 5 6 
#
# 1 62.1146 35.0639 18.9706 0.0000 0.0000 0.0000
# 2 35.0639 62.1146 18.9706 0.0000 0.0000 0.0000
# 3 18.9706 18.9706 123.2905 0.0000 0.0000 0.0000
# 4 0.0000 0.0000 0.0000 29.2825 0.0000 0.0000
# 5 0.0000 0.0000 0.0000 0.0000 29.2825 0.0000
# 6 0.0000 0.0000 0.0000 0.0000 0.0000 20.6852
#
#
#
# Elastic Compliance Matrix: (Units=1/GPa)
#
#
# Indices 1 2 3 4 5 6 
#
# 1 0.023958 -0.013010 -0.001685 0.000000 0.000000 0.000000
# 2 -0.013010 0.023958 -0.001685 0.000000 0.000000 0.000000
# 3 -0.001685 -0.001685 0.008629 0.000000 0.000000 0.000000
# 4 0.000000 0.000000 0.000000 0.034150 0.000000 0.000000
# 5 0.000000 0.000000 0.000000 0.000000 0.034150 0.000000
# 6 0.000000 0.000000 0.000000 0.000000 0.000000 0.048344
#
#
# Mechanical properties :
#
#
# Convention : Reuss Voigt Hill
#
# Bulk Modulus (GPa) = 42.03951 43.72556 42.88254
# Shear Modulus (GPa) = 23.37806 27.48437 25.43121
#
# Velocity S-wave (km/s) = 3.38992 3.67559 3.53564
# Velocity P-wave (km/s) = 5.99889 6.28544 6.14383
#
# Compressibility (1/GPa) = 0.02378715
#
# Stress axis : x y z
#
# Youngs Moduli (GPa) = 41.73993 41.73993 115.88387
#
# Poissons Ratio (x) = 0.54303 0.19521
# Poissons Ratio (y) = 0.54303 0.19521
# Poissons Ratio (z) = 0.07031 0.07031
#
# Static dielectric constant tensor:
#      x y z
#    x 3.551010 0.000000 0.000000 
#    y 0.000000 3.551010 0.000000 
#    z 0.000000 0.000000 4.104750 
# 
# 
# High freq. dielectric constant tensor:
#      x y z
#    x 1.778750 0.000000 0.000000 
#    y 0.000000 1.778750 0.000000 
#    z 0.000000 0.000000 1.821070 
# 
# From -- ./inp_files/531.got.cif
#   From: 2010.03.12/outbox.cif.g09.slc.cpg/sg110_1_cif.got.tgz:531.got - 2010.04.14 01:58:01.
