data_PCOD8308598
_publ_section_title
;
Structure prediction by ZEFSAII (Michael W. Deem and Ramdas Pophale) SiO2 
 PCOD8308598
Probable space group: P -4 21 M 
;
_chemical_formula_sum "Si O2"
_cell_formula_units_Z 64
_cell_length_a 13.793052
_cell_length_b 13.793052
_cell_length_c 18.752231
_cell_angle_alpha 90.000000
_cell_angle_beta 90.000000
_cell_angle_gamma 90.000000
_cell_volume 3567.579759
_symmetry_space_group_name_H-M "P -4 21 M "
_symmetry_group_IT_number 113
_symmetry_cell_setting 'tetragonal'
loop_
_space_group_symop_operation_xyz
x,y,z
y,-x,-z
-x,-y,z
-y,x,-z
1/2+x,1/2-y,-z
1/2-x,1/2+y,-z
1/2-y,1/2-x,z
1/2+y,1/2+x,z
loop_
_atom_site_type_symbol
_atom_site_label
_atom_site_fract_x
_atom_site_fract_y
_atom_site_fract_z
Si Si1 0.153683 0.000061 0.023170
Si Si2 0.841240 0.499819 0.069711
Si Si3 0.785437 0.867709 0.579992
Si Si4 0.522534 0.386982 0.332425
Si Si5 0.526755 0.608212 0.175555
Si Si6 0.750240 0.091712 0.797047
Si Si7 0.703638 0.050412 0.640667
Si Si8 0.302254 0.647048 0.580079
O O1 0.172160 0.991556 0.108463
O O2 0.093651 0.098091 0.007127
O O3 0.259351 0.007520 0.989735
O O4 0.911404 0.588597 0.049638
O O5 0.793006 0.515896 0.146731
O O6 0.899426 0.399426 0.072872
O O7 0.738437 0.761564 0.580554
O O8 0.817285 0.893674 0.499668
O O9 0.875366 0.864068 0.632787
O O10 0.704693 0.944580 0.606079
O O11 0.500000 0.500000 0.345313
O O12 0.528799 0.362948 0.248180
O O13 0.441639 0.316700 0.365889
O O14 0.500000 0.500000 0.152538
O O15 0.640808 0.619892 0.185686
O O16 0.691936 0.191936 0.796097
O O17 0.745809 0.041166 0.720271
O O18 0.594741 0.094741 0.641461
O O19 0.772557 0.117030 0.593233
O O20 0.195368 0.695368 0.590703
#
# Coordination Sequence:
#
# PCOD8308598 Si02
#       8
#     8   8   8   8   8   8   8   8
#     4  11  20  35  56  79 111 147 182 225 264 327
#     4  10  22  38  55  81 115 145 181 229 279 328
#     4  11  23  36  52  81 115 150 185 229 280 333
#     4  11  21  34  58  84 111 143 183 234 280 329
#     4  11  19  33  54  83 110 140 179 222 274 317
#     4  10  19  34  56  80 107 140 180 226 275 329
#     4  10  19  35  56  81 110 144 182 226 279 338
#     4  10  20  35  56  81 110 142 187 233 275 324
#
# _framework density 17.939333999999999
#
# number of rings (size 3 to 8) (size 9 to 14) (size 15 to 20)
#    0.000    1.500    5.000    1.500    0.000    1.750 
#    0.000    1.875    0.000    1.125    0.000    0.000 
#    0.000    0.000    0.000    0.000    0.000    0.000 
#
# Total GULP energy -793700.443347 kJ/mol
# GULP energy per Si atom -12401.569427 kJ/mol
# Density = 1.789850 g / cm^3
# Si number density = 17.939334 Si / 1000 Ang^3
#
#
#
# Elastic Constant Matrix: (Units=GPa)
#
#
# Indices 1 2 3 4 5 6 
#
# 1 68.2668 18.7353 39.6705 0.0000 0.0000 0.0000
# 2 18.7353 68.2675 39.6707 0.0000 0.0000 0.0000
# 3 39.6705 39.6707 149.5526 0.0000 0.0000 0.0000
# 4 0.0000 0.0000 0.0000 29.2363 0.0000 0.0000
# 5 0.0000 0.0000 0.0000 0.0000 29.2362 0.0000
# 6 0.0000 0.0000 0.0000 0.0000 0.0000 23.8259
#
#
#
# Elastic Compliance Matrix: (Units=1/GPa)
#
#
# Indices 1 2 3 4 5 6 
#
# 1 0.017675 -0.002514 -0.004022 0.000000 0.000000 0.000000
# 2 -0.002514 0.017675 -0.004022 0.000000 0.000000 0.000000
# 3 -0.004022 -0.004022 0.008820 0.000000 0.000000 0.000000
# 4 0.000000 0.000000 0.000000 0.034204 0.000000 0.000000
# 5 0.000000 0.000000 0.000000 0.000000 0.034204 0.000000
# 6 0.000000 0.000000 0.000000 0.000000 0.000000 0.041971
#
#
# Mechanical properties :
#
#
# Convention : Reuss Voigt Hill
#
# Bulk Modulus (GPa) = 43.37216 53.58220 48.47718
# Shear Modulus (GPa) = 27.27022 28.99371 28.13196
#
# Velocity S-wave (km/s) = 3.90312 4.02457 3.96431
# Velocity P-wave (km/s) = 6.67399 7.17841 6.93079
#
# Compressibility (1/GPa) = 0.02305627
#
# Stress axis : x y z
#
# Youngs Moduli (GPa) = 56.57582 56.57642 113.37524
#
# Poissons Ratio (x) = 0.14222 0.45597
# Poissons Ratio (y) = 0.14222 0.45597
# Poissons Ratio (z) = 0.22754 0.22754
#
# Static dielectric constant tensor:
#      x y z
#    x 3.267540 0.000000 0.000000 
#    y 0.000000 3.267530 0.000000 
#    z 0.000000 0.000000 3.566310 
# 
# 
# High freq. dielectric constant tensor:
#      x y z
#    x 1.681060 0.000000 0.000000 
#    y 0.000000 1.681060 0.000000 
#    z 0.000000 0.000000 1.712100 
# 
# From -- ./inp_files/2572.got.cif
#   From: 2010.03.12/outbox.cif.g09.slc.cpg/sg113_cif.got.tgz:2572.got - 2010.04.14 02:06:34.
