data_PCOD8308468
_publ_section_title
;
Structure prediction by ZEFSAII (Michael W. Deem and Ramdas Pophale) SiO2 
 PCOD8308468
Probable space group: P -4 2 C
;
_chemical_formula_sum "Si O2"
_cell_formula_units_Z 32
_cell_length_a 9.092119
_cell_length_b 9.092119
_cell_length_c 23.551569
_cell_angle_alpha 90.000000
_cell_angle_beta 90.000000
_cell_angle_gamma 90.000000
_cell_volume 1946.928791
_symmetry_space_group_name_H-M "P -4 2 C"
_symmetry_group_IT_number 112
_symmetry_cell_setting 'tetragonal'
loop_
_space_group_symop_operation_xyz
x,y,z
y,-x,-z
-x,-y,z
-y,x,-z
x,-y,1/2-z
-x,y,1/2-z
-y,-x,1/2+z
y,x,1/2+z
loop_
_atom_site_type_symbol
_atom_site_label
_atom_site_fract_x
_atom_site_fract_y
_atom_site_fract_z
Si Si1 0.999999 0.673607 0.815560
Si Si2 0.161962 0.166342 0.595175
Si Si3 0.166342 0.161963 0.404824
Si Si4 0.329915 0.329915 0.500000
O O1 0.854227 0.743681 0.845387
O O2 0.000000 0.500000 0.824768
O O3 0.000000 0.717815 0.750000
O O4 0.145770 0.743681 0.845387
O O5 0.281361 0.241581 0.555440
O O6 0.999999 0.167902 0.564851
O O7 0.212285 0.000000 0.608475
O O8 0.241581 0.281362 0.444560
O O9 0.297507 0.500000 0.511113
#
# Coordination Sequence:
#
# PCOD8308468 Si02
#       4
#     8   8   8   8
#     4   9  17  31  53  79 105 137 173 212 259 310
#     4   9  19  32  50  75 101 133 171 214 257 310
#     4   9  19  32  50  75 101 133 171 214 257 310
#     4  11  22  33  48  72 104 139 174 215 272 328
#
# _framework density 16.436143999999999
#
# number of rings (size 3 to 8) (size 9 to 14) (size 15 to 20)
#    1.500    1.000    0.000    3.000    0.000    7.000 
#    0.000    0.000    0.000    1.500    0.000   10.500 
#    0.000    0.000    0.000    0.000    0.000    0.000 
#
# Total GULP energy -396509.501680 kJ/mol
# GULP energy per Si atom -12390.921928 kJ/mol
# Density = 1.639873 g / cm^3
# Si number density = 16.436144 Si / 1000 Ang^3
#
#
#
# Elastic Constant Matrix: (Units=GPa)
#
#
# Indices 1 2 3 4 5 6 
#
# 1 95.7202 46.0826 53.8072 0.0000 0.0000 0.0000
# 2 46.0826 95.7202 53.8072 0.0000 0.0000 0.0000
# 3 53.8072 53.8072 124.2886 0.0000 0.0000 0.0000
# 4 0.0000 0.0000 0.0000 24.5283 0.0000 0.0000
# 5 0.0000 0.0000 0.0000 0.0000 24.5283 0.0000
# 6 0.0000 0.0000 0.0000 0.0000 0.0000 25.1626
#
#
#
# Elastic Compliance Matrix: (Units=1/GPa)
#
#
# Indices 1 2 3 4 5 6 
#
# 1 0.015324 -0.004822 -0.004547 0.000000 0.000000 0.000000
# 2 -0.004822 0.015324 -0.004547 0.000000 0.000000 0.000000
# 3 -0.004547 -0.004547 0.011983 0.000000 0.000000 0.000000
# 4 0.000000 0.000000 0.000000 0.040769 0.000000 0.000000
# 5 0.000000 0.000000 0.000000 0.000000 0.040769 0.000000
# 6 0.000000 0.000000 0.000000 0.000000 0.000000 0.039742
#
#
# Mechanical properties :
#
#
# Convention : Reuss Voigt Hill
#
# Bulk Modulus (GPa) = 67.56475 69.23591 68.40033
# Shear Modulus (GPa) = 25.42258 25.64596 25.53427
#
# Velocity S-wave (km/s) = 3.93714 3.95440 3.94578
# Velocity P-wave (km/s) = 7.86541 7.94137 7.90348
#
# Compressibility (1/GPa) = 0.01480062
#
# Stress axis : x y z
#
# Youngs Moduli (GPa) = 65.25567 65.25567 83.45412
#
# Poissons Ratio (x) = 0.31464 0.37945
# Poissons Ratio (y) = 0.31464 0.37945
# Poissons Ratio (z) = 0.29671 0.29671
#
# Static dielectric constant tensor:
#      x y z
#    x 3.010800 0.000000 0.000000 
#    y 0.000000 3.010800 0.000000 
#    z 0.000000 0.000000 2.898590 
# 
# 
# High freq. dielectric constant tensor:
#      x y z
#    x 1.626440 0.000000 0.000000 
#    y 0.000000 1.626440 0.000000 
#    z 0.000000 0.000000 1.617720 
# 
# From -- ./inp_files/5190.got.cif
#   From: 2010.03.12/outbox.cif.g09.slc.cpg/sg112_3_cif.got.tgz:5190.got - 2010.04.14 02:02:48.
