data_PCOD8308182
_publ_section_title
;
Structure prediction by ZEFSAII (Michael W. Deem and Ramdas Pophale) SiO2 
 PCOD8308182
Probable space group: P -4 2 M 
;
_chemical_formula_sum "Si O2"
_cell_formula_units_Z 48
_cell_length_a 11.615019
_cell_length_b 11.615019
_cell_length_c 20.400268
_cell_angle_alpha 90.000000
_cell_angle_beta 90.000000
_cell_angle_gamma 90.000000
_cell_volume 2752.172949
_symmetry_space_group_name_H-M "P -4 2 M "
_symmetry_group_IT_number 111
_symmetry_cell_setting 'tetragonal'
loop_
_space_group_symop_operation_xyz
x,y,z
y,-x,-z
-x,-y,z
-y,x,-z
x,-y,-z
-x,y,-z
-y,-x,z
y,x,z
loop_
_atom_site_type_symbol
_atom_site_label
_atom_site_fract_x
_atom_site_fract_y
_atom_site_fract_z
Si Si1 0.682015 0.866712 0.500190
Si Si2 0.500225 0.866230 0.392436
Si Si3 0.314050 0.500334 0.280863
Si Si4 0.731545 0.453138 0.135050
Si Si5 0.846526 0.664204 0.063582
Si Si6 0.896142 0.715814 0.916645
O O1 0.801607 0.801607 0.500171
O O2 0.611281 0.833322 0.435309
O O3 0.611431 0.833183 0.565165
O O4 0.711567 0.000000 0.500000
O O5 0.501325 0.799064 0.324599
O O6 0.500000 0.000000 0.374624
O O7 0.379574 0.620427 0.291855
O O8 0.394487 0.394487 0.301508
O O9 0.279385 0.486691 0.205185
O O10 0.608254 0.391747 0.114482
O O11 0.780375 0.548359 0.084936
O O12 0.827169 0.352823 0.139279
O O13 0.769928 0.769928 0.086222
O O14 0.969383 0.694910 0.097156
O O15 0.862074 0.657512 0.985699
O O16 0.850404 0.850404 0.916343
#
# Coordination Sequence:
#
# PCOD8308182 Si02
#       6
#     8   8   8   8   8   8
#     4   9  17  30  48  70  97 125 154 189 226 269
#     4   9  18  31  48  71  95 122 156 191 229 272
#     4  10  20  33  49  69  94 123 156 195 236 277
#     4  10  20  33  48  69  98 128 160 197 236 287
#     4  10  19  32  52  74  96 124 157 197 245 291
#     4   9  19  34  51  72  96 124 160 199 240 289
#
# _framework density 17.440764999999999
#
# number of rings (size 3 to 8) (size 9 to 14) (size 15 to 20)
#    0.000    2.500    0.000    3.500    0.000    4.167 
#    0.000    2.500    0.000   10.000    0.000    0.000 
#    0.000    8.000    0.000    0.000    0.000    0.000 
#
# Total GULP energy -594839.506751 kJ/mol
# GULP energy per Si atom -12392.489724 kJ/mol
# Density = 1.740107 g / cm^3
# Si number density = 17.440765 Si / 1000 Ang^3
#
#
#
# Elastic Constant Matrix: (Units=GPa)
#
#
# Indices 1 2 3 4 5 6 
#
# 1 93.5924 58.4108 31.7075 0.0000 0.0000 0.0000
# 2 58.4108 93.5911 31.7074 0.0000 0.0000 0.0000
# 3 31.7075 31.7074 43.0423 0.0000 0.0000 0.0000
# 4 0.0000 0.0000 0.0000 23.9630 0.0000 0.0000
# 5 0.0000 0.0000 0.0000 0.0000 23.9631 0.0000
# 6 0.0000 0.0000 0.0000 0.0000 0.0000 29.0150
#
#
#
# Elastic Compliance Matrix: (Units=1/GPa)
#
#
# Indices 1 2 3 4 5 6 
#
# 1 0.018961 -0.009463 -0.006997 0.000000 0.000000 0.000000
# 2 -0.009463 0.018961 -0.006997 0.000000 0.000000 0.000000
# 3 -0.006997 -0.006997 0.033541 0.000000 0.000000 0.000000
# 4 0.000000 0.000000 0.000000 0.041731 0.000000 0.000000
# 5 0.000000 0.000000 0.000000 0.000000 0.041731 0.000000
# 6 0.000000 0.000000 0.000000 0.000000 0.000000 0.034465
#
#
# Mechanical properties :
#
#
# Convention : Reuss Voigt Hill
#
# Bulk Modulus (GPa) = 40.73269 52.65300 46.69285
# Shear Modulus (GPa) = 20.45100 22.61490 21.53295
#
# Velocity S-wave (km/s) = 3.42804 3.60484 3.51755
# Velocity P-wave (km/s) = 6.25093 6.89794 6.58239
#
# Compressibility (1/GPa) = 0.02455031
#
# Stress axis : x y z
#
# Youngs Moduli (GPa) = 52.73990 52.73901 29.81407
#
# Poissons Ratio (x) = 0.49909 0.20860
# Poissons Ratio (y) = 0.49910 0.20860
# Poissons Ratio (z) = 0.36900 0.36900
#
# Static dielectric constant tensor:
#      x y z
#    x 3.285760 0.000000 0.000000 
#    y 0.000000 3.285760 0.000000 
#    z 0.000000 0.000000 3.030000 
# 
# 
# High freq. dielectric constant tensor:
#      x y z
#    x 1.676510 0.000000 0.000000 
#    y 0.000000 1.676510 0.000000 
#    z 0.000000 0.000000 1.651980 
# 
# From -- ./inp_files/3656.got.cif
#   From: 2010.03.12/outbox.cif.g09.slc.cpg/sg111_2_cif.got.tgz:3656.got - 2010.04.14 01:59:48.
