data_PCOD8308530
_publ_section_title
;
Structure prediction by ZEFSAII (Michael W. Deem and Ramdas Pophale) SiO2 
 PCOD8308530
Probable space group: P -4 21 M 
;
_chemical_formula_sum "Si O2"
_cell_formula_units_Z 64
_cell_length_a 16.830677
_cell_length_b 16.830677
_cell_length_c 13.638921
_cell_angle_alpha 90.000000
_cell_angle_beta 90.000000
_cell_angle_gamma 90.000000
_cell_volume 3863.520178
_symmetry_space_group_name_H-M "P -4 21 M "
_symmetry_group_IT_number 113
_symmetry_cell_setting 'tetragonal'
loop_
_space_group_symop_operation_xyz
x,y,z
y,-x,-z
-x,-y,z
-y,x,-z
1/2+x,1/2-y,-z
1/2-x,1/2+y,-z
1/2-y,1/2-x,z
1/2+y,1/2+x,z
loop_
_atom_site_type_symbol
_atom_site_label
_atom_site_fract_x
_atom_site_fract_y
_atom_site_fract_z
Si Si1 0.062438 0.930007 0.735524
Si Si2 0.090883 0.721339 0.252863
Si Si3 0.606158 0.235630 0.031684
Si Si4 0.000057 0.628679 0.093035
Si Si5 0.569255 0.403890 0.956882
Si Si6 0.326413 0.514364 0.399554
Si Si7 0.153361 0.947635 0.397944
Si Si8 0.717473 0.653979 0.765131
O O1 0.075851 0.903381 0.846970
O O2 0.025678 0.861074 0.668137
O O3 0.145519 0.954984 0.686560
O O4 0.000000 0.000000 0.738678
O O5 0.151254 0.651254 0.276269
O O6 0.023213 0.689987 0.178977
O O7 0.054621 0.746615 0.357848
O O8 0.135200 0.799410 0.207882
O O9 0.689410 0.189410 0.013070
O O10 0.532013 0.180855 0.998190
O O11 0.610001 0.319394 0.976426
O O12 0.596286 0.256400 0.146475
O O13 0.077013 0.577013 0.059418
O O14 0.930552 0.569449 0.130922
O O15 0.473250 0.398214 0.970448
O O16 0.304228 0.470214 0.500207
O O17 0.399269 0.573458 0.423848
O O18 0.212126 0.893965 0.335134
O O19 0.783294 0.716707 0.740479
#
# Coordination Sequence:
#
# PCOD8308530 Si02
#       8
#     8   8   8   8   8   8   8   8
#     4  10  18  28  43  71  98 122 156 203 246 294
#     4   9  18  32  51  72  95 130 168 205 248 298
#     4  10  21  34  50  74 103 135 169 207 248 299
#     4   9  18  34  55  76  99 130 171 214 251 295
#     4  11  21  32  48  74 104 135 164 206 256 305
#     4  10  18  28  48  69  95 124 158 204 247 293
#     4  10  18  30  47  69  97 125 163 204 248 293
#     4   9  19  33  49  69  99 135 168 203 245 298
#
# _framework density 16.565204000000001
#
# number of rings (size 3 to 8) (size 9 to 14) (size 15 to 20)
#    0.000    2.250    2.500    1.500    5.250    0.000 
#    0.000    0.625    0.000    2.250    0.000    0.000 
#    0.000    0.000    0.000    0.000    0.000    0.000 
#
# Total GULP energy -793283.006617 kJ/mol
# GULP energy per Si atom -12395.046978 kJ/mol
# Density = 1.652750 g / cm^3
# Si number density = 16.565204 Si / 1000 Ang^3
#
#
#
# Elastic Constant Matrix: (Units=GPa)
#
#
# Indices 1 2 3 4 5 6 
#
# 1 70.8410 32.1931 49.6185 0.0000 0.0000 0.0000
# 2 32.1931 70.8409 49.6183 0.0000 0.0000 0.0000
# 3 49.6185 49.6183 126.1360 0.0000 0.0000 0.0000
# 4 0.0000 0.0000 0.0000 25.0208 0.0000 0.0000
# 5 0.0000 0.0000 0.0000 0.0000 25.0205 0.0000
# 6 0.0000 0.0000 0.0000 0.0000 0.0000 13.5486
#
#
#
# Elastic Compliance Matrix: (Units=1/GPa)
#
#
# Indices 1 2 3 4 5 6 
#
# 1 0.020750 -0.005124 -0.006147 0.000000 0.000000 0.000000
# 2 -0.005124 0.020750 -0.006147 0.000000 0.000000 0.000000
# 3 -0.006147 -0.006147 0.012764 0.000000 0.000000 0.000000
# 4 0.000000 0.000000 0.000000 0.039967 0.000000 0.000000
# 5 0.000000 0.000000 0.000000 0.000000 0.039967 0.000000
# 6 0.000000 0.000000 0.000000 0.000000 0.000000 0.073808
#
#
# Mechanical properties :
#
#
# Convention : Reuss Voigt Hill
#
# Bulk Modulus (GPa) = 51.47104 58.96418 55.21761
# Shear Modulus (GPa) = 20.05468 21.81051 20.93259
#
# Velocity S-wave (km/s) = 3.48322 3.63250 3.55864
# Velocity P-wave (km/s) = 6.87868 7.29835 7.09162
#
# Compressibility (1/GPa) = 0.01942840
#
# Stress axis : x y z
#
# Youngs Moduli (GPa) = 48.19223 48.19234 78.34625
#
# Poissons Ratio (x) = 0.24696 0.48158
# Poissons Ratio (y) = 0.24696 0.48157
# Poissons Ratio (z) = 0.29623 0.29622
#
# Static dielectric constant tensor:
#      x y z
#    x 3.118590 0.000000 0.000000 
#    y 0.000000 3.118590 0.000000 
#    z 0.000000 0.000000 3.127490 
# 
# 
# High freq. dielectric constant tensor:
#      x y z
#    x 1.624170 0.000000 0.000000 
#    y 0.000000 1.624170 0.000000 
#    z 0.000000 0.000000 1.633300 
# 
# From -- ./inp_files/2015.got.cif
#   From: 2010.03.12/outbox.cif.g09.slc.cpg/sg113_cif.got.tgz:2015.got - 2010.04.14 02:06:34.
