data_PCOD8308503
_publ_section_title
;
Structure prediction by ZEFSAII (Michael W. Deem and Ramdas Pophale) SiO2 
 PCOD8308503
Probable space group: P -4 2 C
;
_chemical_formula_sum "Si O2"
_cell_formula_units_Z 20
_cell_length_a 5.291957
_cell_length_b 5.291957
_cell_length_c 27.930996
_cell_angle_alpha 90.000000
_cell_angle_beta 90.000000
_cell_angle_gamma 90.000000
_cell_volume 782.202205
_symmetry_space_group_name_H-M "P -4 2 C"
_symmetry_group_IT_number 112
_symmetry_cell_setting 'tetragonal'
loop_
_space_group_symop_operation_xyz
x,y,z
y,-x,-z
-x,-y,z
-y,x,-z
x,-y,1/2-z
-x,y,1/2-z
-y,-x,1/2+z
y,x,1/2+z
loop_
_atom_site_type_symbol
_atom_site_label
_atom_site_fract_x
_atom_site_fract_y
_atom_site_fract_z
Si Si1 0.000000 0.000000 0.500000
Si Si2 0.500000 0.000000 0.250000
Si Si3 0.654853 0.754718 0.823707
Si Si4 0.334656 0.247974 0.428186
O O1 0.113582 0.228055 0.467697
O O2 0.700984 0.143662 0.217167
O O3 0.500000 0.500000 0.827885
O O4 0.766408 0.803785 0.876477
O O5 0.500000 0.000000 0.807154
O O6 0.500000 0.500000 0.436401
O O7 0.500000 0.000000 0.433544
#
# Coordination Sequence:
#
# PCOD8308503 Si02
#       4
#     2   2   8   8
#     4  12  32  48  88 122 172 220 292 364 424 518
#     4  12  26  54  84 124 164 226 282 346 438 500
#     4  11  28  52  82 119 168 221 280 350 425 514
#     4  11  29  54  81 123 169 226 284 354 433 510
#
# _framework density 25.568835
#
# number of rings (size 3 to 8) (size 9 to 14) (size 15 to 20)
#    0.000    0.800    2.000    0.600   16.800    6.400 
#    0.000    4.000    0.000    0.000    0.000    0.000 
#    0.000    0.000    0.000    0.000    0.000    0.000 
#
# Total GULP energy -247984.629014 kJ/mol
# GULP energy per Si atom -12399.231451 kJ/mol
# Density = 2.551064 g / cm^3
# Si number density = 25.568835 Si / 1000 Ang^3
#
#
#
# Elastic Constant Matrix: (Units=GPa)
#
#
# Indices 1 2 3 4 5 6 
#
# 1 161.9457 70.5560 84.4871 0.0000 0.0000 0.0000
# 2 70.5560 161.9457 84.4871 0.0000 0.0000 0.0000
# 3 84.4871 84.4871 238.9534 0.0000 0.0000 0.0000
# 4 0.0000 0.0000 0.0000 -78.9533 0.0000 0.0000
# 5 0.0000 0.0000 0.0000 0.0000 -78.9533 0.0000
# 6 0.0000 0.0000 0.0000 0.0000 0.0000 55.1990
#
#
#
# Elastic Compliance Matrix: (Units=1/GPa)
#
#
# Indices 1 2 3 4 5 6 
#
# 1 0.008365 -0.002577 -0.002047 0.000000 0.000000 0.000000
# 2 -0.002577 0.008365 -0.002047 0.000000 0.000000 0.000000
# 3 -0.002047 -0.002047 0.005632 0.000000 0.000000 0.000000
# 4 0.000000 0.000000 0.000000 -0.012666 0.000000 0.000000
# 5 0.000000 0.000000 0.000000 0.000000 -0.012666 0.000000
# 6 0.000000 0.000000 0.000000 0.000000 0.000000 0.018116
#
#
# Mechanical properties :
#
#
# Convention : Reuss Voigt Hill
#
# Bulk Modulus (GPa) = 110.83317 115.76725 113.30021
# Shear Modulus (GPa) = 158.75324 1.01277 79.88301
#
# Velocity S-wave (km/s) = 7.88818 0.63004 5.59555
# Velocity P-wave (km/s) = 11.24302 6.77527 9.28197
#
# Compressibility (1/GPa) = 0.00902257
#
# Stress axis : x y z
#
# Youngs Moduli (GPa) = 119.54121 119.54121 177.55109
#
# Poissons Ratio (x) = 0.30804 0.36338
# Poissons Ratio (y) = 0.30804 0.36338
# Poissons Ratio (z) = 0.24466 0.24466
#
# Static dielectric constant tensor:
#      x y z
#    x 5.195400 0.000000 0.000000 
#    y 0.000000 5.195400 0.000000 
#    z 0.000000 0.000000 6.404770 
# 
# 
# High freq. dielectric constant tensor:
#      x y z
#    x 2.023280 0.000000 0.000000 
#    y 0.000000 2.023280 0.000000 
#    z 0.000000 0.000000 2.055560 
# 
# From -- ./inp_files/5648.got.cif
#   From: 2010.03.12/outbox.cif.g09.slc.cpg/sg112_3_cif.got.tgz:5648.got - 2010.04.14 02:02:48.
