data_PCOD8308771
_publ_section_title
;
Structure prediction by ZEFSAII (Michael W. Deem and Ramdas Pophale) SiO2 
 PCOD8308771
Probable space group: P -4 21 M 
;
_chemical_formula_sum "Si O2"
_cell_formula_units_Z 48
_cell_length_a 11.314341
_cell_length_b 11.314341
_cell_length_c 18.225319
_cell_angle_alpha 90.000000
_cell_angle_beta 90.000000
_cell_angle_gamma 90.000000
_cell_volume 2333.101678
_symmetry_space_group_name_H-M "P -4 21 M "
_symmetry_group_IT_number 113
_symmetry_cell_setting 'tetragonal'
loop_
_space_group_symop_operation_xyz
x,y,z
y,-x,-z
-x,-y,z
-y,x,-z
1/2+x,1/2-y,-z
1/2-x,1/2+y,-z
1/2-y,1/2-x,z
1/2+y,1/2+x,z
loop_
_atom_site_type_symbol
_atom_site_label
_atom_site_fract_x
_atom_site_fract_y
_atom_site_fract_z
Si Si1 0.505704 0.816258 0.604448
Si Si2 0.849533 0.155614 0.833374
Si Si3 0.245709 0.065717 0.916499
Si Si4 0.446165 0.759181 0.066145
Si Si5 0.659860 0.357778 0.668475
Si Si6 0.820613 0.995582 0.472111
O O1 0.638168 0.861833 0.625322
O O2 0.468518 0.695134 0.645486
O O3 0.494138 0.802862 0.515577
O O4 0.415964 0.915964 0.630820
O O5 0.729831 0.229831 0.834983
O O6 0.903690 0.149567 0.751551
O O7 0.947568 0.221684 0.881245
O O8 0.811780 0.023862 0.857794
O O9 0.354705 0.145296 0.883910
O O10 0.141293 0.149674 0.944511
O O11 0.293803 0.994884 0.986447
O O12 0.373727 0.873727 0.096744
O O13 0.760808 0.260808 0.658937
O O14 0.692580 0.465703 0.614049
O O15 0.883654 0.891550 0.518904
#
# Coordination Sequence:
#
# PCOD8308771 Si02
#       6
#     8   8   8   8   8   8
#     4   9  17  31  53  79 107 143 186 232 281 332
#     4  11  23  39  60  89 123 160 198 239 304 361
#     4  11  23  40  63  90 119 156 203 248 295 352
#     4  11  23  41  63  89 119 156 204 247 293 353
#     4   9  19  35  55  79 112 149 183 230 283 341
#     4   9  17  32  52  78 106 138 187 228 276 329
#
# _framework density 20.57347
#
# number of rings (size 3 to 8) (size 9 to 14) (size 15 to 20)
#    0.000    2.000    1.667    2.000    0.000    3.667 
#   12.000    2.500    0.000    1.000    0.000    0.000 
#    0.000    0.000    0.000    0.000    0.000    0.000 
#
# Total GULP energy -594811.353732 kJ/mol
# GULP energy per Si atom -12391.903203 kJ/mol
# Density = 2.052664 g / cm^3
# Si number density = 20.573470 Si / 1000 Ang^3
#
#
#
# Elastic Constant Matrix: (Units=GPa)
#
#
# Indices 1 2 3 4 5 6 
#
# 1 58.2936 10.8528 17.6441 0.0000 0.0000 0.0000
# 2 10.8528 58.2939 17.6442 0.0000 0.0000 0.0000
# 3 17.6441 17.6442 118.1195 0.0000 0.0000 0.0000
# 4 0.0000 0.0000 0.0000 24.9083 0.0000 0.0000
# 5 0.0000 0.0000 0.0000 0.0000 24.9085 0.0000
# 6 0.0000 0.0000 0.0000 0.0000 0.0000 30.3305
#
#
#
# Elastic Compliance Matrix: (Units=1/GPa)
#
#
# Indices 1 2 3 4 5 6 
#
# 1 0.018367 -0.002712 -0.002339 0.000000 0.000000 0.000000
# 2 -0.002712 0.018367 -0.002339 0.000000 0.000000 0.000000
# 3 -0.002339 -0.002339 0.009165 0.000000 0.000000 0.000000
# 4 0.000000 0.000000 0.000000 0.040147 0.000000 0.000000
# 5 0.000000 0.000000 0.000000 0.000000 0.040147 0.000000
# 6 0.000000 0.000000 0.000000 0.000000 0.000000 0.032970
#
#
# Mechanical properties :
#
#
# Convention : Reuss Voigt Hill
#
# Bulk Modulus (GPa) = 32.13216 36.33212 34.23214
# Shear Modulus (GPa) = 27.12752 28.60051 27.86402
#
# Velocity S-wave (km/s) = 3.63515 3.73254 3.68416
# Velocity P-wave (km/s) = 5.76812 6.02277 5.89682
#
# Compressibility (1/GPa) = 0.03112146
#
# Stress axis : x y z
#
# Youngs Moduli (GPa) = 54.44481 54.44510 109.11498
#
# Poissons Ratio (x) = 0.14764 0.25517
# Poissons Ratio (y) = 0.14764 0.25517
# Poissons Ratio (z) = 0.12732 0.12732
#
# Static dielectric constant tensor:
#      x y z
#    x 3.832100 0.000000 0.000000 
#    y 0.000000 3.832100 0.000000 
#    z 0.000000 0.000000 3.674190 
# 
# 
# High freq. dielectric constant tensor:
#      x y z
#    x 1.802520 0.000000 0.000000 
#    y 0.000000 1.802520 0.000000 
#    z 0.000000 0.000000 1.785990 
# 
# From -- ./inp_files/2448.got.cif
#   From: 2010.03.12/outbox.cif.g09.slc.cpg/sg113_cif.got.tgz:2448.got - 2010.04.14 02:06:34.
