data_PCOD8308022
_publ_section_title
;
Structure prediction by ZEFSAII (Michael W. Deem and Ramdas Pophale) SiO2 
 PCOD8308022
Probable space group: I 41 C D
;
_chemical_formula_sum "Si O2"
_cell_formula_units_Z 112
_cell_length_a 13.625704
_cell_length_b 13.625704
_cell_length_c 29.829384
_cell_angle_alpha 90.000000
_cell_angle_beta 90.000000
_cell_angle_gamma 90.000000
_cell_volume 5538.117751
_symmetry_space_group_name_H-M "I 41 C D"
_symmetry_group_IT_number 110
_symmetry_cell_setting 'tetragonal'
loop_
_space_group_symop_operation_xyz
x,y,z
-y,1/2+x,1/4+z
-x,-y,z
y,1/2-x,1/4+z
-x,y,1/2+z
x,-y,1/2+z
1/2-y,-x,1/4+z
1/2+y,x,1/4+z
1/2+x,1/2+y,1/2+z
1/2-y,x,3/4+z
1/2-x,1/2-y,1/2+z
1/2+y,-x,3/4+z
1/2-x,1/2+y,z
1/2+x,1/2-y,z
-y,1/2-x,3/4+z
y,1/2+x,3/4+z
loop_
_atom_site_type_symbol
_atom_site_label
_atom_site_fract_x
_atom_site_fract_y
_atom_site_fract_z
Si Si1 0.451438 0.597150 0.877450
Si Si2 0.774939 0.890444 0.261210
Si Si3 0.833890 0.800936 0.748616
Si Si4 0.542362 0.103288 0.346921
Si Si5 0.066073 0.744011 0.575831
Si Si6 0.540373 0.210276 0.931750
Si Si7 0.031543 0.203848 0.293943
O O1 0.500000 0.500000 0.898223
O O2 0.341787 0.572668 0.862040
O O3 0.452787 0.678011 0.915918
O O4 0.517611 0.631735 0.835922
O O5 0.688112 0.815558 0.247970
O O6 0.801406 0.959472 0.219917
O O7 0.866154 0.820317 0.271302
O O8 0.747620 0.957169 0.304191
O O9 0.769777 0.852952 0.787207
O O10 0.948349 0.816943 0.757565
O O11 0.814958 0.851501 0.700571
O O12 0.658742 0.091515 0.353911
O O13 0.488064 0.135644 0.392365
O O14 0.523377 0.183046 0.308448
O O15 0.500000 0.000000 0.329995
#
# Coordination Sequence:
#
# PCOD8308022 Si02
#       7
#    16  16  16  16  16  16  16
#     4  10  20  42  63  94 125 169 212 265 319 390
#     4  11  21  42  65  95 123 170 220 263 318 394
#     4  10  22  41  63  93 123 166 211 263 316 387
#     4  11  23  42  61  99 128 164 214 269 318 384
#     4  10  21  38  70  87 120 167 218 261 309 384
#     4  10  26  39  59  97 133 163 214 267 330 383
#     4  10  21  40  71  87 121 169 219 256 313 388
#
# _framework density 20.223479000000001
#
# number of rings (size 3 to 8) (size 9 to 14) (size 15 to 20)
#    0.000    1.714    2.857    0.857    4.000    0.000 
#    5.143    1.429    0.000    0.000    0.000    0.000 
#    0.000    0.000    0.000    0.000    0.000    0.000 
#
# Total GULP energy -694559.321610 kJ/mol
# GULP energy per Si atom -12402.845029 kJ/mol
# Density = 2.017745 g / cm^3
# Si number density = 20.223479 Si / 1000 Ang^3
#
#
#
# Elastic Constant Matrix: (Units=GPa)
#
#
# Indices 1 2 3 4 5 6 
#
# 1 110.1459 30.0720 33.5945 0.0000 0.0000 0.0000
# 2 30.0720 110.1459 33.5945 0.0000 0.0000 0.0000
# 3 33.5945 33.5945 73.5591 0.0000 0.0000 0.0000
# 4 0.0000 0.0000 0.0000 17.4934 0.0000 0.0000
# 5 0.0000 0.0000 0.0000 0.0000 17.4934 0.0000
# 6 0.0000 0.0000 0.0000 0.0000 0.0000 29.8886
#
#
#
# Elastic Compliance Matrix: (Units=1/GPa)
#
#
# Indices 1 2 3 4 5 6 
#
# 1 0.010809 -0.001679 -0.004170 0.000000 0.000000 0.000000
# 2 -0.001679 0.010809 -0.004170 0.000000 0.000000 0.000000
# 3 -0.004170 -0.004170 0.017403 0.000000 0.000000 0.000000
# 4 0.000000 0.000000 0.000000 0.057164 0.000000 0.000000
# 5 0.000000 0.000000 0.000000 0.000000 0.057164 0.000000
# 6 0.000000 0.000000 0.000000 0.000000 0.000000 0.033458
#
#
# Mechanical properties :
#
#
# Convention : Reuss Voigt Hill
#
# Bulk Modulus (GPa) = 52.67534 54.26364 53.46949
# Shear Modulus (GPa) = 23.45519 26.08107 24.76813
#
# Velocity S-wave (km/s) = 3.40928 3.59506 3.50340
# Velocity P-wave (km/s) = 6.44986 6.64250 6.54689
#
# Compressibility (1/GPa) = 0.01898421
#
# Stress axis : x y z
#
# Youngs Moduli (GPa) = 92.51476 92.51476 57.46146
#
# Poissons Ratio (x) = 0.15537 0.23959
# Poissons Ratio (y) = 0.15537 0.23959
# Poissons Ratio (z) = 0.38574 0.38574
#
# Static dielectric constant tensor:
#      x y z
#    x 3.739310 0.000000 0.000000 
#    y 0.000000 3.739310 0.000000 
#    z 0.000000 0.000000 3.431240 
# 
# 
# High freq. dielectric constant tensor:
#      x y z
#    x 1.800510 0.000000 0.000000 
#    y 0.000000 1.800510 0.000000 
#    z 0.000000 0.000000 1.768280 
# 
# From -- ./inp_files/3258.got.cif
#   From: 2010.03.12/outbox.cif.g09.slc.cpg/sg110_2_cif.got.tgz:3258.got - 2010.04.14 01:58:01.
