data_PCOD8308685
_publ_section_title
;
Structure prediction by ZEFSAII (Michael W. Deem and Ramdas Pophale) SiO2 
 PCOD8308685
Probable space group: P -4 21 M 
;
_chemical_formula_sum "Si O2"
_cell_formula_units_Z 56
_cell_length_a 15.787355
_cell_length_b 15.787355
_cell_length_c 11.263472
_cell_angle_alpha 90.000000
_cell_angle_beta 90.000000
_cell_angle_gamma 90.000000
_cell_volume 2807.314270
_symmetry_space_group_name_H-M "P -4 21 M "
_symmetry_group_IT_number 113
_symmetry_cell_setting 'tetragonal'
loop_
_space_group_symop_operation_xyz
x,y,z
y,-x,-z
-x,-y,z
-y,x,-z
1/2+x,1/2-y,-z
1/2-x,1/2+y,-z
1/2-y,1/2-x,z
1/2+y,1/2+x,z
loop_
_atom_site_type_symbol
_atom_site_label
_atom_site_fract_x
_atom_site_fract_y
_atom_site_fract_z
Si Si1 0.895858 0.260725 0.149944
Si Si2 0.504532 0.863994 0.260676
Si Si3 0.335371 0.695863 0.952823
Si Si4 0.066235 0.066953 0.217356
Si Si5 0.344449 0.563250 0.376398
Si Si6 0.017694 0.194937 0.618399
Si Si7 0.667100 0.032573 0.007043
O O1 0.811499 0.311499 0.176698
O O2 0.925076 0.223834 0.274088
O O3 0.874791 0.190899 0.049323
O O4 0.970833 0.320389 0.103880
O O5 0.428494 0.928494 0.250212
O O6 0.473791 0.793055 0.350962
O O7 0.521961 0.828796 0.128087
O O8 0.590217 0.909784 0.306794
O O9 0.252331 0.752331 0.905132
O O10 0.395480 0.645932 0.857890
O O11 0.396963 0.760519 0.018084
O O12 0.012607 0.095347 0.332787
O O13 0.149378 0.022654 0.267683
O O14 0.000000 0.000000 0.150525
O O15 0.391876 0.651586 0.402479
O O16 0.303777 0.538523 0.500649
O O17 0.576015 0.076015 0.987814
#
# Coordination Sequence:
#
# PCOD8308685 Si02
#       7
#     8   8   8   8   8   8   8
#     4  11  23  38  59  90 126 161 202 251 308 373
#     4  10  22  41  64  90 119 157 208 257 302 360
#     4  10  21  39  60  89 129 164 200 253 312 376
#     4  10  21  38  61  91 123 158 203 256 309 367
#     4  11  22  40  61  88 124 158 203 250 314 362
#     4  11  22  39  66  87 117 162 205 254 304 365
#     4  10  20  38  62  86 120 162 201 244 305 370
#
# _framework density 19.947889
#
# number of rings (size 3 to 8) (size 9 to 14) (size 15 to 20)
#    0.000    1.571    2.857    2.143    0.000    6.000 
#    0.000    1.429    0.000    0.000    0.000    0.000 
#    0.000    0.000    0.000    0.000    0.000    0.000 
#
# Total GULP energy -693980.804829 kJ/mol
# GULP energy per Si atom -12392.514372 kJ/mol
# Density = 1.990249 g / cm^3
# Si number density = 19.947889 Si / 1000 Ang^3
#
#
#
# Elastic Constant Matrix: (Units=GPa)
#
#
# Indices 1 2 3 4 5 6 
#
# 1 85.4229 28.0093 45.2356 0.0000 0.0000 0.0000
# 2 28.0093 85.4238 45.2357 0.0000 0.0000 0.0000
# 3 45.2356 45.2357 96.0433 0.0000 0.0000 0.0000
# 4 0.0000 0.0000 0.0000 26.9152 0.0000 0.0000
# 5 0.0000 0.0000 0.0000 0.0000 26.9150 0.0000
# 6 0.0000 0.0000 0.0000 0.0000 0.0000 31.9062
#
#
#
# Elastic Compliance Matrix: (Units=1/GPa)
#
#
# Indices 1 2 3 4 5 6 
#
# 1 0.015769 -0.001649 -0.006650 0.000000 0.000000 0.000000
# 2 -0.001649 0.015769 -0.006650 0.000000 0.000000 0.000000
# 3 -0.006650 -0.006650 0.016677 0.000000 0.000000 0.000000
# 4 0.000000 0.000000 0.000000 0.037154 0.000000 0.000000
# 5 0.000000 0.000000 0.000000 0.000000 0.037154 0.000000
# 6 0.000000 0.000000 0.000000 0.000000 0.000000 0.031342
#
#
# Mechanical properties :
#
#
# Convention : Reuss Voigt Hill
#
# Bulk Modulus (GPa) = 54.60025 55.98345 55.29185
# Shear Modulus (GPa) = 26.33416 27.04125 26.68771
#
# Velocity S-wave (km/s) = 3.63733 3.68583 3.66166
# Velocity P-wave (km/s) = 6.71350 6.79997 6.75687
#
# Compressibility (1/GPa) = 0.01831493
#
# Stress axis : x y z
#
# Youngs Moduli (GPa) = 63.41642 63.41724 59.96443
#
# Poissons Ratio (x) = 0.10455 0.39879
# Poissons Ratio (y) = 0.10455 0.39879
# Poissons Ratio (z) = 0.42175 0.42175
#
# Static dielectric constant tensor:
#      x y z
#    x 3.786890 0.000000 0.000000 
#    y 0.000000 3.786890 0.000000 
#    z 0.000000 0.000000 3.412820 
# 
# 
# High freq. dielectric constant tensor:
#      x y z
#    x 1.785230 0.000000 0.000000 
#    y 0.000000 1.785230 0.000000 
#    z 0.000000 0.000000 1.756890 
# 
# From -- ./inp_files/1917.got.cif
#   From: 2010.03.12/outbox.cif.g09.slc.cpg/sg113_cif.got.tgz:1917.got - 2010.04.14 02:06:34.
