data_PCOD8308959
_publ_section_title
;
Structure prediction by ZEFSAII (Michael W. Deem and Ramdas Pophale) SiO2 
 PCOD8308959
Probable space group: P -4 21 C
;
_chemical_formula_sum "Si O2"
_cell_formula_units_Z 40
_cell_length_a 8.523650
_cell_length_b 8.523650
_cell_length_c 24.181285
_cell_angle_alpha 90.000000
_cell_angle_beta 90.000000
_cell_angle_gamma 90.000000
_cell_volume 1756.833452
_symmetry_space_group_name_H-M "P -4 21 C"
_symmetry_group_IT_number 114
_symmetry_cell_setting 'tetragonal'
loop_
_space_group_symop_operation_xyz
x,y,z
y,-x,-z
-x,-y,z
-y,x,-z
1/2+x,1/2-y,1/2-z
1/2-x,1/2+y,1/2-z
1/2-y,1/2-x,1/2+z
1/2+y,1/2+x,1/2+z
loop_
_atom_site_type_symbol
_atom_site_label
_atom_site_fract_x
_atom_site_fract_y
_atom_site_fract_z
Si Si1 0.875921 0.627082 0.794351
Si Si2 0.886699 0.133928 0.790413
Si Si3 0.820193 0.818503 0.500713
Si Si4 0.178224 0.326600 0.614612
Si Si5 0.305667 0.176129 0.384970
O O1 0.742704 0.564930 0.752164
O O2 0.790268 0.708363 0.845754
O O3 0.000000 0.500000 0.816282
O O4 0.990010 0.747940 0.760984
O O5 0.801330 0.234359 0.839471
O O6 0.000000 0.000000 0.815339
O O7 0.763925 0.715199 0.552977
O O8 0.719832 0.767072 0.447762
O O9 0.000608 0.788291 0.485083
O O10 0.181407 0.511240 0.627328
O O11 0.005409 0.250157 0.622415
#
# Coordination Sequence:
#
# PCOD8308959 Si02
#       5
#     8   8   8   8   8
#     4  12  27  43  68 100 133 178 229 287 342 416
#     4  12  25  46  67  98 137 180 232 283 349 410
#     4   9  20  40  65  99 133 173 221 273 336 406
#     4  10  22  42  69  92 138 180 217 282 338 409
#     4  10  22  43  65  99 133 176 226 276 344 405
#
# _framework density 22.768238
#
# number of rings (size 3 to 8) (size 9 to 14) (size 15 to 20)
#    0.000    1.400    2.000    2.400    5.600    1.600 
#    7.200    0.000    0.000    0.000    0.000    0.000 
#    0.000    0.000    0.000    0.000    0.000    0.000 
#
# Total GULP energy -495711.792219 kJ/mol
# GULP energy per Si atom -12392.794805 kJ/mol
# Density = 2.271642 g / cm^3
# Si number density = 22.768238 Si / 1000 Ang^3
#
#
#
# Elastic Constant Matrix: (Units=GPa)
#
#
# Indices 1 2 3 4 5 6 
#
# 1 91.3373 48.3258 47.4501 0.0000 0.0000 0.0000
# 2 48.3258 91.3373 47.4501 0.0000 0.0000 0.0000
# 3 47.4501 47.4501 117.4067 0.0000 0.0000 0.0000
# 4 0.0000 0.0000 0.0000 35.6619 0.0000 0.0000
# 5 0.0000 0.0000 0.0000 0.0000 35.6619 0.0000
# 6 0.0000 0.0000 0.0000 0.0000 0.0000 44.3058
#
#
#
# Elastic Compliance Matrix: (Units=1/GPa)
#
#
# Indices 1 2 3 4 5 6 
#
# 1 0.016560 -0.006689 -0.003989 0.000000 0.000000 0.000000
# 2 -0.006689 0.016560 -0.003989 0.000000 0.000000 0.000000
# 3 -0.003989 -0.003989 0.011742 0.000000 0.000000 0.000000
# 4 0.000000 0.000000 0.000000 0.028041 0.000000 0.000000
# 5 0.000000 0.000000 0.000000 0.000000 0.028041 0.000000
# 6 0.000000 0.000000 0.000000 0.000000 0.000000 0.022570
#
#
# Mechanical properties :
#
#
# Convention : Reuss Voigt Hill
#
# Bulk Modulus (GPa) = 64.40662 65.17038 64.78850
# Shear Modulus (GPa) = 31.64027 33.58294 32.61160
#
# Velocity S-wave (km/s) = 3.73187 3.84473 3.78872
# Velocity P-wave (km/s) = 6.84970 6.95663 6.90338
#
# Compressibility (1/GPa) = 0.01552636
#
# Stress axis : x y z
#
# Youngs Moduli (GPa) = 60.38576 60.38576 85.16456
#
# Poissons Ratio (x) = 0.40394 0.33975
# Poissons Ratio (y) = 0.40394 0.33975
# Poissons Ratio (z) = 0.24090 0.24090
#
# Static dielectric constant tensor:
#      x y z
#    x 4.280160 0.000000 0.000000 
#    y 0.000000 4.280160 0.000000 
#    z 0.000000 0.000000 3.957810 
# 
# 
# High freq. dielectric constant tensor:
#      x y z
#    x 1.899720 0.000000 0.000000 
#    y 0.000000 1.899720 0.000000 
#    z 0.000000 0.000000 1.890680 
# 
# From -- ./inp_files/3335.got.cif
#   From: 2010.03.12/outbox.cif.g09.slc.cpg/sg114_2_cif.got.tgz:3335.got - 2010.04.14 02:08:34.
