data_PCOD8308845
_publ_section_title
;
Structure prediction by ZEFSAII (Michael W. Deem and Ramdas Pophale) SiO2 
 PCOD8308845
Probable space group: P -4 21 C
;
_chemical_formula_sum "Si O2"
_cell_formula_units_Z 60
_cell_length_a 18.391692
_cell_length_b 18.391692
_cell_length_c 8.786793
_cell_angle_alpha 90.000000
_cell_angle_beta 90.000000
_cell_angle_gamma 90.000000
_cell_volume 2972.170820
_symmetry_space_group_name_H-M "P -4 21 C"
_symmetry_group_IT_number 114
_symmetry_cell_setting 'tetragonal'
loop_
_space_group_symop_operation_xyz
x,y,z
y,-x,-z
-x,-y,z
-y,x,-z
1/2+x,1/2-y,1/2-z
1/2-x,1/2+y,1/2-z
1/2-y,1/2-x,1/2+z
1/2+y,1/2+x,1/2+z
loop_
_atom_site_type_symbol
_atom_site_label
_atom_site_fract_x
_atom_site_fract_y
_atom_site_fract_z
Si Si1 0.427837 0.288301 0.750085
Si Si2 0.685967 0.869547 0.489207
Si Si3 0.549106 0.251273 0.527922
Si Si4 0.179997 0.794843 0.015316
Si Si5 0.391155 0.019102 0.039307
Si Si6 0.556550 0.725419 0.251370
Si Si7 0.000000 0.500000 0.706040
Si Si8 0.609143 0.463556 0.989973
O O1 0.412977 0.210874 0.836132
O O2 0.503462 0.296020 0.655713
O O3 0.361114 0.304960 0.641829
O O4 0.422359 0.348913 0.877831
O O5 0.717829 0.785933 0.486350
O O6 0.598240 0.860523 0.487602
O O7 0.710806 0.915976 0.637091
O O8 0.635335 0.266582 0.526442
O O9 0.538794 0.169539 0.583962
O O10 0.510223 0.253137 0.361620
O O11 0.126280 0.801369 0.156741
O O12 0.435338 0.029800 0.192643
O O13 0.434263 0.978614 0.904962
O O14 0.525640 0.657668 0.158243
O O15 0.540917 0.414738 0.943799
#
# Coordination Sequence:
#
# PCOD8308845 Si02
#       8
#     8   8   8   8   8   8   4   8
#     4  10  21  37  61  89 118 165 211 259 311 386
#     4  11  21  40  70  89 115 174 226 253 311 404
#     4  11  22  38  62  90 130 157 206 261 327 365
#     4  11  22  36  59  96 118 156 208 273 305 385
#     4  11  21  41  62  90 119 163 203 264 316 386
#     4  10  21  37  61  89 118 165 211 259 311 386
#     4  10  24  38  64  90 120 150 220 258 320 382
#     4  10  20  35  55  82 120 159 198 248 312 379
#
# _framework density 20.187265
#
# number of rings (size 3 to 8) (size 9 to 14) (size 15 to 20)
#    0.000    1.467    2.667    4.000    0.000    0.000 
#    4.800    0.000   11.733    6.400    0.000    0.000 
#    0.000    0.000    0.000    0.000    0.000    0.000 
#
# Total GULP energy -743482.775187 kJ/mol
# GULP energy per Si atom -12391.379586 kJ/mol
# Density = 2.014132 g / cm^3
# Si number density = 20.187265 Si / 1000 Ang^3
#
#
#
# Elastic Constant Matrix: (Units=GPa)
#
#
# Indices 1 2 3 4 5 6 
#
# 1 84.1842 17.2366 12.1432 0.0000 0.0000 0.0000
# 2 17.2366 84.1842 12.1432 0.0000 0.0000 0.0000
# 3 12.1432 12.1432 84.9667 0.0000 0.0000 0.0000
# 4 0.0000 0.0000 0.0000 7.6783 0.0000 0.0000
# 5 0.0000 0.0000 0.0000 0.0000 7.6783 0.0000
# 6 0.0000 0.0000 0.0000 0.0000 0.0000 31.2101
#
#
#
# Elastic Compliance Matrix: (Units=1/GPa)
#
#
# Indices 1 2 3 4 5 6 
#
# 1 0.012573 -0.002364 -0.001459 0.000000 0.000000 0.000000
# 2 -0.002364 0.012573 -0.001459 0.000000 0.000000 0.000000
# 3 -0.001459 -0.001459 0.012186 0.000000 0.000000 0.000000
# 4 0.000000 0.000000 0.000000 0.130237 0.000000 0.000000
# 5 0.000000 0.000000 0.000000 0.000000 0.130237 0.000000
# 6 0.000000 0.000000 0.000000 0.000000 0.000000 0.032041
#
#
# Mechanical properties :
#
#
# Convention : Reuss Voigt Hill
#
# Bulk Modulus (GPa) = 37.35715 37.37569 37.36642
# Shear Modulus (GPa) = 14.31291 23.43414 18.87353
#
# Velocity S-wave (km/s) = 2.66561 3.41080 3.06097
# Velocity P-wave (km/s) = 5.29334 5.83662 5.57160
#
# Compressibility (1/GPa) = 0.02676864
#
# Stress axis : x y z
#
# Youngs Moduli (GPa) = 79.53433 79.53433 82.05887
#
# Poissons Ratio (x) = 0.18801 0.11973
# Poissons Ratio (y) = 0.18801 0.11973
# Poissons Ratio (z) = 0.11605 0.11605
#
# Static dielectric constant tensor:
#      x y z
#    x 3.702340 0.000000 0.000000 
#    y 0.000000 3.702340 0.000000 
#    z 0.000000 0.000000 3.953050 
# 
# 
# High freq. dielectric constant tensor:
#      x y z
#    x 1.776250 0.000000 0.000000 
#    y 0.000000 1.776250 0.000000 
#    z 0.000000 0.000000 1.811290 
# 
# From -- ./inp_files/1020.got.cif
#   From: 2010.03.12/outbox.cif.g09.slc.cpg/sg114_1_cif.got.tgz:1020.got - 2010.04.14 02:08:34.
