data_PCOD8308978
_publ_section_title
;
Structure prediction by ZEFSAII (Michael W. Deem and Ramdas Pophale) SiO2 
 PCOD8308978
Probable space group: P -4 21 C
;
_chemical_formula_sum "Si O2"
_cell_formula_units_Z 40
_cell_length_a 7.944948
_cell_length_b 7.944948
_cell_length_c 27.135913
_cell_angle_alpha 90.000000
_cell_angle_beta 90.000000
_cell_angle_gamma 90.000000
_cell_volume 1712.878493
_symmetry_space_group_name_H-M "P -4 21 C"
_symmetry_group_IT_number 114
_symmetry_cell_setting 'tetragonal'
loop_
_space_group_symop_operation_xyz
x,y,z
y,-x,-z
-x,-y,z
-y,x,-z
1/2+x,1/2-y,1/2-z
1/2-x,1/2+y,1/2-z
1/2-y,1/2-x,1/2+z
1/2+y,1/2+x,1/2+z
loop_
_atom_site_type_symbol
_atom_site_label
_atom_site_fract_x
_atom_site_fract_y
_atom_site_fract_z
Si Si1 0.790448 0.153289 0.421590
Si Si2 0.188725 0.049320 0.899447
Si Si3 0.500000 0.000000 0.743331
Si Si4 0.842119 0.380375 0.014670
Si Si5 0.236573 0.743633 0.697531
Si Si6 0.000000 0.000000 0.341840
O O1 0.609967 0.186146 0.396399
O O2 0.836436 0.303325 0.458527
O O3 0.918689 0.143814 0.376367
O O4 0.798916 0.982632 0.454377
O O5 0.209440 0.128714 0.954217
O O6 0.236624 0.182381 0.858088
O O7 0.000000 0.000000 0.889944
O O8 0.407386 0.843153 0.714715
O O9 0.660963 0.914454 0.771323
O O10 0.000000 0.500000 0.012468
O O11 0.082586 0.871575 0.695716
#
# Coordination Sequence:
#
# PCOD8308978 Si02
#       6
#     8   8   4   8   8   4
#     4  11  23  41  69 100 149 194 242 291 344 420
#     4  11  27  43  71 101 148 186 240 294 356 427
#     4  12  30  52  84 106 148 184 244 314 388 460
#     4  10  23  41  64 101 144 198 245 287 346 411
#     4  12  28  51  78 111 143 187 243 304 385 447
#     4  12  24  45  76 106 148 188 242 298 361 438
#
# _framework density 23.352504
#
# number of rings (size 3 to 8) (size 9 to 14) (size 15 to 20)
#    0.000    0.800    2.000    3.600   12.600    0.000 
#    0.000    0.000    0.000    0.000    0.000    0.000 
#    0.000    0.000    0.000    0.000    0.000    0.000 
#
# Total GULP energy -495628.656206 kJ/mol
# GULP energy per Si atom -12390.716405 kJ/mol
# Density = 2.329935 g / cm^3
# Si number density = 23.352504 Si / 1000 Ang^3
#
#
#
# Elastic Constant Matrix: (Units=GPa)
#
#
# Indices 1 2 3 4 5 6 
#
# 1 83.0018 23.8681 23.5466 0.0000 0.0000 0.0000
# 2 23.8681 83.0018 23.5466 0.0000 0.0000 0.0000
# 3 23.5466 23.5466 74.1583 0.0000 0.0000 0.0000
# 4 0.0000 0.0000 0.0000 27.2100 0.0000 0.0000
# 5 0.0000 0.0000 0.0000 0.0000 27.2100 0.0000
# 6 0.0000 0.0000 0.0000 0.0000 0.0000 49.6687
#
#
#
# Elastic Compliance Matrix: (Units=1/GPa)
#
#
# Indices 1 2 3 4 5 6 
#
# 1 0.013895 -0.003016 -0.003454 0.000000 0.000000 0.000000
# 2 -0.003016 0.013895 -0.003454 0.000000 0.000000 0.000000
# 3 -0.003454 -0.003454 0.015678 0.000000 0.000000 0.000000
# 4 0.000000 0.000000 0.000000 0.036751 0.000000 0.000000
# 5 0.000000 0.000000 0.000000 0.000000 0.036751 0.000000
# 6 0.000000 0.000000 0.000000 0.000000 0.000000 0.020133
#
#
# Mechanical properties :
#
#
# Convention : Reuss Voigt Hill
#
# Bulk Modulus (GPa) = 42.33791 42.45384 42.39587
# Shear Modulus (GPa) = 30.33492 32.09778 31.21635
#
# Velocity S-wave (km/s) = 3.60808 3.71143 3.66012
# Velocity P-wave (km/s) = 5.96044 6.04858 6.00467
#
# Compressibility (1/GPa) = 0.02361950
#
# Stress axis : x y z
#
# Youngs Moduli (GPa) = 71.96775 71.96775 63.78221
#
# Poissons Ratio (x) = 0.21703 0.22033
# Poissons Ratio (y) = 0.21703 0.22033
# Poissons Ratio (z) = 0.24861 0.24861
#
# Static dielectric constant tensor:
#      x y z
#    x 4.465150 0.000000 0.000000 
#    y 0.000000 4.465150 0.000000 
#    z 0.000000 0.000000 4.276750 
# 
# 
# High freq. dielectric constant tensor:
#      x y z
#    x 1.930490 0.000000 0.000000 
#    y 0.000000 1.930490 0.000000 
#    z 0.000000 0.000000 1.919620 
# 
# From -- ./inp_files/3447.got.cif
#   From: 2010.03.12/outbox.cif.g09.slc.cpg/sg114_2_cif.got.tgz:3447.got - 2010.04.14 02:08:34.
