data_PCOD8308124
_publ_section_title
;
Structure prediction by ZEFSAII (Michael W. Deem and Ramdas Pophale) SiO2 
 PCOD8308124
Probable space group: P -4 2 M 
;
_chemical_formula_sum "Si O2"
_cell_formula_units_Z 40
_cell_length_a 13.736461
_cell_length_b 13.736461
_cell_length_c 10.103109
_cell_angle_alpha 90.000000
_cell_angle_beta 90.000000
_cell_angle_gamma 90.000000
_cell_volume 1906.359282
_symmetry_space_group_name_H-M "P -4 2 M "
_symmetry_group_IT_number 111
_symmetry_cell_setting 'tetragonal'
loop_
_space_group_symop_operation_xyz
x,y,z
y,-x,-z
-x,-y,z
-y,x,-z
x,-y,-z
-x,y,-z
-y,-x,z
y,x,z
loop_
_atom_site_type_symbol
_atom_site_label
_atom_site_fract_x
_atom_site_fract_y
_atom_site_fract_z
Si Si1 0.237265 0.762736 0.541968
Si Si2 0.357903 0.080632 0.097908
Si Si3 0.388976 0.611025 0.463786
Si Si4 0.195020 0.804981 0.042254
Si Si5 0.032089 0.722529 0.636164
Si Si6 0.136237 0.863764 0.313509
Si Si7 0.343546 0.656455 0.160825
Si Si8 0.500000 0.235329 0.000000
O O1 0.319555 0.680446 0.550144
O O2 0.146654 0.731401 0.629102
O O3 0.210364 0.789637 0.389629
O O4 0.345668 0.019931 0.235088
O O5 0.433427 0.169990 0.098138
O O6 0.253182 0.120372 0.050024
O O7 0.400148 0.000000 0.000000
O O8 0.500000 0.635866 0.500000
O O9 0.366341 0.633659 0.312143
O O10 0.136600 0.863401 0.154599
O O11 0.262461 0.737540 0.134385
O O12 0.000000 0.668396 0.500000
O O13 0.972403 0.826511 0.644447
O O14 0.442181 0.693506 0.095574
#
# Coordination Sequence:
#
# PCOD8308124 Si02
#       8
#     4   8   4   4   8   4   4   4
#     4  10  22  41  63  93 133 175 227 275 331 408
#     4  11  21  38  63  96 132 170 224 278 331 404
#     4  11  26  43  66  96 131 177 224 293 347 415
#     4  10  19  37  62  87 128 180 208 264 344 396
#     4  10  22  37  66  96 133 179 219 271 333 401
#     4  10  18  38  62  94 134 175 213 260 334 395
#     4  10  23  45  65  92 126 168 220 279 354 397
#     4  10  25  39  68  94 122 172 220 285 345 408
#
# _framework density 20.982403999999999
#
# number of rings (size 3 to 8) (size 9 to 14) (size 15 to 20)
#    0.000    1.700    3.000    0.900    2.800    2.200 
#    0.000    2.000    0.000    1.500    0.000    0.000 
#    0.000    0.000    0.000    0.000    0.000    0.000 
#
# Total GULP energy -495577.862597 kJ/mol
# GULP energy per Si atom -12389.446565 kJ/mol
# Density = 2.093465 g / cm^3
# Si number density = 20.982404 Si / 1000 Ang^3
#
#
#
# Elastic Constant Matrix: (Units=GPa)
#
#
# Indices 1 2 3 4 5 6 
#
# 1 109.8247 53.6646 39.4445 0.0000 0.0000 0.0000
# 2 53.6646 109.8234 39.4445 0.0000 0.0000 0.0000
# 3 39.4445 39.4445 150.0477 0.0000 0.0000 0.0000
# 4 0.0000 0.0000 0.0000 26.0022 0.0000 0.0000
# 5 0.0000 0.0000 0.0000 0.0000 26.0022 0.0000
# 6 0.0000 0.0000 0.0000 0.0000 0.0000 46.3260
#
#
#
# Elastic Compliance Matrix: (Units=1/GPa)
#
#
# Indices 1 2 3 4 5 6 
#
# 1 0.012406 -0.005401 -0.001842 0.000000 0.000000 0.000000
# 2 -0.005401 0.012406 -0.001842 0.000000 0.000000 0.000000
# 3 -0.001842 -0.001842 0.007633 0.000000 0.000000 0.000000
# 4 0.000000 0.000000 0.000000 0.038458 0.000000 0.000000
# 5 0.000000 0.000000 0.000000 0.000000 0.038458 0.000000
# 6 0.000000 0.000000 0.000000 0.000000 0.000000 0.021586
#
#
# Mechanical properties :
#
#
# Convention : Reuss Voigt Hill
#
# Bulk Modulus (GPa) = 70.04231 70.53368 70.28800
# Shear Modulus (GPa) = 32.49420 35.47554 33.98487
#
# Velocity S-wave (km/s) = 3.93955 4.11631 4.02890
# Velocity P-wave (km/s) = 7.35848 7.50204 7.43061
#
# Compressibility (1/GPa) = 0.01427708
#
# Stress axis : x y z
#
# Youngs Moduli (GPa) = 80.60765 80.60661 131.01430
#
# Poissons Ratio (x) = 0.43533 0.24126
# Poissons Ratio (y) = 0.43533 0.24127
# Poissons Ratio (z) = 0.14844 0.14844
#
# Static dielectric constant tensor:
#      x y z
#    x 3.771110 0.000000 0.000000 
#    y 0.000000 3.771090 0.000000 
#    z 0.000000 0.000000 3.876620 
# 
# 
# High freq. dielectric constant tensor:
#      x y z
#    x 1.811190 0.000000 0.000000 
#    y 0.000000 1.811190 0.000000 
#    z 0.000000 0.000000 1.833510 
# 
# From -- ./inp_files/1644.got.cif
#   From: 2010.03.12/outbox.cif.g09.slc.cpg/sg111_1_cif.got.tgz:1644.got - 2010.04.14 01:59:48.
