data_PCOD8308897
_publ_section_title
;
Structure prediction by ZEFSAII (Michael W. Deem and Ramdas Pophale) SiO2 
 PCOD8308897
Probable space group: P -4 21 C
;
_chemical_formula_sum "Si O2"
_cell_formula_units_Z 30
_cell_length_a 7.236550
_cell_length_b 7.236550
_cell_length_c 23.467082
_cell_angle_alpha 90.000000
_cell_angle_beta 90.000000
_cell_angle_gamma 90.000000
_cell_volume 1228.916075
_symmetry_space_group_name_H-M "P -4 21 C"
_symmetry_group_IT_number 114
_symmetry_cell_setting 'tetragonal'
loop_
_space_group_symop_operation_xyz
x,y,z
y,-x,-z
-x,-y,z
-y,x,-z
1/2+x,1/2-y,1/2-z
1/2-x,1/2+y,1/2-z
1/2-y,1/2-x,1/2+z
1/2+y,1/2+x,1/2+z
loop_
_atom_site_type_symbol
_atom_site_label
_atom_site_fract_x
_atom_site_fract_y
_atom_site_fract_z
Si Si1 0.365242 0.721370 0.188263
Si Si2 0.000000 0.000000 0.500000
Si Si3 0.258545 0.139996 0.186657
Si Si4 0.669735 0.863449 0.422698
Si Si5 0.000000 0.000000 0.097484
O O1 0.587007 0.698726 0.176859
O O2 0.332184 0.654857 0.251806
O O3 0.236963 0.615809 0.142989
O O4 0.339130 0.937316 0.181721
O O5 0.086456 0.838729 0.537341
O O6 0.107742 0.152335 0.136640
O O7 0.622787 0.645850 0.438530
O O8 0.500000 0.000000 0.434458
#
# Coordination Sequence:
#
# PCOD8308897 Si02
#       5
#     8   2   8   8   4
#     4  10  22  38  69 105 153 194 242 291 360 454
#     4  12  32  54  80 112 136 198 272 336 388 450
#     4  10  21  38  65 111 151 196 238 285 361 459
#     4  11  28  51  78 107 147 196 252 319 385 441
#     4  10  24  47  75 108 152 198 236 308 384 450
#
# _framework density 24.411759
#
# number of rings (size 3 to 8) (size 9 to 14) (size 15 to 20)
#    0.000    1.600    0.000    3.200   11.200    3.200 
#    4.800    0.000    0.000    0.000    0.000    0.000 
#    0.000    0.000    0.000    0.000    0.000    0.000 
#
# Total GULP energy -371822.853505 kJ/mol
# GULP energy per Si atom -12394.095117 kJ/mol
# Density = 2.435620 g / cm^3
# Si number density = 24.411759 Si / 1000 Ang^3
#
#
#
# Elastic Constant Matrix: (Units=GPa)
#
#
# Indices 1 2 3 4 5 6 
#
# 1 121.1237 52.3576 49.3827 0.0000 0.0000 0.0000
# 2 52.3576 121.1237 49.3827 0.0000 0.0000 0.0000
# 3 49.3827 49.3827 67.0013 0.0000 0.0000 0.0000
# 4 0.0000 0.0000 0.0000 -194.2030 0.0000 0.0000
# 5 0.0000 0.0000 0.0000 0.0000 -194.2030 0.0000
# 6 0.0000 0.0000 0.0000 0.0000 0.0000 40.2895
#
#
#
# Elastic Compliance Matrix: (Units=1/GPa)
#
#
# Indices 1 2 3 4 5 6 
#
# 1 0.012237 -0.002305 -0.007320 0.000000 0.000000 0.000000
# 2 -0.002305 0.012237 -0.007320 0.000000 0.000000 0.000000
# 3 -0.007320 -0.007320 0.025716 0.000000 0.000000 0.000000
# 4 0.000000 0.000000 0.000000 -0.005149 0.000000 0.000000
# 5 0.000000 0.000000 0.000000 0.000000 -0.005149 0.000000
# 6 0.000000 0.000000 0.000000 0.000000 0.000000 0.024820
#
#
# Mechanical properties :
#
#
# Convention : Reuss Voigt Hill
#
# Bulk Modulus (GPa) = 61.35498 67.94388 64.64943
# Shear Modulus (GPa) = 48.06080 -59.08159 -5.51039
#
# Velocity S-wave (km/s) = 4.44188 -4.92490 -1.50405
# Velocity P-wave (km/s) = 7.17600 2.10871 4.85017
#
# Compressibility (1/GPa) = 0.01629859
#
# Stress axis : x y z
#
# Youngs Moduli (GPa) = 81.72000 81.72000 38.88694
#
# Poissons Ratio (x) = 0.18838 0.28466
# Poissons Ratio (y) = 0.18838 0.28466
# Poissons Ratio (z) = 0.59820 0.59820
#
# Static dielectric constant tensor:
#      x y z
#    x 4.084270 0.000000 0.000000 
#    y 0.000000 4.084270 0.000000 
#    z 0.000000 0.000000 4.427790 
# 
# 
# High freq. dielectric constant tensor:
#      x y z
#    x 1.990290 0.000000 0.000000 
#    y 0.000000 1.990290 0.000000 
#    z 0.000000 0.000000 1.941850 
# 
# From -- ./inp_files/2873.got.cif
#   From: 2010.03.12/outbox.cif.g09.slc.cpg/sg114_2_cif.got.tgz:2873.got - 2010.04.14 02:08:34.
