data_PCOD8308679
_publ_section_title
;
Structure prediction by ZEFSAII (Michael W. Deem and Ramdas Pophale) SiO2 
 PCOD8308679
Probable space group: P -4 21 M 
;
_chemical_formula_sum "Si O2"
_cell_formula_units_Z 64
_cell_length_a 12.252345
_cell_length_b 12.252345
_cell_length_c 23.155668
_cell_angle_alpha 90.000000
_cell_angle_beta 90.000000
_cell_angle_gamma 90.000000
_cell_volume 3476.127908
_symmetry_space_group_name_H-M "P -4 21 M "
_symmetry_group_IT_number 113
_symmetry_cell_setting 'tetragonal'
loop_
_space_group_symop_operation_xyz
x,y,z
y,-x,-z
-x,-y,z
-y,x,-z
1/2+x,1/2-y,-z
1/2-x,1/2+y,-z
1/2-y,1/2-x,z
1/2+y,1/2+x,z
loop_
_atom_site_type_symbol
_atom_site_label
_atom_site_fract_x
_atom_site_fract_y
_atom_site_fract_z
Si Si1 0.493369 0.175213 0.933570
Si Si2 0.999969 0.680614 0.936915
Si Si3 0.326591 0.004573 0.427047
Si Si4 0.312594 0.629997 0.240732
Si Si5 0.261597 0.419396 0.179521
Si Si6 0.662773 0.461511 0.480536
Si Si7 0.669654 0.648564 0.631244
Si Si8 0.125688 0.006873 0.152759
O O1 0.372364 0.127637 0.919741
O O2 0.527359 0.261485 0.884894
O O3 0.575335 0.075335 0.932692
O O4 0.495645 0.226392 0.997559
O O5 0.107355 0.607355 0.923825
O O6 0.995879 0.788856 0.898897
O O7 0.892178 0.607823 0.926035
O O8 0.403320 0.903320 0.441939
O O9 0.231622 0.965285 0.383321
O O10 0.396397 0.103604 0.398759
O O11 0.279233 0.045239 0.488235
O O12 0.229529 0.729529 0.234723
O O13 0.251916 0.516577 0.225915
O O14 0.360204 0.619424 0.305186
O O15 0.413387 0.651754 0.198631
O O16 0.162029 0.337972 0.190884
O O17 0.376527 0.356490 0.184463
O O18 0.584507 0.381016 0.516658
O O19 0.670161 0.427721 0.413750
O O20 0.750939 0.749062 0.626857
O O21 0.000000 0.000000 0.130822
#
# Coordination Sequence:
#
# PCOD8308679 Si02
#       8
#     8   8   8   8   8   8   8   8
#     4   8  15  30  54  80 102 130 172 221 272 325
#     4   9  17  33  58  82 103 132 175 226 274 323
#     4   9  17  31  52  78 108 142 178 219 266 316
#     4  10  21  38  58  79 104 147 190 221 267 317
#     4  10  20  37  56  78 107 140 181 228 276 320
#     4   9  17  31  50  81 109 140 173 210 266 322
#     4   9  18  34  56  78 107 138 174 224 262 309
#     4  10  21  37  50  75 111 147 173 217 267 328
#
# _framework density 18.411290999999999
#
# number of rings (size 3 to 8) (size 9 to 14) (size 15 to 20)
#    0.000    2.750    0.000    2.250    0.000    1.250 
#   18.000    1.875    0.000    3.750    0.000    0.000 
#    0.000    0.000    0.000    0.000    0.000    0.000 
#
# Total GULP energy -793320.734718 kJ/mol
# GULP energy per Si atom -12395.636480 kJ/mol
# Density = 1.836939 g / cm^3
# Si number density = 18.411291 Si / 1000 Ang^3
#
#
#
# Elastic Constant Matrix: (Units=GPa)
#
#
# Indices 1 2 3 4 5 6 
#
# 1 92.5067 40.8912 61.0333 0.0000 0.0000 0.0000
# 2 40.8912 92.5053 61.0341 0.0000 0.0000 0.0000
# 3 61.0333 61.0341 123.9888 0.0000 0.0000 0.0000
# 4 0.0000 0.0000 0.0000 24.4190 0.0000 0.0000
# 5 0.0000 0.0000 0.0000 0.0000 24.4191 0.0000
# 6 0.0000 0.0000 0.0000 0.0000 0.0000 18.3942
#
#
#
# Elastic Compliance Matrix: (Units=1/GPa)
#
#
# Indices 1 2 3 4 5 6 
#
# 1 0.016507 -0.002867 -0.006715 0.000000 0.000000 0.000000
# 2 -0.002867 0.016508 -0.006715 0.000000 0.000000 0.000000
# 3 -0.006715 -0.006715 0.014676 0.000000 0.000000 0.000000
# 4 0.000000 0.000000 0.000000 0.040952 0.000000 0.000000
# 5 0.000000 0.000000 0.000000 0.000000 0.040952 0.000000
# 6 0.000000 0.000000 0.000000 0.000000 0.000000 0.054365
#
#
# Mechanical properties :
#
#
# Convention : Reuss Voigt Hill
#
# Bulk Modulus (GPa) = 66.23092 70.54644 68.38868
# Shear Modulus (GPa) = 22.56474 23.18260 22.87367
#
# Velocity S-wave (km/s) = 3.50464 3.55230 3.52855
# Velocity P-wave (km/s) = 7.24070 7.43137 7.33666
#
# Compressibility (1/GPa) = 0.01509869
#
# Stress axis : x y z
#
# Youngs Moduli (GPa) = 60.57935 60.57724 68.13877
#
# Poissons Ratio (x) = 0.17366 0.45752
# Poissons Ratio (y) = 0.17366 0.45755
# Poissons Ratio (z) = 0.40676 0.40677
#
# Static dielectric constant tensor:
#      x y z
#    x 3.523960 0.000000 0.000000 
#    y 0.000000 3.523950 0.000000 
#    z 0.000000 0.000000 3.427570 
# 
# 
# High freq. dielectric constant tensor:
#      x y z
#    x 1.714920 0.000000 0.000000 
#    y 0.000000 1.714920 0.000000 
#    z 0.000000 0.000000 1.696980 
# 
# From -- ./inp_files/2918.got.cif
#   From: 2010.03.12/outbox.cif.g09.slc.cpg/sg113_cif.got.tgz:2918.got - 2010.04.14 02:06:34.
