data_PCOD8308292
_publ_section_title
;
Structure prediction by ZEFSAII (Michael W. Deem and Ramdas Pophale) SiO2 
 PCOD8308292
Probable space group: P -4 2 M 
;
_chemical_formula_sum "Si O2"
_cell_formula_units_Z 28
_cell_length_a 10.289178
_cell_length_b 10.289178
_cell_length_c 13.145309
_cell_angle_alpha 90.000000
_cell_angle_beta 90.000000
_cell_angle_gamma 90.000000
_cell_volume 1391.656846
_symmetry_space_group_name_H-M "P -4 2 M "
_symmetry_group_IT_number 111
_symmetry_cell_setting 'tetragonal'
loop_
_space_group_symop_operation_xyz
x,y,z
y,-x,-z
-x,-y,z
-y,x,-z
x,-y,-z
-x,y,-z
-y,-x,z
y,x,z
loop_
_atom_site_type_symbol
_atom_site_label
_atom_site_fract_x
_atom_site_fract_y
_atom_site_fract_z
Si Si1 0.008170 0.208942 0.615074
Si Si2 0.712231 0.506873 0.888323
Si Si3 0.500000 0.285951 0.500000
Si Si4 0.603458 0.823080 0.302593
O O1 0.908037 0.091964 0.626450
O O2 0.964622 0.326665 0.689474
O O3 0.000000 0.262263 0.500000
O O4 0.152549 0.152549 0.641158
O O5 0.599368 0.400633 0.884538
O O6 0.648224 0.648224 0.868790
O O7 0.819286 0.479244 0.801441
O O8 0.779248 0.500000 0.000000
O O9 0.372559 0.372559 0.514628
O O10 0.490351 0.196781 0.399603
O O11 0.709284 0.709284 0.302861
#
# Coordination Sequence:
#
# PCOD8308292 Si02
#       4
#     8   8   4   8
#     4   8  14  25  40  57  80 113 154 201 247 285
#     4   8  13  21  34  55  87 128 167 193 216 262
#     4   9  16  24  35  56  90 128 159 187 224 276
#     4   9  15  23  37  57  85 123 161 193 230 276
#
# _framework density 20.119903999999998
#
# number of rings (size 3 to 8) (size 9 to 14) (size 15 to 20)
#    0.000    3.571    0.000    2.571    0.000    3.429 
#    0.000    0.714    0.000    0.000    0.000    0.000 
#    0.000    6.857    0.000   50.000    0.000  160.857 
#
# Total GULP energy -346942.263984 kJ/mol
# GULP energy per Si atom -12390.795142 kJ/mol
# Density = 2.007411 g / cm^3
# Si number density = 20.119904 Si / 1000 Ang^3
#
#
#
# Elastic Constant Matrix: (Units=GPa)
#
#
# Indices 1 2 3 4 5 6 
#
# 1 51.6068 36.1224 63.0440 0.0000 0.0000 0.0000
# 2 36.1224 51.6069 63.0439 0.0000 0.0000 0.0000
# 3 63.0440 63.0439 183.8947 0.0000 0.0000 0.0000
# 4 0.0000 0.0000 0.0000 13.8097 0.0000 0.0000
# 5 0.0000 0.0000 0.0000 0.0000 13.8098 0.0000
# 6 0.0000 0.0000 0.0000 0.0000 0.0000 14.3818
#
#
#
# Elastic Compliance Matrix: (Units=1/GPa)
#
#
# Indices 1 2 3 4 5 6 
#
# 1 0.043526 -0.021055 -0.007704 0.000000 0.000000 0.000000
# 2 -0.021055 0.043526 -0.007703 0.000000 0.000000 0.000000
# 3 -0.007704 -0.007703 0.010720 0.000000 0.000000 0.000000
# 4 0.000000 0.000000 0.000000 0.072413 0.000000 0.000000
# 5 0.000000 0.000000 0.000000 0.000000 0.072412 0.000000
# 6 0.000000 0.000000 0.000000 0.000000 0.000000 0.069532
#
#
# Mechanical properties :
#
#
# Convention : Reuss Voigt Hill
#
# Bulk Modulus (GPa) = 40.24666 67.94769 54.09718
# Shear Modulus (GPa) = 12.71181 16.72681 14.71931
#
# Velocity S-wave (km/s) = 2.51630 2.88645 2.70771
# Velocity P-wave (km/s) = 5.33752 6.70474 6.05981
#
# Compressibility (1/GPa) = 0.02484678
#
# Stress axis : x y z
#
# Youngs Moduli (GPa) = 22.97485 22.97499 93.28548
#
# Poissons Ratio (x) = 0.48375 0.71862
# Poissons Ratio (y) = 0.48374 0.71861
# Poissons Ratio (z) = 0.17699 0.17699
#
# Static dielectric constant tensor:
#      x y z
#    x 3.628390 0.000000 0.000000 
#    y 0.000000 3.628390 0.000000 
#    z 0.000000 0.000000 3.899090 
# 
# 
# High freq. dielectric constant tensor:
#      x y z
#    x 1.761240 0.000000 0.000000 
#    y 0.000000 1.761240 0.000000 
#    z 0.000000 0.000000 1.764850 
# 
# From -- ./inp_files/2233.got.cif
#   From: 2010.03.12/outbox.cif.g09.slc.cpg/sg111_2_cif.got.tgz:2233.got - 2010.04.14 01:59:48.
