data_PCOD8308881
_publ_section_title
;
Structure prediction by ZEFSAII (Michael W. Deem and Ramdas Pophale) SiO2 
 PCOD8308881
Probable space group: P -4 21 C
;
_chemical_formula_sum "Si O2"
_cell_formula_units_Z 52
_cell_length_a 15.981379
_cell_length_b 15.981379
_cell_length_c 9.559817
_cell_angle_alpha 90.000000
_cell_angle_beta 90.000000
_cell_angle_gamma 90.000000
_cell_volume 2441.620040
_symmetry_space_group_name_H-M "P -4 21 C"
_symmetry_group_IT_number 114
_symmetry_cell_setting 'tetragonal'
loop_
_space_group_symop_operation_xyz
x,y,z
y,-x,-z
-x,-y,z
-y,x,-z
1/2+x,1/2-y,1/2-z
1/2-x,1/2+y,1/2-z
1/2-y,1/2-x,1/2+z
1/2+y,1/2+x,1/2+z
loop_
_atom_site_type_symbol
_atom_site_label
_atom_site_fract_x
_atom_site_fract_y
_atom_site_fract_z
Si Si1 0.367978 0.267460 0.527627
Si Si2 0.000000 0.500000 1.000000
Si Si3 0.557984 0.100144 0.250000
Si Si4 0.756561 0.162961 0.750000
Si Si5 0.837127 0.159308 0.250000
Si Si6 0.003217 0.266732 0.750000
Si Si7 0.132022 0.767460 0.527627
O O1 0.314062 0.336515 0.612522
O O2 0.392132 0.313279 0.383362
O O3 0.449524 0.238532 0.609556
O O4 0.316344 0.183656 0.500000
O O5 0.995571 0.579274 0.108368
O O6 0.920726 0.504429 0.891632
O O7 0.580597 0.198223 0.250000
O O8 0.643757 0.047878 0.250000
O O9 0.704133 0.247766 0.750000
O O10 0.814062 0.163485 0.612522
O O11 0.892132 0.186721 0.383362
O O12 0.815222 0.061686 0.250000
O O13 0.949524 0.261468 0.609556
#
# Coordination Sequence:
#
# PCOD8308881 Si02
#       7
#     8   4   8   8   8   8   8
#     4   9  18  35  55  85 107 138 192 244 272 325
#     4  10  24  38  48  78 132 158 188 206 268 350
#     4  10  22  37  53  79 119 165 181 221 274 337
#     4   8  17  32  57  74 105 145 186 228 269 320
#     4   9  18  33  55  79 106 139 176 231 291 332
#     4  10  21  34  57  81 112 141 190 233 288 324
#     4   9  18  35  55  85 107 138 192 244 272 325
#
# _framework density 21.297336000000001
#
# number of rings (size 3 to 8) (size 9 to 14) (size 15 to 20)
#    0.000    2.769    0.000    0.923   12.923    0.000 
#    0.000    3.077    0.000    2.769    0.000    0.000 
#    0.000    0.000    0.000    0.000    0.000    0.000 
#
# Total GULP energy -644465.467535 kJ/mol
# GULP energy per Si atom -12393.566683 kJ/mol
# Density = 2.124886 g / cm^3
# Si number density = 21.297336 Si / 1000 Ang^3
#
#
#
# Elastic Constant Matrix: (Units=GPa)
#
#
# Indices 1 2 3 4 5 6 
#
# 1 62.3548 27.6166 40.3841 0.0000 0.0000 0.0000
# 2 27.6166 62.3548 40.3841 0.0000 0.0000 0.0000
# 3 40.3841 40.3841 186.8729 0.0000 0.0000 0.0000
# 4 0.0000 0.0000 0.0000 12.5226 0.0000 0.0000
# 5 0.0000 0.0000 0.0000 0.0000 12.5226 0.0000
# 6 0.0000 0.0000 0.0000 0.0000 0.0000 31.6612
#
#
#
# Elastic Compliance Matrix: (Units=1/GPa)
#
#
# Indices 1 2 3 4 5 6 
#
# 1 0.021288 -0.007498 -0.002980 0.000000 0.000000 0.000000
# 2 -0.007498 0.021288 -0.002980 0.000000 0.000000 0.000000
# 3 -0.002980 -0.002980 0.006639 0.000000 0.000000 0.000000
# 4 0.000000 0.000000 0.000000 0.079856 0.000000 0.000000
# 5 0.000000 0.000000 0.000000 0.000000 0.079856 0.000000
# 6 0.000000 0.000000 0.000000 0.000000 0.000000 0.031584
#
#
# Mechanical properties :
#
#
# Convention : Reuss Voigt Hill
#
# Bulk Modulus (GPa) = 44.84556 58.70580 51.77568
# Shear Modulus (GPa) = 18.19096 24.88778 21.53937
#
# Velocity S-wave (km/s) = 2.92574 3.42217 3.18365
# Velocity P-wave (km/s) = 5.70227 6.57569 6.15449
#
# Compressibility (1/GPa) = 0.02229875
#
# Stress axis : x y z
#
# Youngs Moduli (GPa) = 46.97411 46.97411 150.61970
#
# Poissons Ratio (x) = 0.35223 0.44885
# Poissons Ratio (y) = 0.35223 0.44885
# Poissons Ratio (z) = 0.13999 0.13999
#
# Static dielectric constant tensor:
#      x y z
#    x 3.586140 0.000000 0.000000 
#    y 0.000000 3.586140 0.000000 
#    z 0.000000 0.000000 4.212870 
# 
# 
# High freq. dielectric constant tensor:
#      x y z
#    x 1.803200 0.000000 0.000000 
#    y 0.000000 1.803200 0.000000 
#    z 0.000000 0.000000 1.859860 
# 
# From -- ./inp_files/981.got.cif
#   From: 2010.03.12/outbox.cif.g09.slc.cpg/sg114_1_cif.got.tgz:981.got - 2010.04.14 02:08:34.
