data_PCOD8308356
_publ_section_title
;
Structure prediction by ZEFSAII (Michael W. Deem and Ramdas Pophale) SiO2 
 PCOD8308356
Probable space group: P -4 2 C
;
_chemical_formula_sum "Si O2"
_cell_formula_units_Z 48
_cell_length_a 14.650156
_cell_length_b 14.650156
_cell_length_c 12.931058
_cell_angle_alpha 90.000000
_cell_angle_beta 90.000000
_cell_angle_gamma 90.000000
_cell_volume 2775.355101
_symmetry_space_group_name_H-M "P -4 2 C"
_symmetry_group_IT_number 112
_symmetry_cell_setting 'tetragonal'
loop_
_space_group_symop_operation_xyz
x,y,z
y,-x,-z
-x,-y,z
-y,x,-z
x,-y,1/2-z
-x,y,1/2-z
-y,-x,1/2+z
y,x,1/2+z
loop_
_atom_site_type_symbol
_atom_site_label
_atom_site_fract_x
_atom_site_fract_y
_atom_site_fract_z
Si Si1 0.391279 0.500000 0.627753
Si Si2 0.107152 0.107152 0.500000
Si Si3 0.836682 0.725299 0.128221
Si Si4 0.667919 0.332081 1.000000
Si Si5 0.725299 0.836682 0.871779
Si Si6 0.398874 0.000000 0.872353
O O1 0.500000 0.500000 0.601393
O O2 0.376486 0.500000 0.750000
O O3 0.337623 0.416002 0.578273
O O4 0.337623 0.583998 0.578273
O O5 0.170342 0.140210 0.595533
O O6 0.140210 0.170342 0.404467
O O7 1.000000 0.123412 0.526298
O O8 0.752576 0.674821 0.076224
O O9 0.822481 0.726750 0.250000
O O10 0.914837 0.658345 0.088906
O O11 0.752576 0.325179 0.076224
O O12 0.658345 0.914837 0.911094
O O13 0.500000 0.000000 0.922446
O O14 0.407252 0.000000 0.750000
#
# Coordination Sequence:
#
# PCOD8308356 Si02
#       6
#     8   8   8   8   8   8
#     4  11  22  38  58  85 118 147 187 236 283 336
#     4  10  20  35  57  82 110 146 186 236 298 348
#     4  10  21  36  55  80 111 144 188 234 277 337
#     4  11  21  37  55  83 109 150 184 222 283 335
#     4  10  21  36  55  80 111 144 188 234 277 337
#     4   9  18  32  51  77 105 138 178 228 275 318
#
# _framework density 17.295085
#
# number of rings (size 3 to 8) (size 9 to 14) (size 15 to 20)
#    0.000    1.833    3.333    1.000    2.333    0.667 
#    0.000    1.667    0.000    0.000    0.000    1.167 
#    0.000    0.000    0.000    0.000    0.000    0.000 
#
# Total GULP energy -594675.624056 kJ/mol
# GULP energy per Si atom -12389.075501 kJ/mol
# Density = 1.725572 g / cm^3
# Si number density = 17.295085 Si / 1000 Ang^3
#
#
#
# Elastic Constant Matrix: (Units=GPa)
#
#
# Indices 1 2 3 4 5 6 
#
# 1 147.8010 80.1942 65.7964 0.0000 0.0000 0.0000
# 2 80.1942 147.8010 65.7964 0.0000 0.0000 0.0000
# 3 65.7964 65.7964 114.7691 0.0000 0.0000 0.0000
# 4 0.0000 0.0000 0.0000 35.6856 0.0000 0.0000
# 5 0.0000 0.0000 0.0000 0.0000 35.6856 0.0000
# 6 0.0000 0.0000 0.0000 0.0000 0.0000 33.9475
#
#
#
# Elastic Compliance Matrix: (Units=1/GPa)
#
#
# Indices 1 2 3 4 5 6 
#
# 1 0.010673 -0.004118 -0.003758 0.000000 0.000000 0.000000
# 2 -0.004118 0.010673 -0.003758 0.000000 0.000000 0.000000
# 3 -0.003758 -0.003758 0.013022 0.000000 0.000000 0.000000
# 4 0.000000 0.000000 0.000000 0.028023 0.000000 0.000000
# 5 0.000000 0.000000 0.000000 0.000000 0.028023 0.000000
# 6 0.000000 0.000000 0.000000 0.000000 0.000000 0.029457
#
#
# Mechanical properties :
#
#
# Convention : Reuss Voigt Hill
#
# Bulk Modulus (GPa) = 90.08834 92.66055 91.37444
# Shear Modulus (GPa) = 34.05087 34.30266 34.17677
#
# Velocity S-wave (km/s) = 4.44195 4.45834 4.45015
# Velocity P-wave (km/s) = 8.86058 8.95516 8.90800
#
# Compressibility (1/GPa) = 0.01110022
#
# Stress axis : x y z
#
# Youngs Moduli (GPa) = 93.69225 93.69225 76.79323
#
# Poissons Ratio (x) = 0.38584 0.28859
# Poissons Ratio (y) = 0.38584 0.28859
# Poissons Ratio (z) = 0.35209 0.35209
#
# Static dielectric constant tensor:
#      x y z
#    x 3.317550 0.000000 0.000000 
#    y 0.000000 3.317550 0.000000 
#    z 0.000000 0.000000 3.123890 
# 
# 
# High freq. dielectric constant tensor:
#      x y z
#    x 1.679430 0.000000 0.000000 
#    y 0.000000 1.679430 0.000000 
#    z 0.000000 0.000000 1.658930 
# 
# From -- ./inp_files/2570.got.cif
#   From: 2010.03.12/outbox.cif.g09.slc.cpg/sg112_2_cif.got.tgz:2570.got - 2010.04.14 02:02:48.
