data_PCOD8308526
_publ_section_title
;
Structure prediction by ZEFSAII (Michael W. Deem and Ramdas Pophale) SiO2 
 PCOD8308526
Probable space group: P -4 21 M 
;
_chemical_formula_sum "Si O2"
_cell_formula_units_Z 56
_cell_length_a 11.939228
_cell_length_b 11.939228
_cell_length_c 21.302250
_cell_angle_alpha 90.000000
_cell_angle_beta 90.000000
_cell_angle_gamma 90.000000
_cell_volume 3036.532746
_symmetry_space_group_name_H-M "P -4 21 M "
_symmetry_group_IT_number 113
_symmetry_cell_setting 'tetragonal'
loop_
_space_group_symop_operation_xyz
x,y,z
y,-x,-z
-x,-y,z
-y,x,-z
1/2+x,1/2-y,-z
1/2-x,1/2+y,-z
1/2-y,1/2-x,z
1/2+y,1/2+x,z
loop_
_atom_site_type_symbol
_atom_site_label
_atom_site_fract_x
_atom_site_fract_y
_atom_site_fract_z
Si Si1 0.374050 0.520799 0.887158
Si Si2 0.739192 0.058799 0.872475
Si Si3 0.496457 0.635427 0.437178
Si Si4 0.817259 0.499262 0.987633
Si Si5 0.678555 0.360467 0.205715
Si Si6 0.911683 0.771284 0.432697
Si Si7 0.616767 0.697327 0.652745
O O1 0.500000 0.500000 0.912259
O O2 0.364615 0.649766 0.865545
O O3 0.288141 0.494557 0.942211
O O4 0.347808 0.441104 0.828042
O O5 0.632138 0.132138 0.853240
O O6 0.743012 0.952217 0.827381
O O7 0.728786 0.012580 0.942673
O O8 0.500000 0.500000 0.445460
O O9 0.470543 0.702300 0.500825
O O10 0.622686 0.669322 0.416477
O O11 0.407403 0.669275 0.384680
O O12 0.880561 0.380561 0.981153
O O13 0.900079 0.599922 0.969660
O O14 0.741062 0.241062 0.204546
O O15 0.657125 0.403239 0.276257
O O16 0.842303 0.657698 0.437042
O O17 0.002745 0.757579 0.377980
O O18 0.701923 0.798078 0.650135
#
# Coordination Sequence:
#
# PCOD8308526 Si02
#       7
#     8   8   8   8   8   8   8
#     4  10  22  35  56  83 110 141 186 240 280 326
#     4  10  22  36  54  81 114 149 184 229 284 337
#     4  10  17  34  56  80 111 150 187 225 271 326
#     4  10  21  37  57  81 111 149 188 231 286 340
#     4  10  22  39  59  81 110 149 189 231 278 335
#     4  11  20  32  55  86 115 147 187 230 275 329
#     4  10  21  38  59  82 112 149 188 230 278 332
#
# _framework density 18.442087000000001
#
# number of rings (size 3 to 8) (size 9 to 14) (size 15 to 20)
#    0.000    1.857    2.857    1.714    4.000    6.857 
#    0.000    1.429    0.000    2.143    0.000    4.000 
#    0.000    0.000    0.000    0.000    0.000    0.000 
#
# Total GULP energy -694213.158337 kJ/mol
# GULP energy per Si atom -12396.663542 kJ/mol
# Density = 1.840011 g / cm^3
# Si number density = 18.442087 Si / 1000 Ang^3
#
#
#
# Elastic Constant Matrix: (Units=GPa)
#
#
# Indices 1 2 3 4 5 6 
#
# 1 79.4602 37.0773 54.9071 0.0000 0.0000 0.0000
# 2 37.0773 79.4627 54.9054 0.0000 0.0000 0.0000
# 3 54.9071 54.9054 128.5249 0.0000 0.0000 0.0000
# 4 0.0000 0.0000 0.0000 23.5156 0.0000 0.0000
# 5 0.0000 0.0000 0.0000 0.0000 23.5174 0.0000
# 6 0.0000 0.0000 0.0000 0.0000 0.0000 26.1657
#
#
#
# Elastic Compliance Matrix: (Units=1/GPa)
#
#
# Indices 1 2 3 4 5 6 
#
# 1 0.018979 -0.004616 -0.006136 0.000000 0.000000 0.000000
# 2 -0.004616 0.018977 -0.006135 0.000000 0.000000 0.000000
# 3 -0.006136 -0.006135 0.013023 0.000000 0.000000 0.000000
# 4 0.000000 0.000000 0.000000 0.042525 0.000000 0.000000
# 5 0.000000 0.000000 0.000000 0.000000 0.042522 0.000000
# 6 0.000000 0.000000 0.000000 0.000000 0.000000 0.038218
#
#
# Mechanical properties :
#
#
# Convention : Reuss Voigt Hill
#
# Bulk Modulus (GPa) = 58.12248 64.58084 61.35166
# Shear Modulus (GPa) = 23.39152 24.01026 23.70089
#
# Velocity S-wave (km/s) = 3.56529 3.61214 3.58879
# Velocity P-wave (km/s) = 6.96657 7.24506 7.10718
#
# Compressibility (1/GPa) = 0.01720505
#
# Stress axis : x y z
#
# Youngs Moduli (GPa) = 52.69065 52.69436 76.78772
#
# Poissons Ratio (x) = 0.24322 0.47117
# Poissons Ratio (y) = 0.24320 0.47111
# Poissons Ratio (z) = 0.32331 0.32329
#
# Static dielectric constant tensor:
#      x y z
#    x 3.643760 0.000000 0.000000 
#    y 0.000000 3.643770 0.000000 
#    z 0.000000 0.000000 3.415050 
# 
# 
# High freq. dielectric constant tensor:
#      x y z
#    x 1.714050 0.000000 0.000000 
#    y 0.000000 1.714050 0.000000 
#    z 0.000000 0.000000 1.712180 
# 
# From -- ./inp_files/2721.got.cif
#   From: 2010.03.12/outbox.cif.g09.slc.cpg/sg113_cif.got.tgz:2721.got - 2010.04.14 02:06:34.
