data_PCOD8308289
_publ_section_title
;
Structure prediction by ZEFSAII (Michael W. Deem and Ramdas Pophale) SiO2 
 PCOD8308289
Probable space group: P -4 2 M 
;
_chemical_formula_sum "Si O2"
_cell_formula_units_Z 40
_cell_length_a 17.988776
_cell_length_b 17.988776
_cell_length_c 9.513172
_cell_angle_alpha 90.000000
_cell_angle_beta 90.000000
_cell_angle_gamma 90.000000
_cell_volume 3078.424996
_symmetry_space_group_name_H-M "P -4 2 M "
_symmetry_group_IT_number 111
_symmetry_cell_setting 'tetragonal'
loop_
_space_group_symop_operation_xyz
x,y,z
y,-x,-z
-x,-y,z
-y,x,-z
x,-y,-z
-x,y,-z
-y,-x,z
y,x,z
loop_
_atom_site_type_symbol
_atom_site_label
_atom_site_fract_x
_atom_site_fract_y
_atom_site_fract_z
Si Si1 0.582941 0.700462 0.332472
Si Si2 0.588263 0.135019 0.656525
Si Si3 0.299539 0.582941 0.332472
Si Si4 1.000000 0.411213 0.158299
Si Si5 0.864981 0.411737 0.343475
O O1 0.639547 0.639547 0.269220
O O2 0.610203 0.782877 0.287096
O O3 0.581346 0.696864 0.500000
O O4 0.500000 0.683839 0.273972
O O5 0.500000 0.129796 0.647998
O O6 0.621009 0.120920 0.500000
O O7 0.619955 0.073041 0.762506
O O8 0.360454 0.639547 0.269220
O O9 0.217124 0.610203 0.287096
O O10 0.926959 0.380045 0.237493
O O11 0.000000 0.500000 0.158132
O O12 0.000000 0.379991 0.000000
#
# Coordination Sequence:
#
# PCOD8308289 Si02
#       5
#     8   8   8   8   8
#     4   8  13  20  30  45  64  86 113 143 171 197
#     4   8  13  21  32  45  62  83 104 127 159 198
#     4   8  13  20  30  45  64  86 113 143 171 197
#     4   9  15  21  31  47  63  77  97 128 163 198
#     4   8  13  21  32  45  62  83 104 127 159 198
#
# _framework density 12.993657000000001
#
# number of rings (size 3 to 8) (size 9 to 14) (size 15 to 20)
#    0.000    3.800    0.000    3.000    0.000    2.800 
#    0.000    2.000    0.000    1.200    0.000    0.000 
#    0.000    0.000    0.000   15.600    0.000   17.000 
#
# Total GULP energy -495597.987387 kJ/mol
# GULP energy per Si atom -12389.949685 kJ/mol
# Density = 1.296408 g / cm^3
# Si number density = 12.993657 Si / 1000 Ang^3
#
#
#
# Elastic Constant Matrix: (Units=GPa)
#
#
# Indices 1 2 3 4 5 6 
#
# 1 77.5577 46.2565 31.8048 0.0000 0.0000 0.0000
# 2 46.2565 77.5583 31.8050 0.0000 0.0000 0.0000
# 3 31.8048 31.8050 54.4566 0.0000 0.0000 0.0000
# 4 0.0000 0.0000 0.0000 4.8087 0.0000 0.0000
# 5 0.0000 0.0000 0.0000 0.0000 4.8087 0.0000
# 6 0.0000 0.0000 0.0000 0.0000 0.0000 1.0821
#
#
#
# Elastic Compliance Matrix: (Units=1/GPa)
#
#
# Indices 1 2 3 4 5 6 
#
# 1 0.021743 -0.010204 -0.006739 0.000000 0.000000 0.000000
# 2 -0.010204 0.021743 -0.006739 0.000000 0.000000 0.000000
# 3 -0.006739 -0.006739 0.026235 0.000000 0.000000 0.000000
# 4 0.000000 0.000000 0.000000 0.207957 0.000000 0.000000
# 5 0.000000 0.000000 0.000000 0.000000 0.207957 0.000000
# 6 0.000000 0.000000 0.000000 0.000000 0.000000 0.924162
#
#
# Mechanical properties :
#
#
# Convention : Reuss Voigt Hill
#
# Bulk Modulus (GPa) = 44.73034 47.70057 46.21546
# Shear Modulus (GPa) = 3.41387 8.78698 6.10042
#
# Velocity S-wave (km/s) = 1.62266 2.60330 2.16913
# Velocity P-wave (km/s) = 6.16524 6.76954 6.47444
#
# Compressibility (1/GPa) = 0.02235619
#
# Stress axis : x y z
#
# Youngs Moduli (GPa) = 45.99149 45.99182 38.11684
#
# Poissons Ratio (x) = 0.46931 0.25688
# Poissons Ratio (y) = 0.46931 0.25688
# Poissons Ratio (z) = 0.30994 0.30995
#
# Static dielectric constant tensor:
#      x y z
#    x 2.640810 0.000000 0.000000 
#    y 0.000000 2.640810 0.000000 
#    z 0.000000 0.000000 2.509290 
# 
# 
# High freq. dielectric constant tensor:
#      x y z
#    x 1.463640 0.000000 0.000000 
#    y 0.000000 1.463640 0.000000 
#    z 0.000000 0.000000 1.466150 
# 
# From -- ./inp_files/1682.got.cif
#   From: 2010.03.12/outbox.cif.g09.slc.cpg/sg111_1_cif.got.tgz:1682.got - 2010.04.14 01:59:48.
