data_PCOD8308163
_publ_section_title
;
Structure prediction by ZEFSAII (Michael W. Deem and Ramdas Pophale) SiO2 
 PCOD8308163
Probable space group: P -4 2 M 
;
_chemical_formula_sum "Si O2"
_cell_formula_units_Z 64
_cell_length_a 11.830023
_cell_length_b 11.830023
_cell_length_c 24.173673
_cell_angle_alpha 90.000000
_cell_angle_beta 90.000000
_cell_angle_gamma 90.000000
_cell_volume 3383.092100
_symmetry_space_group_name_H-M "P -4 2 M "
_symmetry_group_IT_number 111
_symmetry_cell_setting 'tetragonal'
loop_
_space_group_symop_operation_xyz
x,y,z
y,-x,-z
-x,-y,z
-y,x,-z
x,-y,-z
-x,y,-z
-y,-x,z
y,x,z
loop_
_atom_site_type_symbol
_atom_site_label
_atom_site_fract_x
_atom_site_fract_y
_atom_site_fract_z
Si Si1 0.871827 0.510496 0.729667
Si Si2 0.313768 0.500925 0.175358
Si Si3 0.184190 0.995856 0.437149
Si Si4 0.248771 0.069345 0.727521
Si Si5 0.253067 0.560898 0.056951
Si Si6 0.819985 0.994535 0.158976
Si Si7 0.735616 0.074816 0.052239
Si Si8 0.878696 0.697939 0.346365
O O1 0.783984 0.486261 0.778767
O O2 0.860656 0.639978 0.708753
O O3 0.854698 0.429598 0.675521
O O4 0.000000 0.500000 0.752814
O O5 0.378605 0.621396 0.182814
O O6 0.400013 0.400013 0.185826
O O7 0.261882 0.486478 0.113271
O O8 0.086006 0.086006 0.427633
O O9 0.291178 0.034719 0.399086
O O10 0.228088 0.000000 0.500000
O O11 0.128819 0.871182 0.423656
O O12 0.138768 0.138768 0.709896
O O13 0.256121 0.046969 0.792804
O O14 0.236215 0.945726 0.701443
O O15 0.339519 0.660482 0.066476
O O16 0.126880 0.609963 0.050230
O O17 0.286798 0.500000 0.000000
O O18 0.868766 0.868766 0.171984
O O19 0.741830 0.991690 0.104841
O O20 0.925521 0.074479 0.147261
O O21 0.825804 0.174197 0.055945
O O22 0.762381 0.000000 0.000000
O O23 0.758903 0.758903 0.357878
#
# Coordination Sequence:
#
# PCOD8308163 Si02
#       8
#     8   8   8   8   8   8   8   8
#     4  10  21  35  49  73 110 143 171 206 262 321
#     4  10  20  37  62  81  95 127 178 229 271 317
#     4   8  14  26  47  77 111 147 189 232 268 306
#     4  10  19  32  51  73 100 138 178 217 256 304
#     4  10  21  38  56  75  96 121 162 219 275 326
#     4   9  17  30  50  74  97 123 163 212 257 306
#     4  10  20  34  51  73 100 131 163 200 251 319
#     4  10  19  31  49  76 110 143 173 216 266 316
#
# _framework density 18.917605999999999
#
# number of rings (size 3 to 8) (size 9 to 14) (size 15 to 20)
#    0.000    2.375    0.000    3.375    0.000    4.750 
#    6.750    0.000    0.000    3.375    0.000    0.000 
#    0.000    0.000    0.000    0.000    0.000  114.125 
#
# Total GULP energy -792899.054649 kJ/mol
# GULP energy per Si atom -12389.047729 kJ/mol
# Density = 1.887455 g / cm^3
# Si number density = 18.917606 Si / 1000 Ang^3
#
#
#
# Elastic Constant Matrix: (Units=GPa)
#
#
# Indices 1 2 3 4 5 6 
#
# 1 62.6231 17.8128 27.9615 0.0000 0.0000 0.0000
# 2 17.8128 62.6225 27.9616 0.0000 0.0000 0.0000
# 3 27.9615 27.9616 110.9299 0.0000 0.0000 0.0000
# 4 0.0000 0.0000 0.0000 19.3101 0.0000 0.0000
# 5 0.0000 0.0000 0.0000 0.0000 19.3101 0.0000
# 6 0.0000 0.0000 0.0000 0.0000 0.0000 7.7294
#
#
#
# Elastic Compliance Matrix: (Units=1/GPa)
#
#
# Indices 1 2 3 4 5 6 
#
# 1 0.018695 -0.003621 -0.003800 0.000000 0.000000 0.000000
# 2 -0.003621 0.018695 -0.003800 0.000000 0.000000 0.000000
# 3 -0.003800 -0.003800 0.010930 0.000000 0.000000 0.000000
# 4 0.000000 0.000000 0.000000 0.051786 0.000000 0.000000
# 5 0.000000 0.000000 0.000000 0.000000 0.051786 0.000000
# 6 0.000000 0.000000 0.000000 0.000000 0.000000 0.129376
#
#
# Mechanical properties :
#
#
# Convention : Reuss Voigt Hill
#
# Bulk Modulus (GPa) = 38.64031 42.62748 40.63389
# Shear Modulus (GPa) = 16.00837 20.09922 18.05379
#
# Velocity S-wave (km/s) = 2.91213 3.26308 3.09259
# Velocity P-wave (km/s) = 5.63713 6.06457 5.85476
#
# Compressibility (1/GPa) = 0.02587971
#
# Stress axis : x y z
#
# Youngs Moduli (GPa) = 53.48988 53.48928 91.48950
#
# Poissons Ratio (x) = 0.19370 0.34762
# Poissons Ratio (y) = 0.19370 0.34763
# Poissons Ratio (z) = 0.20324 0.20324
#
# Static dielectric constant tensor:
#      x y z
#    x 3.490730 0.000000 0.000000 
#    y 0.000000 3.490720 0.000000 
#    z 0.000000 0.000000 3.525540 
# 
# 
# High freq. dielectric constant tensor:
#      x y z
#    x 1.720480 0.000000 0.000000 
#    y 0.000000 1.720480 0.000000 
#    z 0.000000 0.000000 1.724550 
# 
# From -- ./inp_files/4262.got.cif
#   From: 2010.03.12/outbox.cif.g09.slc.cpg/sg111_3_cif.got.tgz:4262.got - 2010.04.14 01:59:48.
