data_PCOD8308776
_publ_section_title
;
Structure prediction by ZEFSAII (Michael W. Deem and Ramdas Pophale) SiO2 
 PCOD8308776
Probable space group: P -4 21 M 
;
_chemical_formula_sum "Si O2"
_cell_formula_units_Z 24
_cell_length_a 11.453501
_cell_length_b 11.453501
_cell_length_c 7.559582
_cell_angle_alpha 90.000000
_cell_angle_beta 90.000000
_cell_angle_gamma 90.000000
_cell_volume 991.686265
_symmetry_space_group_name_H-M "P -4 21 M "
_symmetry_group_IT_number 113
_symmetry_cell_setting 'tetragonal'
loop_
_space_group_symop_operation_xyz
x,y,z
y,-x,-z
-x,-y,z
-y,x,-z
1/2+x,1/2-y,-z
1/2-x,1/2+y,-z
1/2-y,1/2-x,z
1/2+y,1/2+x,z
loop_
_atom_site_type_symbol
_atom_site_label
_atom_site_fract_x
_atom_site_fract_y
_atom_site_fract_z
Si Si1 0.407944 0.907944 0.142052
Si Si2 0.152269 0.988556 0.095426
Si Si3 0.406938 0.906938 0.559024
Si Si4 0.641321 0.549306 0.395629
O O1 0.442988 0.781881 0.071552
O O2 0.409389 0.909389 0.350507
O O3 0.500000 0.000000 0.063934
O O4 0.134230 0.081819 0.251013
O O5 0.120104 0.058597 0.907776
O O6 0.439634 0.778807 0.624951
O O7 0.500000 0.000000 0.636390
O O8 0.601809 0.411294 0.412740
#
# Coordination Sequence:
#
# PCOD8308776 Si02
#       4
#     4   8   4   8
#     4  11  26  47  75 109 152 192 245 316 369 435
#     4  11  25  46  73 109 147 199 246 296 376 450
#     4  11  26  45  77 117 146 188 253 316 369 431
#     4  11  23  43  74 105 146 195 248 304 364 436
#
# _framework density 24.201203
#
# number of rings (size 3 to 8) (size 9 to 14) (size 15 to 20)
#    0.000    1.000    3.333    4.000    7.000    0.000 
#    0.000    3.333    0.000    0.000    0.000    0.000 
#    0.000    0.000    0.000    0.000    0.000    0.000 
#
# Total GULP energy -297318.276711 kJ/mol
# GULP energy per Si atom -12388.261530 kJ/mol
# Density = 2.414612 g / cm^3
# Si number density = 24.201203 Si / 1000 Ang^3
#
#
#
# Elastic Constant Matrix: (Units=GPa)
#
#
# Indices 1 2 3 4 5 6 
#
# 1 222.7282 128.4027 16.1826 0.0000 0.0000 0.0000
# 2 128.4027 222.7281 16.1826 0.0000 0.0000 0.0000
# 3 16.1826 16.1826 49.5169 0.0000 0.0000 0.0000
# 4 0.0000 0.0000 0.0000 30.2684 0.0000 0.0000
# 5 0.0000 0.0000 0.0000 0.0000 30.2684 0.0000
# 6 0.0000 0.0000 0.0000 0.0000 0.0000 33.9371
#
#
#
# Elastic Compliance Matrix: (Units=1/GPa)
#
#
# Indices 1 2 3 4 5 6 
#
# 1 0.006769 -0.003833 -0.000960 0.000000 0.000000 0.000000
# 2 -0.003833 0.006769 -0.000960 0.000000 0.000000 0.000000
# 3 -0.000960 -0.000960 0.020822 0.000000 0.000000 0.000000
# 4 0.000000 0.000000 0.000000 0.033038 0.000000 0.000000
# 5 0.000000 0.000000 0.000000 0.000000 0.033038 0.000000
# 6 0.000000 0.000000 0.000000 0.000000 0.000000 0.029466
#
#
# Mechanical properties :
#
#
# Convention : Reuss Voigt Hill
#
# Bulk Modulus (GPa) = 43.75104 90.72321 67.23712
# Shear Modulus (GPa) = 33.55148 41.17515 37.36331
#
# Velocity S-wave (km/s) = 3.72742 4.12924 3.93346
# Velocity P-wave (km/s) = 6.05328 7.76547 6.96221
#
# Compressibility (1/GPa) = 0.02285660
#
# Stress axis : x y z
#
# Youngs Moduli (GPa) = 147.73242 147.73242 48.02526
#
# Poissons Ratio (x) = 0.56620 0.04609
# Poissons Ratio (y) = 0.56620 0.04609
# Poissons Ratio (z) = 0.14177 0.14177
#
# Static dielectric constant tensor:
#      x y z
#    x 4.432500 0.000000 0.000000 
#    y 0.000000 4.432500 0.000000 
#    z 0.000000 0.000000 5.138470 
# 
# 
# High freq. dielectric constant tensor:
#      x y z
#    x 1.952550 0.000000 0.000000 
#    y 0.000000 1.952550 0.000000 
#    z 0.000000 0.000000 1.990800 
# 
# From -- ./inp_files/715.got.cif
#   From: 2010.03.12/outbox.cif.g09.slc.cpg/sg113_cif.got.tgz:715.got - 2010.04.14 02:06:34.
