data_PCOD8308266
_publ_section_title
;
Structure prediction by ZEFSAII (Michael W. Deem and Ramdas Pophale) SiO2 
 PCOD8308266
Probable space group: P -4 2 M 
;
_chemical_formula_sum "Si O2"
_cell_formula_units_Z 40
_cell_length_a 14.402211
_cell_length_b 14.402211
_cell_length_c 9.403938
_cell_angle_alpha 90.000000
_cell_angle_beta 90.000000
_cell_angle_gamma 90.000000
_cell_volume 1950.599442
_symmetry_space_group_name_H-M "P -4 2 M "
_symmetry_group_IT_number 111
_symmetry_cell_setting 'tetragonal'
loop_
_space_group_symop_operation_xyz
x,y,z
y,-x,-z
-x,-y,z
-y,x,-z
x,-y,-z
-x,y,-z
-y,-x,z
y,x,z
loop_
_atom_site_type_symbol
_atom_site_label
_atom_site_fract_x
_atom_site_fract_y
_atom_site_fract_z
Si Si1 0.230100 0.082281 0.310692
Si Si2 0.830741 0.557731 0.806401
Si Si3 0.096989 0.621600 0.920506
Si Si4 0.495852 0.349311 0.340071
Si Si5 0.878733 0.270757 0.374725
O O1 0.127445 0.127445 0.298871
O O2 0.290685 0.117928 0.178614
O O3 0.279320 0.116194 0.455335
O O4 0.221816 0.970843 0.311189
O O5 0.902863 0.472371 0.825715
O O6 0.731109 0.514583 0.772103
O O7 0.867950 0.625135 0.683045
O O8 0.824510 0.614145 0.955950
O O9 0.000000 0.634064 0.000000
O O10 0.500000 0.308613 0.500000
O O11 0.573431 0.426570 0.322120
O O12 0.394988 0.394988 0.310107
O O13 0.791084 0.208917 0.326748
#
# Coordination Sequence:
#
# PCOD8308266 Si02
#       5
#     8   8   8   8   8
#     4  10  23  42  65  95 132 168 209 271 327 381
#     4  11  22  38  66  89 126 166 210 264 315 377
#     4  11  24  43  61  87 128 170 210 257 324 383
#     4   9  20  39  61  90 128 165 207 262 321 381
#     4  10  22  40  66 100 127 163 217 265 325 393
#
# _framework density 20.506516000000001
#
# number of rings (size 3 to 8) (size 9 to 14) (size 15 to 20)
#    0.000    1.800    2.000    2.400    2.800    2.800 
#    0.000   10.000    0.000    4.800    0.000    0.000 
#    0.000    0.000    0.000    0.000    0.000    0.000 
#
# Total GULP energy -495931.589956 kJ/mol
# GULP energy per Si atom -12398.289749 kJ/mol
# Density = 2.045984 g / cm^3
# Si number density = 20.506516 Si / 1000 Ang^3
#
#
#
# Elastic Constant Matrix: (Units=GPa)
#
#
# Indices 1 2 3 4 5 6 
#
# 1 102.7792 35.3995 53.7849 0.0000 0.0000 0.0000
# 2 35.3995 102.7761 53.7837 0.0000 0.0000 0.0000
# 3 53.7849 53.7837 106.0204 0.0000 0.0000 0.0000
# 4 0.0000 0.0000 0.0000 33.9597 0.0000 0.0000
# 5 0.0000 0.0000 0.0000 0.0000 33.9602 0.0000
# 6 0.0000 0.0000 0.0000 0.0000 0.0000 27.5277
#
#
#
# Elastic Compliance Matrix: (Units=1/GPa)
#
#
# Indices 1 2 3 4 5 6 
#
# 1 0.013401 -0.001440 -0.006068 0.000000 0.000000 0.000000
# 2 -0.001440 0.013401 -0.006068 0.000000 0.000000 0.000000
# 3 -0.006068 -0.006068 0.015588 0.000000 0.000000 0.000000
# 4 0.000000 0.000000 0.000000 0.029447 0.000000 0.000000
# 5 0.000000 0.000000 0.000000 0.000000 0.029446 0.000000
# 6 0.000000 0.000000 0.000000 0.000000 0.000000 0.036327
#
#
# Mechanical properties :
#
#
# Convention : Reuss Voigt Hill
#
# Bulk Modulus (GPa) = 65.62071 66.39022 66.00546
# Shear Modulus (GPa) = 29.43912 30.33001 29.88456
#
# Velocity S-wave (km/s) = 3.79304 3.85000 3.82163
# Velocity P-wave (km/s) = 7.15907 7.22557 7.19240
#
# Compressibility (1/GPa) = 0.01523909
#
# Stress axis : x y z
#
# Youngs Moduli (GPa) = 74.62141 74.61955 64.15013
#
# Poissons Ratio (x) = 0.10749 0.38924
# Poissons Ratio (y) = 0.10749 0.38924
# Poissons Ratio (z) = 0.45278 0.45277
#
# Static dielectric constant tensor:
#      x y z
#    x 3.707910 0.000000 0.000000 
#    y 0.000000 3.707900 0.000000 
#    z 0.000000 0.000000 4.027680 
# 
# 
# High freq. dielectric constant tensor:
#      x y z
#    x 1.795030 0.000000 0.000000 
#    y 0.000000 1.795030 0.000000 
#    z 0.000000 0.000000 1.804940 
# 
# From -- ./inp_files/1548.got.cif
#   From: 2010.03.12/outbox.cif.g09.slc.cpg/sg111_1_cif.got.tgz:1548.got - 2010.04.14 01:59:48.
