data_PCOD8308827
_publ_section_title
;
Structure prediction by ZEFSAII (Michael W. Deem and Ramdas Pophale) SiO2 
 PCOD8308827
Probable space group: P -4 21 C
;
_chemical_formula_sum "Si O2"
_cell_formula_units_Z 40
_cell_length_a 9.756864
_cell_length_b 9.756864
_cell_length_c 23.109842
_cell_angle_alpha 90.000000
_cell_angle_beta 90.000000
_cell_angle_gamma 90.000000
_cell_volume 2199.973650
_symmetry_space_group_name_H-M "P -4 21 C"
_symmetry_group_IT_number 114
_symmetry_cell_setting 'tetragonal'
loop_
_space_group_symop_operation_xyz
x,y,z
y,-x,-z
-x,-y,z
-y,x,-z
1/2+x,1/2-y,1/2-z
1/2-x,1/2+y,1/2-z
1/2-y,1/2-x,1/2+z
1/2+y,1/2+x,1/2+z
loop_
_atom_site_type_symbol
_atom_site_label
_atom_site_fract_x
_atom_site_fract_y
_atom_site_fract_z
Si Si1 0.496100 0.160159 0.189746
Si Si2 0.262649 0.330474 0.376211
Si Si3 0.346672 0.272606 0.624630
Si Si4 0.003353 0.665668 0.179684
Si Si5 0.646012 0.664313 0.499901
O O1 0.612448 0.207124 0.145779
O O2 0.353444 0.207385 0.162315
O O3 0.516757 0.217432 0.254323
O O4 0.500000 0.000000 0.195838
O O5 0.305557 0.490606 0.365070
O O6 0.352145 0.222745 0.340997
O O7 0.262811 0.295407 0.444623
O O8 0.244690 0.393411 0.641235
O O9 0.326146 0.240770 0.556030
O O10 0.000000 0.500000 0.172110
O O11 0.677836 0.510420 0.520984
#
# Coordination Sequence:
#
# PCOD8308827 Si02
#       5
#     8   8   8   8   8
#     4   9  20  35  55  81 111 141 180 223 271 334
#     4  10  19  36  56  81 106 145 182 224 272 316
#     4  10  19  36  56  81 106 145 182 224 272 316
#     4  11  21  35  53  83 113 139 182 227 267 318
#     4   9  16  30  54  80 105 128 184 231 258 306
#
# _framework density 18.182036
#
# number of rings (size 3 to 8) (size 9 to 14) (size 15 to 20)
#    0.000    2.200    2.000    1.800    0.000    0.000 
#    3.600    3.000    0.000    0.000    0.000    0.000 
#    0.000    0.000    0.000    0.000    0.000    0.000 
#
# Total GULP energy -495705.708120 kJ/mol
# GULP energy per Si atom -12392.642703 kJ/mol
# Density = 1.814065 g / cm^3
# Si number density = 18.182036 Si / 1000 Ang^3
#
#
#
# Elastic Constant Matrix: (Units=GPa)
#
#
# Indices 1 2 3 4 5 6 
#
# 1 53.1021 18.5566 27.1743 0.0000 0.0000 0.0000
# 2 18.5566 53.1021 27.1743 0.0000 0.0000 0.0000
# 3 27.1743 27.1743 127.1445 0.0000 0.0000 0.0000
# 4 0.0000 0.0000 0.0000 20.7834 0.0000 0.0000
# 5 0.0000 0.0000 0.0000 0.0000 20.7834 0.0000
# 6 0.0000 0.0000 0.0000 0.0000 0.0000 16.9919
#
#
#
# Elastic Compliance Matrix: (Units=1/GPa)
#
#
# Indices 1 2 3 4 5 6 
#
# 1 0.022801 -0.006146 -0.003560 0.000000 0.000000 0.000000
# 2 -0.006146 0.022801 -0.003560 0.000000 0.000000 0.000000
# 3 -0.003560 -0.003560 0.009387 0.000000 0.000000 0.000000
# 4 0.000000 0.000000 0.000000 0.048115 0.000000 0.000000
# 5 0.000000 0.000000 0.000000 0.000000 0.048115 0.000000
# 6 0.000000 0.000000 0.000000 0.000000 0.000000 0.058851
#
#
# Mechanical properties :
#
#
# Convention : Reuss Voigt Hill
#
# Bulk Modulus (GPa) = 35.13976 42.12882 38.63429
# Shear Modulus (GPa) = 20.31796 22.40797 21.36297
#
# Velocity S-wave (km/s) = 3.34649 3.51440 3.43147
# Velocity P-wave (km/s) = 5.85667 6.29991 6.08233
#
# Compressibility (1/GPa) = 0.02845780
#
# Stress axis : x y z
#
# Youngs Moduli (GPa) = 43.85761 43.85761 106.53446
#
# Poissons Ratio (x) = 0.26956 0.37922
# Poissons Ratio (y) = 0.26956 0.37922
# Poissons Ratio (z) = 0.15612 0.15612
#
# Static dielectric constant tensor:
#      x y z
#    x 3.778700 0.000000 0.000000 
#    y 0.000000 3.778700 0.000000 
#    z 0.000000 0.000000 3.606360 
# 
# 
# High freq. dielectric constant tensor:
#      x y z
#    x 1.682840 0.000000 0.000000 
#    y 0.000000 1.682840 0.000000 
#    z 0.000000 0.000000 1.725580 
# 
# From -- ./inp_files/3348.got.cif
#   From: 2010.03.12/outbox.cif.g09.slc.cpg/sg114_2_cif.got.tgz:3348.got - 2010.04.14 02:08:34.
