data_PCOD8308984
_publ_section_title
;
Structure prediction by ZEFSAII (Michael W. Deem and Ramdas Pophale) SiO2 
 PCOD8308984
Probable space group: P -4 21 C
;
_chemical_formula_sum "Si O2"
_cell_formula_units_Z 48
_cell_length_a 9.255707
_cell_length_b 9.255707
_cell_length_c 27.082034
_cell_angle_alpha 90.000000
_cell_angle_beta 90.000000
_cell_angle_gamma 90.000000
_cell_volume 2320.066724
_symmetry_space_group_name_H-M "P -4 21 C"
_symmetry_group_IT_number 114
_symmetry_cell_setting 'tetragonal'
loop_
_space_group_symop_operation_xyz
x,y,z
y,-x,-z
-x,-y,z
-y,x,-z
1/2+x,1/2-y,1/2-z
1/2-x,1/2+y,1/2-z
1/2-y,1/2-x,1/2+z
1/2+y,1/2+x,1/2+z
loop_
_atom_site_type_symbol
_atom_site_label
_atom_site_fract_x
_atom_site_fract_y
_atom_site_fract_z
Si Si1 0.210605 0.357141 0.552495
Si Si2 0.347813 0.076502 0.214892
Si Si3 0.981794 0.163260 0.595964
Si Si4 0.351228 0.425630 0.207963
Si Si5 0.269843 0.681244 0.553073
Si Si6 0.533403 0.656254 0.622883
O O1 0.187427 0.528455 0.550360
O O2 0.272132 0.290229 0.502769
O O3 0.308914 0.324405 0.600019
O O4 0.061433 0.274892 0.560234
O O5 0.354372 0.252074 0.217773
O O6 0.270866 0.018238 0.165998
O O7 0.500000 0.000000 0.213010
O O8 0.272333 0.008863 0.262581
O O9 0.814865 0.205967 0.588242
O O10 0.039694 0.180534 0.651180
O O11 0.000000 0.000000 0.577328
O O12 0.500000 0.500000 0.224639
O O13 0.426449 0.673424 0.577060
O O14 0.500000 0.500000 0.647048
#
# Coordination Sequence:
#
# PCOD8308984 Si02
#       6
#     8   8   8   8   8   8
#     4  11  22  45  63 100 132 180 229 276 334 400
#     4  12  26  45  75 104 133 180 226 282 347 411
#     4  11  27  45  66  97 142 175 221 279 341 400
#     4  11  26  49  70 101 140 175 226 282 346 418
#     4  11  24  40  70  96 135 182 228 281 331 403
#     4  10  23  42  70  98 138 174 228 276 333 398
#
# _framework density 20.689059
#
# number of rings (size 3 to 8) (size 9 to 14) (size 15 to 20)
#    0.000    1.000    3.333    2.000    9.333    1.333 
#    0.000    0.000    0.000    0.000    0.000    0.000 
#    0.000    0.000    0.000    0.000    0.000    0.000 
#
# Total GULP energy -595119.845755 kJ/mol
# GULP energy per Si atom -12398.330120 kJ/mol
# Density = 2.064197 g / cm^3
# Si number density = 20.689059 Si / 1000 Ang^3
#
#
#
# Elastic Constant Matrix: (Units=GPa)
#
#
# Indices 1 2 3 4 5 6 
#
# 1 114.8187 42.7004 43.1392 0.0000 0.0000 0.0000
# 2 42.7004 114.8187 43.1392 0.0000 0.0000 0.0000
# 3 43.1392 43.1392 68.7181 0.0000 0.0000 0.0000
# 4 0.0000 0.0000 0.0000 35.8626 0.0000 0.0000
# 5 0.0000 0.0000 0.0000 0.0000 35.8626 0.0000
# 6 0.0000 0.0000 0.0000 0.0000 0.0000 38.7527
#
#
#
# Elastic Compliance Matrix: (Units=1/GPa)
#
#
# Indices 1 2 3 4 5 6 
#
# 1 0.011771 -0.002095 -0.006074 0.000000 0.000000 0.000000
# 2 -0.002095 0.011771 -0.006074 0.000000 0.000000 0.000000
# 3 -0.006074 -0.006074 0.022178 0.000000 0.000000 0.000000
# 4 0.000000 0.000000 0.000000 0.027884 0.000000 0.000000
# 5 0.000000 0.000000 0.000000 0.000000 0.027884 0.000000
# 6 0.000000 0.000000 0.000000 0.000000 0.000000 0.025805
#
#
# Mechanical properties :
#
#
# Convention : Reuss Voigt Hill
#
# Bulk Modulus (GPa) = 58.02715 61.81259 59.91987
# Shear Modulus (GPa) = 30.95530 33.38739 32.17134
#
# Velocity S-wave (km/s) = 3.87229 4.02153 3.94762
# Velocity P-wave (km/s) = 6.93549 7.17673 7.05714
#
# Compressibility (1/GPa) = 0.01723331
#
# Stress axis : x y z
#
# Youngs Moduli (GPa) = 84.95676 84.95676 45.08934
#
# Poissons Ratio (x) = 0.17802 0.27387
# Poissons Ratio (y) = 0.17802 0.27387
# Poissons Ratio (z) = 0.51602 0.51602
#
# Static dielectric constant tensor:
#      x y z
#    x 3.982180 0.000000 0.000000 
#    y 0.000000 3.982180 0.000000 
#    z 0.000000 0.000000 3.623060 
# 
# 
# High freq. dielectric constant tensor:
#      x y z
#    x 1.820460 0.000000 0.000000 
#    y 0.000000 1.820460 0.000000 
#    z 0.000000 0.000000 1.817200 
# 
# From -- ./inp_files/3969.got.cif
#   From: 2010.03.12/outbox.cif.g09.slc.cpg/sg114_2_cif.got.tgz:3969.got - 2010.04.14 02:08:34.
