data_PCOD8308736
_publ_section_title
;
Structure prediction by ZEFSAII (Michael W. Deem and Ramdas Pophale) SiO2 
 PCOD8308736
Probable space group: P -4 21 M 
;
_chemical_formula_sum "Si O2"
_cell_formula_units_Z 32
_cell_length_a 10.065749
_cell_length_b 10.065749
_cell_length_c 15.098030
_cell_angle_alpha 90.000000
_cell_angle_beta 90.000000
_cell_angle_gamma 90.000000
_cell_volume 1529.721875
_symmetry_space_group_name_H-M "P -4 21 M "
_symmetry_group_IT_number 113
_symmetry_cell_setting 'tetragonal'
loop_
_space_group_symop_operation_xyz
x,y,z
y,-x,-z
-x,-y,z
-y,x,-z
1/2+x,1/2-y,-z
1/2-x,1/2+y,-z
1/2-y,1/2-x,z
1/2+y,1/2+x,z
loop_
_atom_site_type_symbol
_atom_site_label
_atom_site_fract_x
_atom_site_fract_y
_atom_site_fract_z
Si Si1 0.000375 0.290938 0.024124
Si Si2 0.378727 0.583644 0.862163
Si Si3 0.707087 0.997808 0.295657
Si Si4 0.169141 0.891629 0.465414
O O1 0.097723 0.402278 0.985345
O O2 0.066199 0.229537 0.112915
O O3 0.857534 0.357534 0.047074
O O4 0.984162 0.179202 0.950180
O O5 0.500000 0.500000 0.824992
O O6 0.271927 0.584593 0.784410
O O7 0.607732 0.892269 0.343258
O O8 0.621237 0.121237 0.257336
O O9 0.812656 0.054025 0.365758
O O10 0.285925 0.785925 0.490501
O O11 0.022495 0.824524 0.470876
#
# Coordination Sequence:
#
# PCOD8308736 Si02
#       4
#     8   8   8   8
#     4  11  22  38  60  85 119 162 207 255 307 362
#     4  12  23  37  59  89 121 163 203 259 309 360
#     4  10  22  41  66  94 126 165 208 254 308 379
#     4  10  22  41  69 101 133 169 212 263 322 389
#
# _framework density 20.918834
#
# number of rings (size 3 to 8) (size 9 to 14) (size 15 to 20)
#    0.000    1.250    2.500    3.750    3.500    4.500 
#    0.000    0.000    0.000    0.000    0.000    0.000 
#    0.000    0.000    0.000    0.000    0.000    0.000 
#
# Total GULP energy -396581.548452 kJ/mol
# GULP energy per Si atom -12393.173389 kJ/mol
# Density = 2.087122 g / cm^3
# Si number density = 20.918834 Si / 1000 Ang^3
#
#
#
# Elastic Constant Matrix: (Units=GPa)
#
#
# Indices 1 2 3 4 5 6 
#
# 1 113.6442 54.9185 44.5365 0.0000 0.0000 0.0000
# 2 54.9185 113.6433 44.5365 0.0000 0.0000 0.0000
# 3 44.5365 44.5365 89.1374 0.0000 0.0000 0.0000
# 4 0.0000 0.0000 0.0000 30.5975 0.0000 0.0000
# 5 0.0000 0.0000 0.0000 0.0000 30.5982 0.0000
# 6 0.0000 0.0000 0.0000 0.0000 0.0000 51.6378
#
#
#
# Elastic Compliance Matrix: (Units=1/GPa)
#
#
# Indices 1 2 3 4 5 6 
#
# 1 0.012545 -0.004484 -0.004027 0.000000 0.000000 0.000000
# 2 -0.004484 0.012545 -0.004027 0.000000 0.000000 0.000000
# 3 -0.004027 -0.004027 0.015243 0.000000 0.000000 0.000000
# 4 0.000000 0.000000 0.000000 0.032682 0.000000 0.000000
# 5 0.000000 0.000000 0.000000 0.000000 0.032682 0.000000
# 6 0.000000 0.000000 0.000000 0.000000 0.000000 0.019366
#
#
# Mechanical properties :
#
#
# Convention : Reuss Voigt Hill
#
# Bulk Modulus (GPa) = 65.55300 67.15645 66.35473
# Shear Modulus (GPa) = 32.21139 34.06227 33.13683
#
# Velocity S-wave (km/s) = 3.92832 4.03961 3.98435
# Velocity P-wave (km/s) = 7.20975 7.34377 7.27707
#
# Compressibility (1/GPa) = 0.01525483
#
# Stress axis : x y z
#
# Youngs Moduli (GPa) = 79.71596 79.71514 65.60306
#
# Poissons Ratio (x) = 0.35743 0.26421
# Poissons Ratio (y) = 0.35743 0.26422
# Poissons Ratio (z) = 0.32105 0.32105
#
# Static dielectric constant tensor:
#      x y z
#    x 4.053710 0.000000 0.000000 
#    y 0.000000 4.053710 0.000000 
#    z 0.000000 0.000000 3.364030 
# 
# 
# High freq. dielectric constant tensor:
#      x y z
#    x 1.835120 0.000000 0.000000 
#    y 0.000000 1.835120 0.000000 
#    z 0.000000 0.000000 1.778920 
# 
# From -- ./inp_files/1561.got.cif
#   From: 2010.03.12/outbox.cif.g09.slc.cpg/sg113_cif.got.tgz:1561.got - 2010.04.14 02:06:34.
