data_PCOD8308737
_publ_section_title
;
Structure prediction by ZEFSAII (Michael W. Deem and Ramdas Pophale) SiO2 
 PCOD8308737
Probable space group: P -4 21 M 
;
_chemical_formula_sum "Si O2"
_cell_formula_units_Z 40
_cell_length_a 14.897394
_cell_length_b 14.897394
_cell_length_c 8.973812
_cell_angle_alpha 90.000000
_cell_angle_beta 90.000000
_cell_angle_gamma 90.000000
_cell_volume 1991.579168
_symmetry_space_group_name_H-M "P -4 21 M "
_symmetry_group_IT_number 113
_symmetry_cell_setting 'tetragonal'
loop_
_space_group_symop_operation_xyz
x,y,z
y,-x,-z
-x,-y,z
-y,x,-z
1/2+x,1/2-y,-z
1/2-x,1/2+y,-z
1/2-y,1/2-x,z
1/2+y,1/2+x,z
loop_
_atom_site_type_symbol
_atom_site_label
_atom_site_fract_x
_atom_site_fract_y
_atom_site_fract_z
Si Si1 0.510798 0.706676 0.615500
Si Si2 0.999412 0.645469 0.133088
Si Si3 0.210387 0.855060 0.395810
Si Si4 0.786037 0.051624 0.098701
Si Si5 0.924001 0.071363 0.837453
O O1 0.519208 0.786138 0.734374
O O2 0.609975 0.677531 0.565135
O O3 0.448992 0.735297 0.476552
O O4 0.460425 0.621758 0.686441
O O5 0.916591 0.583410 0.182537
O O6 0.088361 0.588361 0.103927
O O7 0.975749 0.692337 0.975933
O O8 0.278639 0.778639 0.451920
O O9 0.224617 0.868685 0.218308
O O10 0.830562 0.967441 0.186073
O O11 0.853282 0.083509 0.970053
O O12 0.000000 0.000000 0.881103
#
# Coordination Sequence:
#
# PCOD8308737 Si02
#       5
#     8   8   8   8   8
#     4  11  24  39  63  86 126 164 204 253 315 369
#     4  10  22  42  63  84 118 170 217 249 298 369
#     4  12  25  40  60  94 128 162 210 257 314 374
#     4  11  19  35  62  93 123 151 197 263 309 366
#     4  11  18  35  60  92 120 152 191 241 317 382
#
# _framework density 20.084564
#
# number of rings (size 3 to 8) (size 9 to 14) (size 15 to 20)
#    0.000    1.000    4.000    4.200    0.000    0.000 
#    0.000    9.000    0.000    4.800    0.000    0.000 
#    0.000    0.000    0.000    0.000    0.000    0.000 
#
# Total GULP energy -495978.365816 kJ/mol
# GULP energy per Si atom -12399.459145 kJ/mol
# Density = 2.003885 g / cm^3
# Si number density = 20.084564 Si / 1000 Ang^3
#
#
#
# Elastic Constant Matrix: (Units=GPa)
#
#
# Indices 1 2 3 4 5 6 
#
# 1 108.9336 44.2228 31.0003 0.0000 0.0000 0.0000
# 2 44.2228 108.9332 31.0001 0.0000 0.0000 0.0000
# 3 31.0003 31.0001 73.4397 0.0000 0.0000 0.0000
# 4 0.0000 0.0000 0.0000 22.2072 0.0000 0.0000
# 5 0.0000 0.0000 0.0000 0.0000 22.2074 0.0000
# 6 0.0000 0.0000 0.0000 0.0000 0.0000 32.7286
#
#
#
# Elastic Compliance Matrix: (Units=1/GPa)
#
#
# Indices 1 2 3 4 5 6 
#
# 1 0.011664 -0.003789 -0.003324 0.000000 0.000000 0.000000
# 2 -0.003789 0.011664 -0.003324 0.000000 0.000000 0.000000
# 3 -0.003324 -0.003324 0.016423 0.000000 0.000000 0.000000
# 4 0.000000 0.000000 0.000000 0.045030 0.000000 0.000000
# 5 0.000000 0.000000 0.000000 0.000000 0.045030 0.000000
# 6 0.000000 0.000000 0.000000 0.000000 0.000000 0.030554
#
#
# Mechanical properties :
#
#
# Convention : Reuss Voigt Hill
#
# Bulk Modulus (GPa) = 52.97658 55.97255 54.47456
# Shear Modulus (GPa) = 26.66194 27.76753 27.21474
#
# Velocity S-wave (km/s) = 3.64742 3.72227 3.68504
# Velocity P-wave (km/s) = 6.64622 6.81195 6.72960
#
# Compressibility (1/GPa) = 0.01887626
#
# Stress axis : x y z
#
# Youngs Moduli (GPa) = 85.73258 85.73235 60.89030
#
# Poissons Ratio (x) = 0.32486 0.20241
# Poissons Ratio (y) = 0.32486 0.20241
# Poissons Ratio (z) = 0.28499 0.28499
#
# Static dielectric constant tensor:
#      x y z
#    x 3.695310 0.000000 0.000000 
#    y 0.000000 3.695310 0.000000 
#    z 0.000000 0.000000 3.574510 
# 
# 
# High freq. dielectric constant tensor:
#      x y z
#    x 1.781100 0.000000 0.000000 
#    y 0.000000 1.781100 0.000000 
#    z 0.000000 0.000000 1.784290 
# 
# From -- ./inp_files/1023.got.cif
#   From: 2010.03.12/outbox.cif.g09.slc.cpg/sg113_cif.got.tgz:1023.got - 2010.04.14 02:06:34.
