data_PCOD8308479
_publ_section_title
;
Structure prediction by ZEFSAII (Michael W. Deem and Ramdas Pophale) SiO2 
 PCOD8308479
Probable space group: P -4 2 C
;
_chemical_formula_sum "Si O2"
_cell_formula_units_Z 26
_cell_length_a 7.749628
_cell_length_b 7.749628
_cell_length_c 18.763914
_cell_angle_alpha 90.000000
_cell_angle_beta 90.000000
_cell_angle_gamma 90.000000
_cell_volume 1126.899394
_symmetry_space_group_name_H-M "P -4 2 C"
_symmetry_group_IT_number 112
_symmetry_cell_setting 'tetragonal'
loop_
_space_group_symop_operation_xyz
x,y,z
y,-x,-z
-x,-y,z
-y,x,-z
x,-y,1/2-z
-x,y,1/2-z
-y,-x,1/2+z
y,x,1/2+z
loop_
_atom_site_type_symbol
_atom_site_label
_atom_site_fract_x
_atom_site_fract_y
_atom_site_fract_z
Si Si1 0.452276 0.812428 0.060631
Si Si2 0.258067 0.880248 0.638645
Si Si3 0.000000 0.000000 0.750000
Si Si4 0.605542 0.230530 0.899828
O O1 0.250204 0.799560 0.077103
O O2 0.577392 0.684539 0.106735
O O3 0.500000 0.000000 0.085840
O O4 0.485754 0.782480 0.977197
O O5 0.126034 0.873989 0.704863
O O6 0.453135 0.812044 0.657735
O O7 0.253655 0.077746 0.609120
#
# Coordination Sequence:
#
# PCOD8308479 Si02
#       4
#     8   8   2   8
#     4  12  21  40  71 113 148 174 236 320 397 441
#     4  11  25  44  67 102 145 202 241 303 361 447
#     4  12  28  50  68  96 160 212 268 282 342 470
#     4  11  22  41  72 111 141 179 241 320 391 436
#
# _framework density 23.072154999999999
#
# number of rings (size 3 to 8) (size 9 to 14) (size 15 to 20)
#    0.000    0.615    6.154    2.769    0.000    2.462 
#    0.000    6.923    0.000   14.769    0.000    0.000 
#    0.000    0.000    0.000    0.000    0.000    0.000 
#
# Total GULP energy -322091.725978 kJ/mol
# GULP energy per Si atom -12388.143307 kJ/mol
# Density = 2.301964 g / cm^3
# Si number density = 23.072155 Si / 1000 Ang^3
#
#
#
# Elastic Constant Matrix: (Units=GPa)
#
#
# Indices 1 2 3 4 5 6 
#
# 1 121.6682 49.1886 43.9306 0.0000 0.0000 0.0000
# 2 49.1886 121.6682 43.9306 0.0000 0.0000 0.0000
# 3 43.9306 43.9306 74.4498 0.0000 0.0000 0.0000
# 4 0.0000 0.0000 0.0000 22.0282 0.0000 0.0000
# 5 0.0000 0.0000 0.0000 0.0000 22.0282 0.0000
# 6 0.0000 0.0000 0.0000 0.0000 0.0000 47.4095
#
#
#
# Elastic Compliance Matrix: (Units=1/GPa)
#
#
# Indices 1 2 3 4 5 6 
#
# 1 0.011100 -0.002697 -0.004958 0.000000 0.000000 0.000000
# 2 -0.002697 0.011100 -0.004958 0.000000 0.000000 0.000000
# 3 -0.004958 -0.004958 0.019283 0.000000 0.000000 0.000000
# 4 0.000000 0.000000 0.000000 0.045396 0.000000 0.000000
# 5 0.000000 0.000000 0.000000 0.000000 0.045396 0.000000
# 6 0.000000 0.000000 0.000000 0.000000 0.000000 0.021093
#
#
# Mechanical properties :
#
#
# Convention : Reuss Voigt Hill
#
# Bulk Modulus (GPa) = 61.51648 65.76513 63.64080
# Shear Modulus (GPa) = 27.17196 30.34229 28.75712
#
# Velocity S-wave (km/s) = 3.43548 3.63037 3.53427
# Velocity P-wave (km/s) = 6.51592 6.79255 6.65567
#
# Compressibility (1/GPa) = 0.01625581
#
# Stress axis : x y z
#
# Youngs Moduli (GPa) = 90.09225 90.09225 51.85896
#
# Poissons Ratio (x) = 0.24300 0.25712
# Poissons Ratio (y) = 0.24300 0.25712
# Poissons Ratio (z) = 0.44668 0.44668
#
# Static dielectric constant tensor:
#      x y z
#    x 4.491080 0.000000 0.000000 
#    y 0.000000 4.491080 0.000000 
#    z 0.000000 0.000000 3.655360 
# 
# 
# High freq. dielectric constant tensor:
#      x y z
#    x 1.929670 0.000000 0.000000 
#    y 0.000000 1.929670 0.000000 
#    z 0.000000 0.000000 1.848640 
# 
# From -- ./inp_files/3726.got.cif
#   From: 2010.03.12/outbox.cif.g09.slc.cpg/sg112_2_cif.got.tgz:3726.got - 2010.04.14 02:02:48.
