data_PCOD8308780
_publ_section_title
;
Structure prediction by ZEFSAII (Michael W. Deem and Ramdas Pophale) SiO2 
 PCOD8308780
Probable space group: P -4 21 M 
;
_chemical_formula_sum "Si O2"
_cell_formula_units_Z 32
_cell_length_a 11.579336
_cell_length_b 11.579336
_cell_length_c 11.745989
_cell_angle_alpha 90.000000
_cell_angle_beta 90.000000
_cell_angle_gamma 90.000000
_cell_volume 1574.914212
_symmetry_space_group_name_H-M "P -4 21 M "
_symmetry_group_IT_number 113
_symmetry_cell_setting 'tetragonal'
loop_
_space_group_symop_operation_xyz
x,y,z
y,-x,-z
-x,-y,z
-y,x,-z
1/2+x,1/2-y,-z
1/2-x,1/2+y,-z
1/2-y,1/2-x,z
1/2+y,1/2+x,z
loop_
_atom_site_type_symbol
_atom_site_label
_atom_site_fract_x
_atom_site_fract_y
_atom_site_fract_z
Si Si1 0.906650 0.406650 0.892019
Si Si2 0.406423 0.093578 0.377009
Si Si3 0.030924 0.813771 0.483681
Si Si4 0.317486 0.516780 0.021102
Si Si5 0.311922 0.999076 0.750760
O O1 0.899106 0.399106 0.757452
O O2 0.000000 0.500000 0.933568
O O3 0.783677 0.444271 0.938605
O O4 0.282488 0.056065 0.422790
O O5 0.500000 0.000000 0.418909
O O6 0.033348 0.760750 0.358699
O O7 0.907523 0.868079 0.511341
O O8 0.274044 0.478808 0.144987
O O9 0.406972 0.621646 0.036971
O O10 0.397616 0.102385 0.784456
O O11 0.382079 0.882079 0.725478
#
# Coordination Sequence:
#
# PCOD8308780 Si02
#       5
#     4   4   8   8   8
#     4  11  26  45  69  98 139 177 220 277 345 401
#     4  11  26  45  69  98 139 177 220 277 345 401
#     4  11  27  44  69 102 135 176 229 278 338 402
#     4  11  27  44  69 102 135 176 229 278 338 402
#     4  11  24  43  70  99 135 180 230 277 333 405
#
# _framework density 20.318567000000002
#
# number of rings (size 3 to 8) (size 9 to 14) (size 15 to 20)
#    0.000    1.000    2.500    1.500   14.000    2.000 
#    0.000    0.000    0.000    0.000    0.000    0.000 
#    0.000    0.000    0.000    0.000    0.000    0.000 
#
# Total GULP energy -397055.948309 kJ/mol
# GULP energy per Si atom -12407.998385 kJ/mol
# Density = 2.027232 g / cm^3
# Si number density = 20.318567 Si / 1000 Ang^3
#
#
#
# Elastic Constant Matrix: (Units=GPa)
#
#
# Indices 1 2 3 4 5 6 
#
# 1 137.7172 74.4440 32.8683 0.0000 0.0000 0.0000
# 2 74.4440 137.7186 32.8687 0.0000 0.0000 0.0000
# 3 32.8683 32.8687 78.8133 0.0000 0.0000 0.0000
# 4 0.0000 0.0000 0.0000 23.4697 0.0000 0.0000
# 5 0.0000 0.0000 0.0000 0.0000 23.4702 0.0000
# 6 0.0000 0.0000 0.0000 0.0000 0.0000 26.5627
#
#
#
# Elastic Compliance Matrix: (Units=1/GPa)
#
#
# Indices 1 2 3 4 5 6 
#
# 1 0.010609 -0.005196 -0.002257 0.000000 0.000000 0.000000
# 2 -0.005196 0.010609 -0.002257 0.000000 0.000000 0.000000
# 3 -0.002257 -0.002257 0.014571 0.000000 0.000000 0.000000
# 4 0.000000 0.000000 0.000000 0.042608 0.000000 0.000000
# 5 0.000000 0.000000 0.000000 0.000000 0.042607 0.000000
# 6 0.000000 0.000000 0.000000 0.000000 0.000000 0.037647
#
#
# Mechanical properties :
#
#
# Convention : Reuss Voigt Hill
#
# Bulk Modulus (GPa) = 61.09786 70.51236 65.80511
# Shear Modulus (GPa) = 27.24396 28.97174 28.10785
#
# Velocity S-wave (km/s) = 3.66572 3.78017 3.72339
# Velocity P-wave (km/s) = 6.93195 7.33701 7.13735
#
# Compressibility (1/GPa) = 0.01636719
#
# Stress axis : x y z
#
# Youngs Moduli (GPa) = 94.26310 94.26393 68.62919
#
# Poissons Ratio (x) = 0.48977 0.15492
# Poissons Ratio (y) = 0.48977 0.15492
# Poissons Ratio (z) = 0.21279 0.21279
#
# Static dielectric constant tensor:
#      x y z
#    x 3.871410 0.000000 0.000000 
#    y 0.000000 3.871400 0.000000 
#    z 0.000000 0.000000 3.674030 
# 
# 
# High freq. dielectric constant tensor:
#      x y z
#    x 1.809990 0.000000 0.000000 
#    y 0.000000 1.809990 0.000000 
#    z 0.000000 0.000000 1.804420 
# 
# From -- ./inp_files/1581.got.cif
#   From: 2010.03.12/outbox.cif.g09.slc.cpg/sg113_cif.got.tgz:1581.got - 2010.04.14 02:06:34.
