data_PCOD8308313
_publ_section_title
;
Structure prediction by ZEFSAII (Michael W. Deem and Ramdas Pophale) SiO2 
 PCOD8308313
Probable space group: P -4 2 C
;
_chemical_formula_sum "Si O2"
_cell_formula_units_Z 64
_cell_length_a 19.492944
_cell_length_b 19.492944
_cell_length_c 9.681434
_cell_angle_alpha 90.000000
_cell_angle_beta 90.000000
_cell_angle_gamma 90.000000
_cell_volume 3678.701585
_symmetry_space_group_name_H-M "P -4 2 C"
_symmetry_group_IT_number 112
_symmetry_cell_setting 'tetragonal'
loop_
_space_group_symop_operation_xyz
x,y,z
y,-x,-z
-x,-y,z
-y,x,-z
x,-y,1/2-z
-x,y,1/2-z
-y,-x,1/2+z
y,x,1/2+z
loop_
_atom_site_type_symbol
_atom_site_label
_atom_site_fract_x
_atom_site_fract_y
_atom_site_fract_z
Si Si1 0.278148 0.071844 0.039990
Si Si2 0.329442 0.577121 0.912213
Si Si3 0.219714 0.690633 0.594520
Si Si4 0.330632 0.579927 0.593364
Si Si5 0.924095 0.804550 0.271357
Si Si6 0.723922 0.922176 0.509405
Si Si7 0.783380 0.314267 0.916182
Si Si8 0.927862 0.825556 0.778463
O O1 0.329738 0.137322 0.040638
O O2 0.243597 0.072667 0.189058
O O3 0.313507 0.996866 0.013809
O O4 0.219658 0.085554 0.927190
O O5 0.351199 0.586485 0.753378
O O6 0.317423 0.498157 0.950381
O O7 0.258455 0.616201 0.944478
O O8 0.390684 0.606495 0.005024
O O9 0.260796 0.621043 0.561163
O O10 0.140961 0.678292 0.546829
O O11 0.222907 0.708941 0.756516
O O12 0.252485 0.753808 0.509844
O O13 0.872566 0.865214 0.236633
O O14 0.000000 0.834347 0.250000
O O15 0.911244 0.739308 0.171237
O O16 0.798868 0.923368 0.435827
O O17 0.000000 0.864943 0.750000
#
# Coordination Sequence:
#
# PCOD8308313 Si02
#       8
#     8   8   8   8   8   8   8   8
#     4  10  20  31  45  66  91 123 160 204 253 296
#     4   9  19  35  54  79 109 139 168 197 235 283
#     4  10  19  31  51  74  98 128 164 208 249 290
#     4   9  19  35  54  79 109 139 168 197 235 283
#     4  10  20  31  42  60  87 119 158 202 250 304
#     4  10  20  31  45  66  91 123 160 204 253 296
#     4  10  19  31  51  74  98 128 164 208 249 290
#     4  10  18  29  44  62  85 115 156 200 248 302
#
# _framework density 17.397442999999999
#
# number of rings (size 3 to 8) (size 9 to 14) (size 15 to 20)
#    0.000    2.250    1.250    2.250    1.750    1.000 
#    0.000    1.250    0.000    5.250    0.000    3.500 
#    0.000    3.000    0.000    0.000    0.000    0.000 
#
# Total GULP energy -793350.010456 kJ/mol
# GULP energy per Si atom -12396.093913 kJ/mol
# Density = 1.735785 g / cm^3
# Si number density = 17.397443 Si / 1000 Ang^3
#
#
#
# Elastic Constant Matrix: (Units=GPa)
#
#
# Indices 1 2 3 4 5 6 
#
# 1 108.8056 51.2475 29.6231 0.0000 0.0000 0.0000
# 2 51.2475 108.8056 29.6231 0.0000 0.0000 0.0000
# 3 29.6231 29.6231 58.1203 0.0000 0.0000 0.0000
# 4 0.0000 0.0000 0.0000 21.8898 0.0000 0.0000
# 5 0.0000 0.0000 0.0000 0.0000 21.8898 0.0000
# 6 0.0000 0.0000 0.0000 0.0000 0.0000 18.0152
#
#
#
# Elastic Compliance Matrix: (Units=1/GPa)
#
#
# Indices 1 2 3 4 5 6 
#
# 1 0.012537 -0.004836 -0.003925 0.000000 0.000000 0.000000
# 2 -0.004836 0.012537 -0.003925 0.000000 0.000000 0.000000
# 3 -0.003925 -0.003925 0.021207 0.000000 0.000000 0.000000
# 4 0.000000 0.000000 0.000000 0.045683 0.000000 0.000000
# 5 0.000000 0.000000 0.000000 0.000000 0.045683 0.000000
# 6 0.000000 0.000000 0.000000 0.000000 0.000000 0.055509
#
#
# Mechanical properties :
#
#
# Convention : Reuss Voigt Hill
#
# Bulk Modulus (GPa) = 47.82776 55.19102 51.50939
# Shear Modulus (GPa) = 22.17302 23.37480 22.77391
#
# Velocity S-wave (km/s) = 3.57388 3.66946 3.62199
# Velocity P-wave (km/s) = 6.67691 7.05307 6.86756
#
# Compressibility (1/GPa) = 0.02090836
#
# Stress axis : x y z
#
# Youngs Moduli (GPa) = 79.76206 79.76206 47.15483
#
# Poissons Ratio (x) = 0.38577 0.18508
# Poissons Ratio (y) = 0.38577 0.18508
# Poissons Ratio (z) = 0.31307 0.31307
#
# Static dielectric constant tensor:
#      x y z
#    x 3.173900 0.000000 0.000000 
#    y 0.000000 3.173900 0.000000 
#    z 0.000000 0.000000 3.385540 
# 
# 
# High freq. dielectric constant tensor:
#      x y z
#    x 1.648990 0.000000 0.000000 
#    y 0.000000 1.648990 0.000000 
#    z 0.000000 0.000000 1.690280 
# 
# From -- ./inp_files/2758.got.cif
#   From: 2010.03.12/outbox.cif.g09.slc.cpg/sg112_2_cif.got.tgz:2758.got - 2010.04.14 02:02:48.
