data_PCOD8308209
_publ_section_title
;
Structure prediction by ZEFSAII (Michael W. Deem and Ramdas Pophale) SiO2 
 PCOD8308209
Probable space group: P -4 2 M 
;
_chemical_formula_sum "Si O2"
_cell_formula_units_Z 56
_cell_length_a 14.378874
_cell_length_b 14.378874
_cell_length_c 13.783951
_cell_angle_alpha 90.000000
_cell_angle_beta 90.000000
_cell_angle_gamma 90.000000
_cell_volume 2849.859678
_symmetry_space_group_name_H-M "P -4 2 M "
_symmetry_group_IT_number 111
_symmetry_cell_setting 'tetragonal'
loop_
_space_group_symop_operation_xyz
x,y,z
y,-x,-z
-x,-y,z
-y,x,-z
x,-y,-z
-x,y,-z
-y,-x,z
y,x,z
loop_
_atom_site_type_symbol
_atom_site_label
_atom_site_fract_x
_atom_site_fract_y
_atom_site_fract_z
Si Si1 0.723965 0.427476 0.239015
Si Si2 0.746399 0.896806 0.460650
Si Si3 0.396748 0.755611 0.458344
Si Si4 0.799665 0.354929 0.051578
Si Si5 0.206644 0.057068 0.910486
Si Si6 0.388822 0.764257 0.845820
Si Si7 0.747825 0.898491 0.232462
O O1 0.625944 0.374057 0.225241
O O2 0.768461 0.402900 0.342341
O O3 0.799452 0.407788 0.154474
O O4 0.710404 0.537558 0.222997
O O5 0.834196 0.834196 0.494729
O O6 0.651517 0.847482 0.497702
O O7 0.745421 0.908587 0.346636
O O8 0.756145 0.000000 0.500000
O O9 0.500000 0.741908 0.500000
O O10 0.336000 0.664001 0.484917
O O11 0.713240 0.286761 0.055941
O O12 0.895460 0.298457 0.044050
O O13 0.787673 0.421523 0.956660
O O14 0.132950 0.132950 0.873050
O O15 0.233285 0.997320 0.816785
O O16 0.162652 0.000000 0.000000
O O17 0.300550 0.699451 0.852284
O O18 0.353582 0.860139 0.797800
O O19 0.830013 0.830013 0.198248
#
# Coordination Sequence:
#
# PCOD8308209 Si02
#       7
#     8   8   8   8   8   8   8
#     4  10  21  36  59  88 114 148 198 242 287 347
#     4  10  23  41  62  86 119 159 203 253 304 356
#     4  10  22  41  63  90 121 157 201 254 309 359
#     4   9  19  35  55  81 116 156 188 226 287 350
#     4  11  21  35  58  86 118 152 193 240 289 348
#     4  10  19  36  59  82 120 158 186 231 292 355
#     4  10  21  37  57  85 115 153 195 236 295 353
#
# _framework density 19.650089000000001
#
# number of rings (size 3 to 8) (size 9 to 14) (size 15 to 20)
#    0.000    2.000    1.429    1.714    2.000    4.143 
#    0.000    3.571    0.000    2.571    0.000    0.000 
#    0.000    0.000    0.000    0.000    0.000    0.000 
#
# Total GULP energy -694094.480430 kJ/mol
# GULP energy per Si atom -12394.544293 kJ/mol
# Density = 1.960536 g / cm^3
# Si number density = 19.650089 Si / 1000 Ang^3
#
#
#
# Elastic Constant Matrix: (Units=GPa)
#
#
# Indices 1 2 3 4 5 6 
#
# 1 83.4405 43.9103 41.7619 0.0000 0.0000 0.0000
# 2 43.9103 83.4446 41.7623 0.0000 0.0000 0.0000
# 3 41.7619 41.7623 95.9154 0.0000 0.0000 0.0000
# 4 0.0000 0.0000 0.0000 33.1206 0.0000 0.0000
# 5 0.0000 0.0000 0.0000 0.0000 33.1211 0.0000
# 6 0.0000 0.0000 0.0000 0.0000 0.0000 22.8696
#
#
#
# Elastic Compliance Matrix: (Units=1/GPa)
#
#
# Indices 1 2 3 4 5 6 
#
# 1 0.018144 -0.007153 -0.004786 0.000000 0.000000 0.000000
# 2 -0.007153 0.018143 -0.004785 0.000000 0.000000 0.000000
# 3 -0.004786 -0.004785 0.014593 0.000000 0.000000 0.000000
# 4 0.000000 0.000000 0.000000 0.030193 0.000000 0.000000
# 5 0.000000 0.000000 0.000000 0.000000 0.030192 0.000000
# 6 0.000000 0.000000 0.000000 0.000000 0.000000 0.043726
#
#
# Mechanical properties :
#
#
# Convention : Reuss Voigt Hill
#
# Bulk Modulus (GPa) = 57.36312 57.51883 57.44098
# Shear Modulus (GPa) = 25.74022 26.84663 26.29343
#
# Velocity S-wave (km/s) = 3.62322 3.70027 3.66195
# Velocity P-wave (km/s) = 6.83808 6.89863 6.86842
#
# Compressibility (1/GPa) = 0.01743280
#
# Stress axis : x y z
#
# Youngs Moduli (GPa) = 55.11530 55.11845 68.52576
#
# Poissons Ratio (x) = 0.39424 0.32794
# Poissons Ratio (y) = 0.39421 0.32791
# Poissons Ratio (z) = 0.26376 0.26376
#
# Static dielectric constant tensor:
#      x y z
#    x 3.538650 0.000000 0.000000 
#    y 0.000000 3.538650 0.000000 
#    z 0.000000 0.000000 3.819720 
# 
# 
# High freq. dielectric constant tensor:
#      x y z
#    x 1.755500 0.000000 0.000000 
#    y 0.000000 1.755500 0.000000 
#    z 0.000000 0.000000 1.782070 
# 
# From -- ./inp_files/2796.got.cif
#   From: 2010.03.12/outbox.cif.g09.slc.cpg/sg111_2_cif.got.tgz:2796.got - 2010.04.14 01:59:48.
