data_PCOD8308408
_publ_section_title
;
Structure prediction by ZEFSAII (Michael W. Deem and Ramdas Pophale) SiO2 
 PCOD8308408
Probable space group: P -4 2 C
;
_chemical_formula_sum "Si O2"
_cell_formula_units_Z 48
_cell_length_a 8.867634
_cell_length_b 8.867634
_cell_length_c 29.019703
_cell_angle_alpha 90.000000
_cell_angle_beta 90.000000
_cell_angle_gamma 90.000000
_cell_volume 2281.962394
_symmetry_space_group_name_H-M "P -4 2 C"
_symmetry_group_IT_number 112
_symmetry_cell_setting 'tetragonal'
loop_
_space_group_symop_operation_xyz
x,y,z
y,-x,-z
-x,-y,z
-y,x,-z
x,-y,1/2-z
-x,y,1/2-z
-y,-x,1/2+z
y,x,1/2+z
loop_
_atom_site_type_symbol
_atom_site_label
_atom_site_fract_x
_atom_site_fract_y
_atom_site_fract_z
Si Si1 0.660633 0.424753 0.885705
Si Si2 0.782920 0.048664 0.519746
Si Si3 0.273346 0.443579 0.515444
Si Si4 0.930874 0.836623 0.203147
Si Si5 0.662938 0.068895 0.887547
Si Si6 0.571846 0.162469 0.295894
O O1 0.500000 0.500000 0.886906
O O2 0.751616 0.482267 0.930741
O O3 0.647648 0.246686 0.887954
O O4 0.742081 0.480448 0.839753
O O5 0.622095 0.119338 0.505514
O O6 0.913460 0.175931 0.515692
O O7 0.773870 0.987125 0.571766
O O8 0.318504 0.592468 0.487197
O O9 0.983174 0.731731 0.161111
O O10 0.751330 0.848795 0.208180
O O11 0.000000 0.766425 0.250000
O O12 0.000000 0.000000 0.194296
O O13 0.500000 0.000000 0.894205
O O14 0.500000 0.238509 0.250000
O O15 0.500000 0.000000 0.302248
#
# Coordination Sequence:
#
# PCOD8308408 Si02
#       6
#     8   8   8   8   8   8
#     4  11  23  43  64  91 128 168 215 260 325 382
#     4  11  25  42  63  92 131 170 213 274 322 386
#     4  11  22  42  64  91 129 173 215 270 322 389
#     4  10  22  41  68  95 130 170 209 268 333 389
#     4  11  25  43  65  95 129 170 221 270 322 390
#     4  10  22  42  64  95 130 161 215 264 318 392
#
# _framework density 21.03453
#
# number of rings (size 3 to 8) (size 9 to 14) (size 15 to 20)
#    0.000    1.333    3.333    3.000    2.333    3.333 
#    3.000    3.333    0.000    0.000    0.000    0.000 
#    0.000    0.000    0.000    0.000    0.000    0.000 
#
# Total GULP energy -595283.732906 kJ/mol
# GULP energy per Si atom -12401.744436 kJ/mol
# Density = 2.098665 g / cm^3
# Si number density = 21.034530 Si / 1000 Ang^3
#
#
#
# Elastic Constant Matrix: (Units=GPa)
#
#
# Indices 1 2 3 4 5 6 
#
# 1 63.6819 28.5922 50.2251 0.0000 0.0000 0.0000
# 2 28.5922 63.6819 50.2251 0.0000 0.0000 0.0000
# 3 50.2251 50.2251 187.1157 0.0000 0.0000 0.0000
# 4 0.0000 0.0000 0.0000 39.6914 0.0000 0.0000
# 5 0.0000 0.0000 0.0000 0.0000 39.6914 0.0000
# 6 0.0000 0.0000 0.0000 0.0000 0.0000 42.5801
#
#
#
# Elastic Compliance Matrix: (Units=1/GPa)
#
#
# Indices 1 2 3 4 5 6 
#
# 1 0.021905 -0.006594 -0.004110 0.000000 0.000000 0.000000
# 2 -0.006594 0.021905 -0.004110 0.000000 0.000000 0.000000
# 3 -0.004110 -0.004110 0.007551 0.000000 0.000000 0.000000
# 4 0.000000 0.000000 0.000000 0.025194 0.000000 0.000000
# 5 0.000000 0.000000 0.000000 0.000000 0.025194 0.000000
# 6 0.000000 0.000000 0.000000 0.000000 0.000000 0.023485
#
#
# Mechanical properties :
#
#
# Convention : Reuss Voigt Hill
#
# Bulk Modulus (GPa) = 46.01116 63.61826 54.81471
# Shear Modulus (GPa) = 30.84417 36.75502 33.79960
#
# Velocity S-wave (km/s) = 3.83346 4.18469 4.01292
# Velocity P-wave (km/s) = 6.44325 7.32524 6.89836
#
# Compressibility (1/GPa) = 0.02173386
#
# Stress axis : x y z
#
# Youngs Moduli (GPa) = 45.65203 45.65203 132.44025
#
# Poissons Ratio (x) = 0.30101 0.54430
# Poissons Ratio (y) = 0.30101 0.54430
# Poissons Ratio (z) = 0.18762 0.18762
#
# Static dielectric constant tensor:
#      x y z
#    x 3.793220 0.000000 0.000000 
#    y 0.000000 3.793220 0.000000 
#    z 0.000000 0.000000 4.411550 
# 
# 
# High freq. dielectric constant tensor:
#      x y z
#    x 1.823790 0.000000 0.000000 
#    y 0.000000 1.823790 0.000000 
#    z 0.000000 0.000000 1.840960 
# 
# From -- ./inp_files/6334.got.cif
#   From: 2010.03.12/outbox.cif.g09.slc.cpg/sg112_4_cif.got.tgz:6334.got - 2010.04.14 02:02:48.
