data_PCOD8308212
_publ_section_title
;
Structure prediction by ZEFSAII (Michael W. Deem and Ramdas Pophale) SiO2 
 PCOD8308212
Probable space group: P -4 2 M 
;
_chemical_formula_sum "Si O2"
_cell_formula_units_Z 40
_cell_length_a 13.335508
_cell_length_b 13.335508
_cell_length_c 12.926520
_cell_angle_alpha 90.000000
_cell_angle_beta 90.000000
_cell_angle_gamma 90.000000
_cell_volume 2298.797684
_symmetry_space_group_name_H-M "P -4 2 M "
_symmetry_group_IT_number 111
_symmetry_cell_setting 'tetragonal'
loop_
_space_group_symop_operation_xyz
x,y,z
y,-x,-z
-x,-y,z
-y,x,-z
x,-y,-z
-x,y,-z
-y,-x,z
y,x,z
loop_
_atom_site_type_symbol
_atom_site_label
_atom_site_fract_x
_atom_site_fract_y
_atom_site_fract_z
Si Si1 0.222605 0.618181 0.815820
Si Si2 0.111757 0.618833 0.613641
Si Si3 0.282394 0.116441 0.000000
Si Si4 0.381819 0.222604 0.815820
Si Si5 0.381167 0.111756 0.613641
O O1 0.328383 0.671618 0.839614
O O2 0.184931 0.656624 0.703762
O O3 0.140460 0.650441 0.899843
O O4 0.240703 0.500000 0.820653
O O5 0.152044 0.652499 0.500000
O O6 0.105587 0.500000 0.619162
O O7 0.000000 0.662947 0.630928
O O8 0.179598 0.179598 1.000000
O O9 0.349560 0.140459 0.899844
O O10 0.253447 0.000000 0.000000
O O11 0.328382 0.328382 0.839614
O O12 0.343376 0.184930 0.703762
#
# Coordination Sequence:
#
# PCOD8308212 Si02
#       5
#     8   8   8   8   8
#     4  10  20  32  47  69  97 130 167 203 238 279
#     4   8  14  26  45  67  89 116 154 200 246 286
#     4  10  21  36  54  76  98 120 151 192 240 294
#     4  10  20  32  47  69  97 130 167 203 238 279
#     4   8  14  26  45  67  89 116 154 200 246 286
#
# _framework density 17.400400999999999
#
# number of rings (size 3 to 8) (size 9 to 14) (size 15 to 20)
#    0.000    2.800    0.000    3.000    0.000    4.600 
#    0.000    0.000    0.000    3.600    0.000    5.600 
#    0.000    0.000    0.000   37.200    0.000    2.000 
#
# Total GULP energy -495794.535419 kJ/mol
# GULP energy per Si atom -12394.863385 kJ/mol
# Density = 1.736080 g / cm^3
# Si number density = 17.400401 Si / 1000 Ang^3
#
#
#
# Elastic Constant Matrix: (Units=GPa)
#
#
# Indices 1 2 3 4 5 6 
#
# 1 82.5997 34.7757 40.2921 0.0000 0.0000 0.0000
# 2 34.7757 82.5996 40.2919 0.0000 0.0000 0.0000
# 3 40.2921 40.2919 133.5443 0.0000 0.0000 0.0000
# 4 0.0000 0.0000 0.0000 22.3535 0.0000 0.0000
# 5 0.0000 0.0000 0.0000 0.0000 22.3532 0.0000
# 6 0.0000 0.0000 0.0000 0.0000 0.0000 11.8173
#
#
#
# Elastic Compliance Matrix: (Units=1/GPa)
#
#
# Indices 1 2 3 4 5 6 
#
# 1 0.015828 -0.005082 -0.003242 0.000000 0.000000 0.000000
# 2 -0.005082 0.015828 -0.003242 0.000000 0.000000 0.000000
# 3 -0.003242 -0.003242 0.009444 0.000000 0.000000 0.000000
# 4 0.000000 0.000000 0.000000 0.044736 0.000000 0.000000
# 5 0.000000 0.000000 0.000000 0.000000 0.044736 0.000000
# 6 0.000000 0.000000 0.000000 0.000000 0.000000 0.084622
#
#
# Mechanical properties :
#
#
# Convention : Reuss Voigt Hill
#
# Bulk Modulus (GPa) = 55.65670 58.82921 57.24296
# Shear Modulus (GPa) = 20.46533 23.53039 21.99786
#
# Velocity S-wave (km/s) = 3.43321 3.68134 3.55944
# Velocity P-wave (km/s) = 6.91167 7.20779 7.06128
#
# Compressibility (1/GPa) = 0.01796729
#
# Stress axis : x y z
#
# Youngs Moduli (GPa) = 63.18009 63.18013 105.88188
#
# Poissons Ratio (x) = 0.32110 0.34328
# Poissons Ratio (y) = 0.32110 0.34327
# Poissons Ratio (z) = 0.20483 0.20483
#
# Static dielectric constant tensor:
#      x y z
#    x 2.956890 0.000000 0.000000 
#    y 0.000000 2.956880 0.000000 
#    z 0.000000 0.000000 3.718240 
# 
# 
# High freq. dielectric constant tensor:
#      x y z
#    x 1.646860 0.000000 0.000000 
#    y 0.000000 1.646860 0.000000 
#    z 0.000000 0.000000 1.697240 
# 
# From -- ./inp_files/3201.got.cif
#   From: 2010.03.12/outbox.cif.g09.slc.cpg/sg111_2_cif.got.tgz:3201.got - 2010.04.14 01:59:48.
