data_PCOD8308280
_publ_section_title
;
Structure prediction by ZEFSAII (Michael W. Deem and Ramdas Pophale) SiO2 
 PCOD8308280
Probable space group: P -4 2 M 
;
_chemical_formula_sum "Si O2"
_cell_formula_units_Z 44
_cell_length_a 22.517272
_cell_length_b 22.517272
_cell_length_c 5.232328
_cell_angle_alpha 90.000000
_cell_angle_beta 90.000000
_cell_angle_gamma 90.000000
_cell_volume 2652.934386
_symmetry_space_group_name_H-M "P -4 2 M "
_symmetry_group_IT_number 111
_symmetry_cell_setting 'tetragonal'
loop_
_space_group_symop_operation_xyz
x,y,z
y,-x,-z
-x,-y,z
-y,x,-z
x,-y,-z
-x,y,-z
-y,-x,z
y,x,z
loop_
_atom_site_type_symbol
_atom_site_label
_atom_site_fract_x
_atom_site_fract_y
_atom_site_fract_z
Si Si1 0.281878 0.181790 0.746009
Si Si2 0.723295 0.622944 0.776677
Si Si3 0.134754 0.765299 0.753957
Si Si4 0.039397 0.139039 0.249846
Si Si5 0.677317 0.420603 0.720709
Si Si6 0.500000 0.405226 0.000000
O O1 0.231249 0.231249 0.746542
O O2 0.346164 0.212791 0.747168
O O3 0.276248 0.140902 0.495076
O O4 0.275452 0.140197 0.994548
O O5 0.671569 0.671569 0.777283
O O6 0.713953 0.576086 0.543453
O O7 0.721971 0.585397 0.038410
O O8 0.186011 0.813990 0.753334
O O9 0.070927 0.796863 0.752030
O O10 0.087243 0.087243 0.252040
O O11 0.000000 0.133006 0.500000
O O12 0.000000 0.131981 0.000000
O O13 0.638617 0.361384 0.710553
O O14 0.635258 0.478286 0.763288
O O15 0.445797 0.445797 0.894332
#
# Coordination Sequence:
#
# PCOD8308280 Si02
#       6
#     8   8   8   8   8   4
#     4   9  15  25  42  61  79  97 119 156 214 273
#     4   9  16  26  41  60  79  97 120 163 221 270
#     4   9  17  28  42  60  79 100 129 167 210 257
#     4  11  22  34  46  60  81 111 149 191 225 250
#     4   9  17  28  40  56  77 101 136 180 220 256
#     4   9  18  32  46  58  78 116 162 202 233 252
#
# _framework density 16.585407
#
# number of rings (size 3 to 8) (size 9 to 14) (size 15 to 20)
#    0.000    2.636    0.000    2.727    0.000    9.091 
#    0.000    2.727    0.000    7.636    0.000    0.000 
#    0.000    0.000    0.000    0.000    0.000    0.000 
#
# Total GULP energy -545460.489448 kJ/mol
# GULP energy per Si atom -12396.829306 kJ/mol
# Density = 1.654766 g / cm^3
# Si number density = 16.585407 Si / 1000 Ang^3
#
#
#
# Elastic Constant Matrix: (Units=GPa)
#
#
# Indices 1 2 3 4 5 6 
#
# 1 42.5637 39.9910 27.7052 0.0000 0.0000 0.0000
# 2 39.9910 42.5646 27.7061 0.0000 0.0000 0.0000
# 3 27.7052 27.7061 133.0675 0.0000 0.0000 0.0000
# 4 0.0000 0.0000 0.0000 19.9876 0.0000 0.0000
# 5 0.0000 0.0000 0.0000 0.0000 19.9875 0.0000
# 6 0.0000 0.0000 0.0000 0.0000 0.0000 30.1144
#
#
#
# Elastic Compliance Matrix: (Units=1/GPa)
#
#
# Indices 1 2 3 4 5 6 
#
# 1 0.201359 -0.187276 -0.002931 0.000000 0.000000 0.000000
# 2 -0.187276 0.201356 -0.002933 0.000000 0.000000 0.000000
# 3 -0.002931 -0.002933 0.008736 0.000000 0.000000 0.000000
# 4 0.000000 0.000000 0.000000 0.050031 0.000000 0.000000
# 5 0.000000 0.000000 0.000000 0.000000 0.050031 0.000000
# 6 0.000000 0.000000 0.000000 0.000000 0.000000 0.033207
#
#
# Mechanical properties :
#
#
# Convention : Reuss Voigt Hill
#
# Bulk Modulus (GPa) = 39.72884 45.44449 42.58666
# Shear Modulus (GPa) = 5.32261 22.20412 13.76336
#
# Velocity S-wave (km/s) = 1.79337 3.66290 2.88383
# Velocity P-wave (km/s) = 5.31924 6.73415 6.06808
#
# Compressibility (1/GPa) = 0.02517063
#
# Stress axis : x y z
#
# Youngs Moduli (GPa) = 4.96626 4.96634 114.47141
#
# Poissons Ratio (x) = 0.93008 0.33549
# Poissons Ratio (y) = 0.93006 0.33571
# Poissons Ratio (z) = 0.01456 0.01456
#
# Static dielectric constant tensor:
#      x y z
#    x 2.913110 0.000000 0.000000 
#    y 0.000000 2.913120 0.000000 
#    z 0.000000 0.000000 3.406900 
# 
# 
# High freq. dielectric constant tensor:
#      x y z
#    x 1.596120 0.000000 0.000000 
#    y 0.000000 1.596120 0.000000 
#    z 0.000000 0.000000 1.662720 
# 
# From -- ./inp_files/570.got.cif
#   From: 2010.03.12/outbox.cif.g09.slc.cpg/sg111_1_cif.got.tgz:570.got - 2010.04.14 01:59:48.
