data_PCOD8308010
_publ_section_title
;
Structure prediction by ZEFSAII (Michael W. Deem and Ramdas Pophale) SiO2 
 PCOD8308010
Probable space group: I 41 C D
;
_chemical_formula_sum "Si O2"
_cell_formula_units_Z 64
_cell_length_a 25.047809
_cell_length_b 25.047809
_cell_length_c 5.160224
_cell_angle_alpha 90.000000
_cell_angle_beta 90.000000
_cell_angle_gamma 90.000000
_cell_volume 3237.487052
_symmetry_space_group_name_H-M "I 41 C D"
_symmetry_group_IT_number 110
_symmetry_cell_setting 'tetragonal'
loop_
_space_group_symop_operation_xyz
x,y,z
-y,1/2+x,1/4+z
-x,-y,z
y,1/2-x,1/4+z
-x,y,1/2+z
x,-y,1/2+z
1/2-y,-x,1/4+z
1/2+y,x,1/4+z
1/2+x,1/2+y,1/2+z
1/2-y,x,3/4+z
1/2-x,1/2-y,1/2+z
1/2+y,-x,3/4+z
1/2-x,1/2+y,z
1/2+x,1/2-y,z
-y,1/2-x,3/4+z
y,1/2+x,3/4+z
loop_
_atom_site_type_symbol
_atom_site_label
_atom_site_fract_x
_atom_site_fract_y
_atom_site_fract_z
Si Si1 0.150080 0.314121 0.405580
Si Si2 0.305531 0.020037 0.509563
Si Si3 0.799170 0.642558 0.888639
Si Si4 0.973242 0.311259 0.815510
O O1 0.159711 0.354423 0.646968
O O2 0.164222 0.256406 0.524060
O O3 0.089613 0.320168 0.313571
O O4 0.185238 0.324163 0.146734
O O5 0.293157 0.081885 0.478783
O O6 0.338200 0.007753 0.774250
O O7 0.251699 0.986329 0.576966
O O8 0.999135 0.338827 0.563918
#
# Coordination Sequence:
#
# PCOD8308010 Si02
#       4
#    16  16  16  16
#     4  12  25  39  59  88 128 169 209 238 293 368
#     4  10  19  36  65  82 105 156 208 258 305 323
#     4  12  25  39  59  88 128 169 209 238 293 368
#     4  10  19  36  65  82 105 156 208 258 305 323
#
# _framework density 19.768419999999999
#
# number of rings (size 3 to 8) (size 9 to 14) (size 15 to 20)
#    0.000    1.000    5.000    4.500    7.000    2.000 
#    0.000    0.000    0.000    0.000    0.000    0.000 
#    0.000   70.000    0.000    0.000    0.000    0.000 
#
# Total GULP energy -396503.962127 kJ/mol
# GULP energy per Si atom -12390.748816 kJ/mol
# Density = 1.972343 g / cm^3
# Si number density = 19.768420 Si / 1000 Ang^3
#
#
#
# Elastic Constant Matrix: (Units=GPa)
#
#
# Indices 1 2 3 4 5 6 
#
# 1 71.3106 39.0621 49.6717 0.0000 0.0000 0.0000
# 2 39.0621 71.3106 49.6717 0.0000 0.0000 0.0000
# 3 49.6717 49.6717 223.6380 0.0000 0.0000 0.0000
# 4 0.0000 0.0000 0.0000 36.6579 0.0000 0.0000
# 5 0.0000 0.0000 0.0000 0.0000 36.6579 0.0000
# 6 0.0000 0.0000 0.0000 0.0000 0.0000 3.0783
#
#
#
# Elastic Compliance Matrix: (Units=1/GPa)
#
#
# Indices 1 2 3 4 5 6 
#
# 1 0.021167 -0.009843 -0.002515 0.000000 0.000000 0.000000
# 2 -0.009843 0.021167 -0.002515 0.000000 0.000000 0.000000
# 3 -0.002515 -0.002515 0.005589 0.000000 0.000000 0.000000
# 4 0.000000 0.000000 0.000000 0.027279 0.000000 0.000000
# 5 0.000000 0.000000 0.000000 0.000000 0.027279 0.000000
# 6 0.000000 0.000000 0.000000 0.000000 0.000000 0.324855
#
#
# Mechanical properties :
#
#
# Convention : Reuss Voigt Hill
#
# Bulk Modulus (GPa) = 55.01692 71.45227 63.23459
# Shear Modulus (GPa) = 10.79587 30.46904 20.63245
#
# Velocity S-wave (km/s) = 2.33945 3.93020 3.23415
# Velocity P-wave (km/s) = 5.93199 7.53780 6.78258
#
# Compressibility (1/GPa) = 0.01817623
#
# Stress axis : x y z
#
# Youngs Moduli (GPa) = 47.24415 47.24415 178.92981
#
# Poissons Ratio (x) = 0.46501 0.45004
# Poissons Ratio (y) = 0.46501 0.45004
# Poissons Ratio (z) = 0.11883 0.11883
#
# Static dielectric constant tensor:
#      x y z
#    x 3.300690 0.000000 0.000000 
#    y 0.000000 3.300690 0.000000 
#    z 0.000000 0.000000 5.233890 
# 
# 
# High freq. dielectric constant tensor:
#      x y z
#    x 1.730580 0.000000 0.000000 
#    y 0.000000 1.730580 0.000000 
#    z 0.000000 0.000000 1.825990 
# 
# From -- ./inp_files/79.got.cif
#   From: 2010.03.12/outbox.cif.g09.slc.cpg/sg110_1_cif.got.tgz:79.got - 2010.04.14 01:58:01.
