data_PCOD8308752
_publ_section_title
;
Structure prediction by ZEFSAII (Michael W. Deem and Ramdas Pophale) SiO2 
 PCOD8308752
Probable space group: P -4 21 M 
;
_chemical_formula_sum "Si O2"
_cell_formula_units_Z 48
_cell_length_a 14.618850
_cell_length_b 14.618850
_cell_length_c 11.544101
_cell_angle_alpha 90.000000
_cell_angle_beta 90.000000
_cell_angle_gamma 90.000000
_cell_volume 2467.098775
_symmetry_space_group_name_H-M "P -4 21 M "
_symmetry_group_IT_number 113
_symmetry_cell_setting 'tetragonal'
loop_
_space_group_symop_operation_xyz
x,y,z
y,-x,-z
-x,-y,z
-y,x,-z
1/2+x,1/2-y,-z
1/2-x,1/2+y,-z
1/2-y,1/2-x,z
1/2+y,1/2+x,z
loop_
_atom_site_type_symbol
_atom_site_label
_atom_site_fract_x
_atom_site_fract_y
_atom_site_fract_z
Si Si1 0.664714 0.164714 0.962649
Si Si2 0.813318 0.686683 0.293367
Si Si3 0.837486 0.337486 0.753279
Si Si4 0.433462 0.417272 0.156478
Si Si5 0.504561 0.727782 0.969778
Si Si6 0.047653 0.797753 0.626844
Si Si7 0.785064 0.140930 0.498149
Si Si8 0.316493 0.183508 0.988267
O O1 0.646158 0.146158 0.824373
O O2 0.567600 0.196225 0.015540
O O3 0.740054 0.240054 0.993960
O O4 0.739263 0.760738 0.255090
O O5 0.886776 0.740134 0.376047
O O6 0.927518 0.298458 0.689156
O O7 0.855179 0.355179 0.888797
O O8 0.500000 0.500000 0.128980
O O9 0.330467 0.451078 0.128496
O O10 0.441259 0.384429 0.287726
O O11 0.462302 0.333031 0.076531
O O12 0.596243 0.775522 0.918573
O O13 0.113080 0.818379 0.517355
O O14 0.943670 0.789436 0.587612
O O15 0.721603 0.221603 0.442591
#
# Coordination Sequence:
#
# PCOD8308752 Si02
#       8
#     4   4   4   8   8   8   8   4
#     4  11  20  37  64  89 124 174 207 260 314 374
#     4   7  16  38  60  80 112 157 205 247 314 358
#     4   9  16  36  60  80 112 163 199 243 310 381
#     4  12  22  37  60  96 127 160 210 265 311 383
#     4  12  21  38  63  89 127 164 214 252 315 379
#     4  11  21  38  63  88 124 162 205 263 327 363
#     4   9  21  38  60  92 118 153 210 263 305 373
#     4  11  20  37  63  90 119 173 205 254 314 369
#
# _framework density 19.456052
#
# number of rings (size 3 to 8) (size 9 to 14) (size 15 to 20)
#    0.500    1.000    5.833    2.000    2.333    0.333 
#    1.500    0.417    1.833    5.000    0.000    0.000 
#    0.000    0.000    0.000    0.000    0.000    0.000 
#
# Total GULP energy -594814.512654 kJ/mol
# GULP energy per Si atom -12391.969014 kJ/mol
# Density = 1.941177 g / cm^3
# Si number density = 19.456052 Si / 1000 Ang^3
#
#
#
# Elastic Constant Matrix: (Units=GPa)
#
#
# Indices 1 2 3 4 5 6 
#
# 1 95.7440 46.3388 25.7857 0.0000 0.0000 0.0000
# 2 46.3388 95.7439 25.7852 0.0000 0.0000 0.0000
# 3 25.7857 25.7852 53.4680 0.0000 0.0000 0.0000
# 4 0.0000 0.0000 0.0000 17.9313 0.0000 0.0000
# 5 0.0000 0.0000 0.0000 0.0000 17.9312 0.0000
# 6 0.0000 0.0000 0.0000 0.0000 0.0000 39.6197
#
#
#
# Elastic Compliance Matrix: (Units=1/GPa)
#
#
# Indices 1 2 3 4 5 6 
#
# 1 0.014386 -0.005855 -0.004115 0.000000 0.000000 0.000000
# 2 -0.005855 0.014386 -0.004114 0.000000 0.000000 0.000000
# 3 -0.004115 -0.004114 0.022671 0.000000 0.000000 0.000000
# 4 0.000000 0.000000 0.000000 0.055768 0.000000 0.000000
# 5 0.000000 0.000000 0.000000 0.000000 0.055769 0.000000
# 6 0.000000 0.000000 0.000000 0.000000 0.000000 0.025240
#
#
# Mechanical properties :
#
#
# Convention : Reuss Voigt Hill
#
# Bulk Modulus (GPa) = 42.96155 48.97504 45.96830
# Shear Modulus (GPa) = 22.30686 24.89953 23.60320
#
# Velocity S-wave (km/s) = 3.38971 3.58129 3.48682
# Velocity P-wave (km/s) = 6.11960 6.50597 6.31574
#
# Compressibility (1/GPa) = 0.02327663
#
# Stress axis : x y z
#
# Youngs Moduli (GPa) = 69.51109 69.51140 44.10878
#
# Poissons Ratio (x) = 0.40696 0.18149
# Poissons Ratio (y) = 0.40696 0.18148
# Poissons Ratio (z) = 0.28601 0.28599
#
# Static dielectric constant tensor:
#      x y z
#    x 3.738050 0.000000 0.000000 
#    y 0.000000 3.738060 0.000000 
#    z 0.000000 0.000000 3.409790 
# 
# 
# High freq. dielectric constant tensor:
#      x y z
#    x 1.750640 0.000000 0.000000 
#    y 0.000000 1.750640 0.000000 
#    z 0.000000 0.000000 1.728340 
# 
# From -- ./inp_files/1895.got.cif
#   From: 2010.03.12/outbox.cif.g09.slc.cpg/sg113_cif.got.tgz:1895.got - 2010.04.14 02:06:34.
