data_PCOD8308492
_publ_section_title
;
Structure prediction by ZEFSAII (Michael W. Deem and Ramdas Pophale) SiO2 
 PCOD8308492
Probable space group: P -4 2 C
;
_chemical_formula_sum "Si O2"
_cell_formula_units_Z 36
_cell_length_a 12.093017
_cell_length_b 12.093017
_cell_length_c 9.540947
_cell_angle_alpha 90.000000
_cell_angle_beta 90.000000
_cell_angle_gamma 90.000000
_cell_volume 1395.278204
_symmetry_space_group_name_H-M "P -4 2 C"
_symmetry_group_IT_number 112
_symmetry_cell_setting 'tetragonal'
loop_
_space_group_symop_operation_xyz
x,y,z
y,-x,-z
-x,-y,z
-y,x,-z
x,-y,1/2-z
-x,y,1/2-z
-y,-x,1/2+z
y,x,1/2+z
loop_
_atom_site_type_symbol
_atom_site_label
_atom_site_fract_x
_atom_site_fract_y
_atom_site_fract_z
Si Si1 0.000000 0.500000 0.750000
Si Si2 0.500000 0.177298 0.750000
Si Si3 0.679102 0.827152 0.320589
Si Si4 0.822869 0.850092 0.582094
Si Si5 0.000000 0.000000 0.000000
Si Si6 0.443414 0.666682 0.001931
Si Si7 0.000000 0.331674 0.250000
O O1 0.076540 0.585752 0.661535
O O2 0.555397 0.247704 0.873454
O O3 0.594067 0.098316 0.682768
O O4 0.785139 0.831830 0.422668
O O5 0.733648 0.819881 0.166105
O O6 0.613847 0.715640 0.359469
O O7 0.742538 0.947678 0.630539
O O8 0.947525 0.899244 0.590303
O O9 0.564051 0.629354 0.050282
#
# Coordination Sequence:
#
# PCOD8308492 Si02
#       7
#     2   4   8   8   2   8   4
#     4  12  32  48  84 122 172 208 276 354 424 476
#     4  11  24  49  76 116 158 213 274 339 406 504
#     4  12  29  52  81 119 166 211 278 340 418 492
#     4  12  27  51  80 118 158 220 272 348 401 508
#     4  12  28  50  84 110 172 210 284 326 436 482
#     4  11  27  47  78 113 160 211 268 338 418 489
#     4  11  24  43  82 112 156 209 286 323 414 470
#
# _framework density 25.801307000000001
#
# number of rings (size 3 to 8) (size 9 to 14) (size 15 to 20)
#    0.000    0.444    2.222    4.000    6.222    4.889 
#    0.000    0.000    0.000    1.333    0.000    0.000 
#    0.000    0.000    0.000    0.000    0.000    0.000 
#
# Total GULP energy -446291.637159 kJ/mol
# GULP energy per Si atom -12396.989921 kJ/mol
# Density = 2.574258 g / cm^3
# Si number density = 25.801307 Si / 1000 Ang^3
#
#
#
# Elastic Constant Matrix: (Units=GPa)
#
#
# Indices 1 2 3 4 5 6 
#
# 1 157.0191 79.0468 42.4660 0.0000 0.0000 0.0000
# 2 79.0468 157.0191 42.4660 0.0000 0.0000 0.0000
# 3 42.4660 42.4660 85.9271 0.0000 0.0000 0.0000
# 4 0.0000 0.0000 0.0000 30.9172 0.0000 0.0000
# 5 0.0000 0.0000 0.0000 0.0000 30.9172 0.0000
# 6 0.0000 0.0000 0.0000 0.0000 0.0000 54.3639
#
#
#
# Elastic Compliance Matrix: (Units=1/GPa)
#
#
# Indices 1 2 3 4 5 6 
#
# 1 0.008989 -0.003836 -0.002546 0.000000 0.000000 0.000000
# 2 -0.003836 0.008989 -0.002546 0.000000 0.000000 0.000000
# 3 -0.002546 -0.002546 0.014155 0.000000 0.000000 0.000000
# 4 0.000000 0.000000 0.000000 0.032344 0.000000 0.000000
# 5 0.000000 0.000000 0.000000 0.000000 0.032344 0.000000
# 6 0.000000 0.000000 0.000000 0.000000 0.000000 0.018395
#
#
# Mechanical properties :
#
#
# Convention : Reuss Voigt Hill
#
# Bulk Modulus (GPa) = 70.05800 80.88032 75.46916
# Shear Modulus (GPa) = 36.27628 38.97211 37.62419
#
# Velocity S-wave (km/s) = 3.75372 3.89069 3.82282
# Velocity P-wave (km/s) = 6.78226 7.18323 6.98562
#
# Compressibility (1/GPa) = 0.01427389
#
# Stress axis : x y z
#
# Youngs Moduli (GPa) = 111.25164 111.25164 70.64861
#
# Poissons Ratio (x) = 0.42681 0.17989
# Poissons Ratio (y) = 0.42681 0.17989
# Poissons Ratio (z) = 0.28328 0.28328
#
# Static dielectric constant tensor:
#      x y z
#    x 5.097600 0.000000 0.000000 
#    y 0.000000 5.097600 0.000000 
#    z 0.000000 0.000000 4.116040 
# 
# 
# High freq. dielectric constant tensor:
#      x y z
#    x 2.057340 0.000000 0.000000 
#    y 0.000000 2.057340 0.000000 
#    z 0.000000 0.000000 1.997790 
# 
# From -- ./inp_files/2402.got.cif
#   From: 2010.03.12/outbox.cif.g09.slc.cpg/sg112_2_cif.got.tgz:2402.got - 2010.04.14 02:02:48.
