data_PCOD8308230
_publ_section_title
;
Structure prediction by ZEFSAII (Michael W. Deem and Ramdas Pophale) SiO2 
 PCOD8308230
Probable space group: P -4 2 M 
;
_chemical_formula_sum "Si O2"
_cell_formula_units_Z 48
_cell_length_a 13.842271
_cell_length_b 13.842271
_cell_length_c 13.416977
_cell_angle_alpha 90.000000
_cell_angle_beta 90.000000
_cell_angle_gamma 90.000000
_cell_volume 2570.806387
_symmetry_space_group_name_H-M "P -4 2 M "
_symmetry_group_IT_number 111
_symmetry_cell_setting 'tetragonal'
loop_
_space_group_symop_operation_xyz
x,y,z
y,-x,-z
-x,-y,z
-y,x,-z
x,-y,-z
-x,y,-z
-y,-x,z
y,x,z
loop_
_atom_site_type_symbol
_atom_site_label
_atom_site_fract_x
_atom_site_fract_y
_atom_site_fract_z
Si Si1 0.760009 0.604991 0.542107
Si Si2 0.262895 0.892018 0.567648
Si Si3 0.942407 0.785220 0.698542
Si Si4 0.479555 0.893884 0.883769
Si Si5 0.216048 0.634036 0.237806
Si Si6 0.277257 0.873274 0.787959
O O1 0.747324 0.500000 0.500000
O O2 0.675939 0.675939 0.501612
O O3 0.863640 0.654533 0.513047
O O4 0.748562 0.588510 0.659398
O O5 0.162301 0.837700 0.541771
O O6 0.240313 0.991749 0.411710
O O7 0.306680 0.851583 0.673165
O O8 0.888505 0.888505 0.691574
O O9 0.871328 0.702786 0.732984
O O10 0.026099 0.784654 0.783155
O O11 0.548965 0.814342 0.835487
O O12 0.368313 0.872792 0.861021
O O13 0.500000 0.000000 0.839081
O O14 0.500000 0.891178 0.000000
O O15 0.302617 0.697384 0.188484
O O16 0.208241 0.791760 0.833427
#
# Coordination Sequence:
#
# PCOD8308230 Si02
#       6
#     8   8   8   8   8   8
#     4  10  20  34  53  78 112 153 196 238 279 328
#     4   8  16  30  49  77 111 145 183 225 266 321
#     4   9  17  32  53  80 117 153 183 226 279 334
#     4  11  21  36  58  82 110 143 190 240 287 345
#     4  10  21  36  55  81 115 150 186 233 286 338
#     4   9  18  33  55  83 112 146 187 233 282 336
#
# _framework density 18.671182999999999
#
# number of rings (size 3 to 8) (size 9 to 14) (size 15 to 20)
#    1.000    1.500    1.667    1.000    0.000    2.833 
#    0.000    0.833    0.000    1.500    0.000   10.500 
#    0.000    0.000    0.000    0.000    0.000    0.000 
#
# Total GULP energy -594661.692719 kJ/mol
# GULP energy per Si atom -12388.785265 kJ/mol
# Density = 1.862869 g / cm^3
# Si number density = 18.671183 Si / 1000 Ang^3
#
#
#
# Elastic Constant Matrix: (Units=GPa)
#
#
# Indices 1 2 3 4 5 6 
#
# 1 120.0457 68.0041 32.3711 0.0000 0.0000 0.0000
# 2 68.0041 120.0459 32.3700 0.0000 0.0000 0.0000
# 3 32.3711 32.3700 40.0462 0.0000 0.0000 0.0000
# 4 0.0000 0.0000 0.0000 12.0255 0.0000 0.0000
# 5 0.0000 0.0000 0.0000 0.0000 12.0255 0.0000
# 6 0.0000 0.0000 0.0000 0.0000 0.0000 23.5565
#
#
#
# Elastic Compliance Matrix: (Units=1/GPa)
#
#
# Indices 1 2 3 4 5 6 
#
# 1 0.013292 -0.005924 -0.005956 0.000000 0.000000 0.000000
# 2 -0.005924 0.013292 -0.005956 0.000000 0.000000 0.000000
# 3 -0.005956 -0.005956 0.034600 0.000000 0.000000 0.000000
# 4 0.000000 0.000000 0.000000 0.083157 0.000000 0.000000
# 5 0.000000 0.000000 0.000000 0.000000 0.083157 0.000000
# 6 0.000000 0.000000 0.000000 0.000000 0.000000 0.042451
#
#
# Mechanical properties :
#
#
# Convention : Reuss Voigt Hill
#
# Bulk Modulus (GPa) = 39.19644 60.62537 49.91090
# Shear Modulus (GPa) = 15.91733 19.34767 17.63250
#
# Velocity S-wave (km/s) = 2.92294 3.22255 3.07639
# Velocity P-wave (km/s) = 5.69474 6.81079 6.27762
#
# Compressibility (1/GPa) = 0.02551252
#
# Stress axis : x y z
#
# Youngs Moduli (GPa) = 75.23353 75.23515 28.90182
#
# Poissons Ratio (x) = 0.44566 0.17215
# Poissons Ratio (y) = 0.44565 0.17213
# Poissons Ratio (z) = 0.44812 0.44807
#
# Static dielectric constant tensor:
#      x y z
#    x 3.404490 0.000000 0.000000 
#    y 0.000000 3.404480 0.000000 
#    z 0.000000 0.000000 3.286240 
# 
# 
# High freq. dielectric constant tensor:
#      x y z
#    x 1.719240 0.000000 0.000000 
#    y 0.000000 1.719240 0.000000 
#    z 0.000000 0.000000 1.705680 
# 
# From -- ./inp_files/2683.got.cif
#   From: 2010.03.12/outbox.cif.g09.slc.cpg/sg111_2_cif.got.tgz:2683.got - 2010.04.14 01:59:48.
