data_PCOD8308143
_publ_section_title
;
Structure prediction by ZEFSAII (Michael W. Deem and Ramdas Pophale) SiO2 
 PCOD8308143
Probable space group: P -4 2 M 
;
_chemical_formula_sum "Si O2"
_cell_formula_units_Z 48
_cell_length_a 14.596671
_cell_length_b 14.596671
_cell_length_c 12.906719
_cell_angle_alpha 90.000000
_cell_angle_beta 90.000000
_cell_angle_gamma 90.000000
_cell_volume 2749.941744
_symmetry_space_group_name_H-M "P -4 2 M "
_symmetry_group_IT_number 111
_symmetry_cell_setting 'tetragonal'
loop_
_space_group_symop_operation_xyz
x,y,z
y,-x,-z
-x,-y,z
-y,x,-z
x,-y,-z
-x,y,-z
-y,-x,z
y,x,z
loop_
_atom_site_type_symbol
_atom_site_label
_atom_site_fract_x
_atom_site_fract_y
_atom_site_fract_z
Si Si1 0.225725 0.917293 0.372206
Si Si2 0.106346 0.500013 0.122501
Si Si3 0.317177 0.533324 0.382777
Si Si4 0.204765 0.654268 0.242627
Si Si5 0.621971 0.768530 0.257910
Si Si6 0.882605 0.734230 0.402234
O O1 0.121618 0.878383 0.385438
O O2 0.271749 0.869828 0.274788
O O3 0.283738 0.894898 0.475946
O O4 0.228949 0.024424 0.350122
O O5 0.157694 0.591387 0.157928
O O6 0.167953 0.415865 0.164849
O O7 0.000000 0.500000 0.162058
O O8 0.107966 0.500000 0.000000
O O9 0.301827 0.500000 0.500000
O O10 0.416701 0.583300 0.373349
O O11 0.236615 0.602258 0.347678
O O12 0.307671 0.448463 0.303043
O O13 0.292990 0.707011 0.193552
O O14 0.711465 0.711465 0.219600
O O15 0.643140 0.841891 0.349235
O O16 0.813279 0.813279 0.376760
#
# Coordination Sequence:
#
# PCOD8308143 Si02
#       6
#     8   8   8   8   8   8
#     4   9  16  27  45  68  95 126 156 185 219 263
#     4  10  21  36  53  71  90 115 151 195 239 281
#     4  10  19  30  46  69  97 127 158 190 222 261
#     4   9  18  32  49  69  93 121 153 189 230 274
#     4  10  20  33  49  69  94 123 154 189 230 274
#     4   9  17  28  43  66  96 127 156 185 219 263
#
# _framework density 17.454916000000001
#
# number of rings (size 3 to 8) (size 9 to 14) (size 15 to 20)
#    0.000    2.500    0.000    2.500    0.000    4.833 
#    0.000    1.667    0.000    8.000    0.000    2.333 
#    0.000    0.000    0.000   31.000    0.000    0.333 
#
# Total GULP energy -594696.595628 kJ/mol
# GULP energy per Si atom -12389.512409 kJ/mol
# Density = 1.741519 g / cm^3
# Si number density = 17.454916 Si / 1000 Ang^3
#
#
#
# Elastic Constant Matrix: (Units=GPa)
#
#
# Indices 1 2 3 4 5 6 
#
# 1 80.8727 33.8203 36.0272 0.0000 0.0000 0.0000
# 2 33.8203 80.8739 36.0275 0.0000 0.0000 0.0000
# 3 36.0272 36.0275 64.1820 0.0000 0.0000 0.0000
# 4 0.0000 0.0000 0.0000 20.4130 0.0000 0.0000
# 5 0.0000 0.0000 0.0000 0.0000 20.4130 0.0000
# 6 0.0000 0.0000 0.0000 0.0000 0.0000 5.2514
#
#
#
# Elastic Compliance Matrix: (Units=1/GPa)
#
#
# Indices 1 2 3 4 5 6 
#
# 1 0.017361 -0.003892 -0.007560 0.000000 0.000000 0.000000
# 2 -0.003892 0.017360 -0.007560 0.000000 0.000000 0.000000
# 3 -0.007560 -0.007560 0.024068 0.000000 0.000000 0.000000
# 4 0.000000 0.000000 0.000000 0.048988 0.000000 0.000000
# 5 0.000000 0.000000 0.000000 0.000000 0.048988 0.000000
# 6 0.000000 0.000000 0.000000 0.000000 0.000000 0.190424
#
#
# Mechanical properties :
#
#
# Convention : Reuss Voigt Hill
#
# Bulk Modulus (GPa) = 48.15979 48.63095 48.39537
# Shear Modulus (GPa) = 12.75064 17.21907 14.98485
#
# Velocity S-wave (km/s) = 2.70569 3.14425 2.93318
# Velocity P-wave (km/s) = 6.11652 6.41117 6.26558
#
# Compressibility (1/GPa) = 0.02076421
#
# Stress axis : x y z
#
# Youngs Moduli (GPa) = 57.60136 57.60220 41.54833
#
# Poissons Ratio (x) = 0.22419 0.31412
# Poissons Ratio (y) = 0.22419 0.31412
# Poissons Ratio (z) = 0.43549 0.43549
#
# Static dielectric constant tensor:
#      x y z
#    x 3.476060 0.000000 0.000000 
#    y 0.000000 3.476060 0.000000 
#    z 0.000000 0.000000 2.955620 
# 
# 
# High freq. dielectric constant tensor:
#      x y z
#    x 1.680970 0.000000 0.000000 
#    y 0.000000 1.680970 0.000000 
#    z 0.000000 0.000000 1.638160 
# 
# From -- ./inp_files/2666.got.cif
#   From: 2010.03.12/outbox.cif.g09.slc.cpg/sg111_2_cif.got.tgz:2666.got - 2010.04.14 01:59:48.
