data_PCOD8308921
_publ_section_title
;
Structure prediction by ZEFSAII (Michael W. Deem and Ramdas Pophale) SiO2 
 PCOD8308921
Probable space group: P -4 21 C
;
_chemical_formula_sum "Si O2"
_cell_formula_units_Z 46
_cell_length_a 9.222646
_cell_length_b 9.222646
_cell_length_c 25.975096
_cell_angle_alpha 90.000000
_cell_angle_beta 90.000000
_cell_angle_gamma 90.000000
_cell_volume 2209.368916
_symmetry_space_group_name_H-M "P -4 21 C"
_symmetry_group_IT_number 114
_symmetry_cell_setting 'tetragonal'
loop_
_space_group_symop_operation_xyz
x,y,z
y,-x,-z
-x,-y,z
-y,x,-z
1/2+x,1/2-y,1/2-z
1/2-x,1/2+y,1/2-z
1/2-y,1/2-x,1/2+z
1/2+y,1/2+x,1/2+z
loop_
_atom_site_type_symbol
_atom_site_label
_atom_site_fract_x
_atom_site_fract_y
_atom_site_fract_z
Si Si1 0.275211 0.486334 0.012522
Si Si2 0.553364 0.162824 0.887582
Si Si3 0.500000 0.500000 0.500000
Si Si4 0.849178 0.581220 0.223675
Si Si5 0.500000 0.000000 0.051486
Si Si6 0.419664 0.359349 0.704533
Si Si7 0.882297 0.205365 0.912097
O O1 0.247001 0.545649 0.070957
O O2 0.348166 0.619206 0.982856
O O3 0.127431 0.438625 0.984881
O O4 0.547359 0.233421 0.830674
O O5 0.711292 0.176677 0.913643
O O6 0.500000 0.000000 0.883229
O O7 0.451421 0.370921 0.537940
O O8 0.770840 0.513850 0.272480
O O9 0.862376 0.755746 0.226630
O O10 0.000000 0.500000 0.222016
O O11 0.373146 0.067460 0.086722
O O12 0.500000 0.500000 0.725664
O O13 0.434456 0.355763 0.642927
#
# Coordination Sequence:
#
# PCOD8308921 Si02
#       7
#     8   8   2   8   4   8   8
#     4  11  23  41  62  91 133 175 222 271 335 408
#     4  10  21  42  67  95 131 174 226 278 345 411
#     4  12  24  44  64 100 132 180 236 272 350 400
#     4  10  23  43  71  97 130 177 225 281 344 403
#     4  12  24  42  62  96 134 174 220 286 332 408
#     4  11  23  47  66 100 136 171 227 283 339 412
#     4  11  25  41  69 100 132 178 226 284 346 403
#
# _framework density 20.820423999999999
#
# number of rings (size 3 to 8) (size 9 to 14) (size 15 to 20)
#    0.000    1.217    3.478    2.087    1.217    0.000 
#    9.391    0.000    0.000    0.000    0.000    0.000 
#    0.000    0.000    0.000    0.000    0.000    0.000 
#
# Total GULP energy -570042.067537 kJ/mol
# GULP energy per Si atom -12392.218860 kJ/mol
# Density = 2.077304 g / cm^3
# Si number density = 20.820424 Si / 1000 Ang^3
#
#
#
# Elastic Constant Matrix: (Units=GPa)
#
#
# Indices 1 2 3 4 5 6 
#
# 1 105.1891 42.6673 35.7878 0.0000 0.0000 0.0000
# 2 42.6673 105.1891 35.7878 0.0000 0.0000 0.0000
# 3 35.7878 35.7878 110.7388 0.0000 0.0000 0.0000
# 4 0.0000 0.0000 0.0000 34.9324 0.0000 0.0000
# 5 0.0000 0.0000 0.0000 0.0000 34.9324 0.0000
# 6 0.0000 0.0000 0.0000 0.0000 0.0000 31.0635
#
#
#
# Elastic Compliance Matrix: (Units=1/GPa)
#
#
# Indices 1 2 3 4 5 6 
#
# 1 0.012006 -0.003988 -0.002591 0.000000 0.000000 0.000000
# 2 -0.003988 0.012006 -0.002591 0.000000 0.000000 0.000000
# 3 -0.002591 -0.002591 0.010705 0.000000 0.000000 0.000000
# 4 0.000000 0.000000 0.000000 0.028627 0.000000 0.000000
# 5 0.000000 0.000000 0.000000 0.000000 0.028627 0.000000
# 6 0.000000 0.000000 0.000000 0.000000 0.000000 0.032192
#
#
# Mechanical properties :
#
#
# Convention : Reuss Voigt Hill
#
# Bulk Modulus (GPa) = 61.06522 61.06696 61.06609
# Shear Modulus (GPa) = 33.79236 33.97726 33.88481
#
# Velocity S-wave (km/s) = 4.03307 4.04408 4.03858
# Velocity P-wave (km/s) = 7.14707 7.15543 7.15125
#
# Compressibility (1/GPa) = 0.01637593
#
# Stress axis : x y z
#
# Youngs Moduli (GPa) = 83.29154 83.29154 93.41429
#
# Poissons Ratio (x) = 0.33220 0.24204
# Poissons Ratio (y) = 0.33220 0.24204
# Poissons Ratio (z) = 0.21582 0.21582
#
# Static dielectric constant tensor:
#      x y z
#    x 3.697210 0.000000 0.000000 
#    y 0.000000 3.697210 0.000000 
#    z 0.000000 0.000000 4.038440 
# 
# 
# High freq. dielectric constant tensor:
#      x y z
#    x 1.813800 0.000000 0.000000 
#    y 0.000000 1.813800 0.000000 
#    z 0.000000 0.000000 1.829170 
# 
# From -- ./inp_files/3880.got.cif
#   From: 2010.03.12/outbox.cif.g09.slc.cpg/sg114_2_cif.got.tgz:3880.got - 2010.04.14 02:08:34.
