data_PCOD8308713
_publ_section_title
;
Structure prediction by ZEFSAII (Michael W. Deem and Ramdas Pophale) SiO2 
 PCOD8308713
Probable space group: P -4 21 M 
;
_chemical_formula_sum "Si O2"
_cell_formula_units_Z 56
_cell_length_a 12.134542
_cell_length_b 12.134542
_cell_length_c 20.595639
_cell_angle_alpha 90.000000
_cell_angle_beta 90.000000
_cell_angle_gamma 90.000000
_cell_volume 3032.648312
_symmetry_space_group_name_H-M "P -4 21 M "
_symmetry_group_IT_number 113
_symmetry_cell_setting 'tetragonal'
loop_
_space_group_symop_operation_xyz
x,y,z
y,-x,-z
-x,-y,z
-y,x,-z
1/2+x,1/2-y,-z
1/2-x,1/2+y,-z
1/2-y,1/2-x,z
1/2+y,1/2+x,z
loop_
_atom_site_type_symbol
_atom_site_label
_atom_site_fract_x
_atom_site_fract_y
_atom_site_fract_z
Si Si1 0.674429 0.005029 0.418189
Si Si2 0.037706 0.164093 0.477035
Si Si3 0.820506 0.499244 0.993535
Si Si4 0.648007 0.668309 0.351561
Si Si5 0.481886 0.624689 0.105814
Si Si6 0.676712 0.640465 0.205801
Si Si7 0.066545 0.744309 0.136212
O O1 0.598553 0.901448 0.433725
O O2 0.771770 0.967340 0.369744
O O3 0.604080 0.104080 0.385586
O O4 0.718437 0.046083 0.487902
O O5 0.068688 0.171094 0.401281
O O6 0.913792 0.120439 0.482712
O O7 0.886625 0.613376 0.984127
O O8 0.709276 0.499806 0.952438
O O9 0.896464 0.396464 0.971892
O O10 0.785405 0.487776 0.067651
O O11 0.749167 0.750834 0.356625
O O12 0.636699 0.621575 0.279318
O O13 0.500000 0.500000 0.080146
O O14 0.567961 0.653352 0.162358
O O15 0.357860 0.635549 0.132727
O O16 0.749762 0.750239 0.198268
O O17 0.747423 0.533261 0.186898
O O18 0.148458 0.648458 0.159919
#
# Coordination Sequence:
#
# PCOD8308713 Si02
#       7
#     8   8   8   8   8   8   8
#     4   9  17  31  52  78 108 141 179 225 275 322
#     4   9  17  31  50  81 108 139 175 219 270 318
#     4  10  21  37  59  84 108 139 180 232 283 327
#     4   9  18  34  56  79 107 140 181 221 264 321
#     4  10  22  36  55  83 112 143 181 224 274 330
#     4  10  21  38  59  81 109 152 187 223 274 329
#     4  10  22  38  56  81 112 145 184 229 276 328
#
# _framework density 18.465709
#
# number of rings (size 3 to 8) (size 9 to 14) (size 15 to 20)
#    0.000    2.429    0.000    1.714    4.000    1.429 
#   15.429    2.143    0.000    4.286    0.000    0.000 
#    0.000    0.000    0.000    0.000    0.000    0.000 
#
# Total GULP energy -694330.994447 kJ/mol
# GULP energy per Si atom -12398.767758 kJ/mol
# Density = 1.842368 g / cm^3
# Si number density = 18.465709 Si / 1000 Ang^3
#
#
#
# Elastic Constant Matrix: (Units=GPa)
#
#
# Indices 1 2 3 4 5 6 
#
# 1 92.9517 39.2149 61.6862 0.0000 0.0000 0.0000
# 2 39.2149 92.9501 61.6858 0.0000 0.0000 0.0000
# 3 61.6862 61.6858 124.5763 0.0000 0.0000 0.0000
# 4 0.0000 0.0000 0.0000 26.1268 0.0000 0.0000
# 5 0.0000 0.0000 0.0000 0.0000 26.1270 0.0000
# 6 0.0000 0.0000 0.0000 0.0000 0.0000 22.3196
#
#
#
# Elastic Compliance Matrix: (Units=1/GPa)
#
#
# Indices 1 2 3 4 5 6 
#
# 1 0.016339 -0.002270 -0.006967 0.000000 0.000000 0.000000
# 2 -0.002270 0.016340 -0.006967 0.000000 0.000000 0.000000
# 3 -0.006967 -0.006967 0.014927 0.000000 0.000000 0.000000
# 4 0.000000 0.000000 0.000000 0.038275 0.000000 0.000000
# 5 0.000000 0.000000 0.000000 0.000000 0.038275 0.000000
# 6 0.000000 0.000000 0.000000 0.000000 0.000000 0.044804
#
#
# Mechanical properties :
#
#
# Convention : Reuss Voigt Hill
#
# Bulk Modulus (GPa) = 65.79561 70.62800 68.21180
# Shear Modulus (GPa) = 24.22108 24.77408 24.49758
#
# Velocity S-wave (km/s) = 3.62564 3.66680 3.64628
# Velocity P-wave (km/s) = 7.29627 7.50056 7.39912
#
# Compressibility (1/GPa) = 0.01519858
#
# Stress axis : x y z
#
# Youngs Moduli (GPa) = 61.20215 61.20097 66.99466
#
# Poissons Ratio (x) = 0.13893 0.46673
# Poissons Ratio (y) = 0.13893 0.46674
# Poissons Ratio (z) = 0.42637 0.42637
#
# Static dielectric constant tensor:
#      x y z
#    x 3.575700 0.000000 0.000000 
#    y 0.000000 3.575700 0.000000 
#    z 0.000000 0.000000 3.346560 
# 
# 
# High freq. dielectric constant tensor:
#      x y z
#    x 1.722920 0.000000 0.000000 
#    y 0.000000 1.722920 0.000000 
#    z 0.000000 0.000000 1.697160 
# 
# From -- ./inp_files/2733.got.cif
#   From: 2010.03.12/outbox.cif.g09.slc.cpg/sg113_cif.got.tgz:2733.got - 2010.04.14 02:06:34.
