data_PCOD8308719
_publ_section_title
;
Structure prediction by ZEFSAII (Michael W. Deem and Ramdas Pophale) SiO2 
 PCOD8308719
Probable space group: P -4 21 M 
;
_chemical_formula_sum "Si O2"
_cell_formula_units_Z 32
_cell_length_a 9.735052
_cell_length_b 9.735052
_cell_length_c 16.149877
_cell_angle_alpha 90.000000
_cell_angle_beta 90.000000
_cell_angle_gamma 90.000000
_cell_volume 1530.543828
_symmetry_space_group_name_H-M "P -4 21 M "
_symmetry_group_IT_number 113
_symmetry_cell_setting 'tetragonal'
loop_
_space_group_symop_operation_xyz
x,y,z
y,-x,-z
-x,-y,z
-y,x,-z
1/2+x,1/2-y,-z
1/2-x,1/2+y,-z
1/2-y,1/2-x,z
1/2+y,1/2+x,z
loop_
_atom_site_type_symbol
_atom_site_label
_atom_site_fract_x
_atom_site_fract_y
_atom_site_fract_z
Si Si1 0.820985 0.096253 0.034997
Si Si2 0.908556 0.177807 0.627537
Si Si3 0.501479 0.776878 0.207001
Si Si4 0.507481 0.778261 0.540539
O O1 0.691531 0.191531 0.011591
O O2 0.963782 0.179662 0.025574
O O3 0.813048 0.043716 0.128848
O O4 0.800163 0.300163 0.631930
O O5 0.985805 0.173119 0.715285
O O6 0.834897 0.030466 0.610668
O O7 0.008805 0.209509 0.550140
O O8 0.644215 0.855786 0.186233
O O9 0.386901 0.886901 0.231190
O O10 0.399591 0.899591 0.545910
O O11 0.660836 0.839165 0.555795
#
# Coordination Sequence:
#
# PCOD8308719 Si02
#       4
#     8   8   8   8
#     4  10  21  38  62  92 123 155 193 240 296 357
#     4   9  17  30  50  77 108 143 183 227 274 325
#     4   9  17  32  58  88 114 144 186 233 279 336
#     4   9  17  30  49  74 105 139 177 224 276 327
#
# _framework density 20.907599000000001
#
# number of rings (size 3 to 8) (size 9 to 14) (size 15 to 20)
#    0.000    2.750    0.000    1.500    0.000    5.000 
#    0.000    5.000    0.000   13.500    0.000   15.750 
#    0.000    8.000    0.000    0.000    0.000    0.000 
#
# Total GULP energy -396664.262799 kJ/mol
# GULP energy per Si atom -12395.758212 kJ/mol
# Density = 2.086001 g / cm^3
# Si number density = 20.907599 Si / 1000 Ang^3
#
#
#
# Elastic Constant Matrix: (Units=GPa)
#
#
# Indices 1 2 3 4 5 6 
#
# 1 82.1961 45.7143 74.8812 0.0000 0.0000 0.0000
# 2 45.7143 82.1968 74.8811 0.0000 0.0000 0.0000
# 3 74.8812 74.8811 163.3380 0.0000 0.0000 0.0000
# 4 0.0000 0.0000 0.0000 34.0402 0.0000 0.0000
# 5 0.0000 0.0000 0.0000 0.0000 34.0400 0.0000
# 6 0.0000 0.0000 0.0000 0.0000 0.0000 30.8901
#
#
#
# Elastic Compliance Matrix: (Units=1/GPa)
#
#
# Indices 1 2 3 4 5 6 
#
# 1 0.022144 -0.005267 -0.007737 0.000000 0.000000 0.000000
# 2 -0.005267 0.022144 -0.007737 0.000000 0.000000 0.000000
# 3 -0.007737 -0.007737 0.013216 0.000000 0.000000 0.000000
# 4 0.000000 0.000000 0.000000 0.029377 0.000000 0.000000
# 5 0.000000 0.000000 0.000000 0.000000 0.029377 0.000000
# 6 0.000000 0.000000 0.000000 0.000000 0.000000 0.032373
#
#
# Mechanical properties :
#
#
# Convention : Reuss Voigt Hill
#
# Bulk Modulus (GPa) = 62.41568 79.85380 71.13474
# Shear Modulus (GPa) = 25.58156 28.61100 27.09628
#
# Velocity S-wave (km/s) = 3.50173 3.70327 3.60391
# Velocity P-wave (km/s) = 6.80201 7.52078 7.17041
#
# Compressibility (1/GPa) = 0.01602162
#
# Stress axis : x y z
#
# Youngs Moduli (GPa) = 45.15919 45.15995 75.66454
#
# Poissons Ratio (x) = 0.23786 0.58542
# Poissons Ratio (y) = 0.23785 0.58541
# Poissons Ratio (z) = 0.34940 0.34940
#
# Static dielectric constant tensor:
#      x y z
#    x 3.945510 0.000000 0.000000 
#    y 0.000000 3.945500 0.000000 
#    z 0.000000 0.000000 3.751750 
# 
# 
# High freq. dielectric constant tensor:
#      x y z
#    x 1.820010 0.000000 0.000000 
#    y 0.000000 1.820010 0.000000 
#    z 0.000000 0.000000 1.801270 
# 
# From -- ./inp_files/2112.got.cif
#   From: 2010.03.12/outbox.cif.g09.slc.cpg/sg113_cif.got.tgz:2112.got - 2010.04.14 02:06:34.
