data_PCOD8308447
_publ_section_title
;
Structure prediction by ZEFSAII (Michael W. Deem and Ramdas Pophale) SiO2 
 PCOD8308447
Probable space group: P -4 2 C
;
_chemical_formula_sum "Si O2"
_cell_formula_units_Z 20
_cell_length_a 9.805831
_cell_length_b 9.805831
_cell_length_c 8.646413
_cell_angle_alpha 90.000000
_cell_angle_beta 90.000000
_cell_angle_gamma 90.000000
_cell_volume 831.389976
_symmetry_space_group_name_H-M "P -4 2 C"
_symmetry_group_IT_number 112
_symmetry_cell_setting 'tetragonal'
loop_
_space_group_symop_operation_xyz
x,y,z
y,-x,-z
-x,-y,z
-y,x,-z
x,-y,1/2-z
-x,y,1/2-z
-y,-x,1/2+z
y,x,1/2+z
loop_
_atom_site_type_symbol
_atom_site_label
_atom_site_fract_x
_atom_site_fract_y
_atom_site_fract_z
Si Si1 0.000000 0.000000 0.750000
Si Si2 0.876503 0.738494 0.652415
Si Si3 0.500000 0.500000 0.000000
Si Si4 0.234201 0.615638 0.151259
O O1 0.905499 0.097559 0.858805
O O2 0.737794 0.713258 0.742521
O O3 0.864493 0.672506 0.483178
O O4 0.000000 0.668277 0.750000
O O5 0.538666 0.630910 0.901374
O O6 0.152155 0.500000 0.250000
#
# Coordination Sequence:
#
# PCOD8308447 Si02
#       4
#     2   8   2   8
#     4   8  24  50  82 108 188 198 288 362 450 492
#     4  10  26  46  82 120 160 228 275 363 442 521
#     4  12  26  48  74 108 178 204 270 356 414 508
#     4  12  25  47  80 120 165 223 282 349 437 525
#
# _framework density 24.056097000000001
#
# number of rings (size 3 to 8) (size 9 to 14) (size 15 to 20)
#    1.200    0.000    4.000    0.600    5.600    1.600 
#    0.000    9.000    0.000    0.000    0.000    0.000 
#    0.000    0.000    0.000    0.000    0.000    0.000 
#
# Total GULP energy -247863.617735 kJ/mol
# GULP energy per Si atom -12393.180887 kJ/mol
# Density = 2.400134 g / cm^3
# Si number density = 24.056097 Si / 1000 Ang^3
#
#
#
# Elastic Constant Matrix: (Units=GPa)
#
#
# Indices 1 2 3 4 5 6 
#
# 1 134.2391 16.9160 72.2136 0.0000 0.0000 0.0000
# 2 16.9160 134.2391 72.2136 0.0000 0.0000 0.0000
# 3 72.2136 72.2136 171.3139 0.0000 0.0000 0.0000
# 4 0.0000 0.0000 0.0000 42.3103 0.0000 0.0000
# 5 0.0000 0.0000 0.0000 0.0000 42.3103 0.0000
# 6 0.0000 0.0000 0.0000 0.0000 0.0000 28.1353
#
#
#
# Elastic Compliance Matrix: (Units=1/GPa)
#
#
# Indices 1 2 3 4 5 6 
#
# 1 0.009800 0.001277 -0.004669 0.000000 0.000000 0.000000
# 2 0.001277 0.009800 -0.004669 0.000000 0.000000 0.000000
# 3 -0.004669 -0.004669 0.009774 0.000000 0.000000 0.000000
# 4 0.000000 0.000000 0.000000 0.023635 0.000000 0.000000
# 5 0.000000 0.000000 0.000000 0.000000 0.023635 0.000000
# 6 0.000000 0.000000 0.000000 0.000000 0.000000 0.035543
#
#
# Mechanical properties :
#
#
# Convention : Reuss Voigt Hill
#
# Bulk Modulus (GPa) = 75.46712 84.71984 80.09348
# Shear Modulus (GPa) = 37.67118 41.11445 39.39281
#
# Velocity S-wave (km/s) = 3.96153 4.13862 4.05104
# Velocity P-wave (km/s) = 7.23632 7.62441 7.43290
#
# Compressibility (1/GPa) = 0.01325080
#
# Stress axis : x y z
#
# Youngs Moduli (GPa) = 102.03701 102.03701 102.31456
#
# Poissons Ratio (x) = -0.13029 0.47774
# Poissons Ratio (y) = -0.13029 0.47774
# Poissons Ratio (z) = 0.47645 0.47645
#
# Static dielectric constant tensor:
#      x y z
#    x 4.257530 0.000000 0.000000 
#    y 0.000000 4.257530 0.000000 
#    z 0.000000 0.000000 4.907840 
# 
# 
# High freq. dielectric constant tensor:
#      x y z
#    x 1.952380 0.000000 0.000000 
#    y 0.000000 1.952380 0.000000 
#    z 0.000000 0.000000 1.961470 
# 
# From -- ./inp_files/754.got.cif
#   From: 2010.03.12/outbox.cif.g09.slc.cpg/sg112_1_cif.got.tgz:754.got - 2010.04.14 02:02:48.
