data_PCOD8308943
_publ_section_title
;
Structure prediction by ZEFSAII (Michael W. Deem and Ramdas Pophale) SiO2 
 PCOD8308943
Probable space group: P -4 21 C
;
_chemical_formula_sum "Si O2"
_cell_formula_units_Z 34
_cell_length_a 10.418207
_cell_length_b 10.418207
_cell_length_c 16.322980
_cell_angle_alpha 90.000000
_cell_angle_beta 90.000000
_cell_angle_gamma 90.000000
_cell_volume 1771.680532
_symmetry_space_group_name_H-M "P -4 21 C"
_symmetry_group_IT_number 114
_symmetry_cell_setting 'tetragonal'
loop_
_space_group_symop_operation_xyz
x,y,z
y,-x,-z
-x,-y,z
-y,x,-z
1/2+x,1/2-y,1/2-z
1/2-x,1/2+y,1/2-z
1/2-y,1/2-x,1/2+z
1/2+y,1/2+x,1/2+z
loop_
_atom_site_type_symbol
_atom_site_label
_atom_site_fract_x
_atom_site_fract_y
_atom_site_fract_z
Si Si1 1.000000 0.768816 0.626918
Si Si2 0.351851 0.499999 0.311146
Si Si3 0.763074 0.849358 0.914568
Si Si4 0.500000 0.500000 0.000000
Si Si5 0.849357 0.763076 0.085432
O O1 0.000001 0.834772 0.714698
O O2 0.123823 0.678672 0.621921
O O3 0.876175 0.678674 0.621922
O O4 0.000000 0.874713 0.556259
O O5 0.500000 0.500000 0.332269
O O6 0.293564 0.371230 0.352385
O O7 0.293563 0.628767 0.352386
O O8 0.779481 0.000000 0.929665
O O9 0.776124 0.776124 1.000000
#
# Coordination Sequence:
#
# PCOD8308943 Si02
#       5
#     8   8   8   2   8
#     4  12  23  42  59  91 127 161 202 259 318 357
#     4  10  22  39  66  92 120 159 214 253 308 378
#     4  11  22  39  66  92 121 163 211 257 308 371
#     4  12  24  36  60  84 114 172 192 240 312 400
#     4  11  22  39  66  92 121 163 211 257 308 371
#
# _framework density 19.190818
#
# number of rings (size 3 to 8) (size 9 to 14) (size 15 to 20)
#    0.000    0.941    5.882    2.118    0.000    0.000 
#    0.000    0.000    5.176    0.000    0.000    0.000 
#    0.000    0.000    0.000    0.000    0.000    0.000 
#
# Total GULP energy -421678.284290 kJ/mol
# GULP energy per Si atom -12402.302479 kJ/mol
# Density = 1.914714 g / cm^3
# Si number density = 19.190818 Si / 1000 Ang^3
#
#
#
# Elastic Constant Matrix: (Units=GPa)
#
#
# Indices 1 2 3 4 5 6 
#
# 1 107.5996 30.4392 36.9383 0.0000 0.0000 0.0000
# 2 30.4392 107.5996 36.9383 0.0000 0.0000 0.0000
# 3 36.9383 36.9383 130.1230 0.0000 0.0000 0.0000
# 4 0.0000 0.0000 0.0000 16.2472 0.0000 0.0000
# 5 0.0000 0.0000 0.0000 0.0000 16.2472 0.0000
# 6 0.0000 0.0000 0.0000 0.0000 0.0000 30.4264
#
#
#
# Elastic Compliance Matrix: (Units=1/GPa)
#
#
# Indices 1 2 3 4 5 6 
#
# 1 0.010751 -0.002209 -0.002425 0.000000 0.000000 0.000000
# 2 -0.002209 0.010751 -0.002425 0.000000 0.000000 0.000000
# 3 -0.002425 -0.002425 0.009062 0.000000 0.000000 0.000000
# 4 0.000000 0.000000 0.000000 0.061549 0.000000 0.000000
# 5 0.000000 0.000000 0.000000 0.000000 0.061549 0.000000
# 6 0.000000 0.000000 0.000000 0.000000 0.000000 0.032866
#
#
# Mechanical properties :
#
#
# Convention : Reuss Voigt Hill
#
# Bulk Modulus (GPa) = 60.80330 61.55043 61.17686
# Shear Modulus (GPa) = 24.25681 28.65126 26.45404
#
# Velocity S-wave (km/s) = 3.55911 3.86809 3.71681
# Velocity P-wave (km/s) = 6.97438 7.21747 7.09697
#
# Compressibility (1/GPa) = 0.01644648
#
# Stress axis : x y z
#
# Youngs Moduli (GPa) = 93.01415 93.01415 110.35413
#
# Poissons Ratio (x) = 0.20546 0.26759
# Poissons Ratio (y) = 0.20546 0.26759
# Poissons Ratio (z) = 0.22555 0.22555
#
# Static dielectric constant tensor:
#      x y z
#    x 3.536080 0.000000 0.000000 
#    y 0.000000 3.536080 0.000000 
#    z 0.000000 0.000000 3.515770 
# 
# 
# High freq. dielectric constant tensor:
#      x y z
#    x 1.746290 0.000000 0.000000 
#    y 0.000000 1.746290 0.000000 
#    z 0.000000 0.000000 1.759250 
# 
# From -- ./inp_files/1445.got.cif
#   From: 2010.03.12/outbox.cif.g09.slc.cpg/sg114_1_cif.got.tgz:1445.got - 2010.04.14 02:08:34.
