data_PCOD8308951
_publ_section_title
;
Structure prediction by ZEFSAII (Michael W. Deem and Ramdas Pophale) SiO2 
 PCOD8308951
Probable space group: P -4 21 C
;
_chemical_formula_sum "Si O2"
_cell_formula_units_Z 40
_cell_length_a 8.971510
_cell_length_b 8.971510
_cell_length_c 23.405860
_cell_angle_alpha 90.000000
_cell_angle_beta 90.000000
_cell_angle_gamma 90.000000
_cell_volume 1883.890665
_symmetry_space_group_name_H-M "P -4 21 C"
_symmetry_group_IT_number 114
_symmetry_cell_setting 'tetragonal'
loop_
_space_group_symop_operation_xyz
x,y,z
y,-x,-z
-x,-y,z
-y,x,-z
1/2+x,1/2-y,1/2-z
1/2-x,1/2+y,1/2-z
1/2-y,1/2-x,1/2+z
1/2+y,1/2+x,1/2+z
loop_
_atom_site_type_symbol
_atom_site_label
_atom_site_fract_x
_atom_site_fract_y
_atom_site_fract_z
Si Si1 0.312750 0.582176 0.967132
Si Si2 0.500000 0.000000 0.407236
Si Si3 0.232186 0.057535 0.993418
Si Si4 0.256667 0.998308 0.312544
Si Si5 0.504181 0.298705 0.159643
Si Si6 0.500000 0.000000 0.217090
O O1 0.345217 0.510148 0.906274
O O2 0.447777 0.693166 0.985917
O O3 0.155469 0.668466 0.963031
O O4 0.519394 0.843851 0.441505
O O5 0.643754 0.029743 0.368382
O O6 0.090763 0.165013 0.975982
O O7 0.353467 0.998897 0.255587
O O8 0.166873 0.152317 0.318306
O O9 0.132062 0.871451 0.305709
O O10 0.494617 0.127340 0.170763
#
# Coordination Sequence:
#
# PCOD8308951 Si02
#       6
#     8   4   8   8   8   4
#     4  11  22  39  64  93 122 163 208 248 298 365
#     4  11  22  41  62  82 118 167 206 243 308 370
#     4  11  23  37  56  88 127 163 202 255 312 368
#     4  10  22  41  63  85 118 161 204 252 301 359
#     4  11  22  40  63  92 122 155 206 254 294 358
#     4  11  24  39  62  92 120 157 198 251 314 352
#
# _framework density 21.232655999999999
#
# number of rings (size 3 to 8) (size 9 to 14) (size 15 to 20)
#    0.000    1.200    0.000    8.400    0.000    4.000 
#    0.000    0.000    0.000    9.600    0.000    0.000 
#    0.000    0.000    0.000    0.000    0.000    0.000 
#
# Total GULP energy -495697.741148 kJ/mol
# GULP energy per Si atom -12392.443529 kJ/mol
# Density = 2.118433 g / cm^3
# Si number density = 21.232656 Si / 1000 Ang^3
#
#
#
# Elastic Constant Matrix: (Units=GPa)
#
#
# Indices 1 2 3 4 5 6 
#
# 1 129.6847 48.1629 42.9514 0.0000 0.0000 0.0000
# 2 48.1629 129.6847 42.9514 0.0000 0.0000 0.0000
# 3 42.9514 42.9514 82.5806 0.0000 0.0000 0.0000
# 4 0.0000 0.0000 0.0000 19.8379 0.0000 0.0000
# 5 0.0000 0.0000 0.0000 0.0000 19.8379 0.0000
# 6 0.0000 0.0000 0.0000 0.0000 0.0000 35.5563
#
#
#
# Elastic Compliance Matrix: (Units=1/GPa)
#
#
# Indices 1 2 3 4 5 6 
#
# 1 0.009888 -0.002379 -0.003906 0.000000 0.000000 0.000000
# 2 -0.002379 0.009888 -0.003906 0.000000 0.000000 0.000000
# 3 -0.003906 -0.003906 0.016172 0.000000 0.000000 0.000000
# 4 0.000000 0.000000 0.000000 0.050409 0.000000 0.000000
# 5 0.000000 0.000000 0.000000 0.000000 0.050409 0.000000
# 6 0.000000 0.000000 0.000000 0.000000 0.000000 0.028124
#
#
# Mechanical properties :
#
#
# Convention : Reuss Voigt Hill
#
# Bulk Modulus (GPa) = 64.23430 67.78683 66.01056
# Shear Modulus (GPa) = 26.25234 28.90538 27.57886
#
# Velocity S-wave (km/s) = 3.52008 3.69367 3.60792
# Velocity P-wave (km/s) = 6.84394 7.08421 6.96511
#
# Compressibility (1/GPa) = 0.01556801
#
# Stress axis : x y z
#
# Youngs Moduli (GPa) = 101.13293 101.13293 61.83454
#
# Poissons Ratio (x) = 0.24056 0.24151
# Poissons Ratio (y) = 0.24056 0.24151
# Poissons Ratio (z) = 0.39499 0.39499
#
# Static dielectric constant tensor:
#      x y z
#    x 4.181210 0.000000 0.000000 
#    y 0.000000 4.181210 0.000000 
#    z 0.000000 0.000000 3.426440 
# 
# 
# High freq. dielectric constant tensor:
#      x y z
#    x 1.851180 0.000000 0.000000 
#    y 0.000000 1.851180 0.000000 
#    z 0.000000 0.000000 1.805710 
# 
# From -- ./inp_files/3434.got.cif
#   From: 2010.03.12/outbox.cif.g09.slc.cpg/sg114_2_cif.got.tgz:3434.got - 2010.04.14 02:08:34.
