data_PCOD8308101
_publ_section_title
;
Structure prediction by ZEFSAII (Michael W. Deem and Ramdas Pophale) SiO2 
 PCOD8308101
Probable space group: P -4 2 M 
;
_chemical_formula_sum "Si O2"
_cell_formula_units_Z 64
_cell_length_a 11.916728
_cell_length_b 11.916728
_cell_length_c 31.584508
_cell_angle_alpha 90.000000
_cell_angle_beta 90.000000
_cell_angle_gamma 90.000000
_cell_volume 4485.265643
_symmetry_space_group_name_H-M "P -4 2 M "
_symmetry_group_IT_number 111
_symmetry_cell_setting 'tetragonal'
loop_
_space_group_symop_operation_xyz
x,y,z
y,-x,-z
-x,-y,z
-y,x,-z
x,-y,-z
-x,y,-z
-y,-x,z
y,x,z
loop_
_atom_site_type_symbol
_atom_site_label
_atom_site_fract_x
_atom_site_fract_y
_atom_site_fract_z
Si Si1 0.393732 0.216515 0.947948
Si Si2 0.186247 0.997426 0.360170
Si Si3 0.371259 0.184891 0.500594
Si Si4 0.999890 0.629009 0.431314
Si Si5 0.992738 0.820580 0.268253
Si Si6 0.177684 0.357965 0.041767
Si Si7 0.003210 0.814074 0.176544
Si Si8 0.985195 0.627420 0.892739
O O1 0.337650 0.337650 0.944077
O O2 0.526039 0.238749 0.946203
O O3 0.353753 0.141225 0.908585
O O4 0.356328 0.154745 0.991460
O O5 0.112901 0.887100 0.370549
O O6 0.289708 0.006099 0.391565
O O7 0.243200 0.987814 0.312960
O O8 0.106858 0.106858 0.363410
O O9 0.500000 0.225487 0.500000
O O10 0.293772 0.293772 0.499804
O O11 0.346157 0.112867 0.542550
O O12 0.346308 0.108384 0.459945
O O13 0.000000 0.500000 0.415865
O O14 0.072611 0.927390 0.268231
O O15 0.013174 0.756325 0.223628
O O16 0.864945 0.864945 0.268140
O O17 0.256888 0.256888 0.056379
O O18 0.061701 0.348037 0.066521
O O19 0.115435 0.884566 0.165741
O O20 0.985989 0.712682 0.144449
O O21 0.896207 0.896207 0.174426
O O22 0.000000 0.500000 0.876226
#
# Coordination Sequence:
#
# PCOD8308101 Si02
#       8
#     8   8   8   8   8   8   8   8
#     4   9  17  28  41  56  74  97 124 153 183 215
#     4   9  15  24  41  61  77  96 125 157 187 223
#     4   9  17  28  40  54  75 103 134 164 190 219
#     4   9  17  27  38  55  80 106 126 151 193 234
#     4   7  12  23  38  57  77  95 119 153 188 217
#     4   9  17  28  41  56  74  97 124 153 183 215
#     4   9  16  27  43  59  75  97 126 157 184 213
#     4  10  18  27  39  56  79 102 122 146 182 226
#
# _framework density 14.268943999999999
#
# number of rings (size 3 to 8) (size 9 to 14) (size 15 to 20)
#    0.000    3.125    0.000    4.125    0.000    1.875 
#    0.000    1.875    0.000    3.000    0.000    5.250 
#    0.000    0.000    0.000    0.000    0.000  150.000 
#
# Total GULP energy -792941.667676 kJ/mol
# GULP energy per Si atom -12389.713557 kJ/mol
# Density = 1.423647 g / cm^3
# Si number density = 14.268944 Si / 1000 Ang^3
#
#
#
# Elastic Constant Matrix: (Units=GPa)
#
#
# Indices 1 2 3 4 5 6 
#
# 1 60.9328 27.2514 32.2904 0.0000 0.0000 0.0000
# 2 27.2514 60.9333 32.2905 0.0000 0.0000 0.0000
# 3 32.2904 32.2905 86.3821 0.0000 0.0000 0.0000
# 4 0.0000 0.0000 0.0000 16.6639 0.0000 0.0000
# 5 0.0000 0.0000 0.0000 0.0000 16.6640 0.0000
# 6 0.0000 0.0000 0.0000 0.0000 0.0000 18.4856
#
#
#
# Elastic Compliance Matrix: (Units=1/GPa)
#
#
# Indices 1 2 3 4 5 6 
#
# 1 0.022652 -0.007038 -0.005837 0.000000 0.000000 0.000000
# 2 -0.007038 0.022652 -0.005837 0.000000 0.000000 0.000000
# 3 -0.005837 -0.005837 0.015940 0.000000 0.000000 0.000000
# 4 0.000000 0.000000 0.000000 0.060010 0.000000 0.000000
# 5 0.000000 0.000000 0.000000 0.000000 0.060010 0.000000
# 6 0.000000 0.000000 0.000000 0.000000 0.000000 0.054096
#
#
# Mechanical properties :
#
#
# Convention : Reuss Voigt Hill
#
# Bulk Modulus (GPa) = 41.97848 43.54586 42.76217
# Shear Modulus (GPa) = 17.81114 18.12376 17.96745
#
# Velocity S-wave (km/s) = 3.53688 3.56779 3.55237
# Velocity P-wave (km/s) = 6.79432 6.89611 6.84540
#
# Compressibility (1/GPa) = 0.02382173
#
# Stress axis : x y z
#
# Youngs Moduli (GPa) = 44.14582 44.14620 62.73454
#
# Poissons Ratio (x) = 0.31069 0.36617
# Poissons Ratio (y) = 0.31069 0.36617
# Poissons Ratio (z) = 0.25767 0.25767
#
# Static dielectric constant tensor:
#      x y z
#    x 2.609690 0.000000 0.000000 
#    y 0.000000 2.609690 0.000000 
#    z 0.000000 0.000000 2.927140 
# 
# 
# High freq. dielectric constant tensor:
#      x y z
#    x 1.528280 0.000000 0.000000 
#    y 0.000000 1.528280 0.000000 
#    z 0.000000 0.000000 1.544430 
# 
# From -- ./inp_files/4375.got.cif
#   From: 2010.03.12/outbox.cif.g09.slc.cpg/sg111_3_cif.got.tgz:4375.got - 2010.04.14 01:59:48.
