data_PCOD8308839
_publ_section_title
;
Structure prediction by ZEFSAII (Michael W. Deem and Ramdas Pophale) SiO2 
 PCOD8308839
Probable space group: P -4 21 C
;
_chemical_formula_sum "Si O2"
_cell_formula_units_Z 48
_cell_length_a 7.767882
_cell_length_b 7.767882
_cell_length_c 38.175271
_cell_angle_alpha 90.000000
_cell_angle_beta 90.000000
_cell_angle_gamma 90.000000
_cell_volume 2303.495500
_symmetry_space_group_name_H-M "P -4 21 C"
_symmetry_group_IT_number 114
_symmetry_cell_setting 'tetragonal'
loop_
_space_group_symop_operation_xyz
x,y,z
y,-x,-z
-x,-y,z
-y,x,-z
1/2+x,1/2-y,1/2-z
1/2-x,1/2+y,1/2-z
1/2-y,1/2-x,1/2+z
1/2+y,1/2+x,1/2+z
loop_
_atom_site_type_symbol
_atom_site_label
_atom_site_fract_x
_atom_site_fract_y
_atom_site_fract_z
Si Si1 0.190168 0.204019 0.539210
Si Si2 0.190168 0.795981 0.539210
Si Si3 0.190912 0.297168 0.711446
Si Si4 0.797168 0.309088 0.211446
Si Si5 0.296334 0.500000 0.335047
Si Si6 0.298413 1.000000 0.084556
O O1 0.251912 0.251912 0.500000
O O2 0.328418 0.281499 0.566678
O O3 1.000000 0.282647 0.547158
O O4 0.178062 1.000000 0.542440
O O5 0.328418 0.718501 0.566678
O O6 0.250000 0.250000 0.750000
O O7 0.183559 0.500000 0.707550
O O8 0.328978 0.220410 0.683814
O O9 0.000000 0.219385 0.704067
O O10 0.720410 0.171022 0.183814
O O11 0.500000 0.500000 0.331703
O O12 0.239798 0.500000 0.374792
O O13 0.500000 0.000000 0.077370
#
# Coordination Sequence:
#
# PCOD8308839 Si02
#       6
#     8   8   8   8   8   8
#     4   8  15  31  54  77 105 139 176 226 279 322
#     4   8  15  31  54  77 105 139 176 226 279 322
#     4  10  20  35  57  80 104 140 184 227 275 332
#     4  10  20  35  57  80 104 140 184 227 275 332
#     4  10  22  38  50  74 118 146 168 226 288 326
#     4  10  20  34  54  80 108 142 188 230 270 336
#
# _framework density 20.837897000000002
#
# number of rings (size 3 to 8) (size 9 to 14) (size 15 to 20)
#    0.000    2.667    1.667    1.000    0.000    2.667 
#    3.000    0.000    0.000    0.000    0.000    0.000 
#    0.000    0.000    0.000    0.000    0.000    0.000 
#
# Total GULP energy -594906.356323 kJ/mol
# GULP energy per Si atom -12393.882423 kJ/mol
# Density = 2.079047 g / cm^3
# Si number density = 20.837897 Si / 1000 Ang^3
#
#
#
# Elastic Constant Matrix: (Units=GPa)
#
#
# Indices 1 2 3 4 5 6 
#
# 1 101.5871 30.9895 61.0824 0.0000 0.0000 0.0000
# 2 30.9895 101.5871 61.0824 0.0000 0.0000 0.0000
# 3 61.0824 61.0824 179.4197 0.0000 0.0000 0.0000
# 4 0.0000 0.0000 0.0000 34.0408 0.0000 0.0000
# 5 0.0000 0.0000 0.0000 0.0000 34.0408 0.0000
# 6 0.0000 0.0000 0.0000 0.0000 0.0000 9.9127
#
#
#
# Elastic Compliance Matrix: (Units=1/GPa)
#
#
# Indices 1 2 3 4 5 6 
#
# 1 0.012578 -0.001587 -0.003742 0.000000 0.000000 0.000000
# 2 -0.001587 0.012578 -0.003742 0.000000 0.000000 0.000000
# 3 -0.003742 -0.003742 0.008121 0.000000 0.000000 0.000000
# 4 0.000000 0.000000 0.000000 0.029377 0.000000 0.000000
# 5 0.000000 0.000000 0.000000 0.000000 0.029377 0.000000
# 6 0.000000 0.000000 0.000000 0.000000 0.000000 0.100880
#
#
# Mechanical properties :
#
#
# Convention : Reuss Voigt Hill
#
# Bulk Modulus (GPa) = 66.06892 76.54470 71.30681
# Shear Modulus (GPa) = 23.13785 30.89484 27.01635
#
# Velocity S-wave (km/s) = 3.33584 3.85467 3.60460
# Velocity P-wave (km/s) = 6.82730 7.52492 7.18459
#
# Compressibility (1/GPa) = 0.01513571
#
# Stress axis : x y z
#
# Youngs Moduli (GPa) = 79.50568 79.50568 123.13445
#
# Poissons Ratio (x) = 0.12618 0.46073
# Poissons Ratio (y) = 0.12618 0.46073
# Poissons Ratio (z) = 0.29749 0.29749
#
# Static dielectric constant tensor:
#      x y z
#    x 4.079320 0.000000 0.000000 
#    y 0.000000 4.079320 0.000000 
#    z 0.000000 0.000000 3.902340 
# 
# 
# High freq. dielectric constant tensor:
#      x y z
#    x 1.807220 0.000000 0.000000 
#    y 0.000000 1.807220 0.000000 
#    z 0.000000 0.000000 1.805340 
# 
# From -- ./inp_files/3977.got.cif
#   From: 2010.03.12/outbox.cif.g09.slc.cpg/sg114_2_cif.got.tgz:3977.got - 2010.04.14 02:08:34.
