data_PCOD8308562
_publ_section_title
;
Structure prediction by ZEFSAII (Michael W. Deem and Ramdas Pophale) SiO2 
 PCOD8308562
Probable space group: P -4 21 M 
;
_chemical_formula_sum "Si O2"
_cell_formula_units_Z 64
_cell_length_a 11.960714
_cell_length_b 11.960714
_cell_length_c 25.035179
_cell_angle_alpha 90.000000
_cell_angle_beta 90.000000
_cell_angle_gamma 90.000000
_cell_volume 3581.499646
_symmetry_space_group_name_H-M "P -4 21 M "
_symmetry_group_IT_number 113
_symmetry_cell_setting 'tetragonal'
loop_
_space_group_symop_operation_xyz
x,y,z
y,-x,-z
-x,-y,z
-y,x,-z
1/2+x,1/2-y,-z
1/2-x,1/2+y,-z
1/2-y,1/2-x,z
1/2+y,1/2+x,z
loop_
_atom_site_type_symbol
_atom_site_label
_atom_site_fract_x
_atom_site_fract_y
_atom_site_fract_z
Si Si1 0.603124 0.718835 0.062651
Si Si2 0.346801 0.679086 0.390074
Si Si3 0.022947 0.124000 0.314835
Si Si4 0.688949 0.000000 0.774408
Si Si5 0.625433 0.517485 0.135433
Si Si6 0.113353 0.858498 0.503666
Si Si7 0.766018 0.905886 0.383144
Si Si8 0.144039 0.176615 0.948416
O O1 0.661879 0.838122 0.069793
O O2 0.633724 0.643388 0.113743
O O3 0.471565 0.743093 0.059068
O O4 0.645451 0.655672 0.010084
O O5 0.250897 0.750897 0.360000
O O6 0.362211 0.557683 0.365443
O O7 0.308270 0.673586 0.451750
O O8 0.461678 0.747408 0.384820
O O9 0.002286 0.227962 0.275872
O O10 0.147319 0.131400 0.337453
O O11 0.000000 0.000000 0.288848
O O12 0.611580 0.888421 0.773402
O O13 0.609686 0.109686 0.775611
O O14 0.772417 0.997068 0.824505
O O15 0.500000 0.500000 0.160537
O O16 0.642423 0.435278 0.085888
O O17 0.143434 0.797904 0.558754
O O18 0.984337 0.848039 0.489993
O O19 0.647479 0.852522 0.366859
O O20 0.244272 0.255729 0.928591
#
# Coordination Sequence:
#
# PCOD8308562 Si02
#       8
#     8   8   8   8   8   8   8   8
#     4  10  19  32  51  75 106 141 179 220 261 310
#     4  10  19  31  50  74 100 133 169 213 261 308
#     4  10  20  37  56  77  99 135 181 222 253 312
#     4  11  23  38  56  80 111 141 174 222 276 317
#     4  10  20  35  58  79 105 141 181 222 257 312
#     4   9  15  28  48  72  98 128 172 212 250 306
#     4  10  19  31  50  74 100 133 169 213 261 308
#     4  10  19  32  51  75 106 141 179 220 261 310
#
# _framework density 17.869609000000001
#
# number of rings (size 3 to 8) (size 9 to 14) (size 15 to 20)
#    0.000    2.000    2.500    2.250    0.000    0.500 
#    0.000    0.000    0.000    0.000    0.000    0.000 
#    0.000   18.000    0.000    0.000    0.000    0.000 
#
# Total GULP energy -793115.902984 kJ/mol
# GULP energy per Si atom -12392.435984 kJ/mol
# Density = 1.782894 g / cm^3
# Si number density = 17.869609 Si / 1000 Ang^3
#
#
#
# Elastic Constant Matrix: (Units=GPa)
#
#
# Indices 1 2 3 4 5 6 
#
# 1 66.8394 27.2882 15.6256 0.0000 0.0000 0.0000
# 2 27.2882 66.8396 15.6258 0.0000 0.0000 0.0000
# 3 15.6256 15.6258 60.6140 0.0000 0.0000 0.0000
# 4 0.0000 0.0000 0.0000 16.0677 0.0000 0.0000
# 5 0.0000 0.0000 0.0000 0.0000 16.0681 0.0000
# 6 0.0000 0.0000 0.0000 0.0000 0.0000 34.0840
#
#
#
# Elastic Compliance Matrix: (Units=1/GPa)
#
#
# Indices 1 2 3 4 5 6 
#
# 1 0.018451 -0.006833 -0.002995 0.000000 0.000000 0.000000
# 2 -0.006833 0.018451 -0.002995 0.000000 0.000000 0.000000
# 3 -0.002995 -0.002995 0.018042 0.000000 0.000000 0.000000
# 4 0.000000 0.000000 0.000000 0.062237 0.000000 0.000000
# 5 0.000000 0.000000 0.000000 0.000000 0.062235 0.000000
# 6 0.000000 0.000000 0.000000 0.000000 0.000000 0.029339
#
#
# Mechanical properties :
#
#
# Convention : Reuss Voigt Hill
#
# Bulk Modulus (GPa) = 34.13171 34.59691 34.36431
# Shear Modulus (GPa) = 20.47780 22.29419 21.38600
#
# Velocity S-wave (km/s) = 3.38887 3.53598 3.46320
# Velocity P-wave (km/s) = 5.86979 6.00613 5.93835
#
# Compressibility (1/GPa) = 0.02929827
#
# Stress axis : x y z
#
# Youngs Moduli (GPa) = 54.19779 54.19778 55.42614
#
# Poissons Ratio (x) = 0.37032 0.16600
# Poissons Ratio (y) = 0.37032 0.16601
# Poissons Ratio (z) = 0.16232 0.16233
#
# Static dielectric constant tensor:
#      x y z
#    x 3.304520 0.000000 0.000000 
#    y 0.000000 3.304530 0.000000 
#    z 0.000000 0.000000 3.157520 
# 
# 
# High freq. dielectric constant tensor:
#      x y z
#    x 1.692500 0.000000 0.000000 
#    y 0.000000 1.692500 0.000000 
#    z 0.000000 0.000000 1.680610 
# 
# From -- ./inp_files/2920.got.cif
#   From: 2010.03.12/outbox.cif.g09.slc.cpg/sg113_cif.got.tgz:2920.got - 2010.04.14 02:06:34.
