data_PCOD8308956
_publ_section_title
;
Structure prediction by ZEFSAII (Michael W. Deem and Ramdas Pophale) SiO2 
 PCOD8308956
Probable space group: P -4 21 C
;
_chemical_formula_sum "Si O2"
_cell_formula_units_Z 48
_cell_length_a 8.809568
_cell_length_b 8.809568
_cell_length_c 28.790436
_cell_angle_alpha 90.000000
_cell_angle_beta 90.000000
_cell_angle_gamma 90.000000
_cell_volume 2234.382217
_symmetry_space_group_name_H-M "P -4 21 C"
_symmetry_group_IT_number 114
_symmetry_cell_setting 'tetragonal'
loop_
_space_group_symop_operation_xyz
x,y,z
y,-x,-z
-x,-y,z
-y,x,-z
1/2+x,1/2-y,1/2-z
1/2-x,1/2+y,1/2-z
1/2-y,1/2-x,1/2+z
1/2+y,1/2+x,1/2+z
loop_
_atom_site_type_symbol
_atom_site_label
_atom_site_fract_x
_atom_site_fract_y
_atom_site_fract_z
Si Si1 0.832791 0.306486 0.413433
Si Si2 0.345046 0.309770 0.493349
Si Si3 0.499408 0.323444 0.270956
Si Si4 0.105559 0.356593 0.655645
Si Si5 0.217904 0.180733 0.307006
Si Si6 0.157994 0.319103 0.900713
O O1 0.809903 0.285892 0.468634
O O2 0.729127 0.182166 0.387783
O O3 0.790329 0.478222 0.399174
O O4 0.009022 0.283615 0.403149
O O5 0.296731 0.474584 0.512103
O O6 0.271668 0.270009 0.443837
O O7 0.500000 0.500000 0.284384
O O8 0.597490 0.239450 0.310066
O O9 0.335777 0.245906 0.269399
O O10 0.557405 0.297868 0.218204
O O11 0.000000 0.500000 0.639635
O O12 0.997337 0.239484 0.682970
O O13 0.246311 0.276789 0.353319
#
# Coordination Sequence:
#
# PCOD8308956 Si02
#       6
#     8   8   8   8   8   8
#     4  10  22  42  65  95 134 173 214 268 328 398
#     4   9  20  39  66  96 130 169 218 265 318 394
#     4  11  24  43  65  91 127 174 216 273 327 390
#     4  10  24  42  64 100 125 170 224 273 333 393
#     4  11  25  42  65  96 130 171 223 272 333 391
#     4  10  23  41  65  97 132 175 216 268 333 396
#
# _framework density 21.482447000000001
#
# number of rings (size 3 to 8) (size 9 to 14) (size 15 to 20)
#    0.000    1.833    0.000    2.000    9.333    1.333 
#    9.000    0.000    0.000    0.000    0.000    0.000 
#    0.000    0.000    0.000    0.000    0.000    0.000 
#
# Total GULP energy -595192.050198 kJ/mol
# GULP energy per Si atom -12399.834379 kJ/mol
# Density = 2.143355 g / cm^3
# Si number density = 21.482447 Si / 1000 Ang^3
#
#
#
# Elastic Constant Matrix: (Units=GPa)
#
#
# Indices 1 2 3 4 5 6 
#
# 1 92.9702 31.6391 60.5728 0.0000 0.0000 0.0000
# 2 31.6391 92.9702 60.5728 0.0000 0.0000 0.0000
# 3 60.5728 60.5728 129.3284 0.0000 0.0000 0.0000
# 4 0.0000 0.0000 0.0000 28.7331 0.0000 0.0000
# 5 0.0000 0.0000 0.0000 0.0000 28.7331 0.0000
# 6 0.0000 0.0000 0.0000 0.0000 0.0000 31.1472
#
#
#
# Elastic Compliance Matrix: (Units=1/GPa)
#
#
# Indices 1 2 3 4 5 6 
#
# 1 0.015520 -0.000785 -0.006901 0.000000 0.000000 0.000000
# 2 -0.000785 0.015520 -0.006901 0.000000 0.000000 0.000000
# 3 -0.006901 -0.006901 0.014197 0.000000 0.000000 0.000000
# 4 0.000000 0.000000 0.000000 0.034803 0.000000 0.000000
# 5 0.000000 0.000000 0.000000 0.000000 0.034803 0.000000
# 6 0.000000 0.000000 0.000000 0.000000 0.000000 0.032106
#
#
# Mechanical properties :
#
#
# Convention : Reuss Voigt Hill
#
# Bulk Modulus (GPa) = 62.26211 68.98204 65.62208
# Shear Modulus (GPa) = 27.55185 28.55495 28.05340
#
# Velocity S-wave (km/s) = 3.58513 3.64981 3.61761
# Velocity P-wave (km/s) = 6.79582 7.06697 6.93272
#
# Compressibility (1/GPa) = 0.01606113
#
# Stress axis : x y z
#
# Youngs Moduli (GPa) = 64.43461 64.43461 70.43922
#
# Poissons Ratio (x) = 0.05060 0.48610
# Poissons Ratio (y) = 0.05060 0.48610
# Poissons Ratio (z) = 0.44466 0.44466
#
# Static dielectric constant tensor:
#      x y z
#    x 3.897350 0.000000 0.000000 
#    y 0.000000 3.897350 0.000000 
#    z 0.000000 0.000000 3.750710 
# 
# 
# High freq. dielectric constant tensor:
#      x y z
#    x 1.844830 0.000000 0.000000 
#    y 0.000000 1.844830 0.000000 
#    z 0.000000 0.000000 1.845150 
# 
# From -- ./inp_files/3983.got.cif
#   From: 2010.03.12/outbox.cif.g09.slc.cpg/sg114_2_cif.got.tgz:3983.got - 2010.04.14 02:08:34.
