data_PCOD8308918
_publ_section_title
;
Structure prediction by ZEFSAII (Michael W. Deem and Ramdas Pophale) SiO2 
 PCOD8308918
Probable space group: P -4 21 C
;
_chemical_formula_sum "Si O2"
_cell_formula_units_Z 48
_cell_length_a 15.092538
_cell_length_b 15.092538
_cell_length_c 10.545197
_cell_angle_alpha 90.000000
_cell_angle_beta 90.000000
_cell_angle_gamma 90.000000
_cell_volume 2402.034570
_symmetry_space_group_name_H-M "P -4 21 C"
_symmetry_group_IT_number 114
_symmetry_cell_setting 'tetragonal'
loop_
_space_group_symop_operation_xyz
x,y,z
y,-x,-z
-x,-y,z
-y,x,-z
1/2+x,1/2-y,1/2-z
1/2-x,1/2+y,1/2-z
1/2-y,1/2-x,1/2+z
1/2+y,1/2+x,1/2+z
loop_
_atom_site_type_symbol
_atom_site_label
_atom_site_fract_x
_atom_site_fract_y
_atom_site_fract_z
Si Si1 0.872669 0.564034 0.926465
Si Si2 0.232459 0.706670 0.961219
Si Si3 0.940755 0.378941 0.886308
Si Si4 0.875036 0.936235 0.477931
Si Si5 0.982996 0.734508 0.678307
Si Si6 0.197648 0.280821 0.786787
O O1 0.901144 0.475012 0.856301
O O2 0.815123 0.615697 0.820974
O O3 0.964594 0.616638 0.960160
O O4 0.813891 0.551198 0.051098
O O5 0.133245 0.669480 0.969779
O O6 0.241934 0.769973 0.838322
O O7 0.308566 0.630220 0.947967
O O8 0.236125 0.760620 0.090437
O O9 0.951804 0.331834 0.750693
O O10 0.969949 0.890671 0.447152
O O11 0.824596 0.962599 0.348397
O O12 0.898731 0.762293 0.762090
#
# Coordination Sequence:
#
# PCOD8308918 Si02
#       6
#     8   8   8   8   8   8
#     4  10  21  42  62  95 131 175 212 274 337 407
#     4  12  23  43  63 101 130 176 220 282 334 403
#     4  10  24  37  64  95 135 170 214 276 340 403
#     4  11  22  40  67  91 129 175 232 275 322 399
#     4  11  21  44  66  97 136 172 229 275 342 407
#     4  11  23  41  68  93 135 168 226 273 338 401
#
# _framework density 19.983058
#
# number of rings (size 3 to 8) (size 9 to 14) (size 15 to 20)
#    0.000    1.167    5.000    1.000    0.000    5.333 
#    0.000    0.000    0.000    0.000    0.000    0.000 
#    5.000    0.000    0.000    0.000    0.000    0.000 
#
# Total GULP energy -594770.631820 kJ/mol
# GULP energy per Si atom -12391.054830 kJ/mol
# Density = 1.993758 g / cm^3
# Si number density = 19.983058 Si / 1000 Ang^3
#
#
#
# Elastic Constant Matrix: (Units=GPa)
#
#
# Indices 1 2 3 4 5 6 
#
# 1 114.0263 53.0266 53.7511 0.0000 0.0000 0.0000
# 2 53.0266 114.0263 53.7511 0.0000 0.0000 0.0000
# 3 53.7511 53.7511 114.9677 0.0000 0.0000 0.0000
# 4 0.0000 0.0000 0.0000 33.4571 0.0000 0.0000
# 5 0.0000 0.0000 0.0000 0.0000 33.4571 0.0000
# 6 0.0000 0.0000 0.0000 0.0000 0.0000 38.5612
#
#
#
# Elastic Compliance Matrix: (Units=1/GPa)
#
#
# Indices 1 2 3 4 5 6 
#
# 1 0.012478 -0.003916 -0.004003 0.000000 0.000000 0.000000
# 2 -0.003916 0.012478 -0.004003 0.000000 0.000000 0.000000
# 3 -0.004003 -0.004003 0.012441 0.000000 0.000000 0.000000
# 4 0.000000 0.000000 0.000000 0.029889 0.000000 0.000000
# 5 0.000000 0.000000 0.000000 0.000000 0.029889 0.000000
# 6 0.000000 0.000000 0.000000 0.000000 0.000000 0.025933
#
#
# Mechanical properties :
#
#
# Convention : Reuss Voigt Hill
#
# Bulk Modulus (GPa) = 73.78306 73.78644 73.78475
# Shear Modulus (GPa) = 33.00997 33.26118 33.13557
#
# Velocity S-wave (km/s) = 4.06876 4.08422 4.07650
# Velocity P-wave (km/s) = 7.68610 7.69713 7.69161
#
# Compressibility (1/GPa) = 0.01355325
#
# Stress axis : x y z
#
# Youngs Moduli (GPa) = 80.14186 80.14186 80.37766
#
# Poissons Ratio (x) = 0.31381 0.32176
# Poissons Ratio (y) = 0.31381 0.32176
# Poissons Ratio (z) = 0.32082 0.32082
#
# Static dielectric constant tensor:
#      x y z
#    x 4.015550 0.000000 0.000000 
#    y 0.000000 4.015550 0.000000 
#    z 0.000000 0.000000 3.436570 
# 
# 
# High freq. dielectric constant tensor:
#      x y z
#    x 1.790760 0.000000 0.000000 
#    y 0.000000 1.790760 0.000000 
#    z 0.000000 0.000000 1.749850 
# 
# From -- ./inp_files/1671.got.cif
#   From: 2010.03.12/outbox.cif.g09.slc.cpg/sg114_1_cif.got.tgz:1671.got - 2010.04.14 02:08:34.
