data_PCOD8308722
_publ_section_title
;
Structure prediction by ZEFSAII (Michael W. Deem and Ramdas Pophale) SiO2 
 PCOD8308722
Probable space group: P -4 21 M 
;
_chemical_formula_sum "Si O2"
_cell_formula_units_Z 32
_cell_length_a 14.203744
_cell_length_b 14.203744
_cell_length_c 7.666723
_cell_angle_alpha 90.000000
_cell_angle_beta 90.000000
_cell_angle_gamma 90.000000
_cell_volume 1546.733333
_symmetry_space_group_name_H-M "P -4 21 M "
_symmetry_group_IT_number 113
_symmetry_cell_setting 'tetragonal'
loop_
_space_group_symop_operation_xyz
x,y,z
y,-x,-z
-x,-y,z
-y,x,-z
1/2+x,1/2-y,-z
1/2-x,1/2+y,-z
1/2-y,1/2-x,z
1/2+y,1/2+x,z
loop_
_atom_site_type_symbol
_atom_site_label
_atom_site_fract_x
_atom_site_fract_y
_atom_site_fract_z
Si Si1 0.920760 0.579241 0.175187
Si Si2 0.767592 0.996774 0.331243
Si Si3 0.350776 0.304639 0.634662
Si Si4 0.922477 0.577524 0.562517
Si Si5 0.217037 0.561708 0.027488
O O1 0.889227 0.610774 0.369878
O O2 0.000000 0.500000 0.187244
O O3 0.829628 0.538647 0.077080
O O4 0.836505 0.083515 0.370153
O O5 0.661402 0.033829 0.327135
O O6 0.778211 0.916248 0.473691
O O7 0.785084 0.953252 0.139020
O O8 0.252336 0.247665 0.618885
O O9 0.402957 0.279819 0.813095
O O10 0.000000 0.500000 0.534935
O O11 0.137456 0.637456 0.980053
#
# Coordination Sequence:
#
# PCOD8308722 Si02
#       5
#     4   8   8   4   8
#     4   9  17  33  63  98 129 155 202 280 337 377
#     4  12  24  42  67  96 132 180 222 264 334 397
#     4  11  25  44  64  98 136 171 222 279 324 391
#     4  11  19  37  69 100 129 164 218 286 339 380
#     4  10  21  39  63  95 131 166 216 278 335 388
#
# _framework density 20.688763000000002
#
# number of rings (size 3 to 8) (size 9 to 14) (size 15 to 20)
#    0.000    1.250    3.750    3.000    0.000    3.500 
#    0.000    0.000    0.000    0.000    0.000    0.000 
#    0.000    0.000    0.000    0.000    0.000    0.000 
#
# Total GULP energy -396901.690471 kJ/mol
# GULP energy per Si atom -12403.177827 kJ/mol
# Density = 2.064167 g / cm^3
# Si number density = 20.688763 Si / 1000 Ang^3
#
#
#
# Elastic Constant Matrix: (Units=GPa)
#
#
# Indices 1 2 3 4 5 6 
#
# 1 55.4233 11.7114 24.9974 0.0000 0.0000 0.0000
# 2 11.7114 55.4231 24.9977 0.0000 0.0000 0.0000
# 3 24.9974 24.9977 142.1254 0.0000 0.0000 0.0000
# 4 0.0000 0.0000 0.0000 6.4197 0.0000 0.0000
# 5 0.0000 0.0000 0.0000 0.0000 6.4168 0.0000
# 6 0.0000 0.0000 0.0000 0.0000 0.0000 27.7659
#
#
#
# Elastic Compliance Matrix: (Units=1/GPa)
#
#
# Indices 1 2 3 4 5 6 
#
# 1 0.020009 -0.002868 -0.003015 0.000000 0.000000 0.000000
# 2 -0.002868 0.020009 -0.003015 0.000000 0.000000 0.000000
# 3 -0.003015 -0.003015 0.008097 0.000000 0.000000 0.000000
# 4 0.000000 0.000000 0.000000 0.155771 0.000000 0.000000
# 5 0.000000 0.000000 0.000000 0.000000 0.155840 0.000000
# 6 0.000000 0.000000 0.000000 0.000000 0.000000 0.036015
#
#
# Mechanical properties :
#
#
# Convention : Reuss Voigt Hill
#
# Bulk Modulus (GPa) = 32.98302 41.82052 37.40177
# Shear Modulus (GPa) = 11.80241 20.87151 16.33696
#
# Velocity S-wave (km/s) = 2.39105 3.17966 2.81313
# Velocity P-wave (km/s) = 4.85798 5.80847 5.35436
#
# Compressibility (1/GPa) = 0.03031863
#
# Stress axis : x y z
#
# Youngs Moduli (GPa) = 49.97811 49.97786 123.50974
#
# Poissons Ratio (x) = 0.14335 0.37235
# Poissons Ratio (y) = 0.14335 0.37235
# Poissons Ratio (z) = 0.15067 0.15067
#
# Static dielectric constant tensor:
#      x y z
#    x 3.605850 0.000000 0.000000 
#    y 0.000000 3.605860 0.000000 
#    z 0.000000 0.000000 3.892250 
# 
# 
# High freq. dielectric constant tensor:
#      x y z
#    x 1.793060 0.000000 0.000000 
#    y 0.000000 1.793060 0.000000 
#    z 0.000000 0.000000 1.830160 
# 
# From -- ./inp_files/863.got.cif
#   From: 2010.03.12/outbox.cif.g09.slc.cpg/sg113_cif.got.tgz:863.got - 2010.04.14 02:06:34.
