data_PCOD8308566
_publ_section_title
;
Structure prediction by ZEFSAII (Michael W. Deem and Ramdas Pophale) SiO2 
 PCOD8308566
Probable space group: P -4 21 M 
;
_chemical_formula_sum "Si O2"
_cell_formula_units_Z 40
_cell_length_a 16.668533
_cell_length_b 16.668533
_cell_length_c 7.964544
_cell_angle_alpha 90.000000
_cell_angle_beta 90.000000
_cell_angle_gamma 90.000000
_cell_volume 2212.868844
_symmetry_space_group_name_H-M "P -4 21 M "
_symmetry_group_IT_number 113
_symmetry_cell_setting 'tetragonal'
loop_
_space_group_symop_operation_xyz
x,y,z
y,-x,-z
-x,-y,z
-y,x,-z
1/2+x,1/2-y,-z
1/2-x,1/2+y,-z
1/2-y,1/2-x,z
1/2+y,1/2+x,z
loop_
_atom_site_type_symbol
_atom_site_label
_atom_site_fract_x
_atom_site_fract_y
_atom_site_fract_z
Si Si1 0.674976 0.309643 0.401677
Si Si2 0.002159 0.627161 0.759918
Si Si3 0.611073 0.243662 0.080499
Si Si4 0.736436 0.101500 0.713876
Si Si5 0.563625 0.807161 0.583690
O O1 0.736770 0.236770 0.404405
O O2 0.621480 0.308474 0.230588
O O3 0.617102 0.299571 0.563831
O O4 0.720718 0.393523 0.412987
O O5 0.072137 0.572137 0.842474
O O6 0.037655 0.675807 0.605436
O O7 0.929187 0.570814 0.694487
O O8 0.969571 0.690771 0.894372
O O9 0.688624 0.188624 0.088472
O O10 0.606040 0.282554 0.894333
O O11 0.664484 0.164484 0.710251
O O12 0.696725 0.013908 0.700736
O O13 0.623010 0.876991 0.650813
#
# Coordination Sequence:
#
# PCOD8308566 Si02
#       5
#     8   8   8   8   8
#     4   9  18  34  49  69 103 135 168 205 244 296
#     4   9  16  28  48  74 103 131 160 203 257 303
#     4   9  17  31  50  70  99 136 165 195 243 301
#     4  10  19  33  54  75  99 137 171 200 251 306
#     4  10  19  31  51  79 105 131 165 209 253 295
#
# _framework density 18.076082
#
# number of rings (size 3 to 8) (size 9 to 14) (size 15 to 20)
#    0.000    2.600    2.000    0.600    0.000    2.000 
#    3.600    2.000    0.000    0.600    0.000    0.000 
#    0.000    0.000    0.000    0.000    0.000    0.000 
#
# Total GULP energy -495724.118713 kJ/mol
# GULP energy per Si atom -12393.102968 kJ/mol
# Density = 1.803494 g / cm^3
# Si number density = 18.076082 Si / 1000 Ang^3
#
#
#
# Elastic Constant Matrix: (Units=GPa)
#
#
# Indices 1 2 3 4 5 6 
#
# 1 44.9287 26.3827 31.5608 0.0000 0.0000 0.0000
# 2 26.3827 44.9284 31.5607 0.0000 0.0000 0.0000
# 3 31.5608 31.5607 133.8651 0.0000 0.0000 0.0000
# 4 0.0000 0.0000 0.0000 10.3499 0.0000 0.0000
# 5 0.0000 0.0000 0.0000 0.0000 10.3498 0.0000
# 6 0.0000 0.0000 0.0000 0.0000 0.0000 23.6693
#
#
#
# Elastic Compliance Matrix: (Units=1/GPa)
#
#
# Indices 1 2 3 4 5 6 
#
# 1 0.035821 -0.018100 -0.004178 0.000000 0.000000 0.000000
# 2 -0.018100 0.035821 -0.004178 0.000000 0.000000 0.000000
# 3 -0.004178 -0.004178 0.009440 0.000000 0.000000 0.000000
# 4 0.000000 0.000000 0.000000 0.096619 0.000000 0.000000
# 5 0.000000 0.000000 0.000000 0.000000 0.096620 0.000000
# 6 0.000000 0.000000 0.000000 0.000000 0.000000 0.042249
#
#
# Mechanical properties :
#
#
# Convention : Reuss Voigt Hill
#
# Bulk Modulus (GPa) = 35.49804 44.74785 40.12294
# Shear Modulus (GPa) = 13.19707 17.82167 15.50937
#
# Velocity S-wave (km/s) = 2.70494 3.14335 2.93235
# Velocity P-wave (km/s) = 5.42553 6.16305 5.80601
#
# Compressibility (1/GPa) = 0.02817057
#
# Stress axis : x y z
#
# Youngs Moduli (GPa) = 27.91675 27.91652 105.92899
#
# Poissons Ratio (x) = 0.50528 0.44257
# Poissons Ratio (y) = 0.50528 0.44258
# Poissons Ratio (z) = 0.11664 0.11664
#
# Static dielectric constant tensor:
#      x y z
#    x 3.215000 0.000000 0.000000 
#    y 0.000000 3.215000 0.000000 
#    z 0.000000 0.000000 3.571230 
# 
# 
# High freq. dielectric constant tensor:
#      x y z
#    x 1.670140 0.000000 0.000000 
#    y 0.000000 1.670140 0.000000 
#    z 0.000000 0.000000 1.701870 
# 
# From -- ./inp_files/1030.got.cif
#   From: 2010.03.12/outbox.cif.g09.slc.cpg/sg113_cif.got.tgz:1030.got - 2010.04.14 02:06:34.
