data_PCOD8308494
_publ_section_title
;
Structure prediction by ZEFSAII (Michael W. Deem and Ramdas Pophale) SiO2 
 PCOD8308494
Probable space group: P -4 2 C
;
_chemical_formula_sum "Si O2"
_cell_formula_units_Z 60
_cell_length_a 18.394563
_cell_length_b 18.394563
_cell_length_c 8.687906
_cell_angle_alpha 90.000000
_cell_angle_beta 90.000000
_cell_angle_gamma 90.000000
_cell_volume 2939.639422
_symmetry_space_group_name_H-M "P -4 2 C"
_symmetry_group_IT_number 112
_symmetry_cell_setting 'tetragonal'
loop_
_space_group_symop_operation_xyz
x,y,z
y,-x,-z
-x,-y,z
-y,x,-z
x,-y,1/2-z
-x,y,1/2-z
-y,-x,1/2+z
y,x,1/2+z
loop_
_atom_site_type_symbol
_atom_site_label
_atom_site_fract_x
_atom_site_fract_y
_atom_site_fract_z
Si Si1 0.791739 0.345675 0.760050
Si Si2 0.165150 0.108607 0.633283
Si Si3 0.415711 0.150743 0.761335
Si Si4 0.952421 0.187280 0.039551
Si Si5 0.345716 0.075941 0.044487
Si Si6 0.832475 0.500000 0.750000
Si Si7 0.052655 0.438666 0.991718
Si Si8 0.777174 0.705628 0.089149
O O1 0.779330 0.432274 0.788433
O O2 0.740324 0.301526 0.876205
O O3 0.778271 0.322748 0.584969
O O4 0.876553 0.330975 0.802355
O O5 0.155891 0.082676 0.806519
O O6 0.090338 0.150870 0.600838
O O7 0.234042 0.160890 0.611407
O O8 0.171750 0.038070 0.523591
O O9 0.500000 0.176409 0.750000
O O10 0.398782 0.122635 0.932362
O O11 0.399123 0.087128 0.638486
O O12 0.360800 0.214840 0.710128
O O13 0.940126 0.272933 0.046930
O O14 0.381569 0.999595 0.096657
O O15 0.885269 0.526875 0.885589
O O16 0.000000 0.500000 0.059353
#
# Coordination Sequence:
#
# PCOD8308494 Si02
#       8
#     8   8   8   8   8   4   8   8
#     4  12  26  43  66  93 136 175 219 270 326 405
#     4  11  24  45  63  90 119 163 225 287 346 400
#     4  12  23  40  64  97 137 180 224 266 328 410
#     4  11  25  43  65  87 121 162 225 289 342 406
#     4  12  24  39  62  95 132 179 218 269 331 414
#     4  12  25  44  60 106 143 174 220 284 329 410
#     4  12  23  37  63  95 145 182 216 261 336 401
#     4  12  24  45  66  93 132 179 222 271 336 403
#
# _framework density 20.410665000000002
#
# number of rings (size 3 to 8) (size 9 to 14) (size 15 to 20)
#    0.000    0.267    6.667    3.000    1.867    0.800 
#    0.000    1.333    0.000    0.000    0.000    0.467 
#    0.000    0.000    0.000    0.000    0.000    0.000 
#
# Total GULP energy -743874.964523 kJ/mol
# GULP energy per Si atom -12397.916075 kJ/mol
# Density = 2.036421 g / cm^3
# Si number density = 20.410665 Si / 1000 Ang^3
#
#
#
# Elastic Constant Matrix: (Units=GPa)
#
#
# Indices 1 2 3 4 5 6 
#
# 1 128.1024 63.2878 32.4680 0.0000 0.0000 0.0000
# 2 63.2878 128.1024 32.4680 0.0000 0.0000 0.0000
# 3 32.4680 32.4680 81.4397 0.0000 0.0000 0.0000
# 4 0.0000 0.0000 0.0000 31.7686 0.0000 0.0000
# 5 0.0000 0.0000 0.0000 0.0000 31.7686 0.0000
# 6 0.0000 0.0000 0.0000 0.0000 0.0000 39.9611
#
#
#
# Elastic Compliance Matrix: (Units=1/GPa)
#
#
# Indices 1 2 3 4 5 6 
#
# 1 0.010735 -0.004693 -0.002409 0.000000 0.000000 0.000000
# 2 -0.004693 0.010735 -0.002409 0.000000 0.000000 0.000000
# 3 -0.002409 -0.002409 0.014200 0.000000 0.000000 0.000000
# 4 0.000000 0.000000 0.000000 0.031478 0.000000 0.000000
# 5 0.000000 0.000000 0.000000 0.000000 0.031478 0.000000
# 6 0.000000 0.000000 0.000000 0.000000 0.000000 0.025024
#
#
# Mechanical properties :
#
#
# Convention : Reuss Voigt Hill
#
# Bulk Modulus (GPa) = 60.06487 66.01021 63.03754
# Shear Modulus (GPa) = 33.73328 34.66106 34.19717
#
# Velocity S-wave (km/s) = 4.06979 4.12537 4.09767
# Velocity P-wave (km/s) = 7.18166 7.42313 7.30339
#
# Compressibility (1/GPa) = 0.01664867
#
# Stress axis : x y z
#
# Youngs Moduli (GPa) = 93.14952 93.14952 70.42380
#
# Poissons Ratio (x) = 0.43717 0.16964
# Poissons Ratio (y) = 0.43717 0.16964
# Poissons Ratio (z) = 0.22439 0.22439
#
# Static dielectric constant tensor:
#      x y z
#    x 3.931390 0.000000 0.000000 
#    y 0.000000 3.931390 0.000000 
#    z 0.000000 0.000000 3.769830 
# 
# 
# High freq. dielectric constant tensor:
#      x y z
#    x 1.785820 0.000000 0.000000 
#    y 0.000000 1.785820 0.000000 
#    z 0.000000 0.000000 1.809460 
# 
# From -- ./inp_files/1519.got.cif
#   From: 2010.03.12/outbox.cif.g09.slc.cpg/sg112_1_cif.got.tgz:1519.got - 2010.04.14 02:02:48.
