data_PCOD8308411
_publ_section_title
;
Structure prediction by ZEFSAII (Michael W. Deem and Ramdas Pophale) SiO2 
 PCOD8308411
Probable space group: P -4 2 C
;
_chemical_formula_sum "Si O2"
_cell_formula_units_Z 44
_cell_length_a 9.162643
_cell_length_b 9.162643
_cell_length_c 23.884446
_cell_angle_alpha 90.000000
_cell_angle_beta 90.000000
_cell_angle_gamma 90.000000
_cell_volume 2005.195418
_symmetry_space_group_name_H-M "P -4 2 C"
_symmetry_group_IT_number 112
_symmetry_cell_setting 'tetragonal'
loop_
_space_group_symop_operation_xyz
x,y,z
y,-x,-z
-x,-y,z
-y,x,-z
x,-y,1/2-z
-x,y,1/2-z
-y,-x,1/2+z
y,x,1/2+z
loop_
_atom_site_type_symbol
_atom_site_label
_atom_site_fract_x
_atom_site_fract_y
_atom_site_fract_z
Si Si1 0.038989 0.848360 0.144201
Si Si2 0.756620 0.196216 0.420709
Si Si3 0.565262 0.852217 0.811089
Si Si4 0.511104 0.669942 0.913491
Si Si5 0.500000 0.000000 0.434064
Si Si6 0.186909 0.765299 0.538508
O O1 0.120331 0.741018 0.187817
O O2 0.142643 0.883456 0.090119
O O3 0.881179 0.788986 0.125574
O O4 0.000000 0.000000 0.175028
O O5 0.722662 0.360587 0.439545
O O6 0.611479 0.107210 0.398988
O O7 0.814245 0.136009 0.481461
O O8 0.500000 0.824681 0.750000
O O9 0.524119 0.714186 0.848213
O O10 0.500000 0.000000 0.837799
O O11 0.500000 0.500000 0.916575
O O12 0.643529 0.738007 0.947742
O O13 0.389513 0.102328 0.469351
#
# Coordination Sequence:
#
# PCOD8308411 Si02
#       6
#     8   8   8   8   4   8
#     4  11  23  40  63  97 129 172 216 270 334 398
#     4  12  23  38  59  89 136 181 219 259 316 395
#     4  10  22  44  68  91 122 161 223 286 330 395
#     4  11  23  39  61  93 126 174 223 273 323 388
#     4  12  22  38  56  86 125 176 213 276 306 376
#     4  11  24  36  60  90 135 180 222 254 316 393
#
# _framework density 21.942996999999998
#
# number of rings (size 3 to 8) (size 9 to 14) (size 15 to 20)
#    0.000    0.909    5.455    2.182    0.000    1.818 
#    0.000    1.818    0.000    0.000    0.000    1.273 
#    0.000    0.000    0.000    0.000    0.000    0.000 
#
# Total GULP energy -545112.866782 kJ/mol
# GULP energy per Si atom -12388.928791 kJ/mol
# Density = 2.189305 g / cm^3
# Si number density = 21.942997 Si / 1000 Ang^3
#
#
#
# Elastic Constant Matrix: (Units=GPa)
#
#
# Indices 1 2 3 4 5 6 
#
# 1 68.1762 -5.5417 2.5743 0.0000 0.0000 0.0000
# 2 -5.5417 68.1762 2.5743 0.0000 0.0000 0.0000
# 3 2.5743 2.5743 68.2881 0.0000 0.0000 0.0000
# 4 0.0000 0.0000 0.0000 27.0896 0.0000 0.0000
# 5 0.0000 0.0000 0.0000 0.0000 27.0896 0.0000
# 6 0.0000 0.0000 0.0000 0.0000 0.0000 46.2208
#
#
#
# Elastic Compliance Matrix: (Units=1/GPa)
#
#
# Indices 1 2 3 4 5 6 
#
# 1 0.014790 0.001225 -0.000604 0.000000 0.000000 0.000000
# 2 0.001225 0.014790 -0.000604 0.000000 0.000000 0.000000
# 3 -0.000604 -0.000604 0.014689 0.000000 0.000000 0.000000
# 4 0.000000 0.000000 0.000000 0.036915 0.000000 0.000000
# 5 0.000000 0.000000 0.000000 0.000000 0.036915 0.000000
# 6 0.000000 0.000000 0.000000 0.000000 0.000000 0.021635
#
#
# Mechanical properties :
#
#
# Convention : Reuss Voigt Hill
#
# Bulk Modulus (GPa) = 22.57083 22.65047 22.61065
# Shear Modulus (GPa) = 32.36926 33.74889 33.05908
#
# Velocity S-wave (km/s) = 3.84494 3.92602 3.88569
# Velocity P-wave (km/s) = 5.47904 5.55845 5.51889
#
# Compressibility (1/GPa) = 0.04430497
#
# Stress axis : x y z
#
# Youngs Moduli (GPa) = 67.61207 67.61207 68.07652
#
# Poissons Ratio (x) = -0.08283 0.04110
# Poissons Ratio (y) = -0.08283 0.04110
# Poissons Ratio (z) = 0.04082 0.04082
#
# Static dielectric constant tensor:
#      x y z
#    x 4.164010 0.000000 0.000000 
#    y 0.000000 4.164010 0.000000 
#    z 0.000000 0.000000 3.349000 
# 
# 
# High freq. dielectric constant tensor:
#      x y z
#    x 1.884130 0.000000 0.000000 
#    y 0.000000 1.884130 0.000000 
#    z 0.000000 0.000000 1.804850 
# 
# From -- ./inp_files/6188.got.cif
#   From: 2010.03.12/outbox.cif.g09.slc.cpg/sg112_4_cif.got.tgz:6188.got - 2010.04.14 02:02:48.
