data_PCOD8308489
_publ_section_title
;
Structure prediction by ZEFSAII (Michael W. Deem and Ramdas Pophale) SiO2 
 PCOD8308489
Probable space group: P -4 2 C
;
_chemical_formula_sum "Si O2"
_cell_formula_units_Z 18
_cell_length_a 8.141847
_cell_length_b 8.141847
_cell_length_c 9.975666
_cell_angle_alpha 90.000000
_cell_angle_beta 90.000000
_cell_angle_gamma 90.000000
_cell_volume 661.283633
_symmetry_space_group_name_H-M "P -4 2 C"
_symmetry_group_IT_number 112
_symmetry_cell_setting 'tetragonal'
loop_
_space_group_symop_operation_xyz
x,y,z
y,-x,-z
-x,-y,z
-y,x,-z
x,-y,1/2-z
-x,y,1/2-z
-y,-x,1/2+z
y,x,1/2+z
loop_
_atom_site_type_symbol
_atom_site_label
_atom_site_fract_x
_atom_site_fract_y
_atom_site_fract_z
Si Si1 0.180328 0.315553 0.797472
Si Si2 0.404243 0.830531 0.908936
Si Si3 0.500000 0.500000 0.500000
O O1 0.229901 0.500000 0.750000
O O2 0.299880 0.182122 0.727553
O O3 0.000000 0.271830 0.750000
O O4 0.178707 0.293542 0.957834
O O5 0.524028 0.667755 0.912671
O O6 0.500000 0.000000 0.907477
#
# Coordination Sequence:
#
# PCOD8308489 Si02
#       3
#     8   8   2
#     4  11  23  51  82 126 184 232 303 392 452 555
#     4  12  25  48  87 129 172 242 300 369 472 539
#     4  12  24  46  80 118 176 218 296 374 428 534
#
# _framework density 27.219791000000001
#
# number of rings (size 3 to 8) (size 9 to 14) (size 15 to 20)
#    0.000    0.444    8.889    0.000    0.000    3.556 
#    8.000    4.444    0.000   56.000    0.000    0.000 
#    0.000    0.000    0.000    0.000    0.000    0.000 
#
# Total GULP energy -223166.516807 kJ/mol
# GULP energy per Si atom -12398.139823 kJ/mol
# Density = 2.715784 g / cm^3
# Si number density = 27.219791 Si / 1000 Ang^3
#
#
#
# Elastic Constant Matrix: (Units=GPa)
#
#
# Indices 1 2 3 4 5 6 
#
# 1 181.4887 87.1113 56.8961 0.0000 0.0000 0.0000
# 2 87.1113 181.4887 56.8961 0.0000 0.0000 0.0000
# 3 56.8961 56.8961 254.8934 0.0000 0.0000 0.0000
# 4 0.0000 0.0000 0.0000 35.9613 0.0000 0.0000
# 5 0.0000 0.0000 0.0000 0.0000 35.9613 0.0000
# 6 0.0000 0.0000 0.0000 0.0000 0.0000 42.8862
#
#
#
# Elastic Compliance Matrix: (Units=1/GPa)
#
#
# Indices 1 2 3 4 5 6 
#
# 1 0.007354 -0.003242 -0.000918 0.000000 0.000000 0.000000
# 2 -0.003242 0.007354 -0.000918 0.000000 0.000000 0.000000
# 3 -0.000918 -0.000918 0.004333 0.000000 0.000000 0.000000
# 4 0.000000 0.000000 0.000000 0.027808 0.000000 0.000000
# 5 0.000000 0.000000 0.000000 0.000000 0.027808 0.000000
# 6 0.000000 0.000000 0.000000 0.000000 0.000000 0.023318
#
#
# Mechanical properties :
#
#
# Convention : Reuss Voigt Hill
#
# Bulk Modulus (GPa) = 112.54498 113.29755 112.92127
# Shear Modulus (GPa) = 45.00837 50.75957 47.88397
#
# Velocity S-wave (km/s) = 4.07076 4.32302 4.19878
# Velocity P-wave (km/s) = 7.97065 8.16282 8.06731
#
# Compressibility (1/GPa) = 0.00888534
#
# Stress axis : x y z
#
# Youngs Moduli (GPa) = 135.98410 135.98410 230.78939
#
# Poissons Ratio (x) = 0.44085 0.21182
# Poissons Ratio (y) = 0.44085 0.21182
# Poissons Ratio (z) = 0.12481 0.12481
#
# Static dielectric constant tensor:
#      x y z
#    x 4.996950 0.000000 0.000000 
#    y 0.000000 4.996950 0.000000 
#    z 0.000000 0.000000 5.709360 
# 
# 
# High freq. dielectric constant tensor:
#      x y z
#    x 2.094810 0.000000 0.000000 
#    y 0.000000 2.094810 0.000000 
#    z 0.000000 0.000000 2.122780 
# 
# From -- ./inp_files/1774.got.cif
#   From: 2010.03.12/outbox.cif.g09.slc.cpg/sg112_1_cif.got.tgz:1774.got - 2010.04.14 02:02:48.
