data_PCOD8308751
_publ_section_title
;
Structure prediction by ZEFSAII (Michael W. Deem and Ramdas Pophale) SiO2 
 PCOD8308751
Probable space group: P -4 21 M 
;
_chemical_formula_sum "Si O2"
_cell_formula_units_Z 56
_cell_length_a 15.489180
_cell_length_b 15.489180
_cell_length_c 12.404681
_cell_angle_alpha 90.000000
_cell_angle_beta 90.000000
_cell_angle_gamma 90.000000
_cell_volume 2976.065284
_symmetry_space_group_name_H-M "P -4 21 M "
_symmetry_group_IT_number 113
_symmetry_cell_setting 'tetragonal'
loop_
_space_group_symop_operation_xyz
x,y,z
y,-x,-z
-x,-y,z
-y,x,-z
1/2+x,1/2-y,-z
1/2-x,1/2+y,-z
1/2-y,1/2-x,z
1/2+y,1/2+x,z
loop_
_atom_site_type_symbol
_atom_site_label
_atom_site_fract_x
_atom_site_fract_y
_atom_site_fract_z
Si Si1 0.493969 0.861920 0.043152
Si Si2 0.891767 0.921280 0.792761
Si Si3 0.638429 0.006041 0.284680
Si Si4 0.611165 0.423287 0.461341
Si Si5 0.621578 0.734796 0.366058
Si Si6 0.622343 0.733400 0.966889
Si Si7 0.381110 0.584403 0.830924
O O1 0.561621 0.938380 0.049414
O O2 0.481762 0.824043 0.163843
O O3 0.402351 0.902351 0.000880
O O4 0.531937 0.787040 0.967281
O O5 0.877092 0.916219 0.665620
O O6 0.815000 0.870146 0.852700
O O7 0.980991 0.875697 0.824160
O O8 0.888217 0.019386 0.833295
O O9 0.563647 0.936354 0.281369
O O10 0.715038 0.970847 0.360041
O O11 0.597166 0.097166 0.326506
O O12 0.521243 0.382597 0.498072
O O13 0.688913 0.371587 0.518143
O O14 0.700893 0.799108 0.351130
O O15 0.627205 0.663873 0.272387
O O16 0.704222 0.795779 0.982679
O O17 0.621074 0.663389 0.062084
#
# Coordination Sequence:
#
# PCOD8308751 Si02
#       7
#     8   8   8   8   8   8   8
#     4   8  14  27  49  75 106 149 191 222 268 341
#     4  11  23  39  63  83 114 158 203 242 293 362
#     4   8  14  27  49  78 110 145 186 229 279 341
#     4  11  20  40  63  84 110 152 203 249 294 350
#     4  11  20  33  61  91 117 150 195 254 305 346
#     4  11  22  36  57  88 128 156 186 245 303 351
#     4  11  20  40  62  86 110 155 204 242 288 356
#
# _framework density 18.816790999999998
#
# number of rings (size 3 to 8) (size 9 to 14) (size 15 to 20)
#    0.000    1.857    4.286    3.000    0.000    1.714 
#    0.000    5.000    0.000    0.000    0.000    4.000 
#    0.000    0.000    0.000    0.000    0.000    0.000 
#
# Total GULP energy -694107.454457 kJ/mol
# GULP energy per Si atom -12394.775972 kJ/mol
# Density = 1.877396 g / cm^3
# Si number density = 18.816791 Si / 1000 Ang^3
#
#
#
# Elastic Constant Matrix: (Units=GPa)
#
#
# Indices 1 2 3 4 5 6 
#
# 1 75.8671 31.5248 40.9734 0.0000 0.0000 0.0000
# 2 31.5248 75.8661 40.9730 0.0000 0.0000 0.0000
# 3 40.9734 40.9730 129.3960 0.0000 0.0000 0.0000
# 4 0.0000 0.0000 0.0000 23.3166 0.0000 0.0000
# 5 0.0000 0.0000 0.0000 0.0000 23.3167 0.0000
# 6 0.0000 0.0000 0.0000 0.0000 0.0000 22.0436
#
#
#
# Elastic Compliance Matrix: (Units=1/GPa)
#
#
# Indices 1 2 3 4 5 6 
#
# 1 0.017415 -0.005137 -0.003888 0.000000 0.000000 0.000000
# 2 -0.005137 0.017415 -0.003888 0.000000 0.000000 0.000000
# 3 -0.003888 -0.003888 0.010190 0.000000 0.000000 0.000000
# 4 0.000000 0.000000 0.000000 0.042888 0.000000 0.000000
# 5 0.000000 0.000000 0.000000 0.000000 0.042888 0.000000
# 6 0.000000 0.000000 0.000000 0.000000 0.000000 0.045365
#
#
# Mechanical properties :
#
#
# Convention : Reuss Voigt Hill
#
# Bulk Modulus (GPa) = 52.09540 56.45238 54.27389
# Shear Modulus (GPa) = 23.99402 24.91260 24.45331
#
# Velocity S-wave (km/s) = 3.57478 3.64257 3.60883
# Velocity P-wave (km/s) = 6.69212 6.91066 6.80227
#
# Compressibility (1/GPa) = 0.01919555
#
# Stress axis : x y z
#
# Youngs Moduli (GPa) = 57.42109 57.42041 98.13091
#
# Poissons Ratio (x) = 0.29496 0.38153
# Poissons Ratio (y) = 0.29496 0.38153
# Poissons Ratio (z) = 0.22325 0.22325
#
# Static dielectric constant tensor:
#      x y z
#    x 3.575580 0.000000 0.000000 
#    y 0.000000 3.575580 0.000000 
#    z 0.000000 0.000000 3.311190 
# 
# 
# High freq. dielectric constant tensor:
#      x y z
#    x 1.727550 0.000000 0.000000 
#    y 0.000000 1.727550 0.000000 
#    z 0.000000 0.000000 1.710030 
# 
# From -- ./inp_files/1911.got.cif
#   From: 2010.03.12/outbox.cif.g09.slc.cpg/sg113_cif.got.tgz:1911.got - 2010.04.14 02:06:34.
