data_PCOD8308992
_publ_section_title
;
Structure prediction by ZEFSAII (Michael W. Deem and Ramdas Pophale) SiO2 
 PCOD8308992
Probable space group: P -4 21 C
;
_chemical_formula_sum "Si O2"
_cell_formula_units_Z 60
_cell_length_a 19.090222
_cell_length_b 19.090222
_cell_length_c 8.541090
_cell_angle_alpha 90.000000
_cell_angle_beta 90.000000
_cell_angle_gamma 90.000000
_cell_volume 3112.685595
_symmetry_space_group_name_H-M "P -4 21 C"
_symmetry_group_IT_number 114
_symmetry_cell_setting 'tetragonal'
loop_
_space_group_symop_operation_xyz
x,y,z
y,-x,-z
-x,-y,z
-y,x,-z
1/2+x,1/2-y,1/2-z
1/2-x,1/2+y,1/2-z
1/2-y,1/2-x,1/2+z
1/2+y,1/2+x,1/2+z
loop_
_atom_site_type_symbol
_atom_site_label
_atom_site_fract_x
_atom_site_fract_y
_atom_site_fract_z
Si Si1 0.969984 0.730831 0.563331
Si Si2 0.234196 0.833658 0.929343
Si Si3 0.624266 0.769490 0.438749
Si Si4 0.527308 0.208337 0.570971
Si Si5 0.728853 0.877844 0.569178
Si Si6 0.338222 0.720875 0.059781
Si Si7 0.500000 0.000000 0.787559
Si Si8 0.087007 0.444789 0.962659
O O1 0.983040 0.725149 0.746677
O O2 0.915754 0.792174 0.516298
O O3 0.924909 0.666817 0.486731
O O4 0.040578 0.730814 0.466205
O O5 0.233726 0.842958 0.743810
O O6 0.161577 0.798946 0.987290
O O7 0.244222 0.909624 0.006975
O O8 0.298918 0.784780 0.974670
O O9 0.542536 0.769013 0.480655
O O10 0.658773 0.840595 0.505379
O O11 0.635865 0.765824 0.253389
O O12 0.540628 0.125579 0.544831
O O13 0.796005 0.849275 0.476778
O O14 0.571185 0.005057 0.685760
O O15 0.502507 0.068692 0.894644
#
# Coordination Sequence:
#
# PCOD8308992 Si02
#       8
#     8   8   8   8   8   8   4   8
#     4  12  24  38  61  87 118 158 204 247 300 357
#     4  11  22  40  61  86 119 156 203 251 299 357
#     4  11  24  40  61  87 121 159 201 250 304 357
#     4  12  24  38  61  87 118 158 204 247 300 357
#     4  11  24  40  61  87 121 159 201 250 304 357
#     4  11  22  40  61  86 119 156 203 251 299 357
#     4  10  24  38  48  74 120 162 192 238 284 348
#     4  11  24  36  54  80 120 164 198 237 288 354
#
# _framework density 19.275960000000001
#
# number of rings (size 3 to 8) (size 9 to 14) (size 15 to 20)
#    0.000    0.800    2.667    7.200    7.467    0.000 
#    0.000    0.000    0.000    0.800    0.000    5.600 
#    0.000    0.000    0.000    0.000    0.000    0.000 
#
# Total GULP energy -743703.629146 kJ/mol
# GULP energy per Si atom -12395.060486 kJ/mol
# Density = 1.923209 g / cm^3
# Si number density = 19.275960 Si / 1000 Ang^3
#
#
#
# Elastic Constant Matrix: (Units=GPa)
#
#
# Indices 1 2 3 4 5 6 
#
# 1 79.8638 41.5536 13.2126 0.0000 0.0000 0.0000
# 2 41.5536 79.8638 13.2126 0.0000 0.0000 0.0000
# 3 13.2126 13.2126 123.2414 0.0000 0.0000 0.0000
# 4 0.0000 0.0000 0.0000 30.5558 0.0000 0.0000
# 5 0.0000 0.0000 0.0000 0.0000 30.5558 0.0000
# 6 0.0000 0.0000 0.0000 0.0000 0.0000 21.8742
#
#
#
# Elastic Compliance Matrix: (Units=1/GPa)
#
#
# Indices 1 2 3 4 5 6 
#
# 1 0.017268 -0.008835 -0.000904 0.000000 0.000000 0.000000
# 2 -0.008835 0.017268 -0.000904 0.000000 0.000000 0.000000
# 3 -0.000904 -0.000904 0.008308 0.000000 0.000000 0.000000
# 4 0.000000 0.000000 0.000000 0.032727 0.000000 0.000000
# 5 0.000000 0.000000 0.000000 0.000000 0.032727 0.000000
# 6 0.000000 0.000000 0.000000 0.000000 0.000000 0.045716
#
#
# Mechanical properties :
#
#
# Convention : Reuss Voigt Hill
#
# Bulk Modulus (GPa) = 46.38791 46.54740 46.46766
# Shear Modulus (GPa) = 27.39943 30.92983 29.16463
#
# Velocity S-wave (km/s) = 3.77428 4.01007 3.89396
# Velocity P-wave (km/s) = 6.56589 6.75583 6.66154
#
# Compressibility (1/GPa) = 0.02155734
#
# Stress axis : x y z
#
# Youngs Moduli (GPa) = 57.91137 57.91137 120.36585
#
# Poissons Ratio (x) = 0.51164 0.10882
# Poissons Ratio (y) = 0.51164 0.10882
# Poissons Ratio (z) = 0.05236 0.05236
#
# Static dielectric constant tensor:
#      x y z
#    x 3.499930 0.000000 0.000000 
#    y 0.000000 3.499930 0.000000 
#    z 0.000000 0.000000 3.837800 
# 
# 
# High freq. dielectric constant tensor:
#      x y z
#    x 1.735830 0.000000 0.000000 
#    y 0.000000 1.735830 0.000000 
#    z 0.000000 0.000000 1.779870 
# 
# From -- ./inp_files/1028.got.cif
#   From: 2010.03.12/outbox.cif.g09.slc.cpg/sg114_1_cif.got.tgz:1028.got - 2010.04.14 02:08:34.
