data_PCOD8308567
_publ_section_title
;
Structure prediction by ZEFSAII (Michael W. Deem and Ramdas Pophale) SiO2 
 PCOD8308567
Probable space group: P -4 21 M 
;
_chemical_formula_sum "Si O2"
_cell_formula_units_Z 56
_cell_length_a 14.356529
_cell_length_b 14.356529
_cell_length_c 15.031538
_cell_angle_alpha 90.000000
_cell_angle_beta 90.000000
_cell_angle_gamma 90.000000
_cell_volume 3098.149169
_symmetry_space_group_name_H-M "P -4 21 M "
_symmetry_group_IT_number 113
_symmetry_cell_setting 'tetragonal'
loop_
_space_group_symop_operation_xyz
x,y,z
y,-x,-z
-x,-y,z
-y,x,-z
1/2+x,1/2-y,-z
1/2-x,1/2+y,-z
1/2-y,1/2-x,z
1/2+y,1/2+x,z
loop_
_atom_site_type_symbol
_atom_site_label
_atom_site_fract_x
_atom_site_fract_y
_atom_site_fract_z
Si Si1 0.081837 0.885618 0.023947
Si Si2 0.251192 0.395866 0.854400
Si Si3 0.651362 0.004638 0.815006
Si Si4 0.652520 0.502623 0.504042
Si Si5 0.692697 0.959317 0.009665
Si Si6 0.236291 0.585292 0.349133
Si Si7 0.388582 0.740474 0.341192
O O1 0.141222 0.893340 0.114455
O O2 0.102455 0.786580 0.976303
O O3 0.970133 0.890904 0.043047
O O4 0.208838 0.291163 0.855727
O O5 0.243703 0.436811 0.754681
O O6 0.188104 0.459177 0.918253
O O7 0.605860 0.105860 0.798176
O O8 0.573004 0.926997 0.816063
O O9 0.700781 0.003537 0.911034
O O10 0.723026 0.981922 0.735832
O O11 0.588789 0.412791 0.526882
O O12 0.729424 0.479391 0.429943
O O13 0.711955 0.531175 0.590336
O O14 0.601434 0.898567 0.023507
O O15 0.140742 0.640742 0.374323
O O16 0.316172 0.657631 0.324962
O O17 0.333203 0.833203 0.374021
#
# Coordination Sequence:
#
# PCOD8308567 Si02
#       7
#     8   8   8   8   8   8   8
#     4   9  18  32  48  69  94 125 169 215 256 292
#     4  10  19  32  51  73 100 135 172 208 247 298
#     4   9  17  29  47  73 100 126 164 210 253 300
#     4   9  18  34  53  75 100 128 163 206 256 309
#     4  10  19  32  50  71 101 138 170 205 250 303
#     4   9  17  31  52  74  98 129 165 209 258 303
#     4   9  18  33  53  75  97 129 171 205 242 303
#
# _framework density 18.075308
#
# number of rings (size 3 to 8) (size 9 to 14) (size 15 to 20)
#    0.000    2.714    0.000    1.714    0.000    3.714 
#    0.000   19.286    0.000    0.857    0.000    0.000 
#    0.000    0.000    0.000    0.000    0.000    0.000 
#
# Total GULP energy -694033.551083 kJ/mol
# GULP energy per Si atom -12393.456269 kJ/mol
# Density = 1.803417 g / cm^3
# Si number density = 18.075308 Si / 1000 Ang^3
#
#
#
# Elastic Constant Matrix: (Units=GPa)
#
#
# Indices 1 2 3 4 5 6 
#
# 1 70.8215 27.9085 60.1722 0.0000 0.0000 0.0000
# 2 27.9085 70.8212 60.1727 0.0000 0.0000 0.0000
# 3 60.1722 60.1727 147.2940 0.0000 0.0000 0.0000
# 4 0.0000 0.0000 0.0000 28.6379 0.0000 0.0000
# 5 0.0000 0.0000 0.0000 0.0000 28.6376 0.0000
# 6 0.0000 0.0000 0.0000 0.0000 0.0000 19.3823
#
#
#
# Elastic Compliance Matrix: (Units=1/GPa)
#
#
# Indices 1 2 3 4 5 6 
#
# 1 0.021739 -0.001564 -0.008242 0.000000 0.000000 0.000000
# 2 -0.001564 0.021739 -0.008242 0.000000 0.000000 0.000000
# 3 -0.008242 -0.008242 0.013523 0.000000 0.000000 0.000000
# 4 0.000000 0.000000 0.000000 0.034919 0.000000 0.000000
# 5 0.000000 0.000000 0.000000 0.000000 0.034919 0.000000
# 6 0.000000 0.000000 0.000000 0.000000 0.000000 0.051593
#
#
# Mechanical properties :
#
#
# Convention : Reuss Voigt Hill
#
# Bulk Modulus (GPa) = 47.83440 65.04930 56.44185
# Shear Modulus (GPa) = 22.57374 24.71044 23.64209
#
# Velocity S-wave (km/s) = 3.53777 3.70142 3.62052
# Velocity P-wave (km/s) = 6.57337 7.37112 6.98364
#
# Compressibility (1/GPa) = 0.02090546
#
# Stress axis : x y z
#
# Youngs Moduli (GPa) = 46.00074 46.00000 73.94793
#
# Poissons Ratio (x) = 0.07195 0.60946
# Poissons Ratio (y) = 0.07195 0.60947
# Poissons Ratio (z) = 0.37912 0.37913
#
# Static dielectric constant tensor:
#      x y z
#    x 3.395970 0.000000 0.000000 
#    y 0.000000 3.395970 0.000000 
#    z 0.000000 0.000000 3.287620 
# 
# 
# High freq. dielectric constant tensor:
#      x y z
#    x 1.694860 0.000000 0.000000 
#    y 0.000000 1.694860 0.000000 
#    z 0.000000 0.000000 1.683040 
# 
# From -- ./inp_files/2289.got.cif
#   From: 2010.03.12/outbox.cif.g09.slc.cpg/sg113_cif.got.tgz:2289.got - 2010.04.14 02:06:34.
