data_PCOD8308334
_publ_section_title
;
Structure prediction by ZEFSAII (Michael W. Deem and Ramdas Pophale) SiO2 
 PCOD8308334
Probable space group: P -4 2 C
;
_chemical_formula_sum "Si O2"
_cell_formula_units_Z 48
_cell_length_a 9.383417
_cell_length_b 9.383417
_cell_length_c 27.831883
_cell_angle_alpha 90.000000
_cell_angle_beta 90.000000
_cell_angle_gamma 90.000000
_cell_volume 2450.555957
_symmetry_space_group_name_H-M "P -4 2 C"
_symmetry_group_IT_number 112
_symmetry_cell_setting 'tetragonal'
loop_
_space_group_symop_operation_xyz
x,y,z
y,-x,-z
-x,-y,z
-y,x,-z
x,-y,1/2-z
-x,y,1/2-z
-y,-x,1/2+z
y,x,1/2+z
loop_
_atom_site_type_symbol
_atom_site_label
_atom_site_fract_x
_atom_site_fract_y
_atom_site_fract_z
Si Si1 0.334375 0.831477 0.956850
Si Si2 0.976846 0.665765 0.802643
Si Si3 0.669186 0.168641 0.539562
Si Si4 0.722796 0.663055 0.867525
Si Si5 0.332522 0.768601 0.365685
Si Si6 0.474796 0.336194 0.699355
O O1 0.501189 0.796174 0.963708
O O2 0.282438 0.777556 0.905409
O O3 0.304833 0.999656 0.960861
O O4 0.239504 0.746873 0.994752
O O5 0.074258 0.710411 0.848266
O O6 0.000000 0.500000 0.794371
O O7 0.000000 0.740430 0.750000
O O8 0.821239 0.703250 0.822157
O O9 0.743573 0.237838 0.586238
O O10 0.746788 0.497262 0.883009
O O11 0.568752 0.704989 0.846880
O O12 0.306789 0.685672 0.315918
O O13 0.500000 0.500000 0.709896
O O14 0.500000 0.253093 0.750000
#
# Coordination Sequence:
#
# PCOD8308334 Si02
#       6
#     8   8   8   8   8   8
#     4  11  25  43  63  87 117 154 198 250 306 364
#     4   9  18  32  55  89 125 159 197 241 288 341
#     4  11  25  43  63  87 117 154 198 250 306 364
#     4  10  19  34  58  87 121 156 195 245 292 344
#     4  10  19  34  58  87 121 156 195 245 292 344
#     4   9  16  28  53  87 119 153 197 243 292 337
#
# _framework density 19.587389999999999
#
# number of rings (size 3 to 8) (size 9 to 14) (size 15 to 20)
#    0.000    2.000    1.667    2.000    2.333    6.000 
#    0.000    0.000    0.000    6.000    0.000    0.000 
#    0.000    0.000    0.000    0.000    0.000    0.000 
#
# Total GULP energy -594720.875813 kJ/mol
# GULP energy per Si atom -12390.018246 kJ/mol
# Density = 1.954281 g / cm^3
# Si number density = 19.587390 Si / 1000 Ang^3
#
#
#
# Elastic Constant Matrix: (Units=GPa)
#
#
# Indices 1 2 3 4 5 6 
#
# 1 74.2399 35.4415 39.9568 0.0000 0.0000 0.0000
# 2 35.4415 74.2399 39.9568 0.0000 0.0000 0.0000
# 3 39.9568 39.9568 121.4426 0.0000 0.0000 0.0000
# 4 0.0000 0.0000 0.0000 -39.9130 0.0000 0.0000
# 5 0.0000 0.0000 0.0000 0.0000 -39.9130 0.0000
# 6 0.0000 0.0000 0.0000 0.0000 0.0000 18.5834
#
#
#
# Elastic Compliance Matrix: (Units=1/GPa)
#
#
# Indices 1 2 3 4 5 6 
#
# 1 0.018883 -0.006891 -0.003946 0.000000 0.000000 0.000000
# 2 -0.006891 0.018883 -0.003946 0.000000 0.000000 0.000000
# 3 -0.003946 -0.003946 0.010831 0.000000 0.000000 0.000000
# 4 0.000000 0.000000 0.000000 -0.025054 0.000000 0.000000
# 5 0.000000 0.000000 0.000000 0.000000 -0.025054 0.000000
# 6 0.000000 0.000000 0.000000 0.000000 0.000000 0.053811
#
#
# Mechanical properties :
#
#
# Convention : Reuss Voigt Hill
#
# Bulk Modulus (GPa) = 52.54193 55.62584 54.08389
# Shear Modulus (GPa) = 56.68411 -1.94403 27.37004
#
# Velocity S-wave (km/s) = 5.38534 -0.99732 3.74214
# Velocity P-wave (km/s) = 8.09641 5.20906 6.80757
#
# Compressibility (1/GPa) = 0.01903242
#
# Stress axis : x y z
#
# Youngs Moduli (GPa) = 52.95724 52.95724 92.33019
#
# Poissons Ratio (x) = 0.36493 0.36430
# Poissons Ratio (y) = 0.36493 0.36430
# Poissons Ratio (z) = 0.20895 0.20895
#
# Static dielectric constant tensor:
#      x y z
#    x 3.460130 0.000000 0.000000 
#    y 0.000000 3.460130 0.000000 
#    z 0.000000 0.000000 3.831830 
# 
# 
# High freq. dielectric constant tensor:
#      x y z
#    x 1.742800 0.000000 0.000000 
#    y 0.000000 1.742800 0.000000 
#    z 0.000000 0.000000 1.783700 
# 
# From -- ./inp_files/6265.got.cif
#   From: 2010.03.12/outbox.cif.g09.slc.cpg/sg112_4_cif.got.tgz:6265.got - 2010.04.14 02:02:48.
