data_PCOD8308929
_publ_section_title
;
Structure prediction by ZEFSAII (Michael W. Deem and Ramdas Pophale) SiO2 
 PCOD8308929
Probable space group: P -4 21 C
;
_chemical_formula_sum "Si O2"
_cell_formula_units_Z 52
_cell_length_a 16.418411
_cell_length_b 16.418411
_cell_length_c 9.623168
_cell_angle_alpha 90.000000
_cell_angle_beta 90.000000
_cell_angle_gamma 90.000000
_cell_volume 2594.061774
_symmetry_space_group_name_H-M "P -4 21 C"
_symmetry_group_IT_number 114
_symmetry_cell_setting 'tetragonal'
loop_
_space_group_symop_operation_xyz
x,y,z
y,-x,-z
-x,-y,z
-y,x,-z
1/2+x,1/2-y,1/2-z
1/2-x,1/2+y,1/2-z
1/2-y,1/2-x,1/2+z
1/2+y,1/2+x,1/2+z
loop_
_atom_site_type_symbol
_atom_site_label
_atom_site_fract_x
_atom_site_fract_y
_atom_site_fract_z
Si Si1 0.758142 0.582433 0.643598
Si Si2 0.248932 0.689676 0.323726
Si Si3 0.481823 0.180432 0.604734
Si Si4 0.500000 0.000000 0.496440
Si Si5 0.279178 0.462624 0.935921
Si Si6 0.353619 0.298907 0.983963
Si Si7 0.068169 0.351971 0.635713
O O1 0.699050 0.659474 0.615744
O O2 0.765018 0.523949 0.512574
O O3 0.724715 0.527655 0.769960
O O4 0.845937 0.615667 0.689593
O O5 0.205922 0.611450 0.389558
O O6 0.193470 0.765030 0.378962
O O7 0.255051 0.683650 0.154995
O O8 0.527942 0.204328 0.746103
O O9 0.491984 0.082897 0.585720
O O10 0.423528 0.995553 0.394895
O O11 0.285515 0.550039 0.007259
O O12 0.348515 0.397256 0.976594
O O13 0.197322 0.419615 0.993158
#
# Coordination Sequence:
#
# PCOD8308929 Si02
#       7
#     8   8   8   4   8   8   8
#     4  10  23  40  63  90 125 167 211 256 327 377
#     4  11  24  41  65  96 124 173 215 259 321 394
#     4  11  23  38  61  90 129 163 209 261 312 387
#     4  10  22  34  58  92 128 164 196 256 322 384
#     4  11  23  43  63  94 124 168 217 270 317 381
#     4  11  25  43  69  93 130 168 222 268 323 385
#     4  11  20  39  60  89 126 165 204 257 320 378
#
# _framework density 20.045781999999999
#
# number of rings (size 3 to 8) (size 9 to 14) (size 15 to 20)
#    0.000    1.231    3.077    3.231    4.308    2.769 
#    0.000    0.000    0.000    0.462    0.000    0.000 
#    0.000    0.000    0.000    0.000    0.000    0.000 
#
# Total GULP energy -644590.886415 kJ/mol
# GULP energy per Si atom -12395.978585 kJ/mol
# Density = 2.000016 g / cm^3
# Si number density = 20.045782 Si / 1000 Ang^3
#
#
#
# Elastic Constant Matrix: (Units=GPa)
#
#
# Indices 1 2 3 4 5 6 
#
# 1 71.6146 25.0975 36.8532 0.0000 0.0000 0.0000
# 2 25.0975 71.6146 36.8532 0.0000 0.0000 0.0000
# 3 36.8532 36.8532 101.8947 0.0000 0.0000 0.0000
# 4 0.0000 0.0000 0.0000 24.1281 0.0000 0.0000
# 5 0.0000 0.0000 0.0000 0.0000 24.1281 0.0000
# 6 0.0000 0.0000 0.0000 0.0000 0.0000 33.5231
#
#
#
# Elastic Compliance Matrix: (Units=1/GPa)
#
#
# Indices 1 2 3 4 5 6 
#
# 1 0.017886 -0.003611 -0.005163 0.000000 0.000000 0.000000
# 2 -0.003611 0.017886 -0.005163 0.000000 0.000000 0.000000
# 3 -0.005163 -0.005163 0.013549 0.000000 0.000000 0.000000
# 4 0.000000 0.000000 0.000000 0.041445 0.000000 0.000000
# 5 0.000000 0.000000 0.000000 0.000000 0.041445 0.000000
# 6 0.000000 0.000000 0.000000 0.000000 0.000000 0.029830
#
#
# Mechanical properties :
#
#
# Convention : Reuss Voigt Hill
#
# Bulk Modulus (GPa) = 46.62743 49.19239 47.90991
# Shear Modulus (GPa) = 25.37235 26.11053 25.74144
#
# Velocity S-wave (km/s) = 3.56156 3.61299 3.58737
# Velocity P-wave (km/s) = 6.34223 6.48061 6.41179
#
# Compressibility (1/GPa) = 0.02144660
#
# Stress axis : x y z
#
# Youngs Moduli (GPa) = 55.90940 55.90940 73.80814
#
# Poissons Ratio (x) = 0.20191 0.38106
# Poissons Ratio (y) = 0.20191 0.38106
# Poissons Ratio (z) = 0.28865 0.28865
#
# Static dielectric constant tensor:
#      x y z
#    x 3.571270 0.000000 0.000000 
#    y 0.000000 3.571270 0.000000 
#    z 0.000000 0.000000 3.729090 
# 
# 
# High freq. dielectric constant tensor:
#      x y z
#    x 1.773650 0.000000 0.000000 
#    y 0.000000 1.773650 0.000000 
#    z 0.000000 0.000000 1.792240 
# 
# From -- ./inp_files/983.got.cif
#   From: 2010.03.12/outbox.cif.g09.slc.cpg/sg114_1_cif.got.tgz:983.got - 2010.04.14 02:08:34.
