data_PCOD8308541
_publ_section_title
;
Structure prediction by ZEFSAII (Michael W. Deem and Ramdas Pophale) SiO2 
 PCOD8308541
Probable space group: P -4 21 M 
;
_chemical_formula_sum "Si O2"
_cell_formula_units_Z 64
_cell_length_a 14.489399
_cell_length_b 14.489399
_cell_length_c 16.465092
_cell_angle_alpha 90.000000
_cell_angle_beta 90.000000
_cell_angle_gamma 90.000000
_cell_volume 3456.725597
_symmetry_space_group_name_H-M "P -4 21 M "
_symmetry_group_IT_number 113
_symmetry_cell_setting 'tetragonal'
loop_
_space_group_symop_operation_xyz
x,y,z
y,-x,-z
-x,-y,z
-y,x,-z
1/2+x,1/2-y,-z
1/2-x,1/2+y,-z
1/2-y,1/2-x,z
1/2+y,1/2+x,z
loop_
_atom_site_type_symbol
_atom_site_label
_atom_site_fract_x
_atom_site_fract_y
_atom_site_fract_z
Si Si1 0.240690 0.406337 0.726584
Si Si2 0.240002 0.593135 0.810953
Si Si3 0.038352 0.311907 0.951440
Si Si4 0.319403 0.328129 0.885472
Si Si5 0.562168 0.367671 0.598345
Si Si6 0.310640 0.035187 0.875920
Si Si7 0.357315 0.440980 0.581665
Si Si8 0.232441 0.882645 0.759040
O O1 0.140022 0.359979 0.729797
O O2 0.234463 0.514322 0.743669
O O3 0.307709 0.361701 0.793380
O O4 0.284297 0.389675 0.638800
O O5 0.167679 0.667679 0.781348
O O6 0.206223 0.553109 0.898119
O O7 0.341184 0.644282 0.810685
O O8 0.107037 0.392964 0.915394
O O9 0.092647 0.213383 0.948371
O O10 0.013537 0.343536 0.041573
O O11 0.261415 0.238586 0.905824
O O12 0.423117 0.291365 0.895566
O O13 0.457790 0.401285 0.598402
O O14 0.635646 0.450909 0.604543
O O15 0.577107 0.321075 0.509833
O O16 0.575500 0.298797 0.673118
O O17 0.389946 0.110055 0.848683
O O18 0.291924 0.959359 0.807148
O O19 0.300223 0.800223 0.737474
#
# Coordination Sequence:
#
# PCOD8308541 Si02
#       8
#     8   8   8   8   8   8   8   8
#     4  10  18  32  55  81 109 140 178 228 283 343
#     4  10  21  36  55  79 110 147 185 230 285 338
#     4  10  21  37  58  81 108 145 192 239 283 336
#     4   8  18  35  53  77 109 139 174 228 284 330
#     4   9  18  34  55  80 111 145 183 233 282 335
#     4  11  23  38  59  82 111 152 195 237 285 342
#     4   9  17  32  57  83 108 141 185 232 283 337
#     4  11  23  37  56  81 115 154 191 234 285 340
#
# _framework density 18.514631000000001
#
# number of rings (size 3 to 8) (size 9 to 14) (size 15 to 20)
#    0.000    2.250    1.250    3.375    1.750    3.000 
#    0.000    0.000    0.000    1.500    0.000    1.750 
#    0.000    0.000    0.000    0.000    0.000    0.000 
#
# Total GULP energy -792861.292050 kJ/mol
# GULP energy per Si atom -12388.457688 kJ/mol
# Density = 1.847249 g / cm^3
# Si number density = 18.514631 Si / 1000 Ang^3
#
#
#
# Elastic Constant Matrix: (Units=GPa)
#
#
# Indices 1 2 3 4 5 6 
#
# 1 73.2658 30.6541 38.0485 0.0000 0.0000 0.0000
# 2 30.6541 73.2651 38.0465 0.0000 0.0000 0.0000
# 3 38.0485 38.0465 111.9242 0.0000 0.0000 0.0000
# 4 0.0000 0.0000 0.0000 19.0055 0.0000 0.0000
# 5 0.0000 0.0000 0.0000 0.0000 19.0108 0.0000
# 6 0.0000 0.0000 0.0000 0.0000 0.0000 31.1554
#
#
#
# Elastic Compliance Matrix: (Units=1/GPa)
#
#
# Indices 1 2 3 4 5 6 
#
# 1 0.018140 -0.005328 -0.004356 0.000000 0.000000 0.000000
# 2 -0.005328 0.018140 -0.004355 0.000000 0.000000 0.000000
# 3 -0.004356 -0.004355 0.011896 0.000000 0.000000 0.000000
# 4 0.000000 0.000000 0.000000 0.052616 0.000000 0.000000
# 5 0.000000 0.000000 0.000000 0.000000 0.052602 0.000000
# 6 0.000000 0.000000 0.000000 0.000000 0.000000 0.032097
#
#
# Mechanical properties :
#
#
# Convention : Reuss Voigt Hill
#
# Bulk Modulus (GPa) = 49.75505 52.43927 51.09716
# Shear Modulus (GPa) = 22.69966 23.94806 23.32386
#
# Velocity S-wave (km/s) = 3.50528 3.60038 3.55315
# Velocity P-wave (km/s) = 6.58137 6.75783 6.67018
#
# Compressibility (1/GPa) = 0.02009846
#
# Stress axis : x y z
#
# Youngs Moduli (GPa) = 55.12664 55.12719 84.06391
#
# Poissons Ratio (x) = 0.29372 0.36614
# Poissons Ratio (y) = 0.29371 0.36610
# Poissons Ratio (z) = 0.24011 0.24008
#
# Static dielectric constant tensor:
#      x y z
#    x 3.449990 0.000000 0.000000 
#    y 0.000000 3.449980 0.000000 
#    z 0.000000 0.000000 3.380630 
# 
# 
# High freq. dielectric constant tensor:
#      x y z
#    x 1.711850 0.000000 0.000000 
#    y 0.000000 1.711850 0.000000 
#    z 0.000000 0.000000 1.710590 
# 
# From -- ./inp_files/2595.got.cif
#   From: 2010.03.12/outbox.cif.g09.slc.cpg/sg113_cif.got.tgz:2595.got - 2010.04.14 02:06:34.
