data_PCOD8308973
_publ_section_title
;
Structure prediction by ZEFSAII (Michael W. Deem and Ramdas Pophale) SiO2 
 PCOD8308973
Probable space group: P -4 21 C
;
_chemical_formula_sum "Si O2"
_cell_formula_units_Z 48
_cell_length_a 13.006803
_cell_length_b 13.006803
_cell_length_c 12.837918
_cell_angle_alpha 90.000000
_cell_angle_beta 90.000000
_cell_angle_gamma 90.000000
_cell_volume 2171.879481
_symmetry_space_group_name_H-M "P -4 21 C"
_symmetry_group_IT_number 114
_symmetry_cell_setting 'tetragonal'
loop_
_space_group_symop_operation_xyz
x,y,z
y,-x,-z
-x,-y,z
-y,x,-z
1/2+x,1/2-y,1/2-z
1/2-x,1/2+y,1/2-z
1/2-y,1/2-x,1/2+z
1/2+y,1/2+x,1/2+z
loop_
_atom_site_type_symbol
_atom_site_label
_atom_site_fract_x
_atom_site_fract_y
_atom_site_fract_z
Si Si1 0.747402 0.288142 0.677275
Si Si2 0.878248 0.328718 0.370910
Si Si3 0.718597 0.455763 0.071003
Si Si4 0.500000 0.000000 0.725800
Si Si5 0.000000 0.000000 0.000000
Si Si6 0.657036 0.333582 0.460924
Si Si7 0.153898 0.362428 0.163557
Si Si8 0.000000 0.000000 0.500000
O O1 0.762537 0.377020 0.764070
O O2 0.860055 0.252467 0.640791
O O3 0.676571 0.331430 0.584950
O O4 0.690073 0.192617 0.730271
O O5 0.940129 0.262494 0.454831
O O6 0.762617 0.357505 0.402629
O O7 0.927926 0.438927 0.352871
O O8 0.759174 0.563750 0.115154
O O9 0.595064 0.461506 0.070610
O O10 0.574630 0.054532 0.806701
O O11 0.921956 0.072970 0.933760
O O12 0.618962 0.221871 0.421987
#
# Coordination Sequence:
#
# PCOD8308973 Si02
#       8
#     8   8   8   4   2   8   8   2
#     4  10  22  48  70  97 148 181 233 306 360 432
#     4  10  24  46  70 103 139 186 240 310 354 432
#     4  11  24  46  70 107 145 189 242 303 370 432
#     4  12  26  42  78 100 130 190 252 294 376 428
#     4  12  28  40  70 100 136 202 216 276 382 428
#     4  10  26  47  66  98 147 182 235 302 360 438
#     4  11  26  46  70 106 140 189 242 305 359 435
#     4  12  24  40  74 104 132 202 228 288 382 436
#
# _framework density 22.100674999999999
#
# number of rings (size 3 to 8) (size 9 to 14) (size 15 to 20)
#    0.000    1.333    1.667    3.000    9.333    0.667 
#    0.000    6.667    0.000    0.000    0.000    0.000 
#    0.000    0.000    0.000    0.000    0.000    0.000 
#
# Total GULP energy -595220.890038 kJ/mol
# GULP energy per Si atom -12400.435209 kJ/mol
# Density = 2.205037 g / cm^3
# Si number density = 22.100675 Si / 1000 Ang^3
#
#
#
# Elastic Constant Matrix: (Units=GPa)
#
#
# Indices 1 2 3 4 5 6 
#
# 1 122.7842 61.4119 49.5467 0.0000 0.0000 0.0000
# 2 61.4119 122.7842 49.5467 0.0000 0.0000 0.0000
# 3 49.5467 49.5467 141.4237 0.0000 0.0000 0.0000
# 4 0.0000 0.0000 0.0000 26.7371 0.0000 0.0000
# 5 0.0000 0.0000 0.0000 0.0000 26.7371 0.0000
# 6 0.0000 0.0000 0.0000 0.0000 0.0000 55.8762
#
#
#
# Elastic Compliance Matrix: (Units=1/GPa)
#
#
# Indices 1 2 3 4 5 6 
#
# 1 0.011492 -0.004802 -0.002344 0.000000 0.000000 0.000000
# 2 -0.004802 0.011492 -0.002344 0.000000 0.000000 0.000000
# 3 -0.002344 -0.002344 0.008713 0.000000 0.000000 0.000000
# 4 0.000000 0.000000 0.000000 0.037401 0.000000 0.000000
# 5 0.000000 0.000000 0.000000 0.000000 0.037401 0.000000
# 6 0.000000 0.000000 0.000000 0.000000 0.000000 0.017897
#
#
# Mechanical properties :
#
#
# Convention : Reuss Voigt Hill
#
# Bulk Modulus (GPa) = 78.62902 78.66695 78.64798
# Shear Modulus (GPa) = 33.87196 36.96919 35.42058
#
# Velocity S-wave (km/s) = 3.91912 4.09438 4.00771
# Velocity P-wave (km/s) = 7.49228 7.61735 7.55507
#
# Compressibility (1/GPa) = 0.01271795
#
# Stress axis : x y z
#
# Youngs Moduli (GPa) = 87.01748 87.01748 114.76872
#
# Poissons Ratio (x) = 0.41786 0.26899
# Poissons Ratio (y) = 0.41786 0.26899
# Poissons Ratio (z) = 0.20395 0.20395
#
# Static dielectric constant tensor:
#      x y z
#    x 4.082450 0.000000 0.000000 
#    y 0.000000 4.082450 0.000000 
#    z 0.000000 0.000000 4.071830 
# 
# 
# High freq. dielectric constant tensor:
#      x y z
#    x 1.877510 0.000000 0.000000 
#    y 0.000000 1.877510 0.000000 
#    z 0.000000 0.000000 1.867410 
# 
# From -- ./inp_files/1724.got.cif
#   From: 2010.03.12/outbox.cif.g09.slc.cpg/sg114_1_cif.got.tgz:1724.got - 2010.04.14 02:08:34.
