data_PCOD8308341
_publ_section_title
;
Structure prediction by ZEFSAII (Michael W. Deem and Ramdas Pophale) SiO2 
 PCOD8308341
Probable space group: P -4 2 C
;
_chemical_formula_sum "Si O2"
_cell_formula_units_Z 56
_cell_length_a 15.000747
_cell_length_b 15.000747
_cell_length_c 13.079249
_cell_angle_alpha 90.000000
_cell_angle_beta 90.000000
_cell_angle_gamma 90.000000
_cell_volume 2943.124138
_symmetry_space_group_name_H-M "P -4 2 C"
_symmetry_group_IT_number 112
_symmetry_cell_setting 'tetragonal'
loop_
_space_group_symop_operation_xyz
x,y,z
y,-x,-z
-x,-y,z
-y,x,-z
x,-y,1/2-z
-x,y,1/2-z
-y,-x,1/2+z
y,x,1/2+z
loop_
_atom_site_type_symbol
_atom_site_label
_atom_site_fract_x
_atom_site_fract_y
_atom_site_fract_z
Si Si1 0.671551 0.125647 0.553262
Si Si2 0.546477 0.274610 0.646314
Si Si3 0.402240 0.699712 0.206364
Si Si4 0.734715 0.773650 0.128340
Si Si5 0.227977 0.597544 0.488795
Si Si6 0.903510 0.755915 0.250580
Si Si7 0.588768 0.047731 0.878607
O O1 0.600043 0.196103 0.592732
O O2 0.700936 0.142748 0.436749
O O3 0.753927 0.132638 0.633436
O O4 0.639220 0.024068 0.551263
O O5 0.500000 0.237954 0.750000
O O6 0.605791 0.361087 0.669802
O O7 0.468133 0.300036 0.566042
O O8 0.500000 0.680903 0.250000
O O9 0.338325 0.745180 0.289174
O O10 0.410036 0.766317 0.110658
O O11 0.828580 0.801801 0.180544
O O12 0.750440 0.697204 0.045045
O O13 0.130179 0.565933 0.452677
O O14 0.918450 0.652247 0.214337
O O15 0.000000 0.806181 0.250000
O O16 0.500000 0.000000 0.835039
#
# Coordination Sequence:
#
# PCOD8308341 Si02
#       7
#     8   8   8   8   8   8   8
#     4  11  20  34  57  83 116 153 187 245 314 359
#     4  12  21  37  57  78 110 149 208 254 295 331
#     4  12  26  39  56  78 114 164 206 240 292 356
#     4  11  20  40  57  81 117 159 195 244 304 361
#     4  11  22  39  59  82 113 150 198 256 303 358
#     4   9  19  33  56  90 114 146 198 252 306 363
#     4  10  20  32  57  88 116 143 195 253 308 362
#
# _framework density 19.027401000000001
#
# number of rings (size 3 to 8) (size 9 to 14) (size 15 to 20)
#    0.000    1.143    5.714    1.714    0.000    2.286 
#    0.000    0.714    0.000    0.000    0.000    0.000 
#    0.000  120.571    0.000    0.000    0.000    0.000 
#
# Total GULP energy -694121.227688 kJ/mol
# GULP energy per Si atom -12395.021923 kJ/mol
# Density = 1.898409 g / cm^3
# Si number density = 19.027401 Si / 1000 Ang^3
#
#
#
# Elastic Constant Matrix: (Units=GPa)
#
#
# Indices 1 2 3 4 5 6 
#
# 1 76.3748 23.3503 42.2001 0.0000 0.0000 0.0000
# 2 23.3503 76.3748 42.2001 0.0000 0.0000 0.0000
# 3 42.2001 42.2001 112.8433 0.0000 0.0000 0.0000
# 4 0.0000 0.0000 0.0000 30.1322 0.0000 0.0000
# 5 0.0000 0.0000 0.0000 0.0000 30.1322 0.0000
# 6 0.0000 0.0000 0.0000 0.0000 0.0000 16.4836
#
#
#
# Elastic Compliance Matrix: (Units=1/GPa)
#
#
# Indices 1 2 3 4 5 6 
#
# 1 0.016765 -0.002094 -0.005486 0.000000 0.000000 0.000000
# 2 -0.002094 0.016765 -0.005486 0.000000 0.000000 0.000000
# 3 -0.005486 -0.005486 0.012965 0.000000 0.000000 0.000000
# 4 0.000000 0.000000 0.000000 0.033187 0.000000 0.000000
# 5 0.000000 0.000000 0.000000 0.000000 0.033187 0.000000
# 6 0.000000 0.000000 0.000000 0.000000 0.000000 0.060667
#
#
# Mechanical properties :
#
#
# Convention : Reuss Voigt Hill
#
# Bulk Modulus (GPa) = 49.11275 53.45486 51.28381
# Shear Modulus (GPa) = 24.21805 25.87242 25.04523
#
# Velocity S-wave (km/s) = 3.57150 3.69147 3.63198
# Velocity P-wave (km/s) = 6.54791 6.80617 6.67829
#
# Compressibility (1/GPa) = 0.02036131
#
# Stress axis : x y z
#
# Youngs Moduli (GPa) = 59.64787 59.64787 77.12825
#
# Poissons Ratio (x) = 0.12491 0.42316
# Poissons Ratio (y) = 0.12491 0.42316
# Poissons Ratio (z) = 0.32726 0.32726
#
# Static dielectric constant tensor:
#      x y z
#    x 3.486520 0.000000 0.000000 
#    y 0.000000 3.486520 0.000000 
#    z 0.000000 0.000000 3.600790 
# 
# 
# High freq. dielectric constant tensor:
#      x y z
#    x 1.720600 0.000000 0.000000 
#    y 0.000000 1.720600 0.000000 
#    z 0.000000 0.000000 1.743790 
# 
# From -- ./inp_files/2653.got.cif
#   From: 2010.03.12/outbox.cif.g09.slc.cpg/sg112_2_cif.got.tgz:2653.got - 2010.04.14 02:02:48.
