data_PCOD8308035
_publ_section_title
;
Structure prediction by ZEFSAII (Michael W. Deem and Ramdas Pophale) SiO2 
 PCOD8308035
Probable space group: I 41 C D
;
_chemical_formula_sum "Si O2"
_cell_formula_units_Z 120
_cell_length_a 18.326625
_cell_length_b 18.326625
_cell_length_c 16.667021
_cell_angle_alpha 90.000000
_cell_angle_beta 90.000000
_cell_angle_gamma 90.000000
_cell_volume 5597.872073
_symmetry_space_group_name_H-M "I 41 C D"
_symmetry_group_IT_number 110
_symmetry_cell_setting 'tetragonal'
loop_
_space_group_symop_operation_xyz
x,y,z
-y,1/2+x,1/4+z
-x,-y,z
y,1/2-x,1/4+z
-x,y,1/2+z
x,-y,1/2+z
1/2-y,-x,1/4+z
1/2+y,x,1/4+z
1/2+x,1/2+y,1/2+z
1/2-y,x,3/4+z
1/2-x,1/2-y,1/2+z
1/2+y,-x,3/4+z
1/2-x,1/2+y,z
1/2+x,1/2-y,z
-y,1/2-x,3/4+z
y,1/2+x,3/4+z
loop_
_atom_site_type_symbol
_atom_site_label
_atom_site_fract_x
_atom_site_fract_y
_atom_site_fract_z
Si Si1 0.017872 0.636508 0.671000
Si Si2 0.860889 0.644020 0.691611
Si Si3 0.000000 0.500000 0.381326
Si Si4 0.860331 0.993925 0.239311
Si Si5 0.757867 0.392196 0.737345
Si Si6 0.509447 0.606969 0.497062
Si Si7 0.846093 0.712931 0.519201
Si Si8 0.223691 0.158426 0.903640
O O1 0.002574 0.612849 0.579992
O O2 0.044360 0.563170 0.713687
O O3 0.076619 0.700263 0.676220
O O4 0.943784 0.670593 0.711009
O O5 0.872757 0.555824 0.685160
O O6 0.833405 0.683285 0.609530
O O7 0.801569 0.661775 0.761181
O O8 0.018276 0.429811 0.434224
O O9 0.927584 0.480057 0.329995
O O10 0.815402 0.065724 0.211881
O O11 0.806936 0.924840 0.233659
O O12 0.818850 0.448713 0.766977
O O13 0.745272 0.335867 0.810713
O O14 0.785663 0.343875 0.663269
O O15 0.789260 0.674396 0.462005
#
# Coordination Sequence:
#
# PCOD8308035 Si02
#       8
#    16  16   8  16  16  16  16  16
#     4   9  21  41  71  93 131 171 225 274 338 388
#     4  11  22  42  68  97 129 177 216 278 331 402
#     4  12  24  36  64 102 134 166 228 290 328 398
#     4  10  23  41  63  99 130 173 221 281 328 401
#     4  10  21  44  66  93 136 175 223 275 337 401
#     4  11  21  42  67  96 130 175 222 282 329 397
#     4  11  23  41  68  94 135 175 220 267 342 409
#     4  10  21  41  69  96 131 184 219 275 337 402
#
# _framework density 21.436717999999999
#
# number of rings (size 3 to 8) (size 9 to 14) (size 15 to 20)
#    0.000    1.600    2.667    1.600    3.733    1.067 
#    4.800    0.000    2.933    0.000    0.000    0.000 
#    0.000    0.000    0.000    0.000    0.000    0.000 
#
# Total GULP energy -743770.569553 kJ/mol
# GULP energy per Si atom -12396.176159 kJ/mol
# Density = 2.138793 g / cm^3
# Si number density = 21.436718 Si / 1000 Ang^3
#
#
#
# Elastic Constant Matrix: (Units=GPa)
#
#
# Indices 1 2 3 4 5 6 
#
# 1 97.4757 28.3742 50.2494 0.0000 0.0000 0.0000
# 2 28.3742 97.4757 50.2494 0.0000 0.0000 0.0000
# 3 50.2494 50.2494 70.1708 0.0000 0.0000 0.0000
# 4 0.0000 0.0000 0.0000 33.4992 0.0000 0.0000
# 5 0.0000 0.0000 0.0000 0.0000 33.4992 0.0000
# 6 0.0000 0.0000 0.0000 0.0000 0.0000 24.8738
#
#
#
# Elastic Compliance Matrix: (Units=1/GPa)
#
#
# Indices 1 2 3 4 5 6 
#
# 1 0.016515 0.002044 -0.013290 0.000000 0.000000 0.000000
# 2 0.002044 0.016515 -0.013290 0.000000 0.000000 0.000000
# 3 -0.013290 -0.013290 0.033285 0.000000 0.000000 0.000000
# 4 0.000000 0.000000 0.000000 0.029851 0.000000 0.000000
# 5 0.000000 0.000000 0.000000 0.000000 0.029851 0.000000
# 6 0.000000 0.000000 0.000000 0.000000 0.000000 0.040203
#
#
# Mechanical properties :
#
#
# Convention : Reuss Voigt Hill
#
# Bulk Modulus (GPa) = 57.99597 58.09646 58.04621
# Shear Modulus (GPa) = 22.62018 27.45771 25.03894
#
# Velocity S-wave (km/s) = 3.25192 3.58281 3.42137
# Velocity P-wave (km/s) = 6.41975 6.65399 6.53792
#
# Compressibility (1/GPa) = 0.01724258
#
# Stress axis : x y z
#
# Youngs Moduli (GPa) = 60.55035 60.55035 30.04357
#
# Poissons Ratio (x) = -0.12375 0.39928
# Poissons Ratio (y) = -0.12375 0.39928
# Poissons Ratio (z) = 0.80472 0.80472
#
# Static dielectric constant tensor:
#      x y z
#    x 4.054350 0.000000 0.000000 
#    y 0.000000 4.054350 0.000000 
#    z 0.000000 0.000000 3.730820 
# 
# 
# High freq. dielectric constant tensor:
#      x y z
#    x 1.852890 0.000000 0.000000 
#    y 0.000000 1.852890 0.000000 
#    z 0.000000 0.000000 1.820230 
# 
# From -- ./inp_files/1810.got.cif
#   From: 2010.03.12/outbox.cif.g09.slc.cpg/sg110_1_cif.got.tgz:1810.got - 2010.04.14 01:58:01.
