data_PCOD8308376
_publ_section_title
;
Structure prediction by ZEFSAII (Michael W. Deem and Ramdas Pophale) SiO2 
 PCOD8308376
Probable space group: P -4 2 C
;
_chemical_formula_sum "Si O2"
_cell_formula_units_Z 34
_cell_length_a 9.257465
_cell_length_b 9.257465
_cell_length_c 21.363213
_cell_angle_alpha 90.000000
_cell_angle_beta 90.000000
_cell_angle_gamma 90.000000
_cell_volume 1830.841416
_symmetry_space_group_name_H-M "P -4 2 C"
_symmetry_group_IT_number 112
_symmetry_cell_setting 'tetragonal'
loop_
_space_group_symop_operation_xyz
x,y,z
y,-x,-z
-x,-y,z
-y,x,-z
x,-y,1/2-z
-x,y,1/2-z
-y,-x,1/2+z
y,x,1/2+z
loop_
_atom_site_type_symbol
_atom_site_label
_atom_site_fract_x
_atom_site_fract_y
_atom_site_fract_z
Si Si1 0.500000 0.000000 0.597426
Si Si2 0.000000 0.000000 0.500000
Si Si3 0.000431 0.227004 0.177024
Si Si4 0.500000 0.000000 0.089596
Si Si5 0.504802 0.258188 0.502732
Si Si6 0.190523 0.984837 0.119890
O O1 0.369151 0.045292 0.641011
O O2 0.533876 0.147726 0.559841
O O3 0.005873 0.859589 0.546018
O O4 0.116023 0.105221 0.161697
O O5 0.000000 0.260054 0.250000
O O6 0.846793 0.170727 0.150010
O O7 0.477763 0.849693 0.053962
O O8 0.642275 0.984757 0.130615
O O9 0.360727 0.356468 0.510096
#
# Coordination Sequence:
#
# PCOD8308376 Si02
#       6
#     4   2   8   4   8   8
#     4  11  21  34  61  80 107 146 196 220 270 328
#     4   8  20  32  54  80 112 140 180 230 284 336
#     4  10  21  39  58  79 108 146 190 235 272 317
#     4  11  22  30  58  80 110 140 183 212 280 338
#     4  10  22  35  50  80 118 145 170 219 277 334
#     4  10  21  35  56  81 114 142 182 231 287 325
#
# _framework density 18.570696000000002
#
# number of rings (size 3 to 8) (size 9 to 14) (size 15 to 20)
#    0.000    2.118    0.000    4.588   16.471    0.000 
#    0.000    2.353    0.000    0.000    0.000   13.176 
#    0.000    0.000    0.000    0.000    0.000    0.000 
#
# Total GULP energy -421244.304475 kJ/mol
# GULP energy per Si atom -12389.538367 kJ/mol
# Density = 1.852843 g / cm^3
# Si number density = 18.570696 Si / 1000 Ang^3
#
#
#
# Elastic Constant Matrix: (Units=GPa)
#
#
# Indices 1 2 3 4 5 6 
#
# 1 108.1426 11.5856 15.1925 0.0000 0.0000 0.0000
# 2 11.5856 108.1426 15.1925 0.0000 0.0000 0.0000
# 3 15.1925 15.1925 84.2296 0.0000 0.0000 0.0000
# 4 0.0000 0.0000 0.0000 12.4293 0.0000 0.0000
# 5 0.0000 0.0000 0.0000 0.0000 12.4293 0.0000
# 6 0.0000 0.0000 0.0000 0.0000 0.0000 20.3369
#
#
#
# Elastic Compliance Matrix: (Units=1/GPa)
#
#
# Indices 1 2 3 4 5 6 
#
# 1 0.009555 -0.000802 -0.001579 0.000000 0.000000 0.000000
# 2 -0.000802 0.009555 -0.001579 0.000000 0.000000 0.000000
# 3 -0.001579 -0.001579 0.012442 0.000000 0.000000 0.000000
# 4 0.000000 0.000000 0.000000 0.080455 0.000000 0.000000
# 5 0.000000 0.000000 0.000000 0.000000 0.080455 0.000000
# 6 0.000000 0.000000 0.000000 0.000000 0.000000 0.049172
#
#
# Mechanical properties :
#
#
# Convention : Reuss Voigt Hill
#
# Bulk Modulus (GPa) = 42.31442 42.71733 42.51588
# Shear Modulus (GPa) = 19.42278 26.27537 22.84908
#
# Velocity S-wave (km/s) = 3.23752 3.76557 3.51149
# Velocity P-wave (km/s) = 6.06716 6.47754 6.27571
#
# Compressibility (1/GPa) = 0.02363261
#
# Stress axis : x y z
#
# Youngs Moduli (GPa) = 104.65999 104.65999 80.37400
#
# Poissons Ratio (x) = 0.08392 0.12689
# Poissons Ratio (y) = 0.08392 0.12689
# Poissons Ratio (z) = 0.16523 0.16523
#
# Static dielectric constant tensor:
#      x y z
#    x 3.323080 0.000000 0.000000 
#    y 0.000000 3.323080 0.000000 
#    z 0.000000 0.000000 3.223600 
# 
# 
# High freq. dielectric constant tensor:
#      x y z
#    x 1.727760 0.000000 0.000000 
#    y 0.000000 1.727760 0.000000 
#    z 0.000000 0.000000 1.698240 
# 
# From -- ./inp_files/4744.got.cif
#   From: 2010.03.12/outbox.cif.g09.slc.cpg/sg112_3_cif.got.tgz:4744.got - 2010.04.14 02:02:48.
