data_PCOD8308019
_publ_section_title
;
Structure prediction by ZEFSAII (Michael W. Deem and Ramdas Pophale) SiO2 
 PCOD8308019
Probable space group: I 41 C D
;
_chemical_formula_sum "Si O2"
_cell_formula_units_Z 112
_cell_length_a 28.979940
_cell_length_b 28.979940
_cell_length_c 5.642169
_cell_angle_alpha 90.000000
_cell_angle_beta 90.000000
_cell_angle_gamma 90.000000
_cell_volume 4738.501849
_symmetry_space_group_name_H-M "I 41 C D"
_symmetry_group_IT_number 110
_symmetry_cell_setting 'tetragonal'
loop_
_space_group_symop_operation_xyz
x,y,z
-y,1/2+x,1/4+z
-x,-y,z
y,1/2-x,1/4+z
-x,y,1/2+z
x,-y,1/2+z
1/2-y,-x,1/4+z
1/2+y,x,1/4+z
1/2+x,1/2+y,1/2+z
1/2-y,x,3/4+z
1/2-x,1/2-y,1/2+z
1/2+y,-x,3/4+z
1/2-x,1/2+y,z
1/2+x,1/2-y,z
-y,1/2-x,3/4+z
y,1/2+x,3/4+z
loop_
_atom_site_type_symbol
_atom_site_label
_atom_site_fract_x
_atom_site_fract_y
_atom_site_fract_z
Si Si1 0.955990 0.824470 0.400650
Si Si2 0.409857 0.984314 0.106067
Si Si3 0.206474 0.700342 0.120373
Si Si4 0.393999 0.804826 0.772377
Si Si5 0.607629 0.376238 0.749200
Si Si6 0.477249 0.772389 0.541430
Si Si7 0.788191 0.617368 0.295014
O O1 0.920279 0.859222 0.520951
O O2 0.975998 0.783592 0.567137
O O3 0.927280 0.797088 0.203368
O O4 0.996591 0.857527 0.297779
O O5 0.406455 0.929150 0.151306
O O6 0.434317 0.004839 0.346372
O O7 0.246038 0.698556 0.315985
O O8 0.157922 0.680485 0.205760
O O9 0.223958 0.666318 0.915286
O O10 0.426791 0.797290 0.543538
O O11 0.409230 0.849294 0.928535
O O12 0.397903 0.756990 0.907515
O O13 0.627689 0.332228 0.884997
O O14 0.499846 0.788824 0.293105
#
# Coordination Sequence:
#
# PCOD8308019 Si02
#       7
#    16  16  16  16  16  16  16
#     4  11  21  40  62  94 122 166 218 280 341 395
#     4  10  20  35  61  90 122 158 203 266 334 388
#     4  12  24  41  58  83 124 178 232 270 309 370
#     4  12  25  41  61  94 125 172 230 272 332 398
#     4  11  22  39  57  89 125 160 213 268 325 391
#     4  12  26  44  68  95 129 173 227 279 346 409
#     4  12  22  40  61  87 129 176 221 278 322 386
#
# _framework density 23.636161999999999
#
# number of rings (size 3 to 8) (size 9 to 14) (size 15 to 20)
#    0.000    0.571    4.286    6.000    0.000    1.143 
#    0.000    0.000    0.000    0.000    0.000    0.000 
#    0.000   13.714    0.000    0.000    0.000    0.000 
#
# Total GULP energy -694068.539318 kJ/mol
# GULP energy per Si atom -12394.081059 kJ/mol
# Density = 2.358236 g / cm^3
# Si number density = 23.636162 Si / 1000 Ang^3
#
#
#
# Elastic Constant Matrix: (Units=GPa)
#
#
# Indices 1 2 3 4 5 6 
#
# 1 4.1435 48.4559 14.5842 0.0000 0.0000 0.0000
# 2 48.4559 4.1435 14.5842 0.0000 0.0000 0.0000
# 3 14.5842 14.5842 110.0092 0.0000 0.0000 0.0000
# 4 0.0000 0.0000 0.0000 21.4761 0.0000 0.0000
# 5 0.0000 0.0000 0.0000 0.0000 21.4761 0.0000
# 6 0.0000 0.0000 0.0000 0.0000 0.0000 63.8170
#
#
#
# Elastic Compliance Matrix: (Units=1/GPa)
#
#
# Indices 1 2 3 4 5 6 
#
# 1 -0.001023 0.021544 -0.002720 0.000000 0.000000 0.000000
# 2 0.021544 -0.001023 -0.002720 0.000000 0.000000 0.000000
# 3 -0.002720 -0.002720 0.009811 0.000000 0.000000 0.000000
# 4 0.000000 0.000000 0.000000 0.046563 0.000000 0.000000
# 5 0.000000 0.000000 0.000000 0.000000 0.046563 0.000000
# 6 0.000000 0.000000 0.000000 0.000000 0.000000 0.015670
#
#
# Mechanical properties :
#
#
# Convention : Reuss Voigt Hill
#
# Bulk Modulus (GPa) = 25.01864 30.39388 27.70626
# Shear Modulus (GPa) = 51.18801 24.06528 37.62664
#
# Velocity S-wave (km/s) = 4.65872 3.19432 3.99420
# Velocity P-wave (km/s) = 6.28857 5.14702 5.74621
#
# Compressibility (1/GPa) = 0.03997020
#
# Stress axis : x y z
#
# Youngs Moduli (GPa) = -977.13880 -977.13880 101.92162
#
# Poissons Ratio (x) = 21.05111 0.27727
# Poissons Ratio (y) = 21.05111 0.27727
# Poissons Ratio (z) = -2.65824 -2.65824
#
# Static dielectric constant tensor:
#      x y z
#    x 4.369500 0.000000 0.000000 
#    y 0.000000 4.369500 0.000000 
#    z 0.000000 0.000000 4.351920 
# 
# 
# High freq. dielectric constant tensor:
#      x y z
#    x 1.916570 0.000000 0.000000 
#    y 0.000000 1.916570 0.000000 
#    z 0.000000 0.000000 1.942820 
# 
# From -- ./inp_files/140.got.cif
#   From: 2010.03.12/outbox.cif.g09.slc.cpg/sg110_1_cif.got.tgz:140.got - 2010.04.14 01:58:01.
