data_PCOD8308525
_publ_section_title
;
Structure prediction by ZEFSAII (Michael W. Deem and Ramdas Pophale) SiO2 
 PCOD8308525
Probable space group: P -4 21 M 
;
_chemical_formula_sum "Si O2"
_cell_formula_units_Z 56
_cell_length_a 12.104642
_cell_length_b 12.104642
_cell_length_c 22.835747
_cell_angle_alpha 90.000000
_cell_angle_beta 90.000000
_cell_angle_gamma 90.000000
_cell_volume 3345.947496
_symmetry_space_group_name_H-M "P -4 21 M "
_symmetry_group_IT_number 113
_symmetry_cell_setting 'tetragonal'
loop_
_space_group_symop_operation_xyz
x,y,z
y,-x,-z
-x,-y,z
-y,x,-z
1/2+x,1/2-y,-z
1/2-x,1/2+y,-z
1/2-y,1/2-x,z
1/2+y,1/2+x,z
loop_
_atom_site_type_symbol
_atom_site_label
_atom_site_fract_x
_atom_site_fract_y
_atom_site_fract_z
Si Si1 0.503747 0.627776 0.651337
Si Si2 0.611555 0.708161 0.951358
Si Si3 0.001243 0.316896 0.252584
Si Si4 0.413084 0.730498 0.868231
Si Si5 0.475343 0.374509 0.070680
Si Si6 0.378577 0.698233 0.437228
Si Si7 0.372240 0.307896 0.436349
O O1 0.500000 0.500000 0.673666
O O2 0.508683 0.714909 0.703533
O O3 0.610033 0.650993 0.612025
O O4 0.396988 0.654286 0.612970
O O5 0.690742 0.809259 0.941477
O O6 0.495490 0.742589 0.922684
O O7 0.670586 0.600428 0.920479
O O8 0.591676 0.688429 0.020098
O O9 0.103693 0.396308 0.269743
O O10 0.021370 0.259506 0.190389
O O11 0.888429 0.388429 0.251042
O O12 0.310305 0.810305 0.877556
O O13 0.370012 0.601943 0.870648
O O14 0.500000 0.500000 0.050717
O O15 0.305294 0.805294 0.427248
O O16 0.361207 0.644575 0.500392
O O17 0.504076 0.736933 0.431393
O O18 0.295612 0.204389 0.424856
#
# Coordination Sequence:
#
# PCOD8308525 Si02
#       7
#     8   8   8   8   8   8   8
#     4  10  20  33  55  77 102 137 176 215 258 312
#     4  11  19  30  50  75 103 133 170 214 257 304
#     4  10  21  37  54  77 109 139 173 219 264 308
#     4  10  20  35  54  74 102 138 175 210 256 307
#     4  10  17  32  49  71  99 135 172 208 245 304
#     4  10  19  32  50  72 102 136 172 215 257 306
#     4  10  19  32  50  72 102 136 173 213 257 310
#
# _framework density 16.736664999999999
#
# number of rings (size 3 to 8) (size 9 to 14) (size 15 to 20)
#    0.000    1.857    4.286    1.714    0.000    2.857 
#    0.000    0.000    0.000    1.286    0.000    0.000 
#    0.000    5.714    0.000    0.000    0.000    0.000 
#
# Total GULP energy -694028.181438 kJ/mol
# GULP energy per Si atom -12393.360383 kJ/mol
# Density = 1.669857 g / cm^3
# Si number density = 16.736665 Si / 1000 Ang^3
#
#
#
# Elastic Constant Matrix: (Units=GPa)
#
#
# Indices 1 2 3 4 5 6 
#
# 1 59.3954 28.3618 32.5505 0.0000 0.0000 0.0000
# 2 28.3618 59.3928 32.5490 0.0000 0.0000 0.0000
# 3 32.5505 32.5490 77.4201 0.0000 0.0000 0.0000
# 4 0.0000 0.0000 0.0000 27.3871 0.0000 0.0000
# 5 0.0000 0.0000 0.0000 0.0000 27.3875 0.0000
# 6 0.0000 0.0000 0.0000 0.0000 0.0000 265.7406
#
#
#
# Elastic Compliance Matrix: (Units=1/GPa)
#
#
# Indices 1 2 3 4 5 6 
#
# 1 0.024392 -0.007832 -0.006963 0.000000 0.000000 0.000000
# 2 -0.007832 0.024393 -0.006962 0.000000 0.000000 0.000000
# 3 -0.006963 -0.006962 0.018771 0.000000 0.000000 0.000000
# 4 0.000000 0.000000 0.000000 0.036513 0.000000 0.000000
# 5 0.000000 0.000000 0.000000 0.000000 0.036513 0.000000
# 6 0.000000 0.000000 0.000000 0.000000 0.000000 0.003763
#
#
# Mechanical properties :
#
#
# Convention : Reuss Voigt Hill
#
# Bulk Modulus (GPa) = 41.59447 42.57010 42.08229
# Shear Modulus (GPa) = 25.52678 70.95286 48.23982
#
# Velocity S-wave (km/s) = 3.90962 6.51811 5.37451
# Velocity P-wave (km/s) = 6.72952 9.06300 7.98199
#
# Compressibility (1/GPa) = 0.02404166
#
# Stress axis : x y z
#
# Youngs Moduli (GPa) = 40.99718 40.99593 53.27396
#
# Poissons Ratio (x) = 0.32109 0.37092
# Poissons Ratio (y) = 0.32110 0.37090
# Poissons Ratio (z) = 0.28544 0.28542
#
# Static dielectric constant tensor:
#      x y z
#    x 3.311660 0.000000 0.000000 
#    y 0.000000 3.311660 0.000000 
#    z 0.000000 0.000000 3.032310 
# 
# 
# High freq. dielectric constant tensor:
#      x y z
#    x 1.648310 0.000000 0.000000 
#    y 0.000000 1.648310 0.000000 
#    z 0.000000 0.000000 1.630700 
# 
# From -- ./inp_files/2670.got.cif
#   From: 2010.03.12/outbox.cif.g09.slc.cpg/sg113_cif.got.tgz:2670.got - 2010.04.14 02:06:34.
