data_PCOD8308297
_publ_section_title
;
Structure prediction by ZEFSAII (Michael W. Deem and Ramdas Pophale) SiO2 
 PCOD8308297
Probable space group: P -4 2 M 
;
_chemical_formula_sum "Si O2"
_cell_formula_units_Z 40
_cell_length_a 12.142295
_cell_length_b 12.142295
_cell_length_c 16.671042
_cell_angle_alpha 90.000000
_cell_angle_beta 90.000000
_cell_angle_gamma 90.000000
_cell_volume 2457.900543
_symmetry_space_group_name_H-M "P -4 2 M "
_symmetry_group_IT_number 111
_symmetry_cell_setting 'tetragonal'
loop_
_space_group_symop_operation_xyz
x,y,z
y,-x,-z
-x,-y,z
-y,x,-z
x,-y,-z
-x,y,-z
-y,-x,z
y,x,z
loop_
_atom_site_type_symbol
_atom_site_label
_atom_site_fract_x
_atom_site_fract_y
_atom_site_fract_z
Si Si1 0.874184 0.697645 0.591117
Si Si2 0.125816 0.302354 0.408882
Si Si3 0.870045 0.500000 0.122575
Si Si4 0.868915 0.314415 1.000000
Si Si5 0.500000 0.131532 0.698082
O O1 0.810530 0.810530 0.605342
O O2 0.861238 0.654352 0.500000
O O3 0.824793 0.606602 0.650933
O O4 1.000000 0.723931 0.611671
O O5 0.189469 0.189469 0.394658
O O6 0.175206 0.393397 0.349066
O O7 0.834745 0.388149 0.076993
O O8 0.819339 0.500000 0.211940
O O9 0.000000 0.500000 0.127215
O O10 0.834745 0.611851 0.076993
O O11 0.798832 0.201169 1.000000
O O12 0.000000 0.285877 0.000000
O O13 0.500000 0.000000 0.697298
#
# Coordination Sequence:
#
# PCOD8308297 Si02
#       5
#     8   8   8   8   8
#     4   9  17  28  43  65  92 120 149 183 223 265
#     4   9  17  28  43  65  92 120 149 183 223 265
#     4   8  16  30  46  64  87 119 153 181 214 258
#     4   9  17  30  48  70  95 119 144 176 216 263
#     4   9  16  28  46  64  84 115 156 192 217 250
#
# _framework density 16.274049999999999
#
# number of rings (size 3 to 8) (size 9 to 14) (size 15 to 20)
#    0.000    3.200    0.000    1.800    0.000    4.600 
#    0.000    2.000    0.000    5.400    0.000   19.600 
#    0.000    0.000    0.000    0.000    0.000    0.000 
#
# Total GULP energy -495761.202420 kJ/mol
# GULP energy per Si atom -12394.030060 kJ/mol
# Density = 1.623701 g / cm^3
# Si number density = 16.274050 Si / 1000 Ang^3
#
#
#
# Elastic Constant Matrix: (Units=GPa)
#
#
# Indices 1 2 3 4 5 6 
#
# 1 78.4504 48.0676 49.4390 0.0000 0.0000 0.0000
# 2 48.0676 78.4520 49.4393 0.0000 0.0000 0.0000
# 3 49.4390 49.4393 130.5145 0.0000 0.0000 0.0000
# 4 0.0000 0.0000 0.0000 15.4724 0.0000 0.0000
# 5 0.0000 0.0000 0.0000 0.0000 15.4727 0.0000
# 6 0.0000 0.0000 0.0000 0.0000 0.0000 8.4168
#
#
#
# Elastic Compliance Matrix: (Units=1/GPa)
#
#
# Indices 1 2 3 4 5 6 
#
# 1 0.022070 -0.010842 -0.004253 0.000000 0.000000 0.000000
# 2 -0.010842 0.022070 -0.004253 0.000000 0.000000 0.000000
# 3 -0.004253 -0.004253 0.010884 0.000000 0.000000 0.000000
# 4 0.000000 0.000000 0.000000 0.064631 0.000000 0.000000
# 5 0.000000 0.000000 0.000000 0.000000 0.064630 0.000000
# 6 0.000000 0.000000 0.000000 0.000000 0.000000 0.118811
#
#
# Mechanical properties :
#
#
# Convention : Reuss Voigt Hill
#
# Bulk Modulus (GPa) = 61.24666 64.58985 62.91826
# Shear Modulus (GPa) = 14.39944 17.23712 15.81828
#
# Velocity S-wave (km/s) = 2.97780 3.25803 3.12106
# Velocity P-wave (km/s) = 7.03842 7.34357 7.19261
#
# Compressibility (1/GPa) = 0.01632742
#
# Stress axis : x y z
#
# Youngs Moduli (GPa) = 45.30950 45.31047 91.87621
#
# Poissons Ratio (x) = 0.49127 0.39077
# Poissons Ratio (y) = 0.49126 0.39076
# Poissons Ratio (z) = 0.19271 0.19271
#
# Static dielectric constant tensor:
#      x y z
#    x 2.845020 0.000000 0.000000 
#    y 0.000000 2.845020 0.000000 
#    z 0.000000 0.000000 3.603310 
# 
# 
# High freq. dielectric constant tensor:
#      x y z
#    x 1.602110 0.000000 0.000000 
#    y 0.000000 1.602110 0.000000 
#    z 0.000000 0.000000 1.634800 
# 
# From -- ./inp_files/3188.got.cif
#   From: 2010.03.12/outbox.cif.g09.slc.cpg/sg111_2_cif.got.tgz:3188.got - 2010.04.14 01:59:48.
