data_PCOD8308113
_publ_section_title
;
Structure prediction by ZEFSAII (Michael W. Deem and Ramdas Pophale) SiO2 
 PCOD8308113
Probable space group: P -4 2 M 
;
_chemical_formula_sum "Si O2"
_cell_formula_units_Z 64
_cell_length_a 19.321539
_cell_length_b 19.321539
_cell_length_c 10.032065
_cell_angle_alpha 90.000000
_cell_angle_beta 90.000000
_cell_angle_gamma 90.000000
_cell_volume 3745.189259
_symmetry_space_group_name_H-M "P -4 2 M "
_symmetry_group_IT_number 111
_symmetry_cell_setting 'tetragonal'
loop_
_space_group_symop_operation_xyz
x,y,z
y,-x,-z
-x,-y,z
-y,x,-z
x,-y,-z
-x,y,-z
-y,-x,z
y,x,z
loop_
_atom_site_type_symbol
_atom_site_label
_atom_site_fract_x
_atom_site_fract_y
_atom_site_fract_z
Si Si1 0.255265 0.630060 0.519353
Si Si2 0.242781 0.647497 0.036508
Si Si3 0.854596 0.741142 0.836825
Si Si4 0.833019 0.052302 0.612141
Si Si5 0.850319 0.038325 0.132881
Si Si6 0.682797 0.427449 0.272204
Si Si7 0.418349 0.303340 0.203513
Si Si8 0.736215 0.147084 0.462458
O O1 0.309366 0.690635 0.491032
O O2 0.272688 0.571091 0.409547
O O3 0.261071 0.598952 0.664849
O O4 0.178645 0.662820 0.509321
O O5 0.287595 0.712405 0.984074
O O6 0.164527 0.673639 0.072324
O O7 0.272705 0.617568 0.171728
O O8 0.248419 0.590926 0.918015
O O9 0.783174 0.783174 0.821841
O O10 0.913736 0.785411 0.909719
O O11 0.881293 0.724038 0.687564
O O12 0.888716 0.111285 0.634888
O O13 0.759788 0.084809 0.561105
O O14 0.860827 0.000000 0.500000
O O15 0.825041 0.013608 0.752728
O O16 0.913641 0.086360 0.185902
O O17 0.875342 0.000000 0.000000
O O18 0.607205 0.392796 0.293190
O O19 0.670341 0.503247 0.212504
O O20 0.371393 0.371393 0.184427
O O21 0.796895 0.203106 0.464627
#
# Coordination Sequence:
#
# PCOD8308113 Si02
#       8
#     8   8   8   8   8   8   8   8
#     4   9  17  30  48  67  91 125 163 210 260 292
#     4   9  17  30  49  68  90 125 166 209 255 291
#     4   9  16  31  52  69  89 123 166 208 252 294
#     4  11  21  32  49  72  98 131 170 206 238 286
#     4  11  23  36  49  70 104 141 170 199 239 295
#     4  10  18  30  48  67  95 140 174 194 237 300
#     4  10  20  30  42  70 105 131 165 209 244 289
#     4   9  16  30  51  71  90 119 165 214 255 287
#
# _framework density 17.08859
#
# number of rings (size 3 to 8) (size 9 to 14) (size 15 to 20)
#    0.000    2.250    2.500    1.500    0.000    2.750 
#    0.000    3.750    0.000    4.500    0.000    0.000 
#    0.000   15.000    0.000    0.000    0.000    0.000 
#
# Total GULP energy -793206.281733 kJ/mol
# GULP energy per Si atom -12393.848152 kJ/mol
# Density = 1.704970 g / cm^3
# Si number density = 17.088590 Si / 1000 Ang^3
#
#
#
# Elastic Constant Matrix: (Units=GPa)
#
#
# Indices 1 2 3 4 5 6 
#
# 1 58.6814 52.7659 31.8630 0.0000 0.0000 0.0000
# 2 52.7659 58.6815 31.8637 0.0000 0.0000 0.0000
# 3 31.8630 31.8637 101.7878 0.0000 0.0000 0.0000
# 4 0.0000 0.0000 0.0000 25.4875 0.0000 0.0000
# 5 0.0000 0.0000 0.0000 0.0000 25.4882 0.0000
# 6 0.0000 0.0000 0.0000 0.0000 0.0000 15.7377
#
#
#
# Elastic Compliance Matrix: (Units=1/GPa)
#
#
# Indices 1 2 3 4 5 6 
#
# 1 0.089988 -0.079059 -0.003420 0.000000 0.000000 0.000000
# 2 -0.079059 0.089989 -0.003422 0.000000 0.000000 0.000000
# 3 -0.003420 -0.003422 0.011966 0.000000 0.000000 0.000000
# 4 0.000000 0.000000 0.000000 0.039235 0.000000 0.000000
# 5 0.000000 0.000000 0.000000 0.000000 0.039234 0.000000
# 6 0.000000 0.000000 0.000000 0.000000 0.000000 0.063542
#
#
# Mechanical properties :
#
#
# Convention : Reuss Voigt Hill
#
# Bulk Modulus (GPa) = 49.65324 50.23733 49.94528
# Shear Modulus (GPa) = 9.75667 20.18655 14.97161
#
# Velocity S-wave (km/s) = 2.39204 3.44072 2.96314
# Velocity P-wave (km/s) = 6.06206 6.72657 6.40294
#
# Compressibility (1/GPa) = 0.02013967
#
# Stress axis : x y z
#
# Youngs Moduli (GPa) = 11.11260 11.11251 83.56808
#
# Poissons Ratio (x) = 0.87855 0.28584
# Poissons Ratio (y) = 0.87855 0.28597
# Poissons Ratio (z) = 0.03801 0.03803
#
# Static dielectric constant tensor:
#      x y z
#    x 3.087920 0.000000 0.000000 
#    y 0.000000 3.087910 0.000000 
#    z 0.000000 0.000000 3.282200 
# 
# 
# High freq. dielectric constant tensor:
#      x y z
#    x 1.629520 0.000000 0.000000 
#    y 0.000000 1.629520 0.000000 
#    z 0.000000 0.000000 1.671240 
# 
# From -- ./inp_files/2009.got.cif
#   From: 2010.03.12/outbox.cif.g09.slc.cpg/sg111_2_cif.got.tgz:2009.got - 2010.04.14 01:59:48.
