data_PCOD8308060
_publ_section_title
;
Structure prediction by ZEFSAII (Michael W. Deem and Ramdas Pophale) SiO2 
 PCOD8308060
Probable space group: I 41 C D
;
_chemical_formula_sum "Si O2"
_cell_formula_units_Z 72
_cell_length_a 17.355836
_cell_length_b 17.355836
_cell_length_c 10.397154
_cell_angle_alpha 90.000000
_cell_angle_beta 90.000000
_cell_angle_gamma 90.000000
_cell_volume 3131.883163
_symmetry_space_group_name_H-M "I 41 C D"
_symmetry_group_IT_number 110
_symmetry_cell_setting 'tetragonal'
loop_
_space_group_symop_operation_xyz
x,y,z
-y,1/2+x,1/4+z
-x,-y,z
y,1/2-x,1/4+z
-x,y,1/2+z
x,-y,1/2+z
1/2-y,-x,1/4+z
1/2+y,x,1/4+z
1/2+x,1/2+y,1/2+z
1/2-y,x,3/4+z
1/2-x,1/2-y,1/2+z
1/2+y,-x,3/4+z
1/2-x,1/2+y,z
1/2+x,1/2-y,z
-y,1/2-x,3/4+z
y,1/2+x,3/4+z
loop_
_atom_site_type_symbol
_atom_site_label
_atom_site_fract_x
_atom_site_fract_y
_atom_site_fract_z
Si Si1 0.383946 0.122782 0.891650
Si Si2 0.682983 0.754908 0.261675
Si Si3 0.140863 0.430602 0.124426
Si Si4 0.500000 0.000000 0.985743
Si Si5 0.408169 0.703251 0.388533
O O1 0.358291 0.127159 0.744350
O O2 0.412010 0.207722 0.926955
O O3 0.313449 0.101274 0.986175
O O4 0.451136 0.059036 0.900315
O O5 0.725873 0.758391 0.399932
O O6 0.608237 0.699107 0.270281
O O7 0.658866 0.841489 0.219270
O O8 0.170658 0.510483 0.182832
O O9 0.055813 0.444774 0.068725
#
# Coordination Sequence:
#
# PCOD8308060 Si02
#       5
#    16  16  16   8  16
#     4  11  25  45  72 102 150 186 253 312 373 460
#     4  12  27  48  78 113 151 195 256 316 383 455
#     4  11  28  45  76 104 149 200 247 310 387 449
#     4  10  26  48  68 108 146 202 250 314 388 464
#     4  11  26  45  70 109 143 192 245 318 372 458
#
# _framework density 22.989363000000001
#
# number of rings (size 3 to 8) (size 9 to 14) (size 15 to 20)
#    0.000    0.889    2.222    2.000   12.444    3.556 
#    0.000    0.000    0.000    0.000    0.000    0.000 
#    0.000    0.000    0.000    0.000    0.000    0.000 
#
# Total GULP energy -446340.944315 kJ/mol
# GULP energy per Si atom -12398.359564 kJ/mol
# Density = 2.293704 g / cm^3
# Si number density = 22.989363 Si / 1000 Ang^3
#
#
#
# Elastic Constant Matrix: (Units=GPa)
#
#
# Indices 1 2 3 4 5 6 
#
# 1 110.7857 44.7547 37.2231 0.0000 0.0000 0.0000
# 2 44.7547 110.7857 37.2231 0.0000 0.0000 0.0000
# 3 37.2231 37.2231 102.3319 0.0000 0.0000 0.0000
# 4 0.0000 0.0000 0.0000 36.5762 0.0000 0.0000
# 5 0.0000 0.0000 0.0000 0.0000 36.5762 0.0000
# 6 0.0000 0.0000 0.0000 0.0000 0.0000 34.5228
#
#
#
# Elastic Compliance Matrix: (Units=1/GPa)
#
#
# Indices 1 2 3 4 5 6 
#
# 1 0.011464 -0.003680 -0.002832 0.000000 0.000000 0.000000
# 2 -0.003680 0.011464 -0.002832 0.000000 0.000000 0.000000
# 3 -0.002832 -0.002832 0.011832 0.000000 0.000000 0.000000
# 4 0.000000 0.000000 0.000000 0.027340 0.000000 0.000000
# 5 0.000000 0.000000 0.000000 0.000000 0.027340 0.000000
# 6 0.000000 0.000000 0.000000 0.000000 0.000000 0.028966
#
#
# Mechanical properties :
#
#
# Convention : Reuss Voigt Hill
#
# Bulk Modulus (GPa) = 62.20965 62.47838 62.34402
# Shear Modulus (GPa) = 35.09947 35.18185 35.14066
#
# Velocity S-wave (km/s) = 3.91163 3.91622 3.91392
# Velocity P-wave (km/s) = 6.89348 6.90544 6.89946
#
# Compressibility (1/GPa) = 0.01607468
#
# Stress axis : x y z
#
# Youngs Moduli (GPa) = 87.22625 87.22625 84.51584
#
# Poissons Ratio (x) = 0.32099 0.23931
# Poissons Ratio (y) = 0.32099 0.23931
# Poissons Ratio (z) = 0.24699 0.24699
#
# Static dielectric constant tensor:
#      x y z
#    x 4.194920 0.000000 0.000000 
#    y 0.000000 4.194920 0.000000 
#    z 0.000000 0.000000 4.106950 
# 
# 
# High freq. dielectric constant tensor:
#      x y z
#    x 1.910630 0.000000 0.000000 
#    y 0.000000 1.910630 0.000000 
#    z 0.000000 0.000000 1.910600 
# 
# From -- ./inp_files/805.got.cif
#   From: 2010.03.12/outbox.cif.g09.slc.cpg/sg110_1_cif.got.tgz:805.got - 2010.04.14 01:58:01.
