data_PCOD8308152
_publ_section_title
;
Structure prediction by ZEFSAII (Michael W. Deem and Ramdas Pophale) SiO2 
 PCOD8308152
Probable space group: P -4 2 M 
;
_chemical_formula_sum "Si O2"
_cell_formula_units_Z 56
_cell_length_a 12.540632
_cell_length_b 12.540632
_cell_length_c 20.358944
_cell_angle_alpha 90.000000
_cell_angle_beta 90.000000
_cell_angle_gamma 90.000000
_cell_volume 3201.799227
_symmetry_space_group_name_H-M "P -4 2 M "
_symmetry_group_IT_number 111
_symmetry_cell_setting 'tetragonal'
loop_
_space_group_symop_operation_xyz
x,y,z
y,-x,-z
-x,-y,z
-y,x,-z
x,-y,-z
-x,y,-z
-y,-x,z
y,x,z
loop_
_atom_site_type_symbol
_atom_site_label
_atom_site_fract_x
_atom_site_fract_y
_atom_site_fract_z
Si Si1 0.776716 0.055342 0.822870
Si Si2 0.875171 0.491667 0.334170
Si Si3 0.877091 0.713463 0.738634
Si Si4 0.260763 0.086665 0.945162
Si Si5 0.771110 0.605098 0.863330
Si Si6 0.391184 0.218989 0.207043
Si Si7 0.327616 0.500583 0.422623
O O1 0.891307 0.108694 0.813141
O O2 0.685869 0.143150 0.834836
O O3 0.744816 0.998091 0.754887
O O4 0.786592 0.973951 0.882517
O O5 0.865604 0.367191 0.320577
O O6 0.842939 0.562792 0.270738
O O7 0.789558 0.514309 0.391217
O O8 0.000000 0.500000 0.355107
O O9 0.820194 0.820194 0.715337
O O10 0.823380 0.663440 0.802241
O O11 0.170264 0.170264 0.969658
O O12 0.369385 0.150511 0.925259
O O13 0.289334 0.000000 0.000000
O O14 0.654926 0.654926 0.877733
O O15 0.753979 0.481693 0.846549
O O16 0.327071 0.327071 0.227955
O O17 0.310687 0.500000 0.500000
O O18 0.390205 0.609796 0.401356
O O19 0.400378 0.400378 0.400930
#
# Coordination Sequence:
#
# PCOD8308152 Si02
#       7
#     8   8   8   8   8   8   8
#     4  10  19  31  46  68  99 133 167 209 256 306
#     4  11  19  31  51  77 107 141 173 219 263 312
#     4   9  17  29  45  68  96 131 168 205 254 310
#     4  10  20  33  51  74  98 127 166 214 266 323
#     4   8  17  32  49  70  99 127 161 212 264 315
#     4  10  20  33  50  73 103 137 176 213 256 311
#     4   9  19  36  56  78 106 140 179 225 274 320
#
# _framework density 17.490165999999999
#
# number of rings (size 3 to 8) (size 9 to 14) (size 15 to 20)
#    0.000    2.429    1.429    3.000    0.000    3.000 
#    0.000    1.429    0.000    0.000    0.000    0.000 
#    0.000    4.571    0.000    6.571    0.000    0.000 
#
# Total GULP energy -693774.458067 kJ/mol
# GULP energy per Si atom -12388.829608 kJ/mol
# Density = 1.745036 g / cm^3
# Si number density = 17.490166 Si / 1000 Ang^3
#
#
#
# Elastic Constant Matrix: (Units=GPa)
#
#
# Indices 1 2 3 4 5 6 
#
# 1 107.2469 49.8920 28.1660 0.0000 0.0000 0.0000
# 2 49.8920 107.2479 28.1658 0.0000 0.0000 0.0000
# 3 28.1660 28.1658 49.5220 0.0000 0.0000 0.0000
# 4 0.0000 0.0000 0.0000 27.4341 0.0000 0.0000
# 5 0.0000 0.0000 0.0000 0.0000 27.4343 0.0000
# 6 0.0000 0.0000 0.0000 0.0000 0.0000 22.9211
#
#
#
# Elastic Compliance Matrix: (Units=1/GPa)
#
#
# Indices 1 2 3 4 5 6 
#
# 1 0.012714 -0.004721 -0.004546 0.000000 0.000000 0.000000
# 2 -0.004721 0.012714 -0.004546 0.000000 0.000000 0.000000
# 3 -0.004546 -0.004546 0.025365 0.000000 0.000000 0.000000
# 4 0.000000 0.000000 0.000000 0.036451 0.000000 0.000000
# 5 0.000000 0.000000 0.000000 0.000000 0.036451 0.000000
# 6 0.000000 0.000000 0.000000 0.000000 0.000000 0.043628
#
#
# Mechanical properties :
#
#
# Convention : Reuss Voigt Hill
#
# Bulk Modulus (GPa) = 43.16636 52.94051 48.05344
# Shear Modulus (GPa) = 24.67038 26.07742 25.37390
#
# Velocity S-wave (km/s) = 3.75977 3.86551 3.81301
# Velocity P-wave (km/s) = 6.60165 7.08924 6.84978
#
# Compressibility (1/GPa) = 0.02316619
#
# Stress axis : x y z
#
# Youngs Moduli (GPa) = 78.65069 78.65168 39.42502
#
# Poissons Ratio (x) = 0.37130 0.17924
# Poissons Ratio (y) = 0.37129 0.17924
# Poissons Ratio (z) = 0.35758 0.35758
#
# Static dielectric constant tensor:
#      x y z
#    x 3.454650 0.000000 0.000000 
#    y 0.000000 3.454640 0.000000 
#    z 0.000000 0.000000 2.928930 
# 
# 
# High freq. dielectric constant tensor:
#      x y z
#    x 1.680890 0.000000 0.000000 
#    y 0.000000 1.680890 0.000000 
#    z 0.000000 0.000000 1.634840 
# 
# From -- ./inp_files/3943.got.cif
#   From: 2010.03.12/outbox.cif.g09.slc.cpg/sg111_2_cif.got.tgz:3943.got - 2010.04.14 01:59:48.
