data_PCOD8308810
_publ_section_title
;
Structure prediction by ZEFSAII (Michael W. Deem and Ramdas Pophale) SiO2 
 PCOD8308810
Probable space group: P -4 21 C
;
_chemical_formula_sum "Si O2"
_cell_formula_units_Z 48
_cell_length_a 9.219103
_cell_length_b 9.219103
_cell_length_c 27.358133
_cell_angle_alpha 90.000000
_cell_angle_beta 90.000000
_cell_angle_gamma 90.000000
_cell_volume 2325.218613
_symmetry_space_group_name_H-M "P -4 21 C"
_symmetry_group_IT_number 114
_symmetry_cell_setting 'tetragonal'
loop_
_space_group_symop_operation_xyz
x,y,z
y,-x,-z
-x,-y,z
-y,x,-z
1/2+x,1/2-y,1/2-z
1/2-x,1/2+y,1/2-z
1/2-y,1/2-x,1/2+z
1/2+y,1/2+x,1/2+z
loop_
_atom_site_type_symbol
_atom_site_label
_atom_site_fract_x
_atom_site_fract_y
_atom_site_fract_z
Si Si1 0.277187 0.151438 0.545237
Si Si2 0.654709 0.076079 0.286452
Si Si3 0.964334 0.832746 0.617361
Si Si4 0.154698 0.076796 0.205728
Si Si5 0.223550 0.825425 0.553243
Si Si6 0.512910 0.161516 0.616685
O O1 0.266185 0.250154 0.496467
O O2 0.441713 0.157571 0.562728
O O3 0.191852 0.200219 0.594093
O O4 0.222249 0.989721 0.533668
O O5 0.643154 0.251667 0.281660
O O6 0.500000 0.000000 0.289919
O O7 0.743831 0.025079 0.333193
O O8 0.734966 0.010117 0.239857
O O9 0.070914 0.776223 0.575318
O O10 0.000000 0.000000 0.630314
O O11 0.216671 0.054819 0.151274
O O12 0.000000 0.000000 0.210300
O O13 0.325090 0.798143 0.600446
O O14 0.500000 0.000000 0.640953
#
# Coordination Sequence:
#
# PCOD8308810 Si02
#       6
#     8   8   8   8   8   8
#     4  10  18  39  58  94 127 176 222 276 322 389
#     4  12  27  47  71 103 132 174 219 277 338 407
#     4  10  21  38  69  95 131 171 227 270 325 391
#     4  12  27  48  72  98 135 172 221 277 340 407
#     4  10  20  34  65  92 129 176 227 272 324 388
#     4  10  23  42  65  94 134 175 220 276 335 390
#
# _framework density 20.643219999999999
#
# number of rings (size 3 to 8) (size 9 to 14) (size 15 to 20)
#    0.000    1.333    3.333    2.000    4.667    0.000 
#    6.000    0.000    0.000    0.000    0.000    0.000 
#    0.000    0.000    0.000    0.000    0.000    0.000 
#
# Total GULP energy -594850.838717 kJ/mol
# GULP energy per Si atom -12392.725807 kJ/mol
# Density = 2.059623 g / cm^3
# Si number density = 20.643220 Si / 1000 Ang^3
#
#
#
# Elastic Constant Matrix: (Units=GPa)
#
#
# Indices 1 2 3 4 5 6 
#
# 1 88.7401 48.8969 37.4920 0.0000 0.0000 0.0000
# 2 48.8969 88.7401 37.4920 0.0000 0.0000 0.0000
# 3 37.4920 37.4920 102.2815 0.0000 0.0000 0.0000
# 4 0.0000 0.0000 0.0000 19.6250 0.0000 0.0000
# 5 0.0000 0.0000 0.0000 0.0000 19.6250 0.0000
# 6 0.0000 0.0000 0.0000 0.0000 0.0000 29.7525
#
#
#
# Elastic Compliance Matrix: (Units=1/GPa)
#
#
# Indices 1 2 3 4 5 6 
#
# 1 0.017088 -0.008010 -0.003328 0.000000 0.000000 0.000000
# 2 -0.008010 0.017088 -0.003328 0.000000 0.000000 0.000000
# 3 -0.003328 -0.003328 0.012217 0.000000 0.000000 0.000000
# 4 0.000000 0.000000 0.000000 0.050955 0.000000 0.000000
# 5 0.000000 0.000000 0.000000 0.000000 0.050955 0.000000
# 6 0.000000 0.000000 0.000000 0.000000 0.000000 0.033611
#
#
# Mechanical properties :
#
#
# Convention : Reuss Voigt Hill
#
# Bulk Modulus (GPa) = 58.60847 58.61374 58.61111
# Shear Modulus (GPa) = 23.04858 24.19257 23.62057
#
# Velocity S-wave (km/s) = 3.34506 3.42707 3.38632
# Velocity P-wave (km/s) = 6.58575 6.64192 6.61389
#
# Compressibility (1/GPa) = 0.01706238
#
# Stress axis : x y z
#
# Youngs Moduli (GPa) = 58.51922 58.51922 81.85605
#
# Poissons Ratio (x) = 0.46874 0.27240
# Poissons Ratio (y) = 0.46874 0.27240
# Poissons Ratio (z) = 0.19474 0.19474
#
# Static dielectric constant tensor:
#      x y z
#    x 3.721000 0.000000 0.000000 
#    y 0.000000 3.721000 0.000000 
#    z 0.000000 0.000000 3.684600 
# 
# 
# High freq. dielectric constant tensor:
#      x y z
#    x 1.802800 0.000000 0.000000 
#    y 0.000000 1.802800 0.000000 
#    z 0.000000 0.000000 1.818510 
# 
# From -- ./inp_files/3970.got.cif
#   From: 2010.03.12/outbox.cif.g09.slc.cpg/sg114_2_cif.got.tgz:3970.got - 2010.04.14 02:08:34.
