data_PCOD8308942
_publ_section_title
;
Structure prediction by ZEFSAII (Michael W. Deem and Ramdas Pophale) SiO2 
 PCOD8308942
Probable space group: P -4 21 C
;
_chemical_formula_sum "Si O2"
_cell_formula_units_Z 40
_cell_length_a 18.188651
_cell_length_b 18.188651
_cell_length_c 5.197924
_cell_angle_alpha 90.000000
_cell_angle_beta 90.000000
_cell_angle_gamma 90.000000
_cell_volume 1719.613734
_symmetry_space_group_name_H-M "P -4 21 C"
_symmetry_group_IT_number 114
_symmetry_cell_setting 'tetragonal'
loop_
_space_group_symop_operation_xyz
x,y,z
y,-x,-z
-x,-y,z
-y,x,-z
1/2+x,1/2-y,1/2-z
1/2-x,1/2+y,1/2-z
1/2-y,1/2-x,1/2+z
1/2+y,1/2+x,1/2+z
loop_
_atom_site_type_symbol
_atom_site_label
_atom_site_fract_x
_atom_site_fract_y
_atom_site_fract_z
Si Si1 0.346745 0.221441 0.443570
Si Si2 0.124725 0.218224 0.822636
Si Si3 0.006499 0.255489 0.208762
Si Si4 0.112952 0.973798 0.491397
Si Si5 0.090774 0.350401 0.543650
O O1 0.321433 0.178476 0.692520
O O2 0.314710 0.303116 0.447707
O O3 0.434718 0.224721 0.452844
O O4 0.071599 0.152306 0.734023
O O5 0.143334 0.276902 0.591276
O O6 0.080206 0.266235 0.036257
O O7 0.002353 0.170772 0.292479
O O8 0.014100 0.311433 0.453865
O O9 0.049052 0.923078 0.618926
O O10 0.109440 0.409531 0.319346
#
# Coordination Sequence:
#
# PCOD8308942 Si02
#       5
#     8   8   8   8   8
#     4  12  30  48  74 108 151 194 246 308 379 438
#     4  11  24  41  70 103 152 187 251 287 364 429
#     4  11  26  43  71 105 150 193 249 303 377 437
#     4  10  22  39  64 102 153 197 237 287 354 445
#     4  11  22  41  70 104 132 179 238 302 356 418
#
# _framework density 23.261039
#
# number of rings (size 3 to 8) (size 9 to 14) (size 15 to 20)
#    0.000    1.000    4.000    1.200   14.000    0.000 
#    0.000    2.000    0.000    3.600    0.000    0.000 
#    0.000    0.000    0.000    0.000    0.000    0.000 
#
# Total GULP energy -495569.385039 kJ/mol
# GULP energy per Si atom -12389.234626 kJ/mol
# Density = 2.320810 g / cm^3
# Si number density = 23.261039 Si / 1000 Ang^3
#
#
#
# Elastic Constant Matrix: (Units=GPa)
#
#
# Indices 1 2 3 4 5 6 
#
# 1 87.0615 19.8011 38.0230 0.0000 0.0000 0.0000
# 2 19.8011 87.0615 38.0230 0.0000 0.0000 0.0000
# 3 38.0230 38.0230 123.3402 0.0000 0.0000 0.0000
# 4 0.0000 0.0000 0.0000 36.7554 0.0000 0.0000
# 5 0.0000 0.0000 0.0000 0.0000 36.7554 0.0000
# 6 0.0000 0.0000 0.0000 0.0000 0.0000 27.4347
#
#
#
# Elastic Compliance Matrix: (Units=1/GPa)
#
#
# Indices 1 2 3 4 5 6 
#
# 1 0.013428 -0.001440 -0.003696 0.000000 0.000000 0.000000
# 2 -0.001440 0.013428 -0.003696 0.000000 0.000000 0.000000
# 3 -0.003696 -0.003696 0.010386 0.000000 0.000000 0.000000
# 4 0.000000 0.000000 0.000000 0.027207 0.000000 0.000000
# 5 0.000000 0.000000 0.000000 0.000000 0.027207 0.000000
# 6 0.000000 0.000000 0.000000 0.000000 0.000000 0.036450
#
#
# Mechanical properties :
#
#
# Convention : Reuss Voigt Hill
#
# Bulk Modulus (GPa) = 51.07428 54.35085 52.71256
# Shear Modulus (GPa) = 32.83126 33.63015 33.23071
#
# Velocity S-wave (km/s) = 3.76097 3.80646 3.78378
# Velocity P-wave (km/s) = 6.39254 6.53721 6.46528
#
# Compressibility (1/GPa) = 0.01957933
#
# Stress axis : x y z
#
# Youngs Moduli (GPa) = 74.47343 74.47343 96.28207
#
# Poissons Ratio (x) = 0.10724 0.35581
# Poissons Ratio (y) = 0.10724 0.35581
# Poissons Ratio (z) = 0.27522 0.27522
#
# Static dielectric constant tensor:
#      x y z
#    x 4.203720 0.000000 0.000000 
#    y 0.000000 4.203720 0.000000 
#    z 0.000000 0.000000 4.066830 
# 
# 
# High freq. dielectric constant tensor:
#      x y z
#    x 1.914790 0.000000 0.000000 
#    y 0.000000 1.914790 0.000000 
#    z 0.000000 0.000000 1.914370 
# 
# From -- ./inp_files/160.got.cif
#   From: 2010.03.12/outbox.cif.g09.slc.cpg/sg114_1_cif.got.tgz:160.got - 2010.04.14 02:08:34.
