data_PCOD8308383
_publ_section_title
;
Structure prediction by ZEFSAII (Michael W. Deem and Ramdas Pophale) SiO2 
 PCOD8308383
Probable space group: P -4 2 C
;
_chemical_formula_sum "Si O2"
_cell_formula_units_Z 56
_cell_length_a 14.493311
_cell_length_b 14.493311
_cell_length_c 13.089392
_cell_angle_alpha 90.000000
_cell_angle_beta 90.000000
_cell_angle_gamma 90.000000
_cell_volume 2749.506160
_symmetry_space_group_name_H-M "P -4 2 C"
_symmetry_group_IT_number 112
_symmetry_cell_setting 'tetragonal'
loop_
_space_group_symop_operation_xyz
x,y,z
y,-x,-z
-x,-y,z
-y,x,-z
x,-y,1/2-z
-x,y,1/2-z
-y,-x,1/2+z
y,x,1/2+z
loop_
_atom_site_type_symbol
_atom_site_label
_atom_site_fract_x
_atom_site_fract_y
_atom_site_fract_z
Si Si1 0.938215 0.586112 0.881285
Si Si2 0.381967 0.725253 0.570888
Si Si3 0.397449 0.175020 0.731969
Si Si4 0.245661 0.900228 0.260493
Si Si5 0.907677 0.700672 0.517931
Si Si6 0.776784 0.914715 0.809543
Si Si7 0.241124 0.576396 0.490204
O O1 0.907258 0.650694 0.786172
O O2 0.845895 0.553087 0.937840
O O3 0.000000 0.500000 0.842069
O O4 0.000122 0.642783 0.961230
O O5 0.383931 0.735856 0.693843
O O6 0.361063 0.825507 0.524738
O O7 0.307569 0.649006 0.544021
O O8 0.483339 0.699709 0.528433
O O9 0.500000 0.134073 0.750000
O O10 0.324999 0.095261 0.760466
O O11 0.380847 0.206748 0.616254
O O12 0.250145 0.871971 0.379167
O O13 0.182980 0.827784 0.201739
O O14 0.197405 0.000000 0.250000
O O15 0.935212 0.774766 0.430620
O O16 0.825650 0.000000 0.750000
#
# Coordination Sequence:
#
# PCOD8308383 Si02
#       7
#     8   8   8   8   8   8   8
#     4  11  21  39  64  92 118 160 209 264 315 373
#     4  10  21  37  58  87 119 163 201 247 306 367
#     4   9  20  37  57  84 121 157 198 261 308 346
#     4  10  24  40  59  88 125 163 200 261 309 367
#     4  10  21  39  61  89 122 154 210 255 315 359
#     4  11  22  38  62  91 121 165 210 249 308 378
#     4  11  21  38  60  85 124 159 202 252 304 367
#
# _framework density 20.367293
#
# number of rings (size 3 to 8) (size 9 to 14) (size 15 to 20)
#    0.000    1.714    1.429    3.429    0.000    5.714 
#    0.000    2.143    0.000    6.000    0.000    0.000 
#    0.000    0.000    0.000    0.000    0.000    0.000 
#
# Total GULP energy -694264.797856 kJ/mol
# GULP energy per Si atom -12397.585676 kJ/mol
# Density = 2.032094 g / cm^3
# Si number density = 20.367293 Si / 1000 Ang^3
#
#
#
# Elastic Constant Matrix: (Units=GPa)
#
#
# Indices 1 2 3 4 5 6 
#
# 1 81.6145 37.7802 35.5291 0.0000 0.0000 0.0000
# 2 37.7802 81.6145 35.5291 0.0000 0.0000 0.0000
# 3 35.5291 35.5291 141.4963 0.0000 0.0000 0.0000
# 4 0.0000 0.0000 0.0000 27.3317 0.0000 0.0000
# 5 0.0000 0.0000 0.0000 0.0000 27.3317 0.0000
# 6 0.0000 0.0000 0.0000 0.0000 0.0000 33.9536
#
#
#
# Elastic Compliance Matrix: (Units=1/GPa)
#
#
# Indices 1 2 3 4 5 6 
#
# 1 0.016330 -0.006483 -0.002473 0.000000 0.000000 0.000000
# 2 -0.006483 0.016330 -0.002473 0.000000 0.000000 0.000000
# 3 -0.002473 -0.002473 0.008309 0.000000 0.000000 0.000000
# 4 0.000000 0.000000 0.000000 0.036588 0.000000 0.000000
# 5 0.000000 0.000000 0.000000 0.000000 0.036588 0.000000
# 6 0.000000 0.000000 0.000000 0.000000 0.000000 0.029452
#
#
# Mechanical properties :
#
#
# Convention : Reuss Voigt Hill
#
# Bulk Modulus (GPa) = 55.20894 58.04469 56.62682
# Shear Modulus (GPa) = 28.98711 30.78252 29.88482
#
# Velocity S-wave (km/s) = 3.77665 3.89185 3.83468
# Velocity P-wave (km/s) = 6.79580 6.98256 6.88982
#
# Compressibility (1/GPa) = 0.01811301
#
# Stress axis : x y z
#
# Youngs Moduli (GPa) = 61.23640 61.23640 120.35110
#
# Poissons Ratio (x) = 0.39700 0.29758
# Poissons Ratio (y) = 0.39700 0.29758
# Poissons Ratio (z) = 0.15141 0.15141
#
# Static dielectric constant tensor:
#      x y z
#    x 3.580310 0.000000 0.000000 
#    y 0.000000 3.580310 0.000000 
#    z 0.000000 0.000000 3.976920 
# 
# 
# High freq. dielectric constant tensor:
#      x y z
#    x 1.782450 0.000000 0.000000 
#    y 0.000000 1.782450 0.000000 
#    z 0.000000 0.000000 1.812560 
# 
# From -- ./inp_files/2640.got.cif
#   From: 2010.03.12/outbox.cif.g09.slc.cpg/sg112_2_cif.got.tgz:2640.got - 2010.04.14 02:02:48.
