data_PCOD8308654
_publ_section_title
;
Structure prediction by ZEFSAII (Michael W. Deem and Ramdas Pophale) SiO2 
 PCOD8308654
Probable space group: P -4 21 M 
;
_chemical_formula_sum "Si O2"
_cell_formula_units_Z 40
_cell_length_a 15.680472
_cell_length_b 15.680472
_cell_length_c 8.971360
_cell_angle_alpha 90.000000
_cell_angle_beta 90.000000
_cell_angle_gamma 90.000000
_cell_volume 2205.852896
_symmetry_space_group_name_H-M "P -4 21 M "
_symmetry_group_IT_number 113
_symmetry_cell_setting 'tetragonal'
loop_
_space_group_symop_operation_xyz
x,y,z
y,-x,-z
-x,-y,z
-y,x,-z
1/2+x,1/2-y,-z
1/2-x,1/2+y,-z
1/2-y,1/2-x,z
1/2+y,1/2+x,z
loop_
_atom_site_type_symbol
_atom_site_label
_atom_site_fract_x
_atom_site_fract_y
_atom_site_fract_z
Si Si1 0.071695 0.571695 0.582744
Si Si2 0.381137 0.462056 0.426212
Si Si3 0.381137 0.462057 0.073788
Si Si4 0.187359 0.449106 0.076408
Si Si5 0.812640 0.550895 0.423594
Si Si6 0.428305 0.071696 0.082746
O O1 0.156053 0.535486 0.503649
O O2 0.096569 0.596569 0.749999
O O3 0.000000 0.500000 0.574966
O O4 0.395793 0.556431 0.492274
O O5 0.399338 0.463016 0.250000
O O6 0.285539 0.432353 0.463455
O O7 0.285538 0.432355 0.036545
O O8 0.395793 0.556432 0.007727
O O9 0.133385 0.366616 0.022840
O O10 0.174299 0.465176 0.250001
O O11 0.156052 0.535488 0.996352
O O12 0.866614 0.633387 0.477163
O O13 0.500000 0.000000 0.074969
#
# Coordination Sequence:
#
# PCOD8308654 Si02
#       6
#     4   8   8   8   8   4
#     4   9  17  29  49  77 105 133 165 206 255 300
#     4  10  20  35  55  75 102 137 176 214 257 308
#     4  10  20  35  55  75 102 137 176 214 257 308
#     4   9  18  34  54  75 103 138 173 209 254 310
#     4   9  18  34  54  75 103 138 173 209 254 310
#     4   9  17  29  49  77 105 133 165 206 255 300
#
# _framework density 18.133575
#
# number of rings (size 3 to 8) (size 9 to 14) (size 15 to 20)
#    0.000    2.600    0.000    3.000    0.000    5.600 
#    3.600    0.000    0.000    0.000    0.000    0.000 
#    0.000    0.000    0.000    0.000    0.000    0.000 
#
# Total GULP energy -495970.121561 kJ/mol
# GULP energy per Si atom -12399.253039 kJ/mol
# Density = 1.809230 g / cm^3
# Si number density = 18.133575 Si / 1000 Ang^3
#
#
#
# Elastic Constant Matrix: (Units=GPa)
#
#
# Indices 1 2 3 4 5 6 
#
# 1 103.0456 48.2995 39.8755 0.0000 0.0000 0.0000
# 2 48.2995 103.0461 39.8757 0.0000 0.0000 0.0000
# 3 39.8755 39.8757 76.0486 0.0000 0.0000 0.0000
# 4 0.0000 0.0000 0.0000 26.5134 0.0000 0.0000
# 5 0.0000 0.0000 0.0000 0.0000 26.5133 0.0000
# 6 0.0000 0.0000 0.0000 0.0000 0.0000 15.8657
#
#
#
# Elastic Compliance Matrix: (Units=1/GPa)
#
#
# Indices 1 2 3 4 5 6 
#
# 1 0.013698 -0.004568 -0.004787 0.000000 0.000000 0.000000
# 2 -0.004568 0.013698 -0.004787 0.000000 0.000000 0.000000
# 3 -0.004787 -0.004787 0.018170 0.000000 0.000000 0.000000
# 4 0.000000 0.000000 0.000000 0.037717 0.000000 0.000000
# 5 0.000000 0.000000 0.000000 0.000000 0.037717 0.000000
# 6 0.000000 0.000000 0.000000 0.000000 0.000000 0.063029
#
#
# Mechanical properties :
#
#
# Convention : Reuss Voigt Hill
#
# Bulk Modulus (GPa) = 57.86763 59.80464 58.83613
# Shear Modulus (GPa) = 22.92796 24.05110 23.48953
#
# Velocity S-wave (km/s) = 3.55969 3.64583 3.60302
# Velocity P-wave (km/s) = 6.99116 7.12562 7.05871
#
# Compressibility (1/GPa) = 0.01728082
#
# Stress axis : x y z
#
# Youngs Moduli (GPa) = 73.00285 73.00319 55.03618
#
# Poissons Ratio (x) = 0.33348 0.26347
# Poissons Ratio (y) = 0.33348 0.26347
# Poissons Ratio (z) = 0.34949 0.34949
#
# Static dielectric constant tensor:
#      x y z
#    x 3.310360 0.000000 0.000000 
#    y 0.000000 3.310350 0.000000 
#    z 0.000000 0.000000 3.436300 
# 
# 
# High freq. dielectric constant tensor:
#      x y z
#    x 1.692240 0.000000 0.000000 
#    y 0.000000 1.692240 0.000000 
#    z 0.000000 0.000000 1.710430 
# 
# From -- ./inp_files/1077.got.cif
#   From: 2010.03.12/outbox.cif.g09.slc.cpg/sg113_cif.got.tgz:1077.got - 2010.04.14 02:06:34.
