data_PCOD8308098
_publ_section_title
;
Structure prediction by ZEFSAII (Michael W. Deem and Ramdas Pophale) SiO2 
 PCOD8308098
Probable space group: P -4 2 M 
;
_chemical_formula_sum "Si O2"
_cell_formula_units_Z 56
_cell_length_a 19.666296
_cell_length_b 19.666296
_cell_length_c 9.496562
_cell_angle_alpha 90.000000
_cell_angle_beta 90.000000
_cell_angle_gamma 90.000000
_cell_volume 3672.920693
_symmetry_space_group_name_H-M "P -4 2 M "
_symmetry_group_IT_number 111
_symmetry_cell_setting 'tetragonal'
loop_
_space_group_symop_operation_xyz
x,y,z
y,-x,-z
-x,-y,z
-y,x,-z
x,-y,-z
-x,y,-z
-y,-x,z
y,x,z
loop_
_atom_site_type_symbol
_atom_site_label
_atom_site_fract_x
_atom_site_fract_y
_atom_site_fract_z
Si Si1 0.709430 0.815012 0.679598
Si Si2 0.606660 0.999805 0.158150
Si Si3 0.874836 0.423247 0.655009
Si Si4 0.909588 0.799797 0.863795
Si Si5 0.722028 0.170576 0.643678
Si Si6 0.050774 0.758346 0.833010
Si Si7 0.869142 0.571714 0.666669
O O1 0.740928 0.740928 0.713837
O O2 0.739950 0.871774 0.781016
O O3 0.728706 0.837760 0.522456
O O4 0.627675 0.810312 0.696980
O O5 0.571752 0.941315 0.249543
O O6 0.686754 0.987362 0.152749
O O7 0.587095 0.070925 0.226180
O O8 0.577002 0.000000 0.000000
O O9 0.827937 0.357516 0.693835
O O10 0.837193 0.495761 0.683597
O O11 0.897255 0.418138 0.492111
O O12 0.871258 0.871258 0.843549
O O13 0.987321 0.810005 0.808362
O O14 0.908540 0.777464 0.026608
O O15 0.760369 0.239632 0.694542
O O16 0.759521 0.104188 0.706001
#
# Coordination Sequence:
#
# PCOD8308098 Si02
#       7
#     8   8   8   8   8   8   8
#     4   9  17  29  46  65  83 109 142 177 211 247
#     4  11  18  28  41  61  88 114 143 169 197 248
#     4   9  20  28  43  60  85 118 142 166 211 250
#     4  10  18  30  45  62  84 109 142 178 214 257
#     4   9  18  31  46  63  83 107 144 182 212 252
#     4  10  18  30  44  64  82 111 140 174 219 251
#     4  10  17  31  41  60  89 115 140 170 204 256
#
# _framework density 15.246722999999999
#
# number of rings (size 3 to 8) (size 9 to 14) (size 15 to 20)
#    0.000    2.286    2.857    1.286    0.000    2.857 
#    0.000    0.000    0.000    7.286    0.000    0.000 
#    0.000   17.714    0.000    8.000    0.000    0.000 
#
# Total GULP energy -693876.313611 kJ/mol
# GULP energy per Si atom -12390.648457 kJ/mol
# Density = 1.521202 g / cm^3
# Si number density = 15.246723 Si / 1000 Ang^3
#
#
#
# Elastic Constant Matrix: (Units=GPa)
#
#
# Indices 1 2 3 4 5 6 
#
# 1 95.3586 56.5102 30.9932 0.0000 0.0000 0.0000
# 2 56.5102 95.3573 30.9939 0.0000 0.0000 0.0000
# 3 30.9932 30.9939 50.6441 0.0000 0.0000 0.0000
# 4 0.0000 0.0000 0.0000 15.1875 0.0000 0.0000
# 5 0.0000 0.0000 0.0000 0.0000 15.1877 0.0000
# 6 0.0000 0.0000 0.0000 0.0000 0.0000 13.0433
#
#
#
# Elastic Compliance Matrix: (Units=1/GPa)
#
#
# Indices 1 2 3 4 5 6 
#
# 1 0.017259 -0.008482 -0.005371 0.000000 0.000000 0.000000
# 2 -0.008482 0.017260 -0.005372 0.000000 0.000000 0.000000
# 3 -0.005371 -0.005372 0.026320 0.000000 0.000000 0.000000
# 4 0.000000 0.000000 0.000000 0.065843 0.000000 0.000000
# 5 0.000000 0.000000 0.000000 0.000000 0.065843 0.000000
# 6 0.000000 0.000000 0.000000 0.000000 0.000000 0.076668
#
#
# Mechanical properties :
#
#
# Convention : Reuss Voigt Hill
#
# Bulk Modulus (GPa) = 44.66581 53.15052 48.90816
# Shear Modulus (GPa) = 15.86768 16.87455 16.37112
#
# Velocity S-wave (km/s) = 3.22953 3.33042 3.28036
# Velocity P-wave (km/s) = 6.57765 7.05159 6.81874
#
# Compressibility (1/GPa) = 0.02238849
#
# Stress axis : x y z
#
# Youngs Moduli (GPa) = 57.94057 57.93894 37.99363
#
# Poissons Ratio (x) = 0.49145 0.20407
# Poissons Ratio (y) = 0.49146 0.20409
# Poissons Ratio (z) = 0.31121 0.31124
#
# Static dielectric constant tensor:
#      x y z
#    x 3.026830 0.000000 0.000000 
#    y 0.000000 3.026830 0.000000 
#    z 0.000000 0.000000 3.031990 
# 
# 
# High freq. dielectric constant tensor:
#      x y z
#    x 1.564460 0.000000 0.000000 
#    y 0.000000 1.564460 0.000000 
#    z 0.000000 0.000000 1.591770 
# 
# From -- ./inp_files/1951.got.cif
#   From: 2010.03.12/outbox.cif.g09.slc.cpg/sg111_1_cif.got.tgz:1951.got - 2010.04.14 01:59:48.
