data_PCOD8308762
_publ_section_title
;
Structure prediction by ZEFSAII (Michael W. Deem and Ramdas Pophale) SiO2 
 PCOD8308762
Probable space group: P -4 21 M 
;
_chemical_formula_sum "Si O2"
_cell_formula_units_Z 40
_cell_length_a 14.496188
_cell_length_b 14.496188
_cell_length_c 8.836573
_cell_angle_alpha 90.000000
_cell_angle_beta 90.000000
_cell_angle_gamma 90.000000
_cell_volume 1856.912736
_symmetry_space_group_name_H-M "P -4 21 M "
_symmetry_group_IT_number 113
_symmetry_cell_setting 'tetragonal'
loop_
_space_group_symop_operation_xyz
x,y,z
y,-x,-z
-x,-y,z
-y,x,-z
1/2+x,1/2-y,-z
1/2-x,1/2+y,-z
1/2-y,1/2-x,z
1/2+y,1/2+x,z
loop_
_atom_site_type_symbol
_atom_site_label
_atom_site_fract_x
_atom_site_fract_y
_atom_site_fract_z
Si Si1 0.242475 0.500808 0.015172
Si Si2 0.576977 0.923024 0.172710
Si Si3 0.420541 0.623353 0.483911
Si Si4 0.701692 0.056264 0.667258
Si Si5 0.823933 0.165535 0.166954
Si Si6 0.922421 0.422421 0.482704
O O1 0.193616 0.447094 0.152154
O O2 0.301633 0.582828 0.087356
O O3 0.169147 0.542942 0.902853
O O4 0.300329 0.427956 0.920015
O O5 0.600347 0.899654 0.345104
O O6 0.500000 0.000000 0.158856
O O7 0.528623 0.614990 0.441014
O O8 0.412652 0.697218 0.617784
O O9 0.360137 0.654236 0.340333
O O10 0.632693 0.132693 0.602592
O O11 0.671604 0.956886 0.597751
O O12 0.741824 0.241824 0.159514
O O13 0.000000 0.500000 0.463394
#
# Coordination Sequence:
#
# PCOD8308762 Si02
#       6
#     8   4   8   8   8   4
#     4  12  26  44  73 104 146 195 240 304 371 442
#     4  11  21  43  71 105 143 188 243 304 375 437
#     4  11  25  45  70 100 141 192 243 296 366 435
#     4  11  22  43  69 102 137 182 241 300 362 432
#     4  12  27  49  72 107 149 191 245 308 369 440
#     4   9  21  39  69 103 139 179 229 296 363 424
#
# _framework density 21.541129999999999
#
# number of rings (size 3 to 8) (size 9 to 14) (size 15 to 20)
#    0.000    0.800    3.000    4.200    2.800    2.800 
#    1.800    0.000    0.000    0.000    0.000    0.000 
#    0.000    0.000    0.000    0.000    0.000    0.000 
#
# Total GULP energy -496031.253336 kJ/mol
# GULP energy per Si atom -12400.781333 kJ/mol
# Density = 2.149210 g / cm^3
# Si number density = 21.541130 Si / 1000 Ang^3
#
#
#
# Elastic Constant Matrix: (Units=GPa)
#
#
# Indices 1 2 3 4 5 6 
#
# 1 100.0689 28.7289 14.9995 0.0000 0.0000 0.0000
# 2 28.7289 100.0695 14.9993 0.0000 0.0000 0.0000
# 3 14.9995 14.9993 88.0883 0.0000 0.0000 0.0000
# 4 0.0000 0.0000 0.0000 42.0182 0.0000 0.0000
# 5 0.0000 0.0000 0.0000 0.0000 42.0181 0.0000
# 6 0.0000 0.0000 0.0000 0.0000 0.0000 39.6597
#
#
#
# Elastic Compliance Matrix: (Units=1/GPa)
#
#
# Indices 1 2 3 4 5 6 
#
# 1 0.011051 -0.002966 -0.001377 0.000000 0.000000 0.000000
# 2 -0.002966 0.011051 -0.001377 0.000000 0.000000 0.000000
# 3 -0.001377 -0.001377 0.011821 0.000000 0.000000 0.000000
# 4 0.000000 0.000000 0.000000 0.023799 0.000000 0.000000
# 5 0.000000 0.000000 0.000000 0.000000 0.023799 0.000000
# 6 0.000000 0.000000 0.000000 0.000000 0.000000 0.025215
#
#
# Mechanical properties :
#
#
# Convention : Reuss Voigt Hill
#
# Bulk Modulus (GPa) = 44.47616 45.07579 44.77598
# Shear Modulus (GPa) = 39.78676 40.03913 39.91294
#
# Velocity S-wave (km/s) = 4.30235 4.31598 4.30917
# Velocity P-wave (km/s) = 6.73589 6.76814 6.75204
#
# Compressibility (1/GPa) = 0.02248395
#
# Stress axis : x y z
#
# Youngs Moduli (GPa) = 90.48896 90.48963 84.59471
#
# Poissons Ratio (x) = 0.26842 0.11646
# Poissons Ratio (y) = 0.26842 0.11645
# Poissons Ratio (z) = 0.12457 0.12457
#
# Static dielectric constant tensor:
#      x y z
#    x 4.077170 0.000000 0.000000 
#    y 0.000000 4.077210 0.000000 
#    z 0.000000 0.000000 3.940030 
# 
# 
# High freq. dielectric constant tensor:
#      x y z
#    x 1.856550 0.000000 0.000000 
#    y 0.000000 1.856550 0.000000 
#    z 0.000000 0.000000 1.851630 
# 
# From -- ./inp_files/1047.got.cif
#   From: 2010.03.12/outbox.cif.g09.slc.cpg/sg113_cif.got.tgz:1047.got - 2010.04.14 02:06:34.
