data_PCOD8308505
_publ_section_title
;
Structure prediction by ZEFSAII (Michael W. Deem and Ramdas Pophale) SiO2 
 PCOD8308505
Probable space group: P -4 2 C
;
_chemical_formula_sum "Si O2"
_cell_formula_units_Z 20
_cell_length_a 5.312673
_cell_length_b 5.312673
_cell_length_c 27.667806
_cell_angle_alpha 90.000000
_cell_angle_beta 90.000000
_cell_angle_gamma 90.000000
_cell_volume 780.909836
_symmetry_space_group_name_H-M "P -4 2 C"
_symmetry_group_IT_number 112
_symmetry_cell_setting 'tetragonal'
loop_
_space_group_symop_operation_xyz
x,y,z
y,-x,-z
-x,-y,z
-y,x,-z
x,-y,1/2-z
-x,y,1/2-z
-y,-x,1/2+z
y,x,1/2+z
loop_
_atom_site_type_symbol
_atom_site_label
_atom_site_fract_x
_atom_site_fract_y
_atom_site_fract_z
Si Si1 0.157214 0.750927 0.825573
Si Si2 0.500000 0.500000 0.250000
Si Si3 0.500000 0.500000 0.500000
Si Si4 0.743334 0.848712 0.567227
O O1 0.346553 0.696962 0.782226
O O2 0.296337 0.790057 0.876279
O O3 0.000000 0.500000 0.832521
O O4 0.000000 0.000000 0.811687
O O5 0.729307 0.597078 0.534580
O O6 0.500000 0.000000 0.549991
O O7 0.000000 0.000000 0.557111
#
# Coordination Sequence:
#
# PCOD8308505 Si02
#       4
#     8   2   2   8
#     4  11  29  53  78 117 164 213 270 339 418 492
#     4  12  28  50  88 122 156 222 276 354 394 512
#     4  12  30  48  88 126 160 220 282 352 396 514
#     4  11  30  53  81 118 168 217 272 341 422 492
#
# _framework density 25.611155
#
# number of rings (size 3 to 8) (size 9 to 14) (size 15 to 20)
#    0.000    0.800    0.000    1.800   28.000    4.800 
#    0.000    0.000    0.000    0.000    0.000    0.000 
#    0.000    0.000    0.000    0.000    0.000    0.000 
#
# Total GULP energy -247965.493421 kJ/mol
# GULP energy per Si atom -12398.274671 kJ/mol
# Density = 2.555286 g / cm^3
# Si number density = 25.611155 Si / 1000 Ang^3
#
#
#
# Elastic Constant Matrix: (Units=GPa)
#
#
# Indices 1 2 3 4 5 6 
#
# 1 159.2142 68.6801 74.6478 0.0000 0.0000 0.0000
# 2 68.6801 159.2142 74.6478 0.0000 0.0000 0.0000
# 3 74.6478 74.6478 208.2505 0.0000 0.0000 0.0000
# 4 0.0000 0.0000 0.0000 338.5810 0.0000 0.0000
# 5 0.0000 0.0000 0.0000 0.0000 338.5810 0.0000
# 6 0.0000 0.0000 0.0000 0.0000 0.0000 9.2886
#
#
#
# Elastic Compliance Matrix: (Units=1/GPa)
#
#
# Indices 1 2 3 4 5 6 
#
# 1 0.008390 -0.002655 -0.002056 0.000000 0.000000 0.000000
# 2 -0.002655 0.008390 -0.002056 0.000000 0.000000 0.000000
# 3 -0.002056 -0.002056 0.006276 0.000000 0.000000 0.000000
# 4 0.000000 0.000000 0.000000 0.002954 0.000000 0.000000
# 5 0.000000 0.000000 0.000000 0.000000 0.002954 0.000000
# 6 0.000000 0.000000 0.000000 0.000000 0.000000 0.107659
#
#
# Mechanical properties :
#
#
# Convention : Reuss Voigt Hill
#
# Bulk Modulus (GPa) = 105.01469 106.95892 105.98680
# Shear Modulus (GPa) = 32.60949 157.87035 95.23992
#
# Velocity S-wave (km/s) = 3.57214 7.85971 6.10472
# Velocity P-wave (km/s) = 7.62273 11.14540 9.54793
#
# Compressibility (1/GPa) = 0.00952248
#
# Stress axis : x y z
#
# Youngs Moduli (GPa) = 119.18810 119.18810 159.34813
#
# Poissons Ratio (x) = 0.31650 0.32755
# Poissons Ratio (y) = 0.31650 0.32755
# Poissons Ratio (z) = 0.24500 0.24500
#
# Static dielectric constant tensor:
#      x y z
#    x 3.891820 0.000000 0.000000 
#    y 0.000000 3.891820 0.000000 
#    z 0.000000 0.000000 5.237940 
# 
# 
# High freq. dielectric constant tensor:
#      x y z
#    x 2.027500 0.000000 0.000000 
#    y 0.000000 2.027500 0.000000 
#    z 0.000000 0.000000 2.055110 
# 
# From -- ./inp_files/5661.got.cif
#   From: 2010.03.12/outbox.cif.g09.slc.cpg/sg112_3_cif.got.tgz:5661.got - 2010.04.14 02:02:48.
