data_PCOD8308091
_publ_section_title
;
Structure prediction by ZEFSAII (Michael W. Deem and Ramdas Pophale) SiO2 
 PCOD8308091
Probable space group: P -4 2 M 
;
_chemical_formula_sum "Si O2"
_cell_formula_units_Z 56
_cell_length_a 17.441412
_cell_length_b 17.441412
_cell_length_c 12.384550
_cell_angle_alpha 90.000000
_cell_angle_beta 90.000000
_cell_angle_gamma 90.000000
_cell_volume 3767.415438
_symmetry_space_group_name_H-M "P -4 2 M "
_symmetry_group_IT_number 111
_symmetry_cell_setting 'tetragonal'
loop_
_space_group_symop_operation_xyz
x,y,z
y,-x,-z
-x,-y,z
-y,x,-z
x,-y,-z
-x,y,-z
-y,-x,z
y,x,z
loop_
_atom_site_type_symbol
_atom_site_label
_atom_site_fract_x
_atom_site_fract_y
_atom_site_fract_z
Si Si1 0.140725 0.262805 0.482469
Si Si2 0.909679 0.215169 0.287790
Si Si3 0.204585 0.083943 0.258178
Si Si4 0.911328 0.650001 0.861973
Si Si5 0.083225 0.573960 0.553395
Si Si6 0.513344 0.916155 0.205375
Si Si7 0.907385 0.660555 0.105651
O O1 0.227467 0.227467 0.491417
O O2 0.091468 0.239511 0.587052
O O3 0.098097 0.226968 0.381152
O O4 0.140505 0.354704 0.465842
O O5 0.858152 0.141849 0.265132
O O6 0.878209 0.286249 0.218459
O O7 0.993648 0.193109 0.245104
O O8 0.124429 0.124429 0.230003
O O9 0.267921 0.120697 0.177393
O O10 0.876950 0.570051 0.812108
O O11 0.002907 0.651680 0.867512
O O12 0.882489 0.671073 0.981943
O O13 0.122864 0.500000 0.500000
O O14 0.072596 0.549707 0.676526
O O15 0.000000 0.591771 0.500000
O O16 0.578866 0.869739 0.139970
O O17 0.500000 0.000000 0.154047
#
# Coordination Sequence:
#
# PCOD8308091 Si02
#       7
#     8   8   8   8   8   8   8
#     4  10  20  32  45  63  90 122 151 183 229 284
#     4  10  20  32  45  60  83 115 153 197 238 273
#     4  10  19  31  47  63  83 113 154 199 235 271
#     4   9  18  29  43  61  85 111 140 177 219 273
#     4  11  18  25  44  71  94 117 143 185 227 275
#     4  10  16  26  41  67  88 108 136 170 219 274
#     4   9  17  29  43  61  84 112 140 174 221 272
#
# _framework density 14.864302
#
# number of rings (size 3 to 8) (size 9 to 14) (size 15 to 20)
#    0.000    2.143    2.857    2.571    2.000    2.571 
#    0.000    0.000    0.000    2.571    0.000    4.000 
#    0.000    0.286    0.000    0.000    0.000    0.857 
#
# Total GULP energy -693764.671959 kJ/mol
# GULP energy per Si atom -12388.654856 kJ/mol
# Density = 1.483047 g / cm^3
# Si number density = 14.864302 Si / 1000 Ang^3
#
#
#
# Elastic Constant Matrix: (Units=GPa)
#
#
# Indices 1 2 3 4 5 6 
#
# 1 79.6056 42.7200 31.4224 0.0000 0.0000 0.0000
# 2 42.7200 79.6078 31.4225 0.0000 0.0000 0.0000
# 3 31.4224 31.4225 100.3945 0.0000 0.0000 0.0000
# 4 0.0000 0.0000 0.0000 11.0896 0.0000 0.0000
# 5 0.0000 0.0000 0.0000 0.0000 11.0908 0.0000
# 6 0.0000 0.0000 0.0000 0.0000 0.0000 7.5712
#
#
#
# Elastic Compliance Matrix: (Units=1/GPa)
#
#
# Indices 1 2 3 4 5 6 
#
# 1 0.018426 -0.008684 -0.003049 0.000000 0.000000 0.000000
# 2 -0.008684 0.018425 -0.003049 0.000000 0.000000 0.000000
# 3 -0.003049 -0.003049 0.011869 0.000000 0.000000 0.000000
# 4 0.000000 0.000000 0.000000 0.090175 0.000000 0.000000
# 5 0.000000 0.000000 0.000000 0.000000 0.090165 0.000000
# 6 0.000000 0.000000 0.000000 0.000000 0.000000 0.132080
#
#
# Mechanical properties :
#
#
# Convention : Reuss Voigt Hill
#
# Bulk Modulus (GPa) = 52.20280 52.30417 52.25349
# Shear Modulus (GPa) = 12.59161 16.21985 14.40573
#
# Velocity S-wave (km/s) = 2.91366 3.30691 3.11649
# Velocity P-wave (km/s) = 6.82020 7.06010 6.94118
#
# Compressibility (1/GPa) = 0.01915606
#
# Stress axis : x y z
#
# Youngs Moduli (GPa) = 54.27151 54.27316 84.25133
#
# Poissons Ratio (x) = 0.47133 0.25688
# Poissons Ratio (y) = 0.47132 0.25687
# Poissons Ratio (z) = 0.16547 0.16547
#
# Static dielectric constant tensor:
#      x y z
#    x 2.817720 0.000000 0.000000 
#    y 0.000000 2.817720 0.000000 
#    z 0.000000 0.000000 3.064730 
# 
# 
# High freq. dielectric constant tensor:
#      x y z
#    x 1.536270 0.000000 0.000000 
#    y 0.000000 1.536270 0.000000 
#    z 0.000000 0.000000 1.589100 
# 
# From -- ./inp_files/2873.got.cif
#   From: 2010.03.12/outbox.cif.g09.slc.cpg/sg111_2_cif.got.tgz:2873.got - 2010.04.14 01:59:48.
