data_PCOD8308030
_publ_section_title
;
Structure prediction by ZEFSAII (Michael W. Deem and Ramdas Pophale) SiO2 
 PCOD8308030
Probable space group: I 41 C D
;
_chemical_formula_sum "Si O2"
_cell_formula_units_Z 112
_cell_length_a 29.993908
_cell_length_b 29.993908
_cell_length_c 5.464997
_cell_angle_alpha 90.000000
_cell_angle_beta 90.000000
_cell_angle_gamma 90.000000
_cell_volume 4916.499937
_symmetry_space_group_name_H-M "I 41 C D"
_symmetry_group_IT_number 110
_symmetry_cell_setting 'tetragonal'
loop_
_space_group_symop_operation_xyz
x,y,z
-y,1/2+x,1/4+z
-x,-y,z
y,1/2-x,1/4+z
-x,y,1/2+z
x,-y,1/2+z
1/2-y,-x,1/4+z
1/2+y,x,1/4+z
1/2+x,1/2+y,1/2+z
1/2-y,x,3/4+z
1/2-x,1/2-y,1/2+z
1/2+y,-x,3/4+z
1/2-x,1/2+y,z
1/2+x,1/2-y,z
-y,1/2-x,3/4+z
y,1/2+x,3/4+z
loop_
_atom_site_type_symbol
_atom_site_label
_atom_site_fract_x
_atom_site_fract_y
_atom_site_fract_z
Si Si1 0.329685 0.512018 0.915830
Si Si2 0.325651 0.892997 0.803862
Si Si3 0.382580 0.028100 0.195434
Si Si4 0.312899 0.184610 0.938677
Si Si5 0.167249 0.112833 0.822624
Si Si6 0.149349 0.251594 0.804016
Si Si7 0.522591 0.072253 0.685017
O O1 0.302643 0.497721 0.669141
O O2 0.342720 0.563252 0.906292
O O3 0.374099 0.481503 0.935251
O O4 0.337484 0.941618 0.698253
O O5 0.309718 0.859554 0.596926
O O6 0.369600 0.878099 0.952130
O O7 0.283721 0.889415 0.986491
O O8 0.425887 0.059250 0.187614
O O9 0.381706 0.999754 0.444947
O O10 0.316139 0.230978 0.092857
O O11 0.359952 0.182235 0.806230
O O12 0.270110 0.182607 0.757406
O O13 0.206917 0.119082 0.630371
O O14 0.500409 0.052826 0.433896
#
# Coordination Sequence:
#
# PCOD8308030 Si02
#       7
#    16  16  16  16  16  16  16
#     4  10  22  37  63 102 136 177 234 293 349 407
#     4  10  23  43  72  96 139 193 237 289 350 436
#     4  12  28  44  68 104 144 194 244 291 359 429
#     4  10  22  41  78 101 141 183 235 287 357 429
#     4  10  22  40  73 100 138 190 237 287 358 432
#     4  10  22  43  73 108 138 182 232 293 351 433
#     4  10  21  38  63  94 137 177 227 294 348 404
#
# _framework density 22.780432999999999
#
# number of rings (size 3 to 8) (size 9 to 14) (size 15 to 20)
#    0.000    1.714    0.000    3.429   12.000    1.714 
#    0.000    1.429  113.143    0.000    0.000    0.000 
#    0.000    0.000    0.000    0.000    0.000    0.000 
#
# Total GULP energy -693853.772361 kJ/mol
# GULP energy per Si atom -12390.245935 kJ/mol
# Density = 2.272858 g / cm^3
# Si number density = 22.780433 Si / 1000 Ang^3
#
#
#
# Elastic Constant Matrix: (Units=GPa)
#
#
# Indices 1 2 3 4 5 6 
#
# 1 77.8983 27.9305 29.3578 0.0000 0.0000 0.0000
# 2 27.9305 77.8983 29.3578 0.0000 0.0000 0.0000
# 3 29.3578 29.3578 173.4565 0.0000 0.0000 0.0000
# 4 0.0000 0.0000 0.0000 -2.8036 0.0000 0.0000
# 5 0.0000 0.0000 0.0000 0.0000 -2.8036 0.0000
# 6 0.0000 0.0000 0.0000 0.0000 0.0000 24.3521
#
#
#
# Elastic Compliance Matrix: (Units=1/GPa)
#
#
# Indices 1 2 3 4 5 6 
#
# 1 0.015221 -0.004792 -0.001765 0.000000 0.000000 0.000000
# 2 -0.004792 0.015221 -0.001765 0.000000 0.000000 0.000000
# 3 -0.001765 -0.001765 0.006363 0.000000 0.000000 0.000000
# 4 0.000000 0.000000 0.000000 -0.356680 0.000000 0.000000
# 5 0.000000 0.000000 0.000000 0.000000 -0.356680 0.000000
# 6 0.000000 0.000000 0.000000 0.000000 0.000000 0.041064
#
#
# Mechanical properties :
#
#
# Convention : Reuss Voigt Hill
#
# Bulk Modulus (GPa) = 49.60453 55.83834 52.72144
# Shear Modulus (GPa) = -8.16824 19.92277 5.87727
#
# Velocity S-wave (km/s) = -1.89563 2.96050 1.60797
# Velocity P-wave (km/s) = 4.12688 6.02086 5.16149
#
# Compressibility (1/GPa) = 0.02015945
#
# Stress axis : x y z
#
# Youngs Moduli (GPa) = 65.69997 65.69997 157.16831
#
# Poissons Ratio (x) = 0.31485 0.27741
# Poissons Ratio (y) = 0.31485 0.27741
# Poissons Ratio (z) = 0.11596 0.11596
#
# Static dielectric constant tensor:
#      x y z
#    x 3.900720 0.000000 0.000000 
#    y 0.000000 3.900720 0.000000 
#    z 0.000000 0.000000 4.898170 
# 
# 
# High freq. dielectric constant tensor:
#      x y z
#    x 1.878670 0.000000 0.000000 
#    y 0.000000 1.878670 0.000000 
#    z 0.000000 0.000000 1.930500 
# 
# From -- ./inp_files/145.got.cif
#   From: 2010.03.12/outbox.cif.g09.slc.cpg/sg110_1_cif.got.tgz:145.got - 2010.04.14 01:58:01.
