data_PCOD8308112
_publ_section_title
;
Structure prediction by ZEFSAII (Michael W. Deem and Ramdas Pophale) SiO2 
 PCOD8308112
Probable space group: P -4 2 M 
;
_chemical_formula_sum "Si O2"
_cell_formula_units_Z 56
_cell_length_a 17.163184
_cell_length_b 17.163184
_cell_length_c 11.885813
_cell_angle_alpha 90.000000
_cell_angle_beta 90.000000
_cell_angle_gamma 90.000000
_cell_volume 3501.261998
_symmetry_space_group_name_H-M "P -4 2 M "
_symmetry_group_IT_number 111
_symmetry_cell_setting 'tetragonal'
loop_
_space_group_symop_operation_xyz
x,y,z
y,-x,-z
-x,-y,z
-y,x,-z
x,-y,-z
-x,y,-z
-y,-x,z
y,x,z
loop_
_atom_site_type_symbol
_atom_site_label
_atom_site_fract_x
_atom_site_fract_y
_atom_site_fract_z
Si Si1 0.797211 0.915787 0.129608
Si Si2 0.327599 0.200259 0.200598
Si Si3 0.087539 0.591178 0.369745
Si Si4 0.084213 0.202791 0.870395
Si Si5 0.799742 0.327600 0.200595
Si Si6 0.591178 0.087540 0.630254
Si Si7 0.409644 0.281300 0.000001
O O1 0.868173 0.868173 0.187788
O O2 0.718509 0.867183 0.136674
O O3 0.789086 0.000001 0.189571
O O4 0.816606 0.927911 0.000001
O O5 0.270034 0.270034 0.240789
O O6 0.367421 0.158995 0.306681
O O7 0.390780 0.232342 0.112379
O O8 0.158993 0.632580 0.306678
O O9 0.096219 0.500000 0.348452
O O10 0.097645 0.612105 0.500000
O O11 1.000000 0.617348 0.330228
O O12 0.131831 0.131831 0.812215
O O13 0.132816 0.281494 0.863333
O O14 0.729969 0.270032 0.240785
O O15 0.767657 0.390782 0.112378
O O16 0.360967 0.360967 0.000001
O O17 0.500000 0.303294 0.000000
#
# Coordination Sequence:
#
# PCOD8308112 Si02
#       7
#     8   8   8   8   8   8   8
#     4   9  16  26  40  59  86 118 149 181 215 250
#     4  10  18  30  47  67  92 118 148 185 224 266
#     4   9  18  32  48  66  90 119 150 186 226 267
#     4   9  16  26  40  59  86 118 149 181 215 250
#     4  10  18  30  47  67  92 118 148 185 224 266
#     4   9  18  32  48  66  90 119 150 186 226 267
#     4  10  20  33  49  69  92 118 146 180 224 274
#
# _framework density 15.994232
#
# number of rings (size 3 to 8) (size 9 to 14) (size 15 to 20)
#    0.000    2.571    1.429    2.571    0.000    1.000 
#    0.000    1.429    0.000    3.429    0.000    0.000 
#    0.000    0.000    0.000   53.143    0.000    0.286 
#
# Total GULP energy -693861.927521 kJ/mol
# GULP energy per Si atom -12390.391563 kJ/mol
# Density = 1.595783 g / cm^3
# Si number density = 15.994232 Si / 1000 Ang^3
#
#
#
# Elastic Constant Matrix: (Units=GPa)
#
#
# Indices 1 2 3 4 5 6 
#
# 1 106.4637 51.1125 42.2251 0.0000 0.0000 0.0000
# 2 51.1125 106.4634 42.2252 0.0000 0.0000 0.0000
# 3 42.2251 42.2252 66.8191 0.0000 0.0000 0.0000
# 4 0.0000 0.0000 0.0000 20.5545 0.0000 0.0000
# 5 0.0000 0.0000 0.0000 0.0000 20.5546 0.0000
# 6 0.0000 0.0000 0.0000 0.0000 0.0000 22.0738
#
#
#
# Elastic Compliance Matrix: (Units=1/GPa)
#
#
# Indices 1 2 3 4 5 6 
#
# 1 0.013831 -0.004235 -0.006064 0.000000 0.000000 0.000000
# 2 -0.004235 0.013831 -0.006064 0.000000 0.000000 0.000000
# 3 -0.006064 -0.006064 0.022630 0.000000 0.000000 0.000000
# 4 0.000000 0.000000 0.000000 0.048651 0.000000 0.000000
# 5 0.000000 0.000000 0.000000 0.000000 0.048651 0.000000
# 6 0.000000 0.000000 0.000000 0.000000 0.000000 0.045303
#
#
# Mechanical properties :
#
#
# Convention : Reuss Voigt Hill
#
# Bulk Modulus (GPa) = 56.92873 61.20797 59.06835
# Shear Modulus (GPa) = 21.60022 22.24881 21.92452
#
# Velocity S-wave (km/s) = 3.67890 3.73373 3.70642
# Velocity P-wave (km/s) = 7.32914 7.54583 7.43827
#
# Compressibility (1/GPa) = 0.01756582
#
# Stress axis : x y z
#
# Youngs Moduli (GPa) = 72.29992 72.29967 44.18919
#
# Poissons Ratio (x) = 0.30620 0.26797
# Poissons Ratio (y) = 0.30621 0.26797
# Poissons Ratio (z) = 0.43843 0.43843
#
# Static dielectric constant tensor:
#      x y z
#    x 3.131710 0.000000 0.000000 
#    y 0.000000 3.131710 0.000000 
#    z 0.000000 0.000000 2.771160 
# 
# 
# High freq. dielectric constant tensor:
#      x y z
#    x 1.618010 0.000000 0.000000 
#    y 0.000000 1.618010 0.000000 
#    z 0.000000 0.000000 1.583530 
# 
# From -- ./inp_files/2852.got.cif
#   From: 2010.03.12/outbox.cif.g09.slc.cpg/sg111_2_cif.got.tgz:2852.got - 2010.04.14 01:59:48.
