data_PCOD8308012
_publ_section_title
;
Structure prediction by ZEFSAII (Michael W. Deem and Ramdas Pophale) SiO2 
 PCOD8308012
Probable space group: I 41 C D
;
_chemical_formula_sum "Si O2"
_cell_formula_units_Z 120
_cell_length_a 19.381117
_cell_length_b 19.381117
_cell_length_c 14.856133
_cell_angle_alpha 90.000000
_cell_angle_beta 90.000000
_cell_angle_gamma 90.000000
_cell_volume 5580.375013
_symmetry_space_group_name_H-M "I 41 C D"
_symmetry_group_IT_number 110
_symmetry_cell_setting 'tetragonal'
loop_
_space_group_symop_operation_xyz
x,y,z
-y,1/2+x,1/4+z
-x,-y,z
y,1/2-x,1/4+z
-x,y,1/2+z
x,-y,1/2+z
1/2-y,-x,1/4+z
1/2+y,x,1/4+z
1/2+x,1/2+y,1/2+z
1/2-y,x,3/4+z
1/2-x,1/2-y,1/2+z
1/2+y,-x,3/4+z
1/2-x,1/2+y,z
1/2+x,1/2-y,z
-y,1/2-x,3/4+z
y,1/2+x,3/4+z
loop_
_atom_site_type_symbol
_atom_site_label
_atom_site_fract_x
_atom_site_fract_y
_atom_site_fract_z
Si Si1 0.691524 0.437620 0.469150
Si Si2 0.848347 0.832237 0.087803
Si Si3 0.484257 0.755491 0.056705
Si Si4 0.803744 0.304501 0.646733
Si Si5 0.000000 0.000000 0.102304
Si Si6 0.348059 0.673160 0.704921
Si Si7 0.932561 0.873462 0.543876
Si Si8 0.985015 0.347686 0.896103
O O1 0.696686 0.490805 0.387665
O O2 0.752653 0.383109 0.463753
O O3 0.620889 0.393611 0.465224
O O4 0.687651 0.485174 0.557209
O O5 0.797612 0.778195 0.136484
O O6 0.841867 0.901823 0.145779
O O7 0.922527 0.794023 0.087944
O O8 0.826159 0.846736 0.984728
O O9 0.543515 0.703259 0.022479
O O10 0.472898 0.808165 0.974639
O O11 0.724742 0.328717 0.652596
O O12 0.846845 0.334958 0.560273
O O13 0.005077 0.929702 0.042510
O O14 0.929480 0.997859 0.158619
O O15 0.396538 0.623321 0.644740
#
# Coordination Sequence:
#
# PCOD8308012 Si02
#       8
#    16  16  16  16   8  16  16  16
#     4  10  22  41  64  92 130 173 224 273 332 416
#     4  11  23  42  61  98 131 168 221 285 338 410
#     4  11  24  42  67  96 131 180 227 281 352 409
#     4  10  22  34  63  93 129 161 211 276 347 400
#     4  10  22  44  68  88 130 184 224 276 334 410
#     4  10  19  37  62  97 122 173 215 271 341 411
#     4  10  21  41  66  90 133 173 226 279 336 409
#     4  11  24  44  66  92 133 179 224 285 342 408
#
# _framework density 21.503933
#
# number of rings (size 3 to 8) (size 9 to 14) (size 15 to 20)
#    0.000    1.600    2.667    1.600    7.467    1.067 
#    2.400    4.000    0.000    0.000    0.000    0.000 
#    0.000    0.000    0.000    0.000    0.000    0.000 
#
# Total GULP energy -743368.440330 kJ/mol
# GULP energy per Si atom -12389.474006 kJ/mol
# Density = 2.145499 g / cm^3
# Si number density = 21.503933 Si / 1000 Ang^3
#
#
#
# Elastic Constant Matrix: (Units=GPa)
#
#
# Indices 1 2 3 4 5 6 
#
# 1 66.7291 9.6528 13.2516 0.0000 0.0000 0.0000
# 2 9.6528 66.7291 13.2516 0.0000 0.0000 0.0000
# 3 13.2516 13.2516 80.5468 0.0000 0.0000 0.0000
# 4 0.0000 0.0000 0.0000 31.4962 0.0000 0.0000
# 5 0.0000 0.0000 0.0000 0.0000 31.4962 0.0000
# 6 0.0000 0.0000 0.0000 0.0000 0.0000 37.9744
#
#
#
# Elastic Compliance Matrix: (Units=1/GPa)
#
#
# Indices 1 2 3 4 5 6 
#
# 1 0.015703 -0.001818 -0.002284 0.000000 0.000000 0.000000
# 2 -0.001818 0.015703 -0.002284 0.000000 0.000000 0.000000
# 3 -0.002284 -0.002284 0.013167 0.000000 0.000000 0.000000
# 4 0.000000 0.000000 0.000000 0.031750 0.000000 0.000000
# 5 0.000000 0.000000 0.000000 0.000000 0.031750 0.000000
# 6 0.000000 0.000000 0.000000 0.000000 0.000000 0.026334
#
#
# Mechanical properties :
#
#
# Convention : Reuss Voigt Hill
#
# Bulk Modulus (GPa) = 31.44760 31.81302 31.63031
# Shear Modulus (GPa) = 31.69014 32.04995 31.87004
#
# Velocity S-wave (km/s) = 3.84303 3.86479 3.85393
# Velocity P-wave (km/s) = 5.86069 5.89420 5.87747
#
# Compressibility (1/GPa) = 0.03179893
#
# Stress axis : x y z
#
# Youngs Moduli (GPa) = 63.68388 63.68388 75.94866
#
# Poissons Ratio (x) = 0.11577 0.17349
# Poissons Ratio (y) = 0.11577 0.17349
# Poissons Ratio (z) = 0.14548 0.14548
#
# Static dielectric constant tensor:
#      x y z
#    x 4.155820 0.000000 0.000000 
#    y 0.000000 4.155820 0.000000 
#    z 0.000000 0.000000 3.772760 
# 
# 
# High freq. dielectric constant tensor:
#      x y z
#    x 1.858940 0.000000 0.000000 
#    y 0.000000 1.858940 0.000000 
#    z 0.000000 0.000000 1.818020 
# 
# From -- ./inp_files/1368.got.cif
#   From: 2010.03.12/outbox.cif.g09.slc.cpg/sg110_1_cif.got.tgz:1368.got - 2010.04.14 01:58:01.
