data_PCOD8308077
_publ_section_title
;
Structure prediction by ZEFSAII (Michael W. Deem and Ramdas Pophale) SiO2 
 PCOD8308077
Probable space group: I 41 C D
;
_chemical_formula_sum "Si O2"
_cell_formula_units_Z 96
_cell_length_a 15.465595
_cell_length_b 15.465595
_cell_length_c 17.739628
_cell_angle_alpha 90.000000
_cell_angle_beta 90.000000
_cell_angle_gamma 90.000000
_cell_volume 4243.046337
_symmetry_space_group_name_H-M "I 41 C D"
_symmetry_group_IT_number 110
_symmetry_cell_setting 'tetragonal'
loop_
_space_group_symop_operation_xyz
x,y,z
-y,1/2+x,1/4+z
-x,-y,z
y,1/2-x,1/4+z
-x,y,1/2+z
x,-y,1/2+z
1/2-y,-x,1/4+z
1/2+y,x,1/4+z
1/2+x,1/2+y,1/2+z
1/2-y,x,3/4+z
1/2-x,1/2-y,1/2+z
1/2+y,-x,3/4+z
1/2-x,1/2+y,z
1/2+x,1/2-y,z
-y,1/2-x,3/4+z
y,1/2+x,3/4+z
loop_
_atom_site_type_symbol
_atom_site_label
_atom_site_fract_x
_atom_site_fract_y
_atom_site_fract_z
Si Si1 0.903038 0.034913 0.746670
Si Si2 0.631656 0.783620 0.257523
Si Si3 0.662910 0.606515 0.332016
Si Si4 0.972469 0.403573 0.729376
Si Si5 0.145625 0.353640 0.355066
Si Si6 0.335894 0.201153 0.090748
O O1 0.891609 0.080571 0.666728
O O2 0.874277 0.100522 0.812811
O O3 0.840548 0.950865 0.755364
O O4 0.000000 0.000000 0.757063
O O5 0.623525 0.700352 0.311984
O O6 0.547911 0.843718 0.264978
O O7 0.721359 0.831552 0.279842
O O8 0.635482 0.756364 0.169853
O O9 0.606530 0.552897 0.392141
O O10 0.758024 0.610708 0.367634
O O11 0.884512 0.384511 0.773542
O O12 0.000000 0.500000 0.744707
O O13 0.148412 0.251092 0.355066
#
# Coordination Sequence:
#
# PCOD8308077 Si02
#       6
#    16  16  16  16  16  16
#     4  12  26  45  75 111 147 190 245 309 368 445
#     4  11  27  45  76 106 150 197 251 304 374 444
#     4  11  28  47  73 108 148 198 247 307 378 433
#     4  12  28  47  75 111 147 194 252 308 368 447
#     4  11  27  47  74 105 149 195 244 304 369 447
#     4  11  24  49  71 107 147 204 243 302 373 442
#
# _framework density 22.625254999999999
#
# number of rings (size 3 to 8) (size 9 to 14) (size 15 to 20)
#    0.000    0.667    3.333    2.000   16.333    0.000 
#    0.000    0.000    0.000    0.000    0.000    0.000 
#    0.000    0.000    0.000    0.000    0.000    0.000 
#
# Total GULP energy -595106.963526 kJ/mol
# GULP energy per Si atom -12398.061740 kJ/mol
# Density = 2.257376 g / cm^3
# Si number density = 22.625255 Si / 1000 Ang^3
#
#
#
# Elastic Constant Matrix: (Units=GPa)
#
#
# Indices 1 2 3 4 5 6 
#
# 1 113.9198 81.1908 35.2439 0.0000 0.0000 0.0000
# 2 81.1908 113.9197 35.2439 0.0000 0.0000 0.0000
# 3 35.2439 35.2439 98.1014 0.0000 0.0000 0.0000
# 4 0.0000 0.0000 0.0000 37.6435 0.0000 0.0000
# 5 0.0000 0.0000 0.0000 0.0000 37.6436 0.0000
# 6 0.0000 0.0000 0.0000 0.0000 0.0000 23.7658
#
#
#
# Elastic Compliance Matrix: (Units=1/GPa)
#
#
# Indices 1 2 3 4 5 6 
#
# 1 0.018222 -0.012332 -0.002116 0.000000 0.000000 0.000000
# 2 -0.012332 0.018222 -0.002116 0.000000 0.000000 0.000000
# 3 -0.002116 -0.002116 0.011714 0.000000 0.000000 0.000000
# 4 0.000000 0.000000 0.000000 0.026565 0.000000 0.000000
# 5 0.000000 0.000000 0.000000 0.000000 0.026565 0.000000
# 6 0.000000 0.000000 0.000000 0.000000 0.000000 0.042077
#
#
# Mechanical properties :
#
#
# Convention : Reuss Voigt Hill
#
# Bulk Modulus (GPa) = 66.53552 69.92200 68.22876
# Shear Modulus (GPa) = 27.54780 31.42807 29.48794
#
# Velocity S-wave (km/s) = 3.49315 3.73107 3.61407
# Velocity P-wave (km/s) = 6.76321 7.03794 6.90194
#
# Compressibility (1/GPa) = 0.01502957
#
# Stress axis : x y z
#
# Youngs Moduli (GPa) = 54.87915 54.87915 85.36885
#
# Poissons Ratio (x) = 0.67678 0.18064
# Poissons Ratio (y) = 0.67678 0.18064
# Poissons Ratio (z) = 0.11612 0.11612
#
# Static dielectric constant tensor:
#      x y z
#    x 4.110960 0.000000 0.000000 
#    y 0.000000 4.110960 0.000000 
#    z 0.000000 0.000000 4.089970 
# 
# 
# High freq. dielectric constant tensor:
#      x y z
#    x 1.899050 0.000000 0.000000 
#    y 0.000000 1.899050 0.000000 
#    z 0.000000 0.000000 1.900900 
# 
# From -- ./inp_files/2208.got.cif
#   From: 2010.03.12/outbox.cif.g09.slc.cpg/sg110_2_cif.got.tgz:2208.got - 2010.04.14 01:58:01.
