data_PCOD8308580
_publ_section_title
;
Structure prediction by ZEFSAII (Michael W. Deem and Ramdas Pophale) SiO2 
 PCOD8308580
Probable space group: P -4 21 M 
;
_chemical_formula_sum "Si O2"
_cell_formula_units_Z 64
_cell_length_a 12.291787
_cell_length_b 12.291787
_cell_length_c 22.855425
_cell_angle_alpha 90.000000
_cell_angle_beta 90.000000
_cell_angle_gamma 90.000000
_cell_volume 3453.181084
_symmetry_space_group_name_H-M "P -4 21 M "
_symmetry_group_IT_number 113
_symmetry_cell_setting 'tetragonal'
loop_
_space_group_symop_operation_xyz
x,y,z
y,-x,-z
-x,-y,z
-y,x,-z
1/2+x,1/2-y,-z
1/2-x,1/2+y,-z
1/2-y,1/2-x,z
1/2+y,1/2+x,z
loop_
_atom_site_type_symbol
_atom_site_label
_atom_site_fract_x
_atom_site_fract_y
_atom_site_fract_z
Si Si1 0.244602 0.918906 0.123321
Si Si2 0.956008 0.877603 0.419482
Si Si3 0.825176 0.507690 0.624999
Si Si4 0.675690 0.999589 0.004165
Si Si5 0.748222 0.424330 0.511480
Si Si6 0.927151 0.102056 0.808212
Si Si7 0.874839 0.984045 0.920005
Si Si8 0.674058 0.353785 0.687649
O O1 0.331064 0.831064 0.147769
O O2 0.299812 0.991634 0.072866
O O3 0.140462 0.854451 0.098091
O O4 0.206099 0.998162 0.175289
O O5 0.845744 0.858750 0.455408
O O6 0.934404 0.844113 0.352125
O O7 0.038269 0.792543 0.448064
O O8 0.000000 0.000000 0.426400
O O9 0.916975 0.416975 0.626248
O O10 0.781856 0.518888 0.558100
O O11 0.730634 0.469258 0.669779
O O12 0.875853 0.624147 0.644424
O O13 0.597766 0.097766 0.983765
O O14 0.615815 0.884186 0.992292
O O15 0.789502 0.012854 0.970270
O O16 0.849089 0.349089 0.497165
O O17 0.855846 0.064399 0.864392
O O18 0.851060 0.138765 0.755161
O O19 0.000000 0.000000 0.787947
O O20 0.000000 0.000000 0.941691
O O21 0.752891 0.252891 0.675350
#
# Coordination Sequence:
#
# PCOD8308580 Si02
#       8
#     8   8   8   8   8   8   8   8
#     4   9  19  33  53  81 110 142 180 229 281 331
#     4  11  19  36  54  78 110 144 173 220 268 316
#     4   8  16  30  47  73 106 135 167 213 267 319
#     4  10  21  35  53  83 118 147 177 223 287 345
#     4  10  19  32  53  80 108 142 179 215 269 329
#     4   9  20  37  54  75 104 141 183 230 268 324
#     4   9  20  34  55  78 109 145 189 226 268 330
#     4  10  21  35  54  77 102 139 186 227 267 321
#
# _framework density 18.533633999999999
#
# number of rings (size 3 to 8) (size 9 to 14) (size 15 to 20)
#    0.000    2.750    1.250    1.875    3.500    3.000 
#    0.000    0.000    0.000    6.750    0.000    0.000 
#    0.000    0.000    0.000    0.000    0.000    0.000 
#
# Total GULP energy -793131.840342 kJ/mol
# GULP energy per Si atom -12392.685005 kJ/mol
# Density = 1.849145 g / cm^3
# Si number density = 18.533634 Si / 1000 Ang^3
#
#
#
# Elastic Constant Matrix: (Units=GPa)
#
#
# Indices 1 2 3 4 5 6 
#
# 1 64.8484 23.7768 36.4232 0.0000 0.0000 0.0000
# 2 23.7768 64.8489 36.4234 0.0000 0.0000 0.0000
# 3 36.4232 36.4234 96.8468 0.0000 0.0000 0.0000
# 4 0.0000 0.0000 0.0000 22.7680 0.0000 0.0000
# 5 0.0000 0.0000 0.0000 0.0000 22.7681 0.0000
# 6 0.0000 0.0000 0.0000 0.0000 0.0000 20.2320
#
#
#
# Elastic Compliance Matrix: (Units=1/GPa)
#
#
# Indices 1 2 3 4 5 6 
#
# 1 0.020340 -0.004008 -0.006142 0.000000 0.000000 0.000000
# 2 -0.004008 0.020340 -0.006142 0.000000 0.000000 0.000000
# 3 -0.006142 -0.006142 0.014946 0.000000 0.000000 0.000000
# 4 0.000000 0.000000 0.000000 0.043921 0.000000 0.000000
# 5 0.000000 0.000000 0.000000 0.000000 0.043921 0.000000
# 6 0.000000 0.000000 0.000000 0.000000 0.000000 0.049427
#
#
# Mechanical properties :
#
#
# Convention : Reuss Voigt Hill
#
# Bulk Modulus (GPa) = 43.40156 46.64343 45.02249
# Shear Modulus (GPa) = 21.44451 21.81501 21.62976
#
# Velocity S-wave (km/s) = 3.40525 3.43454 3.41992
# Velocity P-wave (km/s) = 6.23935 6.39919 6.31978
#
# Compressibility (1/GPa) = 0.02304065
#
# Stress axis : x y z
#
# Youngs Moduli (GPa) = 49.16420 49.16451 66.90819
#
# Poissons Ratio (x) = 0.19703 0.41098
# Poissons Ratio (y) = 0.19703 0.41098
# Poissons Ratio (z) = 0.30199 0.30199
#
# Static dielectric constant tensor:
#      x y z
#    x 3.435250 0.000000 0.000000 
#    y 0.000000 3.435250 0.000000 
#    z 0.000000 0.000000 3.313640 
# 
# 
# High freq. dielectric constant tensor:
#      x y z
#    x 1.707320 0.000000 0.000000 
#    y 0.000000 1.707320 0.000000 
#    z 0.000000 0.000000 1.707110 
# 
# From -- ./inp_files/2907.got.cif
#   From: 2010.03.12/outbox.cif.g09.slc.cpg/sg113_cif.got.tgz:2907.got - 2010.04.14 02:06:34.
