data_PCOD8308778
_publ_section_title
;
Structure prediction by ZEFSAII (Michael W. Deem and Ramdas Pophale) SiO2 
 PCOD8308778
Probable space group: P -4 21 M 
;
_chemical_formula_sum "Si O2"
_cell_formula_units_Z 24
_cell_length_a 12.790731
_cell_length_b 12.790731
_cell_length_c 6.658505
_cell_angle_alpha 90.000000
_cell_angle_beta 90.000000
_cell_angle_gamma 90.000000
_cell_volume 1089.350059
_symmetry_space_group_name_H-M "P -4 21 M "
_symmetry_group_IT_number 113
_symmetry_cell_setting 'tetragonal'
loop_
_space_group_symop_operation_xyz
x,y,z
y,-x,-z
-x,-y,z
-y,x,-z
1/2+x,1/2-y,-z
1/2-x,1/2+y,-z
1/2-y,1/2-x,z
1/2+y,1/2+x,z
loop_
_atom_site_type_symbol
_atom_site_label
_atom_site_fract_x
_atom_site_fract_y
_atom_site_fract_z
Si Si1 0.289568 0.210433 0.419904
Si Si2 0.500000 0.000000 0.217702
Si Si3 0.158153 0.658153 0.999189
Si Si4 0.868424 0.631577 0.463245
Si Si5 0.000000 0.000000 0.500000
Si Si6 0.464575 0.277630 0.678381
O O1 0.282672 0.217329 0.179945
O O2 0.214436 0.285565 0.553139
O O3 0.407385 0.239410 0.476436
O O4 0.426954 0.073047 0.078990
O O5 0.571526 0.071526 0.361766
O O6 0.251480 0.603669 0.125166
O O7 0.798779 0.563213 0.311525
O O8 0.007334 0.900097 0.349872
#
# Coordination Sequence:
#
# PCOD8308778 Si02
#       6
#     4   2   4   4   2   8
#     4  11  23  46  69 100 140 184 232 303 361 419
#     4  12  22  44  84 102 142 194 250 306 350 428
#     4  11  24  46  72 111 136 185 253 305 353 421
#     4  12  22  45  77  98 142 188 244 292 359 424
#     4  12  24  48  70 100 156 202 224 288 386 436
#     4  11  24  46  72 102 142 192 240 296 362 433
#
# _framework density 22.031486000000001
#
# number of rings (size 3 to 8) (size 9 to 14) (size 15 to 20)
#    0.000    0.667    6.667    2.000    0.000    0.000 
#   18.000    1.667    0.000    0.000    0.000    0.000 
#    0.000    0.000    0.000    0.000    0.000    0.000 
#
# Total GULP energy -297352.350540 kJ/mol
# GULP energy per Si atom -12389.681272 kJ/mol
# Density = 2.198134 g / cm^3
# Si number density = 22.031486 Si / 1000 Ang^3
#
#
#
# Elastic Constant Matrix: (Units=GPa)
#
#
# Indices 1 2 3 4 5 6 
#
# 1 136.2704 73.1727 52.7511 0.0000 0.0000 0.0000
# 2 73.1727 136.2705 52.7511 0.0000 0.0000 0.0000
# 3 52.7511 52.7511 123.9951 0.0000 0.0000 0.0000
# 4 0.0000 0.0000 0.0000 -30.5743 0.0000 0.0000
# 5 0.0000 0.0000 0.0000 0.0000 -30.5820 0.0000
# 6 0.0000 0.0000 0.0000 0.0000 0.0000 53.6859
#
#
#
# Elastic Compliance Matrix: (Units=1/GPa)
#
#
# Indices 1 2 3 4 5 6 
#
# 1 0.010963 -0.004886 -0.002585 0.000000 0.000000 0.000000
# 2 -0.004886 0.010963 -0.002585 0.000000 0.000000 0.000000
# 3 -0.002585 -0.002585 0.010265 0.000000 0.000000 0.000000
# 4 0.000000 0.000000 0.000000 -0.032707 0.000000 0.000000
# 5 0.000000 0.000000 0.000000 0.000000 -0.032699 0.000000
# 6 0.000000 0.000000 0.000000 0.000000 0.000000 0.018627
#
#
# Mechanical properties :
#
#
# Convention : Reuss Voigt Hill
#
# Bulk Modulus (GPa) = 82.80101 83.76509 83.28305
# Shear Modulus (GPa) = 523.61923 13.02997 268.32460
#
# Velocity S-wave (km/s) = 15.43323 2.43456 11.04789
# Velocity P-wave (km/s) = 18.84792 6.78277 14.16421
#
# Compressibility (1/GPa) = 0.01207715
#
# Stress axis : x y z
#
# Youngs Moduli (GPa) = 91.21894 91.21897 97.42295
#
# Poissons Ratio (x) = 0.44568 0.25186
# Poissons Ratio (y) = 0.44568 0.25186
# Poissons Ratio (z) = 0.23582 0.23582
#
# Static dielectric constant tensor:
#      x y z
#    x 4.461970 0.000000 0.000000 
#    y 0.000000 4.461900 0.000000 
#    z 0.000000 0.000000 3.600970 
# 
# 
# High freq. dielectric constant tensor:
#      x y z
#    x 1.882640 0.000000 0.000000 
#    y 0.000000 1.882640 0.000000 
#    z 0.000000 0.000000 1.841200 
# 
# From -- ./inp_files/165.got.cif
#   From: 2010.03.12/outbox.cif.g09.slc.cpg/sg113_cif.got.tgz:165.got - 2010.04.14 02:06:34.
