data_PCOD8308658
_publ_section_title
;
Structure prediction by ZEFSAII (Michael W. Deem and Ramdas Pophale) SiO2 
 PCOD8308658
Probable space group: P -4 21 M 
;
_chemical_formula_sum "Si O2"
_cell_formula_units_Z 48
_cell_length_a 16.457766
_cell_length_b 16.457766
_cell_length_c 9.481499
_cell_angle_alpha 90.000000
_cell_angle_beta 90.000000
_cell_angle_gamma 90.000000
_cell_volume 2568.140441
_symmetry_space_group_name_H-M "P -4 21 M "
_symmetry_group_IT_number 113
_symmetry_cell_setting 'tetragonal'
loop_
_space_group_symop_operation_xyz
x,y,z
y,-x,-z
-x,-y,z
-y,x,-z
1/2+x,1/2-y,-z
1/2-x,1/2+y,-z
1/2-y,1/2-x,z
1/2+y,1/2+x,z
loop_
_atom_site_type_symbol
_atom_site_label
_atom_site_fract_x
_atom_site_fract_y
_atom_site_fract_z
Si Si1 0.293353 0.073825 0.016695
Si Si2 0.069606 0.904442 0.554941
Si Si3 0.797382 0.572180 0.179556
Si Si4 0.286069 0.476914 0.743358
Si Si5 0.747234 0.618170 0.482014
Si Si6 0.704297 0.664531 0.947934
O O1 0.370729 0.129272 0.045424
O O2 0.213587 0.123942 0.981481
O O3 0.310967 0.017075 0.882730
O O4 0.277824 0.024738 0.160394
O O5 0.151561 0.855632 0.512690
O O6 0.000212 0.903373 0.430208
O O7 0.031688 0.863526 0.695572
O O8 0.883705 0.616296 0.169013
O O9 0.767084 0.569148 0.339805
O O10 0.729300 0.619930 0.091519
O O11 0.235251 0.444801 0.608577
O O12 0.319614 0.399316 0.827706
O O13 0.800292 0.699709 0.495613
O O14 0.776743 0.723258 0.893794
#
# Coordination Sequence:
#
# PCOD8308658 Si02
#       6
#     8   8   8   8   8   8
#     4  10  21  37  58  82 107 143 191 231 266 320
#     4   9  19  33  51  81 117 142 169 217 277 325
#     4   9  19  35  55  80 111 144 176 222 283 330
#     4  10  20  35  56  83 114 144 180 228 276 320
#     4  10  20  36  58  80 107 146 186 221 268 331
#     4   9  18  34  55  80 110 144 184 223 264 325
#
# _framework density 18.690567000000001
#
# number of rings (size 3 to 8) (size 9 to 14) (size 15 to 20)
#    0.000    2.500    0.000    1.500    0.000    9.667 
#    0.000    2.500    0.000    5.500    0.000    0.000 
#    0.000    0.000    0.000    0.000    0.000    0.000 
#
# Total GULP energy -594947.363425 kJ/mol
# GULP energy per Si atom -12394.736738 kJ/mol
# Density = 1.864803 g / cm^3
# Si number density = 18.690567 Si / 1000 Ang^3
#
#
#
# Elastic Constant Matrix: (Units=GPa)
#
#
# Indices 1 2 3 4 5 6 
#
# 1 114.4532 56.8761 59.4899 0.0000 0.0000 0.0000
# 2 56.8761 114.4496 59.4901 0.0000 0.0000 0.0000
# 3 59.4899 59.4901 133.8165 0.0000 0.0000 0.0000
# 4 0.0000 0.0000 0.0000 28.2578 0.0000 0.0000
# 5 0.0000 0.0000 0.0000 0.0000 28.2582 0.0000
# 6 0.0000 0.0000 0.0000 0.0000 0.0000 26.2696
#
#
#
# Elastic Compliance Matrix: (Units=1/GPa)
#
#
# Indices 1 2 3 4 5 6 
#
# 1 0.012906 -0.004462 -0.003754 0.000000 0.000000 0.000000
# 2 -0.004462 0.012906 -0.003754 0.000000 0.000000 0.000000
# 3 -0.003754 -0.003754 0.010810 0.000000 0.000000 0.000000
# 4 0.000000 0.000000 0.000000 0.035388 0.000000 0.000000
# 5 0.000000 0.000000 0.000000 0.000000 0.035388 0.000000
# 6 0.000000 0.000000 0.000000 0.000000 0.000000 0.038067
#
#
# Mechanical properties :
#
#
# Convention : Reuss Voigt Hill
#
# Bulk Modulus (GPa) = 78.84718 79.38126 79.11422
# Shear Modulus (GPa) = 28.79634 29.01468 28.90551
#
# Velocity S-wave (km/s) = 3.92942 3.94429 3.93686
# Velocity P-wave (km/s) = 7.92870 7.95655 7.94264
#
# Compressibility (1/GPa) = 0.01268276
#
# Stress axis : x y z
#
# Youngs Moduli (GPa) = 77.48459 77.48131 92.50309
#
# Poissons Ratio (x) = 0.34576 0.34722
# Poissons Ratio (y) = 0.34577 0.34724
# Poissons Ratio (z) = 0.29084 0.29085
#
# Static dielectric constant tensor:
#      x y z
#    x 3.469530 0.000000 0.000000 
#    y 0.000000 3.469530 0.000000 
#    z 0.000000 0.000000 3.462980 
# 
# 
# High freq. dielectric constant tensor:
#      x y z
#    x 1.722230 0.000000 0.000000 
#    y 0.000000 1.722230 0.000000 
#    z 0.000000 0.000000 1.722740 
# 
# From -- ./inp_files/1187.got.cif
#   From: 2010.03.12/outbox.cif.g09.slc.cpg/sg113_cif.got.tgz:1187.got - 2010.04.14 02:06:34.
