data_PCOD8308649
_publ_section_title
;
Structure prediction by ZEFSAII (Michael W. Deem and Ramdas Pophale) SiO2 
 PCOD8308649
Probable space group: P -4 21 M 
;
_chemical_formula_sum "Si O2"
_cell_formula_units_Z 64
_cell_length_a 12.329160
_cell_length_b 12.329160
_cell_length_c 22.558965
_cell_angle_alpha 90.000000
_cell_angle_beta 90.000000
_cell_angle_gamma 90.000000
_cell_volume 3429.147355
_symmetry_space_group_name_H-M "P -4 21 M "
_symmetry_group_IT_number 113
_symmetry_cell_setting 'tetragonal'
loop_
_space_group_symop_operation_xyz
x,y,z
y,-x,-z
-x,-y,z
-y,x,-z
1/2+x,1/2-y,-z
1/2-x,1/2+y,-z
1/2-y,1/2-x,z
1/2+y,1/2+x,z
loop_
_atom_site_type_symbol
_atom_site_label
_atom_site_fract_x
_atom_site_fract_y
_atom_site_fract_z
Si Si1 0.375375 0.474967 0.753975
Si Si2 0.497068 0.826297 0.913335
Si Si3 0.678406 0.648546 0.439921
Si Si4 0.553208 0.338200 0.011035
Si Si5 0.576199 0.750308 0.544826
Si Si6 0.334959 0.659475 0.134709
Si Si7 0.393304 0.279662 0.677750
Si Si8 0.682050 0.636986 0.309105
O O1 0.500000 0.500000 0.742500
O O2 0.352886 0.435626 0.820653
O O3 0.335027 0.381633 0.709155
O O4 0.320461 0.590881 0.737651
O O5 0.595650 0.904351 0.933115
O O6 0.546477 0.734789 0.868771
O O7 0.399324 0.899324 0.884583
O O8 0.448888 0.769672 0.971658
O O9 0.739060 0.760941 0.440670
O O10 0.593392 0.659630 0.493639
O O11 0.765430 0.552834 0.451891
O O12 0.625706 0.634723 0.374681
O O13 0.613925 0.311103 0.071707
O O14 0.431414 0.380298 0.024135
O O15 0.634411 0.865590 0.532449
O O16 0.616515 0.701363 0.607342
O O17 0.257068 0.757068 0.155412
O O18 0.330566 0.169435 0.696212
O O19 0.516184 0.271046 0.702858
O O20 0.783349 0.716652 0.305844
#
# Coordination Sequence:
#
# PCOD8308649 Si02
#       8
#     8   8   8   8   8   8   8   8
#     4  10  21  34  55  75 107 143 181 217 265 316
#     4   9  18  33  53  79 112 142 171 219 277 323
#     4   9  18  31  49  74 104 134 169 217 267 319
#     4   9  18  31  54  79 109 142 182 220 264 316
#     4   9  18  30  48  75 102 132 171 215 265 320
#     4  10  20  34  55  80 106 144 183 220 260 311
#     4   9  18  34  54  77 104 138 179 221 270 324
#     4   9  19  36  54  77 106 139 178 222 275 324
#
# _framework density 18.663530000000002
#
# number of rings (size 3 to 8) (size 9 to 14) (size 15 to 20)
#    0.000    2.750    0.000    0.750    5.250    1.250 
#    0.000    5.625    0.000    5.250    0.000    0.000 
#    0.000    0.000    0.000    0.000    0.000    0.000 
#
# Total GULP energy -792929.778887 kJ/mol
# GULP energy per Si atom -12389.527795 kJ/mol
# Density = 1.862105 g / cm^3
# Si number density = 18.663530 Si / 1000 Ang^3
#
#
#
# Elastic Constant Matrix: (Units=GPa)
#
#
# Indices 1 2 3 4 5 6 
#
# 1 80.4645 35.2090 36.5550 0.0000 0.0000 0.0000
# 2 35.2090 80.4651 36.5550 0.0000 0.0000 0.0000
# 3 36.5550 36.5550 75.2428 0.0000 0.0000 0.0000
# 4 0.0000 0.0000 0.0000 26.2041 0.0000 0.0000
# 5 0.0000 0.0000 0.0000 0.0000 26.2042 0.0000
# 6 0.0000 0.0000 0.0000 0.0000 0.0000 19.0681
#
#
#
# Elastic Compliance Matrix: (Units=1/GPa)
#
#
# Indices 1 2 3 4 5 6 
#
# 1 0.017286 -0.004810 -0.006061 0.000000 0.000000 0.000000
# 2 -0.004810 0.017286 -0.006061 0.000000 0.000000 0.000000
# 3 -0.006061 -0.006061 0.019180 0.000000 0.000000 0.000000
# 4 0.000000 0.000000 0.000000 0.038162 0.000000 0.000000
# 5 0.000000 0.000000 0.000000 0.000000 0.038162 0.000000
# 6 0.000000 0.000000 0.000000 0.000000 0.000000 0.052444
#
#
# Mechanical properties :
#
#
# Convention : Reuss Voigt Hill
#
# Bulk Modulus (GPa) = 50.28445 50.31228 50.29836
# Shear Modulus (GPa) = 22.42016 22.81884 22.61950
#
# Velocity S-wave (km/s) = 3.46971 3.50043 3.48510
# Velocity P-wave (km/s) = 6.56148 6.58433 6.57291
#
# Compressibility (1/GPa) = 0.01988686
#
# Stress axis : x y z
#
# Youngs Moduli (GPa) = 57.84922 57.84982 52.13872
#
# Poissons Ratio (x) = 0.27828 0.31602
# Poissons Ratio (y) = 0.27828 0.31602
# Poissons Ratio (z) = 0.35063 0.35063
#
# Static dielectric constant tensor:
#      x y z
#    x 3.441610 0.000000 0.000000 
#    y 0.000000 3.441610 0.000000 
#    z 0.000000 0.000000 3.417620 
# 
# 
# High freq. dielectric constant tensor:
#      x y z
#    x 1.713590 0.000000 0.000000 
#    y 0.000000 1.713590 0.000000 
#    z 0.000000 0.000000 1.716490 
# 
# From -- ./inp_files/2942.got.cif
#   From: 2010.03.12/outbox.cif.g09.slc.cpg/sg113_cif.got.tgz:2942.got - 2010.04.14 02:06:34.
