data_PCOD8308731
_publ_section_title
;
Structure prediction by ZEFSAII (Michael W. Deem and Ramdas Pophale) SiO2 
 PCOD8308731
Probable space group: P -4 21 M 
;
_chemical_formula_sum "Si O2"
_cell_formula_units_Z 48
_cell_length_a 12.798638
_cell_length_b 12.798638
_cell_length_c 14.593107
_cell_angle_alpha 90.000000
_cell_angle_beta 90.000000
_cell_angle_gamma 90.000000
_cell_volume 2390.425857
_symmetry_space_group_name_H-M "P -4 21 M "
_symmetry_group_IT_number 113
_symmetry_cell_setting 'tetragonal'
loop_
_space_group_symop_operation_xyz
x,y,z
y,-x,-z
-x,-y,z
-y,x,-z
1/2+x,1/2-y,-z
1/2-x,1/2+y,-z
1/2-y,1/2-x,z
1/2+y,1/2+x,z
loop_
_atom_site_type_symbol
_atom_site_label
_atom_site_fract_x
_atom_site_fract_y
_atom_site_fract_z
Si Si1 0.369819 0.697982 0.474160
Si Si2 0.998931 0.877541 0.360596
Si Si3 0.759689 0.427591 0.835709
Si Si4 0.001540 0.668568 0.653549
Si Si5 0.089742 0.241020 0.191963
Si Si6 0.171139 0.502199 0.017428
O O1 0.268157 0.768157 0.494201
O O2 0.405713 0.640627 0.566745
O O3 0.341011 0.609919 0.400209
O O4 0.465140 0.768747 0.436161
O O5 0.978171 0.802409 0.275208
O O6 0.000000 0.000000 0.333887
O O7 0.873130 0.373130 0.832519
O O8 0.750749 0.489680 0.739394
O O9 0.667808 0.345732 0.844895
O O10 0.755811 0.499685 0.926516
O O11 0.111935 0.611935 0.630193
O O12 0.915811 0.584190 0.682782
O O13 0.154352 0.345649 0.220893
O O14 0.010110 0.261697 0.109221
O O15 0.093249 0.406751 0.007283
O O16 0.112411 0.612411 0.025949
#
# Coordination Sequence:
#
# PCOD8308731 Si02
#       6
#     8   8   8   8   8   8
#     4  11  23  39  62  89 116 157 201 246 304 360
#     4  12  23  43  60  83 120 157 197 242 302 364
#     4   9  17  32  57  86 112 148 190 230 285 346
#     4   9  18  34  58  90 120 146 191 248 292 340
#     4  10  22  39  61  86 115 155 199 241 291 355
#     4   9  18  36  60  85 117 153 191 239 292 344
#
# _framework density 20.080102
#
# number of rings (size 3 to 8) (size 9 to 14) (size 15 to 20)
#    0.000    2.000    1.667    2.000    0.000    3.333 
#    6.000    0.000    0.000    5.000    0.000    0.000 
#    0.000    0.000    0.000    0.000    0.000    0.000 
#
# Total GULP energy -595232.769485 kJ/mol
# GULP energy per Si atom -12400.682698 kJ/mol
# Density = 2.003440 g / cm^3
# Si number density = 20.080102 Si / 1000 Ang^3
#
#
#
# Elastic Constant Matrix: (Units=GPa)
#
#
# Indices 1 2 3 4 5 6 
#
# 1 55.4858 7.2652 19.4654 0.0000 0.0000 0.0000
# 2 7.2652 55.4856 19.4652 0.0000 0.0000 0.0000
# 3 19.4654 19.4652 102.6594 0.0000 0.0000 0.0000
# 4 0.0000 0.0000 0.0000 33.9428 0.0000 0.0000
# 5 0.0000 0.0000 0.0000 0.0000 33.9427 0.0000
# 6 0.0000 0.0000 0.0000 0.0000 0.0000 26.6335
#
#
#
# Elastic Compliance Matrix: (Units=1/GPa)
#
#
# Indices 1 2 3 4 5 6 
#
# 1 0.019399 -0.001339 -0.003424 0.000000 0.000000 0.000000
# 2 -0.001339 0.019399 -0.003424 0.000000 0.000000 0.000000
# 3 -0.003424 -0.003424 0.011040 0.000000 0.000000 0.000000
# 4 0.000000 0.000000 0.000000 0.029461 0.000000 0.000000
# 5 0.000000 0.000000 0.000000 0.000000 0.029461 0.000000
# 6 0.000000 0.000000 0.000000 0.000000 0.000000 0.037547
#
#
# Mechanical properties :
#
#
# Convention : Reuss Voigt Hill
#
# Bulk Modulus (GPa) = 29.88390 34.00247 31.94318
# Shear Modulus (GPa) = 28.76253 30.06615 29.41434
#
# Velocity S-wave (km/s) = 3.78880 3.87371 3.83149
# Velocity P-wave (km/s) = 5.83564 6.08093 5.95954
#
# Compressibility (1/GPa) = 0.03346284
#
# Stress axis : x y z
#
# Youngs Moduli (GPa) = 51.54826 51.54812 90.58314
#
# Poissons Ratio (x) = 0.06901 0.31020
# Poissons Ratio (y) = 0.06901 0.31020
# Poissons Ratio (z) = 0.17653 0.17652
#
# Static dielectric constant tensor:
#      x y z
#    x 3.617200 0.000000 0.000000 
#    y 0.000000 3.617200 0.000000 
#    z 0.000000 0.000000 3.732000 
# 
# 
# High freq. dielectric constant tensor:
#      x y z
#    x 1.775580 0.000000 0.000000 
#    y 0.000000 1.775580 0.000000 
#    z 0.000000 0.000000 1.786520 
# 
# From -- ./inp_files/2244.got.cif
#   From: 2010.03.12/outbox.cif.g09.slc.cpg/sg113_cif.got.tgz:2244.got - 2010.04.14 02:06:34.
