data_PCOD8308941
_publ_section_title
;
Structure prediction by ZEFSAII (Michael W. Deem and Ramdas Pophale) SiO2 
 PCOD8308941
Probable space group: P -4 21 C
;
_chemical_formula_sum "Si O2"
_cell_formula_units_Z 48
_cell_length_a 8.564329
_cell_length_b 8.564329
_cell_length_c 29.233646
_cell_angle_alpha 90.000000
_cell_angle_beta 90.000000
_cell_angle_gamma 90.000000
_cell_volume 2144.221609
_symmetry_space_group_name_H-M "P -4 21 C"
_symmetry_group_IT_number 114
_symmetry_cell_setting 'tetragonal'
loop_
_space_group_symop_operation_xyz
x,y,z
y,-x,-z
-x,-y,z
-y,x,-z
1/2+x,1/2-y,1/2-z
1/2-x,1/2+y,1/2-z
1/2-y,1/2-x,1/2+z
1/2+y,1/2+x,1/2+z
loop_
_atom_site_type_symbol
_atom_site_label
_atom_site_fract_x
_atom_site_fract_y
_atom_site_fract_z
Si Si1 0.714642 0.886786 0.095965
Si Si2 0.050034 0.823851 0.656992
Si Si3 0.763613 0.204019 0.813673
Si Si4 0.661774 0.906428 0.770915
Si Si5 0.704827 0.649216 0.508544
Si Si6 0.634041 0.219645 0.076710
O O1 0.773417 0.893545 0.148046
O O2 0.539197 0.824130 0.091529
O O3 0.741486 0.067488 0.083902
O O4 0.812929 0.774007 0.062351
O O5 0.156925 0.746466 0.696534
O O6 0.133981 0.812289 0.607559
O O7 0.896010 0.717344 0.656980
O O8 0.000000 0.000000 0.669244
O O9 0.774748 0.344166 0.777194
O O10 0.782906 0.033307 0.791058
O O11 0.500000 0.000000 0.763751
O O12 0.718636 0.463615 0.505277
O O13 0.835214 0.744280 0.477968
#
# Coordination Sequence:
#
# PCOD8308941 Si02
#       6
#     8   8   8   8   8   8
#     4  10  22  39  64  91 126 172 211 267 331 396
#     4  11  22  41  64  93 127 167 212 269 325 391
#     4  11  23  41  64  92 129 168 219 265 330 395
#     4  10  25  42  65  97 131 172 220 277 332 393
#     4   9  20  40  63  91 125 159 210 265 323 395
#     4  10  22  39  63  91 129 164 212 267 328 391
#
# _framework density 22.385746000000001
#
# number of rings (size 3 to 8) (size 9 to 14) (size 15 to 20)
#    0.000    1.833    1.667    1.000    4.667    2.667 
#    0.000    3.333    0.000    0.000    0.000    0.000 
#    0.000    0.000    0.000    0.000    0.000    0.000 
#
# Total GULP energy -594757.999911 kJ/mol
# GULP energy per Si atom -12390.791665 kJ/mol
# Density = 2.233480 g / cm^3
# Si number density = 22.385746 Si / 1000 Ang^3
#
#
#
# Elastic Constant Matrix: (Units=GPa)
#
#
# Indices 1 2 3 4 5 6 
#
# 1 73.3929 16.2464 41.1613 0.0000 0.0000 0.0000
# 2 16.2464 73.3929 41.1613 0.0000 0.0000 0.0000
# 3 41.1613 41.1613 135.2528 0.0000 0.0000 0.0000
# 4 0.0000 0.0000 0.0000 34.7631 0.0000 0.0000
# 5 0.0000 0.0000 0.0000 0.0000 34.7631 0.0000
# 6 0.0000 0.0000 0.0000 0.0000 0.0000 26.9856
#
#
#
# Elastic Compliance Matrix: (Units=1/GPa)
#
#
# Indices 1 2 3 4 5 6 
#
# 1 0.016491 -0.001008 -0.004712 0.000000 0.000000 0.000000
# 2 -0.001008 0.016491 -0.004712 0.000000 0.000000 0.000000
# 3 -0.004712 -0.004712 0.010262 0.000000 0.000000 0.000000
# 4 0.000000 0.000000 0.000000 0.028766 0.000000 0.000000
# 5 0.000000 0.000000 0.000000 0.000000 0.028766 0.000000
# 6 0.000000 0.000000 0.000000 0.000000 0.000000 0.037057
#
#
# Mechanical properties :
#
#
# Convention : Reuss Voigt Hill
#
# Bulk Modulus (GPa) = 44.68275 53.24185 48.96230
# Shear Modulus (GPa) = 30.09214 31.53365 30.81290
#
# Velocity S-wave (km/s) = 3.67039 3.75727 3.71408
# Velocity P-wave (km/s) = 6.16166 6.53133 6.34918
#
# Compressibility (1/GPa) = 0.02238000
#
# Stress axis : x y z
#
# Youngs Moduli (GPa) = 60.63898 60.63898 97.45121
#
# Poissons Ratio (x) = 0.06112 0.45919
# Poissons Ratio (y) = 0.06112 0.45919
# Poissons Ratio (z) = 0.28573 0.28573
#
# Static dielectric constant tensor:
#      x y z
#    x 3.968560 0.000000 0.000000 
#    y 0.000000 3.968560 0.000000 
#    z 0.000000 0.000000 4.221350 
# 
# 
# High freq. dielectric constant tensor:
#      x y z
#    x 1.869360 0.000000 0.000000 
#    y 0.000000 1.869360 0.000000 
#    z 0.000000 0.000000 1.891920 
# 
# From -- ./inp_files/3915.got.cif
#   From: 2010.03.12/outbox.cif.g09.slc.cpg/sg114_2_cif.got.tgz:3915.got - 2010.04.14 02:08:34.
