data_PCOD8308891
_publ_section_title
;
Structure prediction by ZEFSAII (Michael W. Deem and Ramdas Pophale) SiO2 
 PCOD8308891
Probable space group: P -4 21 C
;
_chemical_formula_sum "Si O2"
_cell_formula_units_Z 32
_cell_length_a 8.641116
_cell_length_b 8.641116
_cell_length_c 22.215878
_cell_angle_alpha 90.000000
_cell_angle_beta 90.000000
_cell_angle_gamma 90.000000
_cell_volume 1658.834856
_symmetry_space_group_name_H-M "P -4 21 C"
_symmetry_group_IT_number 114
_symmetry_cell_setting 'tetragonal'
loop_
_space_group_symop_operation_xyz
x,y,z
y,-x,-z
-x,-y,z
-y,x,-z
1/2+x,1/2-y,1/2-z
1/2-x,1/2+y,1/2-z
1/2-y,1/2-x,1/2+z
1/2+y,1/2+x,1/2+z
loop_
_atom_site_type_symbol
_atom_site_label
_atom_site_fract_x
_atom_site_fract_y
_atom_site_fract_z
Si Si1 0.940220 0.242833 0.014384
Si Si2 0.732849 0.510861 0.647920
Si Si3 0.500000 0.000000 0.262720
Si Si4 0.482548 0.758221 0.663419
Si Si5 0.000000 0.500000 0.431307
O O1 0.955973 0.296538 0.083392
O O2 0.891056 0.394278 0.974926
O O3 0.814797 0.107148 0.010027
O O4 0.863534 0.556923 0.694489
O O5 0.626450 0.661438 0.636111
O O6 0.646942 0.366790 0.679899
O O7 0.649478 0.960589 0.222256
O O8 0.414300 0.878587 0.613496
#
# Coordination Sequence:
#
# PCOD8308891 Si02
#       5
#     8   8   4   8   4
#     4  11  19  35  60  85 106 139 193 230 272 334
#     4  11  20  39  57  85 114 149 193 223 280 334
#     4  11  23  34  58  90 111 149 182 244 276 321
#     4  10  21  37  59  80 114 152 191 228 272 333
#     4  11  19  34  58  84 107 143 188 232 276 325
#
# _framework density 19.290649999999999
#
# number of rings (size 3 to 8) (size 9 to 14) (size 15 to 20)
#    0.000    1.250    5.000    3.750    0.000    0.000 
#    0.000    0.000    0.000    3.750    0.000    0.000 
#    0.000    0.000    0.000    0.000    0.000    0.000 
#
# Total GULP energy -396471.622462 kJ/mol
# GULP energy per Si atom -12389.738202 kJ/mol
# Density = 1.924674 g / cm^3
# Si number density = 19.290650 Si / 1000 Ang^3
#
#
#
# Elastic Constant Matrix: (Units=GPa)
#
#
# Indices 1 2 3 4 5 6 
#
# 1 79.2543 26.4370 31.0378 0.0000 0.0000 0.0000
# 2 26.4370 79.2543 31.0378 0.0000 0.0000 0.0000
# 3 31.0378 31.0378 118.8897 0.0000 0.0000 0.0000
# 4 0.0000 0.0000 0.0000 35.2526 0.0000 0.0000
# 5 0.0000 0.0000 0.0000 0.0000 35.2526 0.0000
# 6 0.0000 0.0000 0.0000 0.0000 0.0000 12.4543
#
#
#
# Elastic Compliance Matrix: (Units=1/GPa)
#
#
# Indices 1 2 3 4 5 6 
#
# 1 0.015054 -0.003879 -0.002917 0.000000 0.000000 0.000000
# 2 -0.003879 0.015054 -0.002917 0.000000 0.000000 0.000000
# 3 -0.002917 -0.002917 0.009934 0.000000 0.000000 0.000000
# 4 0.000000 0.000000 0.000000 0.028367 0.000000 0.000000
# 5 0.000000 0.000000 0.000000 0.000000 0.028367 0.000000
# 6 0.000000 0.000000 0.000000 0.000000 0.000000 0.080293
#
#
# Mechanical properties :
#
#
# Convention : Reuss Voigt Hill
#
# Bulk Modulus (GPa) = 48.50875 50.49150 49.50012
# Shear Modulus (GPa) = 24.58586 29.18426 26.88506
#
# Velocity S-wave (km/s) = 3.57388 3.89378 3.73726
# Velocity P-wave (km/s) = 6.49854 6.81515 6.65873
#
# Compressibility (1/GPa) = 0.02061484
#
# Stress axis : x y z
#
# Youngs Moduli (GPa) = 66.42713 66.42713 100.66018
#
# Poissons Ratio (x) = 0.25768 0.29367
# Poissons Ratio (y) = 0.25768 0.29367
# Poissons Ratio (z) = 0.19379 0.19379
#
# Static dielectric constant tensor:
#      x y z
#    x 3.392180 0.000000 0.000000 
#    y 0.000000 3.392180 0.000000 
#    z 0.000000 0.000000 3.693180 
# 
# 
# High freq. dielectric constant tensor:
#      x y z
#    x 1.725970 0.000000 0.000000 
#    y 0.000000 1.725970 0.000000 
#    z 0.000000 0.000000 1.776420 
# 
# From -- ./inp_files/2881.got.cif
#   From: 2010.03.12/outbox.cif.g09.slc.cpg/sg114_2_cif.got.tgz:2881.got - 2010.04.14 02:08:34.
