data_PCOD8308261
_publ_section_title
;
Structure prediction by ZEFSAII (Michael W. Deem and Ramdas Pophale) SiO2 
 PCOD8308261
Probable space group: P -4 2 M 
;
_chemical_formula_sum "Si O2"
_cell_formula_units_Z 53
_cell_length_a 15.070097
_cell_length_b 15.070097
_cell_length_c 12.157334
_cell_angle_alpha 90.000000
_cell_angle_beta 90.000000
_cell_angle_gamma 90.000000
_cell_volume 2761.025665
_symmetry_space_group_name_H-M "P -4 2 M "
_symmetry_group_IT_number 111
_symmetry_cell_setting 'tetragonal'
loop_
_space_group_symop_operation_xyz
x,y,z
y,-x,-z
-x,-y,z
-y,x,-z
x,-y,-z
-x,y,-z
-y,-x,z
y,x,z
loop_
_atom_site_type_symbol
_atom_site_label
_atom_site_fract_x
_atom_site_fract_y
_atom_site_fract_z
Si Si1 0.830777 0.686059 0.403980
Si Si2 0.500000 0.500000 0.500000
Si Si3 0.327082 0.816840 0.342526
Si Si4 0.993546 0.690843 0.247308
Si Si5 0.914641 0.541492 0.122667
Si Si6 0.237560 0.482982 0.287748
Si Si7 0.994560 0.857501 0.119240
Si Si8 0.568549 0.431452 0.713303
O O1 0.762126 0.762126 0.360630
O O2 0.843297 0.695797 0.533500
O O3 0.928263 0.693031 0.351535
O O4 0.793332 0.588479 0.377430
O O5 0.561675 0.438326 0.578768
O O6 0.247154 0.752847 0.296857
O O7 0.418792 0.761649 0.339130
O O8 0.345608 0.907858 0.275245
O O9 0.941444 0.645027 0.142728
O O10 0.014955 0.790765 0.216023
O O11 0.822612 0.518639 0.178862
O O12 0.000000 0.500000 0.186331
O O13 0.911489 0.500000 0.000000
O O14 0.334588 0.457466 0.245478
O O15 0.064642 0.935359 0.124442
O O16 0.896426 0.896426 0.137829
O O17 0.000000 0.810485 0.000000
O O18 0.500000 0.500000 0.769176
#
# Coordination Sequence:
#
# PCOD8308261 Si02
#       8
#     8   1   8   8   8   8   8   4
#     4  10  22  36  57  82 116 154 192 239 283 346
#     4   8  24  32  64 100 110 172 208 236 292 348
#     4  11  23  35  55  85 120 153 189 240 287 348
#     4  11  21  37  58  83 113 152 192 230 293 353
#     4  10  22  40  61  82 112 150 194 244 292 348
#     4  11  21  38  60  85 116 154 198 241 300 345
#     4   9  19  35  56  82 110 139 181 237 285 332
#     4  10  22  36  62  89 124 153 205 243 289 355
#
# _framework density 19.195765000000002
#
# number of rings (size 3 to 8) (size 9 to 14) (size 15 to 20)
#    0.226    1.509    2.264    2.717    4.226    0.000 
#    0.000    1.509    3.321    0.000    0.000    6.340 
#    0.000    0.000    0.000    0.000    0.000    0.000 
#
# Total GULP energy -656620.043110 kJ/mol
# GULP energy per Si atom -12389.057417 kJ/mol
# Density = 1.915207 g / cm^3
# Si number density = 19.195765 Si / 1000 Ang^3
#
#
#
# Elastic Constant Matrix: (Units=GPa)
#
#
# Indices 1 2 3 4 5 6 
#
# 1 125.1284 40.8635 37.0613 0.0000 0.0000 0.0000
# 2 40.8635 125.1267 37.0617 0.0000 0.0000 0.0000
# 3 37.0613 37.0617 64.6413 0.0000 0.0000 0.0000
# 4 0.0000 0.0000 0.0000 25.7433 0.0000 0.0000
# 5 0.0000 0.0000 0.0000 0.0000 25.7438 0.0000
# 6 0.0000 0.0000 0.0000 0.0000 0.0000 -6.8080
#
#
#
# Elastic Compliance Matrix: (Units=1/GPa)
#
#
# Indices 1 2 3 4 5 6 
#
# 1 0.009982 -0.001885 -0.004643 0.000000 0.000000 0.000000
# 2 -0.001885 0.009983 -0.004643 0.000000 0.000000 0.000000
# 3 -0.004643 -0.004643 0.020794 0.000000 0.000000 0.000000
# 4 0.000000 0.000000 0.000000 0.038845 0.000000 0.000000
# 5 0.000000 0.000000 0.000000 0.000000 0.038844 0.000000
# 6 0.000000 0.000000 0.000000 0.000000 0.000000 -0.146887
#
#
# Mechanical properties :
#
#
# Convention : Reuss Voigt Hill
#
# Bulk Modulus (GPa) = 54.29431 60.54103 57.41767
# Shear Modulus (GPa) = 120382.50994 22.26315 60202.38655
#
# Velocity S-wave (km/s) = 250.69743 3.40927 177.28624
# Velocity P-wave (km/s) = 289.52941 6.86329 204.78572
#
# Compressibility (1/GPa) = 0.01841813
#
# Stress axis : x y z
#
# Youngs Moduli (GPa) = 100.17603 100.17399 48.09160
#
# Poissons Ratio (x) = 0.18882 0.22327
# Poissons Ratio (y) = 0.18883 0.22328
# Poissons Ratio (z) = 0.46508 0.46509
#
# Static dielectric constant tensor:
#      x y z
#    x 3.654190 0.000000 0.000000 
#    y 0.000000 3.654210 0.000000 
#    z 0.000000 0.000000 3.394510 
# 
# 
# High freq. dielectric constant tensor:
#      x y z
#    x 1.756970 0.000000 0.000000 
#    y 0.000000 1.756970 0.000000 
#    z 0.000000 0.000000 1.717730 
# 
# From -- ./inp_files/2843.got.cif
#   From: 2010.03.12/outbox.cif.g09.slc.cpg/sg111_2_cif.got.tgz:2843.got - 2010.04.14 01:59:48.
