data_PCOD8308882
_publ_section_title
;
Structure prediction by ZEFSAII (Michael W. Deem and Ramdas Pophale) SiO2 
 PCOD8308882
Probable space group: P -4 21 C
;
_chemical_formula_sum "Si O2"
_cell_formula_units_Z 54
_cell_length_a 11.893490
_cell_length_b 11.893490
_cell_length_c 19.614800
_cell_angle_alpha 90.000000
_cell_angle_beta 90.000000
_cell_angle_gamma 90.000000
_cell_volume 2774.613581
_symmetry_space_group_name_H-M "P -4 21 C"
_symmetry_group_IT_number 114
_symmetry_cell_setting 'tetragonal'
loop_
_space_group_symop_operation_xyz
x,y,z
y,-x,-z
-x,-y,z
-y,x,-z
1/2+x,1/2-y,1/2-z
1/2-x,1/2+y,1/2-z
1/2-y,1/2-x,1/2+z
1/2+y,1/2+x,1/2+z
loop_
_atom_site_type_symbol
_atom_site_label
_atom_site_fract_x
_atom_site_fract_y
_atom_site_fract_z
Si Si1 0.506499 0.263494 0.060849
Si Si2 0.332979 0.358492 0.157151
Si Si3 0.785624 0.451110 0.086259
Si Si4 0.000000 0.500000 0.172670
Si Si5 0.217559 0.286470 0.860309
Si Si6 0.000000 0.000000 0.500000
Si Si7 0.572741 0.606627 0.305120
Si Si8 0.787847 0.605911 0.717224
O O1 0.413098 0.268020 0.120400
O O2 0.613832 0.188797 0.085976
O O3 0.455642 0.201334 0.995290
O O4 0.544128 0.392846 0.044334
O O5 0.317385 0.467123 0.108520
O O6 0.387938 0.402097 0.227023
O O7 0.213484 0.297924 0.167951
O O8 0.773653 0.325907 0.111431
O O9 0.897611 0.490367 0.121765
O O10 0.032688 0.401104 0.224615
O O11 0.123740 0.187711 0.850233
O O12 0.250206 0.348060 0.790140
O O13 0.500000 0.500000 0.328545
O O14 0.483257 0.704523 0.316206
#
# Coordination Sequence:
#
# PCOD8308882 Si02
#       8
#     8   8   8   4   8   2   8   8
#     4  12  20  34  58  96 128 154 206 258 319 379
#     4  10  21  34  57  91 124 164 200 263 320 373
#     4  11  20  36  60  87 124 165 201 258 317 379
#     4  10  22  40  58  84 116 166 214 250 316 370
#     4  11  21  36  59  92 125 160 207 261 318 382
#     4  12  20  28  56  96 124 160 176 252 310 380
#     4  11  22  38  60  88 124 171 209 258 318 389
#     4  10  21  38  61  85 124 164 211 257 312 383
#
# _framework density 19.462168999999999
#
# number of rings (size 3 to 8) (size 9 to 14) (size 15 to 20)
#    0.000    1.185    5.926    0.889    1.037    0.000 
#    0.000    2.222    0.000    0.000    0.000    0.000 
#    0.000    0.000    0.000    0.000    0.000    0.000 
#
# Total GULP energy -669242.106456 kJ/mol
# GULP energy per Si atom -12393.372342 kJ/mol
# Density = 1.941787 g / cm^3
# Si number density = 19.462169 Si / 1000 Ang^3
#
#
#
# Elastic Constant Matrix: (Units=GPa)
#
#
# Indices 1 2 3 4 5 6 
#
# 1 88.4082 45.5980 35.8690 0.0000 0.0000 0.0000
# 2 45.5980 88.4082 35.8690 0.0000 0.0000 0.0000
# 3 35.8690 35.8690 90.8154 0.0000 0.0000 0.0000
# 4 0.0000 0.0000 0.0000 30.2659 0.0000 0.0000
# 5 0.0000 0.0000 0.0000 0.0000 30.2659 0.0000
# 6 0.0000 0.0000 0.0000 0.0000 0.0000 32.3816
#
#
#
# Elastic Compliance Matrix: (Units=1/GPa)
#
#
# Indices 1 2 3 4 5 6 
#
# 1 0.016411 -0.006948 -0.003738 0.000000 0.000000 0.000000
# 2 -0.006948 0.016411 -0.003738 0.000000 0.000000 0.000000
# 3 -0.003738 -0.003738 0.013964 0.000000 0.000000 0.000000
# 4 0.000000 0.000000 0.000000 0.033040 0.000000 0.000000
# 5 0.000000 0.000000 0.000000 0.000000 0.033040 0.000000
# 6 0.000000 0.000000 0.000000 0.000000 0.000000 0.030882
#
#
# Mechanical properties :
#
#
# Convention : Reuss Voigt Hill
#
# Bulk Modulus (GPa) = 55.74235 55.81155 55.77695
# Shear Modulus (GPa) = 27.99945 28.60239 28.30092
#
# Velocity S-wave (km/s) = 3.79708 3.83775 3.81747
# Velocity P-wave (km/s) = 6.92296 6.95535 6.93917
#
# Compressibility (1/GPa) = 0.01793968
#
# Stress axis : x y z
#
# Youngs Moduli (GPa) = 60.93450 60.93450 71.61350
#
# Poissons Ratio (x) = 0.42336 0.26767
# Poissons Ratio (y) = 0.42336 0.26767
# Poissons Ratio (z) = 0.22775 0.22775
#
# Static dielectric constant tensor:
#      x y z
#    x 3.573020 0.000000 0.000000 
#    y 0.000000 3.573020 0.000000 
#    z 0.000000 0.000000 3.517930 
# 
# 
# High freq. dielectric constant tensor:
#      x y z
#    x 1.756430 0.000000 0.000000 
#    y 0.000000 1.756430 0.000000 
#    z 0.000000 0.000000 1.744860 
# 
# From -- ./inp_files/3197.got.cif
#   From: 2010.03.12/outbox.cif.g09.slc.cpg/sg114_2_cif.got.tgz:3197.got - 2010.04.14 02:08:34.
