data_PCOD8308976
_publ_section_title
;
Structure prediction by ZEFSAII (Michael W. Deem and Ramdas Pophale) SiO2 
 PCOD8308976
Probable space group: P -4 21 C
;
_chemical_formula_sum "Si O2"
_cell_formula_units_Z 56
_cell_length_a 14.067631
_cell_length_b 14.067631
_cell_length_c 12.807055
_cell_angle_alpha 90.000000
_cell_angle_beta 90.000000
_cell_angle_gamma 90.000000
_cell_volume 2534.493669
_symmetry_space_group_name_H-M "P -4 21 C"
_symmetry_group_IT_number 114
_symmetry_cell_setting 'tetragonal'
loop_
_space_group_symop_operation_xyz
x,y,z
y,-x,-z
-x,-y,z
-y,x,-z
1/2+x,1/2-y,1/2-z
1/2-x,1/2+y,1/2-z
1/2-y,1/2-x,1/2+z
1/2+y,1/2+x,1/2+z
loop_
_atom_site_type_symbol
_atom_site_label
_atom_site_fract_x
_atom_site_fract_y
_atom_site_fract_z
Si Si1 0.678000 0.552527 0.251684
Si Si2 0.196201 0.524870 0.611769
Si Si3 0.175324 0.326547 0.136043
Si Si4 0.049462 0.787628 0.323075
Si Si5 0.158605 0.162227 0.299829
Si Si6 0.818942 0.279111 0.502993
Si Si7 0.355968 0.455495 0.483863
O O1 0.769063 0.581893 0.182249
O O2 0.590048 0.608765 0.202099
O O3 0.654640 0.441236 0.252515
O O4 0.687187 0.582766 0.374214
O O5 0.126526 0.431670 0.618551
O O6 0.216302 0.567677 0.725521
O O7 0.183919 0.605628 0.523308
O O8 0.283700 0.455689 0.579594
O O9 0.189419 0.244317 0.221633
O O10 0.222311 0.275199 0.033383
O O11 0.097982 0.736464 0.420132
O O12 0.940495 0.805546 0.351496
O O13 0.237024 0.150211 0.387924
O O14 0.389369 0.563162 0.469814
#
# Coordination Sequence:
#
# PCOD8308976 Si02
#       7
#     8   8   8   8   8   8   8
#     4  11  22  42  63  97 141 171 215 284 341 397
#     4  11  21  42  66  96 131 176 220 276 332 404
#     4  10  25  42  65 101 133 172 228 280 340 408
#     4  10  23  40  64 101 136 167 222 283 335 406
#     4  11  24  41  66  94 134 175 222 277 342 399
#     4  11  23  40  68  94 133 177 221 273 341 407
#     4  11  21  32  66 103 133 165 221 277 340 393
#
# _framework density 22.095144999999999
#
# number of rings (size 3 to 8) (size 9 to 14) (size 15 to 20)
#    0.000    1.286    1.429    5.571    8.000    0.000 
#    0.000    0.714    0.000    0.000    0.000    0.000 
#    0.000    0.000    0.000    0.000    0.000    0.000 
#
# Total GULP energy -693750.461074 kJ/mol
# GULP energy per Si atom -12388.401091 kJ/mol
# Density = 2.204486 g / cm^3
# Si number density = 22.095145 Si / 1000 Ang^3
#
#
#
# Elastic Constant Matrix: (Units=GPa)
#
#
# Indices 1 2 3 4 5 6 
#
# 1 76.3394 8.9019 20.9726 0.0000 0.0000 0.0000
# 2 8.9019 76.3394 20.9726 0.0000 0.0000 0.0000
# 3 20.9726 20.9726 93.7932 0.0000 0.0000 0.0000
# 4 0.0000 0.0000 0.0000 29.5772 0.0000 0.0000
# 5 0.0000 0.0000 0.0000 0.0000 29.5772 0.0000
# 6 0.0000 0.0000 0.0000 0.0000 0.0000 40.2445
#
#
#
# Elastic Compliance Matrix: (Units=1/GPa)
#
#
# Indices 1 2 3 4 5 6 
#
# 1 0.014005 -0.000823 -0.002948 0.000000 0.000000 0.000000
# 2 -0.000823 0.014005 -0.002948 0.000000 0.000000 0.000000
# 3 -0.002948 -0.002948 0.011980 0.000000 0.000000 0.000000
# 4 0.000000 0.000000 0.000000 0.033810 0.000000 0.000000
# 5 0.000000 0.000000 0.000000 0.000000 0.033810 0.000000
# 6 0.000000 0.000000 0.000000 0.000000 0.000000 0.024848
#
#
# Mechanical properties :
#
#
# Convention : Reuss Voigt Hill
#
# Bulk Modulus (GPa) = 37.65986 38.68512 38.17249
# Shear Modulus (GPa) = 32.31101 32.92143 32.61622
#
# Velocity S-wave (km/s) = 3.82823 3.86422 3.84627
# Velocity P-wave (km/s) = 6.05160 6.12013 6.08596
#
# Compressibility (1/GPa) = 0.02655347
#
# Stress axis : x y z
#
# Youngs Moduli (GPa) = 71.40218 71.40218 83.47315
#
# Poissons Ratio (x) = 0.05879 0.24604
# Poissons Ratio (y) = 0.05879 0.24604
# Poissons Ratio (z) = 0.21046 0.21046
#
# Static dielectric constant tensor:
#      x y z
#    x 4.047960 0.000000 0.000000 
#    y 0.000000 4.047960 0.000000 
#    z 0.000000 0.000000 3.854770 
# 
# 
# High freq. dielectric constant tensor:
#      x y z
#    x 1.864290 0.000000 0.000000 
#    y 0.000000 1.864290 0.000000 
#    z 0.000000 0.000000 1.876580 
# 
# From -- ./inp_files/1749.got.cif
#   From: 2010.03.12/outbox.cif.g09.slc.cpg/sg114_1_cif.got.tgz:1749.got - 2010.04.14 02:08:34.
