data_PCOD8308854
_publ_section_title
;
Structure prediction by ZEFSAII (Michael W. Deem and Ramdas Pophale) SiO2 
 PCOD8308854
Probable space group: P -4 21 C
;
_chemical_formula_sum "Si O2"
_cell_formula_units_Z 40
_cell_length_a 8.153802
_cell_length_b 8.153802
_cell_length_c 24.210807
_cell_angle_alpha 90.000000
_cell_angle_beta 90.000000
_cell_angle_gamma 90.000000
_cell_volume 1609.643085
_symmetry_space_group_name_H-M "P -4 21 C"
_symmetry_group_IT_number 114
_symmetry_cell_setting 'tetragonal'
loop_
_space_group_symop_operation_xyz
x,y,z
y,-x,-z
-x,-y,z
-y,x,-z
1/2+x,1/2-y,1/2-z
1/2-x,1/2+y,1/2-z
1/2-y,1/2-x,1/2+z
1/2+y,1/2+x,1/2+z
loop_
_atom_site_type_symbol
_atom_site_label
_atom_site_fract_x
_atom_site_fract_y
_atom_site_fract_z
Si Si1 0.306321 0.619416 0.470466
Si Si2 0.688084 0.488727 0.925558
Si Si3 0.240982 0.883258 0.121302
Si Si4 0.309772 0.492970 0.709035
Si Si5 0.833084 0.370706 0.816183
O O1 0.473735 0.719166 0.483966
O O2 0.142557 0.730742 0.467591
O O3 0.339073 0.538237 0.410369
O O4 0.500000 0.500000 0.943014
O O5 0.776475 0.668184 0.926969
O O6 0.709601 0.443683 0.861578
O O7 0.112351 0.777799 0.156305
O O8 0.368305 0.971625 0.164825
O O9 0.500000 0.500000 0.727871
O O10 0.187159 0.538006 0.758176
O O11 0.264462 0.312062 0.690832
#
# Coordination Sequence:
#
# PCOD8308854 Si02
#       5
#     8   8   8   8   8
#     4  10  23  43  81 103 139 190 251 297 371 435
#     4  11  24  47  70 107 151 188 236 311 375 443
#     4  10  23  45  70 104 146 190 245 304 369 442
#     4  10  21  36  65 103 144 191 249 297 364 435
#     4  10  20  36  67  98 146 194 241 297 362 438
#
# _framework density 24.850227
#
# number of rings (size 3 to 8) (size 9 to 14) (size 15 to 20)
#    0.000    1.800    0.000    4.200   14.000    3.200 
#    7.200    5.000    0.000    0.000    0.000    0.000 
#    0.000    0.000    0.000    0.000    0.000    0.000 
#
# Total GULP energy -495874.385097 kJ/mol
# GULP energy per Si atom -12396.859627 kJ/mol
# Density = 2.479367 g / cm^3
# Si number density = 24.850227 Si / 1000 Ang^3
#
#
#
# Elastic Constant Matrix: (Units=GPa)
#
#
# Indices 1 2 3 4 5 6 
#
# 1 112.0263 47.5320 24.6609 0.0000 0.0000 0.0000
# 2 47.5320 112.0263 24.6609 0.0000 0.0000 0.0000
# 3 24.6609 24.6609 83.6398 0.0000 0.0000 0.0000
# 4 0.0000 0.0000 0.0000 48.0085 0.0000 0.0000
# 5 0.0000 0.0000 0.0000 0.0000 48.0085 0.0000
# 6 0.0000 0.0000 0.0000 0.0000 0.0000 39.5940
#
#
#
# Elastic Compliance Matrix: (Units=1/GPa)
#
#
# Indices 1 2 3 4 5 6 
#
# 1 0.011201 -0.004305 -0.002033 0.000000 0.000000 0.000000
# 2 -0.004305 0.011201 -0.002033 0.000000 0.000000 0.000000
# 3 -0.002033 -0.002033 0.013155 0.000000 0.000000 0.000000
# 4 0.000000 0.000000 0.000000 0.020830 0.000000 0.000000
# 5 0.000000 0.000000 0.000000 0.000000 0.020830 0.000000
# 6 0.000000 0.000000 0.000000 0.000000 0.000000 0.025256
#
#
# Mechanical properties :
#
#
# Convention : Reuss Voigt Hill
#
# Bulk Modulus (GPa) = 53.15255 55.71113 54.43184
# Shear Modulus (GPa) = 39.84536 41.17813 40.51174
#
# Velocity S-wave (km/s) = 4.00862 4.07511 4.04200
# Velocity P-wave (km/s) = 6.54683 6.67903 6.61326
#
# Compressibility (1/GPa) = 0.01881377
#
# Stress axis : x y z
#
# Youngs Moduli (GPa) = 89.28162 89.28162 76.01674
#
# Poissons Ratio (x) = 0.38433 0.15456
# Poissons Ratio (y) = 0.38433 0.15456
# Poissons Ratio (z) = 0.18153 0.18153
#
# Static dielectric constant tensor:
#      x y z
#    x 4.565650 0.000000 0.000000 
#    y 0.000000 4.565650 0.000000 
#    z 0.000000 0.000000 4.612130 
# 
# 
# High freq. dielectric constant tensor:
#      x y z
#    x 1.985050 0.000000 0.000000 
#    y 0.000000 1.985050 0.000000 
#    z 0.000000 0.000000 1.999670 
# 
# From -- ./inp_files/3646.got.cif
#   From: 2010.03.12/outbox.cif.g09.slc.cpg/sg114_2_cif.got.tgz:3646.got - 2010.04.14 02:08:34.
