data_PCOD8308823
_publ_section_title
;
Structure prediction by ZEFSAII (Michael W. Deem and Ramdas Pophale) SiO2 
 PCOD8308823
Probable space group: P -4 21 C
;
_chemical_formula_sum "Si O2"
_cell_formula_units_Z 48
_cell_length_a 9.156532
_cell_length_b 9.156532
_cell_length_c 28.716355
_cell_angle_alpha 90.000000
_cell_angle_beta 90.000000
_cell_angle_gamma 90.000000
_cell_volume 2407.638883
_symmetry_space_group_name_H-M "P -4 21 C"
_symmetry_group_IT_number 114
_symmetry_cell_setting 'tetragonal'
loop_
_space_group_symop_operation_xyz
x,y,z
y,-x,-z
-x,-y,z
-y,x,-z
1/2+x,1/2-y,1/2-z
1/2-x,1/2+y,1/2-z
1/2-y,1/2-x,1/2+z
1/2+y,1/2+x,1/2+z
loop_
_atom_site_type_symbol
_atom_site_label
_atom_site_fract_x
_atom_site_fract_y
_atom_site_fract_z
Si Si1 0.787393 0.932152 0.483186
Si Si2 0.847090 0.078665 0.212978
Si Si3 0.349208 0.082315 0.286581
Si Si4 0.213184 0.060074 0.017786
Si Si5 0.346836 0.423284 0.389092
Si Si6 0.086002 0.649421 0.608489
O O1 0.636848 0.861875 0.501471
O O2 0.768193 0.973547 0.428617
O O3 0.921424 0.819089 0.487882
O O4 0.867679 0.248026 0.226779
O O5 0.769439 0.066347 0.161866
O O6 0.759407 0.995125 0.251935
O O7 0.000000 0.000000 0.210109
O O8 0.289465 0.064364 0.339287
O O9 0.500000 0.000000 0.281160
O O10 0.244071 0.003788 0.070388
O O11 0.076861 0.173686 0.015810
O O12 0.500000 0.500000 0.385125
O O13 0.374755 0.256023 0.403212
O O14 0.000000 0.500000 0.601808
#
# Coordination Sequence:
#
# PCOD8308823 Si02
#       6
#     8   8   8   8   8   8
#     4  11  26  42  55  86 127 163 199 250 305 374
#     4  10  21  38  61  89 128 158 198 256 305 371
#     4  10  21  41  63  91 120 158 206 251 313 371
#     4  11  20  36  64  90 117 158 207 260 290 354
#     4  10  19  35  58  98 119 147 207 255 296 355
#     4  10  22  38  65  87 118 162 202 248 308 371
#
# _framework density 19.936546
#
# number of rings (size 3 to 8) (size 9 to 14) (size 15 to 20)
#    0.000    1.667    3.333    1.000    4.667    1.333 
#    3.000    3.333    0.000    0.000    0.000    0.000 
#    0.000    0.000    0.000    0.000    0.000    0.000 
#
# Total GULP energy -595021.065387 kJ/mol
# GULP energy per Si atom -12396.272196 kJ/mol
# Density = 1.989117 g / cm^3
# Si number density = 19.936546 Si / 1000 Ang^3
#
#
#
# Elastic Constant Matrix: (Units=GPa)
#
#
# Indices 1 2 3 4 5 6 
#
# 1 80.4124 30.1664 62.7180 0.0000 0.0000 0.0000
# 2 30.1664 80.4124 62.7180 0.0000 0.0000 0.0000
# 3 62.7180 62.7180 160.5339 0.0000 0.0000 0.0000
# 4 0.0000 0.0000 0.0000 32.7832 0.0000 0.0000
# 5 0.0000 0.0000 0.0000 0.0000 32.7832 0.0000
# 6 0.0000 0.0000 0.0000 0.0000 0.0000 40.9733
#
#
#
# Elastic Compliance Matrix: (Units=1/GPa)
#
#
# Indices 1 2 3 4 5 6 
#
# 1 0.018071 -0.001831 -0.006345 0.000000 0.000000 0.000000
# 2 -0.001831 0.018071 -0.006345 0.000000 0.000000 0.000000
# 3 -0.006345 -0.006345 0.011187 0.000000 0.000000 0.000000
# 4 0.000000 0.000000 0.000000 0.030503 0.000000 0.000000
# 5 0.000000 0.000000 0.000000 0.000000 0.030503 0.000000
# 6 0.000000 0.000000 0.000000 0.000000 0.000000 0.024406
#
#
# Mechanical properties :
#
#
# Convention : Reuss Voigt Hill
#
# Bulk Modulus (GPa) = 54.67888 70.28484 62.48186
# Shear Modulus (GPa) = 29.78308 32.35837 31.07073
#
# Velocity S-wave (km/s) = 3.86929 4.03310 3.95204
# Velocity P-wave (km/s) = 6.88824 7.55107 7.22726
#
# Compressibility (1/GPa) = 0.01828860
#
# Stress axis : x y z
#
# Youngs Moduli (GPa) = 55.33581 55.33581 89.38919
#
# Poissons Ratio (x) = 0.10130 0.56718
# Poissons Ratio (y) = 0.10130 0.56718
# Poissons Ratio (z) = 0.35111 0.35111
#
# Static dielectric constant tensor:
#      x y z
#    x 3.489070 0.000000 0.000000 
#    y 0.000000 3.489070 0.000000 
#    z 0.000000 0.000000 4.397550 
# 
# 
# High freq. dielectric constant tensor:
#      x y z
#    x 1.766550 0.000000 0.000000 
#    y 0.000000 1.766550 0.000000 
#    z 0.000000 0.000000 1.795720 
# 
# From -- ./inp_files/3926.got.cif
#   From: 2010.03.12/outbox.cif.g09.slc.cpg/sg114_2_cif.got.tgz:3926.got - 2010.04.14 02:08:34.
