data_PCOD8308013
_publ_section_title
;
Structure prediction by ZEFSAII (Michael W. Deem and Ramdas Pophale) SiO2 
 PCOD8308013
Probable space group: I 41 C D
;
_chemical_formula_sum "Si O2"
_cell_formula_units_Z 120
_cell_length_a 24.869826
_cell_length_b 24.869826
_cell_length_c 9.131711
_cell_angle_alpha 90.000000
_cell_angle_beta 90.000000
_cell_angle_gamma 90.000000
_cell_volume 5648.038547
_symmetry_space_group_name_H-M "I 41 C D"
_symmetry_group_IT_number 110
_symmetry_cell_setting 'tetragonal'
loop_
_space_group_symop_operation_xyz
x,y,z
-y,1/2+x,1/4+z
-x,-y,z
y,1/2-x,1/4+z
-x,y,1/2+z
x,-y,1/2+z
1/2-y,-x,1/4+z
1/2+y,x,1/4+z
1/2+x,1/2+y,1/2+z
1/2-y,x,3/4+z
1/2-x,1/2-y,1/2+z
1/2+y,-x,3/4+z
1/2-x,1/2+y,z
1/2+x,1/2-y,z
-y,1/2-x,3/4+z
y,1/2+x,3/4+z
loop_
_atom_site_type_symbol
_atom_site_label
_atom_site_fract_x
_atom_site_fract_y
_atom_site_fract_z
Si Si1 0.500000 0.500000 0.447371
Si Si2 0.448422 0.931811 0.448420
Si Si3 0.193404 0.765572 0.691711
Si Si4 0.606064 0.294703 0.811314
Si Si5 0.367314 0.192399 0.472482
Si Si6 0.904048 0.828176 0.140227
Si Si7 0.009525 0.322681 0.002216
Si Si8 0.251208 0.003361 0.999392
O O1 0.538335 0.535731 0.548952
O O2 0.534326 0.460806 0.343877
O O3 0.385071 0.923430 0.447758
O O4 0.479469 0.875775 0.452077
O O5 0.217899 0.744055 0.841997
O O6 0.155503 0.720006 0.619501
O O7 0.154009 0.816627 0.715267
O O8 0.642289 0.327336 0.694199
O O9 0.548240 0.289848 0.735593
O O10 0.632840 0.236002 0.841281
O O11 0.601045 0.327044 0.964312
O O12 0.426571 0.168186 0.492292
O O13 0.945069 0.781974 0.190192
O O14 0.990565 0.269042 0.915338
O O15 0.994203 0.305769 0.166449
#
# Coordination Sequence:
#
# PCOD8308013 Si02
#       8
#     8  16  16  16  16  16  16  16
#     4  10  26  48  64  98 132 174 228 278 338 412
#     4  11  26  43  70  94 134 176 222 281 339 397
#     4  11  22  42  68  95 133 176 218 266 331 404
#     4  10  22  38  68  95 127 174 217 269 319 396
#     4  10  19  39  66  92 123 179 212 251 332 386
#     4  11  24  41  70  95 128 182 213 270 344 394
#     4  11  24  41  70  95 132 170 224 274 323 397
#     4  11  22  43  62 101 127 167 222 266 323 394
#
# _framework density 21.246313000000001
#
# number of rings (size 3 to 8) (size 9 to 14) (size 15 to 20)
#    0.000    1.333    6.667    0.800    7.467    1.067 
#    2.400    4.000    0.000    0.000    0.000    0.000 
#    0.000    0.000    0.000    0.000    0.000    0.000 
#
# Total GULP energy -743913.480099 kJ/mol
# GULP energy per Si atom -12398.558002 kJ/mol
# Density = 2.119796 g / cm^3
# Si number density = 21.246313 Si / 1000 Ang^3
#
#
#
# Elastic Constant Matrix: (Units=GPa)
#
#
# Indices 1 2 3 4 5 6 
#
# 1 112.5802 54.0215 42.7988 0.0000 0.0000 0.0000
# 2 54.0215 112.5802 42.7988 0.0000 0.0000 0.0000
# 3 42.7988 42.7988 68.2642 0.0000 0.0000 0.0000
# 4 0.0000 0.0000 0.0000 25.5335 0.0000 0.0000
# 5 0.0000 0.0000 0.0000 0.0000 25.5335 0.0000
# 6 0.0000 0.0000 0.0000 0.0000 0.0000 31.8915
#
#
#
# Elastic Compliance Matrix: (Units=1/GPa)
#
#
# Indices 1 2 3 4 5 6 
#
# 1 0.012966 -0.004111 -0.005551 0.000000 0.000000 0.000000
# 2 -0.004111 0.012966 -0.005551 0.000000 0.000000 0.000000
# 3 -0.005551 -0.005551 0.021610 0.000000 0.000000 0.000000
# 4 0.000000 0.000000 0.000000 0.039164 0.000000 0.000000
# 5 0.000000 0.000000 0.000000 0.000000 0.039164 0.000000
# 6 0.000000 0.000000 0.000000 0.000000 0.000000 0.031356
#
#
# Mechanical properties :
#
#
# Convention : Reuss Voigt Hill
#
# Bulk Modulus (GPa) = 58.43381 63.62922 61.03151
# Shear Modulus (GPa) = 25.85864 26.84540 26.35202
#
# Velocity S-wave (km/s) = 3.49246 3.55848 3.52562
# Velocity P-wave (km/s) = 6.62011 6.84814 6.73509
#
# Compressibility (1/GPa) = 0.01711338
#
# Stress axis : x y z
#
# Youngs Moduli (GPa) = 77.12633 77.12633 46.27470
#
# Poissons Ratio (x) = 0.31708 0.25689
# Poissons Ratio (y) = 0.31708 0.25689
# Poissons Ratio (z) = 0.42817 0.42817
#
# Static dielectric constant tensor:
#      x y z
#    x 3.986010 0.000000 0.000000 
#    y 0.000000 3.986010 0.000000 
#    z 0.000000 0.000000 3.684040 
# 
# 
# High freq. dielectric constant tensor:
#      x y z
#    x 1.839830 0.000000 0.000000 
#    y 0.000000 1.839830 0.000000 
#    z 0.000000 0.000000 1.815430 
# 
# From -- ./inp_files/557.got.cif
#   From: 2010.03.12/outbox.cif.g09.slc.cpg/sg110_1_cif.got.tgz:557.got - 2010.04.14 01:58:01.
