data_PCOD8308886
_publ_section_title
;
Structure prediction by ZEFSAII (Michael W. Deem and Ramdas Pophale) SiO2 
 PCOD8308886
Probable space group: P -4 21 C
;
_chemical_formula_sum "Si O2"
_cell_formula_units_Z 48
_cell_length_a 9.182021
_cell_length_b 9.182021
_cell_length_c 30.410450
_cell_angle_alpha 90.000000
_cell_angle_beta 90.000000
_cell_angle_gamma 90.000000
_cell_volume 2563.890128
_symmetry_space_group_name_H-M "P -4 21 C"
_symmetry_group_IT_number 114
_symmetry_cell_setting 'tetragonal'
loop_
_space_group_symop_operation_xyz
x,y,z
y,-x,-z
-x,-y,z
-y,x,-z
1/2+x,1/2-y,1/2-z
1/2-x,1/2+y,1/2-z
1/2-y,1/2-x,1/2+z
1/2+y,1/2+x,1/2+z
loop_
_atom_site_type_symbol
_atom_site_label
_atom_site_fract_x
_atom_site_fract_y
_atom_site_fract_z
Si Si1 0.344961 0.323888 0.371456
Si Si2 0.665614 0.830962 0.959036
Si Si3 0.820547 0.841336 0.121881
Si Si4 0.663958 0.176367 0.715393
Si Si5 0.166824 0.325919 0.034752
Si Si6 0.823329 0.342009 0.791488
O O1 0.292954 0.217741 0.410034
O O2 0.305227 0.486818 0.386424
O O3 0.516353 0.303410 0.362589
O O4 0.261702 0.278301 0.327289
O O5 0.495148 0.801405 0.959574
O O6 0.705957 0.996115 0.971886
O O7 0.746540 0.725446 0.992368
O O8 0.775610 0.759475 0.077414
O O9 0.709589 0.787671 0.159189
O O10 0.726871 0.248880 0.758671
O O11 0.491039 0.186993 0.719252
O O12 0.718311 0.010801 0.712430
#
# Coordination Sequence:
#
# PCOD8308886 Si02
#       6
#     8   8   8   8   8   8
#     4   9  18  34  55  77 104 140 180 219 260 311
#     4  10  21  36  55  80 109 141 177 218 264 314
#     4   9  18  34  55  77 104 140 180 219 260 311
#     4  10  21  36  55  80 109 141 177 218 264 314
#     4  10  21  36  55  80 109 141 177 218 264 314
#     4  10  21  36  55  80 109 141 177 218 264 314
#
# _framework density 18.721549
#
# number of rings (size 3 to 8) (size 9 to 14) (size 15 to 20)
#    0.000    2.333    0.000    2.000    0.000    6.667 
#    0.000    6.667    0.000    0.000    0.000    0.000 
#    0.000    0.000    0.000    0.000    0.000    0.000 
#
# Total GULP energy -595423.113048 kJ/mol
# GULP energy per Si atom -12404.648188 kJ/mol
# Density = 1.867894 g / cm^3
# Si number density = 18.721549 Si / 1000 Ang^3
#
#
#
# Elastic Constant Matrix: (Units=GPa)
#
#
# Indices 1 2 3 4 5 6 
#
# 1 53.9976 14.4250 13.3635 0.0000 0.0000 0.0000
# 2 14.4250 53.9976 13.3635 0.0000 0.0000 0.0000
# 3 13.3635 13.3635 38.3804 0.0000 0.0000 0.0000
# 4 0.0000 0.0000 0.0000 36.6068 0.0000 0.0000
# 5 0.0000 0.0000 0.0000 0.0000 36.6068 0.0000
# 6 0.0000 0.0000 0.0000 0.0000 0.0000 24.6319
#
#
#
# Elastic Compliance Matrix: (Units=1/GPa)
#
#
# Indices 1 2 3 4 5 6 
#
# 1 0.021093 -0.004177 -0.005890 0.000000 0.000000 0.000000
# 2 -0.004177 0.021093 -0.005890 0.000000 0.000000 0.000000
# 3 -0.005890 -0.005890 0.030156 0.000000 0.000000 0.000000
# 4 0.000000 0.000000 0.000000 0.027317 0.000000 0.000000
# 5 0.000000 0.000000 0.000000 0.000000 0.027317 0.000000
# 6 0.000000 0.000000 0.000000 0.000000 0.000000 0.040598
#
#
# Mechanical properties :
#
#
# Convention : Reuss Voigt Hill
#
# Bulk Modulus (GPa) = 24.73492 25.40883 25.07187
# Shear Modulus (GPa) = 23.47809 26.58398 25.03103
#
# Velocity S-wave (km/s) = 3.54512 3.77233 3.66049
# Velocity P-wave (km/s) = 5.47703 5.70749 5.59345
#
# Compressibility (1/GPa) = 0.04042868
#
# Stress axis : x y z
#
# Youngs Moduli (GPa) = 47.40941 47.40941 33.16035
#
# Poissons Ratio (x) = 0.19804 0.19531
# Poissons Ratio (y) = 0.19804 0.19531
# Poissons Ratio (z) = 0.27923 0.27923
#
# Static dielectric constant tensor:
#      x y z
#    x 3.444640 0.000000 0.000000 
#    y 0.000000 3.444640 0.000000 
#    z 0.000000 0.000000 3.438250 
# 
# 
# High freq. dielectric constant tensor:
#      x y z
#    x 1.724140 0.000000 0.000000 
#    y 0.000000 1.724140 0.000000 
#    z 0.000000 0.000000 1.736120 
# 
# From -- ./inp_files/3919.got.cif
#   From: 2010.03.12/outbox.cif.g09.slc.cpg/sg114_2_cif.got.tgz:3919.got - 2010.04.14 02:08:34.
