data_PCOD8308011
_publ_section_title
;
Structure prediction by ZEFSAII (Michael W. Deem and Ramdas Pophale) SiO2 
 PCOD8308011
Probable space group: I 41 C D
;
_chemical_formula_sum "Si O2"
_cell_formula_units_Z 96
_cell_length_a 23.316450
_cell_length_b 23.316450
_cell_length_c 9.722156
_cell_angle_alpha 90.000000
_cell_angle_beta 90.000000
_cell_angle_gamma 90.000000
_cell_volume 5285.516615
_symmetry_space_group_name_H-M "I 41 C D"
_symmetry_group_IT_number 110
_symmetry_cell_setting 'tetragonal'
loop_
_space_group_symop_operation_xyz
x,y,z
-y,1/2+x,1/4+z
-x,-y,z
y,1/2-x,1/4+z
-x,y,1/2+z
x,-y,1/2+z
1/2-y,-x,1/4+z
1/2+y,x,1/4+z
1/2+x,1/2+y,1/2+z
1/2-y,x,3/4+z
1/2-x,1/2-y,1/2+z
1/2+y,-x,3/4+z
1/2-x,1/2+y,z
1/2+x,1/2-y,z
-y,1/2-x,3/4+z
y,1/2+x,3/4+z
loop_
_atom_site_type_symbol
_atom_site_label
_atom_site_fract_x
_atom_site_fract_y
_atom_site_fract_z
Si Si1 0.063634 0.270147 0.479510
Si Si2 0.772527 0.931147 0.750087
Si Si3 0.561625 0.852230 0.755214
Si Si4 0.663373 0.428773 0.490803
Si Si5 0.562091 0.350238 0.389486
Si Si6 0.553555 0.647422 0.562743
O O1 0.087266 0.323761 0.393168
O O2 0.075290 0.282275 0.638554
O O3 0.091002 0.211387 0.423241
O O4 0.996207 0.266815 0.450724
O O5 0.810022 0.920774 0.883694
O O6 0.808844 0.900708 0.627945
O O7 0.706545 0.911806 0.776080
O O8 0.493286 0.860591 0.759909
O O9 0.593525 0.912893 0.747568
O O10 0.608802 0.396250 0.432962
O O11 0.507748 0.356778 0.489732
O O12 0.545263 0.356456 0.228506
#
# Coordination Sequence:
#
# PCOD8308011 Si02
#       6
#    16  16  16  16  16  16
#     4   9  18  36  58  78 110 148 195 225 273 333
#     4   9  20  34  57  82 107 149 196 229 270 338
#     4  10  19  37  58  82 113 151 186 231 282 340
#     4  10  21  37  59  85 114 150 190 230 285 341
#     4  11  23  37  58  87 116 149 188 238 286 337
#     4  11  23  37  58  86 118 147 189 239 286 335
#
# _framework density 18.162842999999999
#
# number of rings (size 3 to 8) (size 9 to 14) (size 15 to 20)
#    0.000    2.000    3.333    0.000    9.333    0.667 
#    0.000    1.667    0.000    6.000    0.000    0.000 
#    0.000    0.000    0.000    0.000    0.000    0.000 
#
# Total GULP energy -594753.051932 kJ/mol
# GULP energy per Si atom -12390.688582 kJ/mol
# Density = 1.812150 g / cm^3
# Si number density = 18.162843 Si / 1000 Ang^3
#
#
#
# Elastic Constant Matrix: (Units=GPa)
#
#
# Indices 1 2 3 4 5 6 
#
# 1 76.1120 42.8943 38.0055 0.0000 0.0000 0.0000
# 2 42.8943 76.1120 38.0055 0.0000 0.0000 0.0000
# 3 38.0055 38.0055 106.7389 0.0000 0.0000 0.0000
# 4 0.0000 0.0000 0.0000 25.5870 0.0000 0.0000
# 5 0.0000 0.0000 0.0000 0.0000 25.5870 0.0000
# 6 0.0000 0.0000 0.0000 0.0000 0.0000 1.7976
#
#
#
# Elastic Compliance Matrix: (Units=1/GPa)
#
#
# Indices 1 2 3 4 5 6 
#
# 1 0.020490 -0.009614 -0.003873 0.000000 0.000000 0.000000
# 2 -0.009614 0.020490 -0.003873 0.000000 0.000000 0.000000
# 3 -0.003873 -0.003873 0.012126 0.000000 0.000000 0.000000
# 4 0.000000 0.000000 0.000000 0.039082 0.000000 0.000000
# 5 0.000000 0.000000 0.000000 0.000000 0.039082 0.000000
# 6 0.000000 0.000000 0.000000 0.000000 0.000000 0.556312
#
#
# Mechanical properties :
#
#
# Convention : Reuss Voigt Hill
#
# Bulk Modulus (GPa) = 54.38134 55.19708 54.78921
# Shear Modulus (GPa) = 6.86405 19.93148 13.39777
#
# Velocity S-wave (km/s) = 1.94612 3.31626 2.71891
# Velocity P-wave (km/s) = 5.92080 6.71711 6.33148
#
# Compressibility (1/GPa) = 0.01838866
#
# Stress axis : x y z
#
# Youngs Moduli (GPa) = 48.80325 48.80325 82.46425
#
# Poissons Ratio (x) = 0.46919 0.31936
# Poissons Ratio (y) = 0.46919 0.31936
# Poissons Ratio (z) = 0.18900 0.18900
#
# Static dielectric constant tensor:
#      x y z
#    x 3.255260 0.000000 0.000000 
#    y 0.000000 3.255260 0.000000 
#    z 0.000000 0.000000 3.641570 
# 
# 
# High freq. dielectric constant tensor:
#      x y z
#    x 1.682950 0.000000 0.000000 
#    y 0.000000 1.682950 0.000000 
#    z 0.000000 0.000000 1.727910 
# 
# From -- ./inp_files/444.got.cif
#   From: 2010.03.12/outbox.cif.g09.slc.cpg/sg110_1_cif.got.tgz:444.got - 2010.04.14 01:58:01.
