data_PCOD8308937
_publ_section_title
;
Structure prediction by ZEFSAII (Michael W. Deem and Ramdas Pophale) SiO2 
 PCOD8308937
Probable space group: P -4 21 C
;
_chemical_formula_sum "Si O2"
_cell_formula_units_Z 40
_cell_length_a 8.772381
_cell_length_b 8.772381
_cell_length_c 23.953331
_cell_angle_alpha 90.000000
_cell_angle_beta 90.000000
_cell_angle_gamma 90.000000
_cell_volume 1843.320644
_symmetry_space_group_name_H-M "P -4 21 C"
_symmetry_group_IT_number 114
_symmetry_cell_setting 'tetragonal'
loop_
_space_group_symop_operation_xyz
x,y,z
y,-x,-z
-x,-y,z
-y,x,-z
1/2+x,1/2-y,1/2-z
1/2-x,1/2+y,1/2-z
1/2-y,1/2-x,1/2+z
1/2+y,1/2+x,1/2+z
loop_
_atom_site_type_symbol
_atom_site_label
_atom_site_fract_x
_atom_site_fract_y
_atom_site_fract_z
Si Si1 0.092981 0.265997 0.702347
Si Si2 0.037561 0.173778 0.582716
Si Si3 0.156496 0.412158 0.505730
Si Si4 0.154193 0.776645 0.084076
Si Si5 0.735006 0.905635 0.794148
O O1 0.125725 0.193066 0.641434
O O2 0.145934 0.138605 0.746234
O O3 0.190460 0.418345 0.711228
O O4 0.914522 0.299933 0.710706
O O5 0.137651 0.242231 0.531863
O O6 0.890024 0.276398 0.587286
O O7 0.000000 0.000000 0.568926
O O8 0.230989 0.395989 0.444612
O O9 0.268894 0.501102 0.547337
O O10 0.000000 0.500000 0.496510
O O11 0.118391 0.824880 0.147331
#
# Coordination Sequence:
#
# PCOD8308937 Si02
#       5
#     8   8   8   8   8
#     4  10  22  42  65  91 130 166 217 269 325 382
#     4  10  22  38  67  96 122 170 223 264 322 397
#     4  10  22  42  64  95 132 169 216 272 333 396
#     4  10  22  42  64  89 136 170 211 274 329 387
#     4  10  22  43  63  94 130 173 211 272 326 383
#
# _framework density 21.699967000000001
#
# number of rings (size 3 to 8) (size 9 to 14) (size 15 to 20)
#    0.000    2.000    2.000    0.000   11.200    0.400 
#    7.200    2.000    0.000    0.000    0.000    0.000 
#    0.000    0.000    0.000    0.000    0.000    0.000 
#
# Total GULP energy -496042.932734 kJ/mol
# GULP energy per Si atom -12401.073318 kJ/mol
# Density = 2.165058 g / cm^3
# Si number density = 21.699967 Si / 1000 Ang^3
#
#
#
# Elastic Constant Matrix: (Units=GPa)
#
#
# Indices 1 2 3 4 5 6 
#
# 1 80.2138 22.9477 48.4394 0.0000 0.0000 0.0000
# 2 22.9477 80.2138 48.4394 0.0000 0.0000 0.0000
# 3 48.4394 48.4394 145.8592 0.0000 0.0000 0.0000
# 4 0.0000 0.0000 0.0000 -0.6115 0.0000 0.0000
# 5 0.0000 0.0000 0.0000 0.0000 -0.6115 0.0000
# 6 0.0000 0.0000 0.0000 0.0000 0.0000 31.3795
#
#
#
# Elastic Compliance Matrix: (Units=1/GPa)
#
#
# Indices 1 2 3 4 5 6 
#
# 1 0.015775 -0.001688 -0.004678 0.000000 0.000000 0.000000
# 2 -0.001688 0.015775 -0.004678 0.000000 0.000000 0.000000
# 3 -0.004678 -0.004678 0.009963 0.000000 0.000000 0.000000
# 4 0.000000 0.000000 0.000000 -1.635343 0.000000 0.000000
# 5 0.000000 0.000000 0.000000 0.000000 -1.635343 0.000000
# 6 0.000000 0.000000 0.000000 0.000000 0.000000 0.031868
#
#
# Mechanical properties :
#
#
# Convention : Reuss Voigt Hill
#
# Bulk Modulus (GPa) = 51.48266 60.65998 56.07132
# Shear Modulus (GPa) = -1.57791 18.46200 8.44204
#
# Velocity S-wave (km/s) = -0.85366 2.91999 1.97454
# Velocity P-wave (km/s) = 4.77542 6.27559 5.57619
#
# Compressibility (1/GPa) = 0.01942402
#
# Stress axis : x y z
#
# Youngs Moduli (GPa) = 63.39317 63.39317 100.36989
#
# Poissons Ratio (x) = 0.10699 0.46955
# Poissons Ratio (y) = 0.10699 0.46955
# Poissons Ratio (z) = 0.29656 0.29656
#
# Static dielectric constant tensor:
#      x y z
#    x 3.800400 0.000000 0.000000 
#    y 0.000000 3.800400 0.000000 
#    z 0.000000 0.000000 4.156430 
# 
# 
# High freq. dielectric constant tensor:
#      x y z
#    x 1.842940 0.000000 0.000000 
#    y 0.000000 1.842940 0.000000 
#    z 0.000000 0.000000 1.862580 
# 
# From -- ./inp_files/3325.got.cif
#   From: 2010.03.12/outbox.cif.g09.slc.cpg/sg114_2_cif.got.tgz:3325.got - 2010.04.14 02:08:34.
