data_PCOD8308671
_publ_section_title
;
Structure prediction by ZEFSAII (Michael W. Deem and Ramdas Pophale) SiO2 
 PCOD8308671
Probable space group: P -4 21 M 
;
_chemical_formula_sum "Si O2"
_cell_formula_units_Z 64
_cell_length_a 12.200246
_cell_length_b 12.200246
_cell_length_c 23.210916
_cell_angle_alpha 90.000000
_cell_angle_beta 90.000000
_cell_angle_gamma 90.000000
_cell_volume 3454.852060
_symmetry_space_group_name_H-M "P -4 21 M "
_symmetry_group_IT_number 113
_symmetry_cell_setting 'tetragonal'
loop_
_space_group_symop_operation_xyz
x,y,z
y,-x,-z
-x,-y,z
-y,x,-z
1/2+x,1/2-y,-z
1/2-x,1/2+y,-z
1/2-y,1/2-x,z
1/2+y,1/2+x,z
loop_
_atom_site_type_symbol
_atom_site_label
_atom_site_fract_x
_atom_site_fract_y
_atom_site_fract_z
Si Si1 0.224962 0.101270 0.076716
Si Si2 0.008105 0.676832 0.132242
Si Si3 0.431468 0.754629 0.379705
Si Si4 0.982955 0.124126 0.406506
Si Si5 0.321097 0.638570 0.681477
Si Si6 0.998812 0.678723 0.493825
Si Si7 0.172488 0.856742 0.809099
Si Si8 0.764809 0.563577 0.015988
O O1 0.346407 0.153594 0.080995
O O2 0.173988 0.085171 0.140822
O O3 0.150795 0.178333 0.037785
O O4 0.226735 0.985739 0.044732
O O5 0.908275 0.591726 0.129502
O O6 0.975238 0.773589 0.176446
O O7 0.026543 0.721282 0.067112
O O8 0.119318 0.619318 0.154586
O O9 0.347981 0.847981 0.358362
O O10 0.365720 0.639868 0.381773
O O11 0.532236 0.749315 0.335503
O O12 0.483319 0.785374 0.440846
O O13 0.070834 0.151871 0.357222
O O14 0.998991 0.210365 0.457489
O O15 0.000000 0.000000 0.429820
O O16 0.247702 0.747702 0.675483
O O17 0.361469 0.617233 0.746655
O O18 0.897977 0.602024 0.473479
O O19 0.113093 0.613093 0.487344
O O20 0.265501 0.765501 0.810445
O O21 0.880786 0.619215 0.003184
#
# Coordination Sequence:
#
# PCOD8308671 Si02
#       8
#     8   8   8   8   8   8   8   8
#     4   9  17  30  49  73 104 131 168 216 259 313
#     4   8  13  24  45  72  99 128 166 212 264 319
#     4  10  22  37  56  79 109 149 185 219 262 320
#     4  10  22  35  56  82 110 142 178 219 271 325
#     4  10  20  36  59  81 107 143 188 228 268 319
#     4  10  21  37  57  84 114 138 171 223 276 320
#     4   8  16  31  50  75 102 136 173 216 264 309
#     4   9  17  28  46  71 102 137 169 212 267 321
#
# _framework density 18.524671999999999
#
# number of rings (size 3 to 8) (size 9 to 14) (size 15 to 20)
#    0.000    2.750    0.000    3.000    3.500    1.750 
#    0.000    1.875   16.500    5.250    0.000    0.000 
#    0.000    0.000    0.000    0.000    0.000    0.000 
#
# Total GULP energy -793247.478549 kJ/mol
# GULP energy per Si atom -12394.491852 kJ/mol
# Density = 1.848251 g / cm^3
# Si number density = 18.524672 Si / 1000 Ang^3
#
#
#
# Elastic Constant Matrix: (Units=GPa)
#
#
# Indices 1 2 3 4 5 6 
#
# 1 86.0696 37.4298 60.4451 0.0000 0.0000 0.0000
# 2 37.4298 86.0697 60.4450 0.0000 0.0000 0.0000
# 3 60.4451 60.4450 128.0283 0.0000 0.0000 0.0000
# 4 0.0000 0.0000 0.0000 23.7144 0.0000 0.0000
# 5 0.0000 0.0000 0.0000 0.0000 23.7145 0.0000
# 6 0.0000 0.0000 0.0000 0.0000 0.0000 25.2266
#
#
#
# Elastic Compliance Matrix: (Units=1/GPa)
#
#
# Indices 1 2 3 4 5 6 
#
# 1 0.017807 -0.002752 -0.007108 0.000000 0.000000 0.000000
# 2 -0.002752 0.017807 -0.007108 0.000000 0.000000 0.000000
# 3 -0.007108 -0.007108 0.014522 0.000000 0.000000 0.000000
# 4 0.000000 0.000000 0.000000 0.042168 0.000000 0.000000
# 5 0.000000 0.000000 0.000000 0.000000 0.042168 0.000000
# 6 0.000000 0.000000 0.000000 0.000000 0.000000 0.039641
#
#
# Mechanical properties :
#
#
# Convention : Reuss Voigt Hill
#
# Bulk Modulus (GPa) = 61.72499 68.53416 65.12958
# Shear Modulus (GPa) = 23.42478 23.98761 23.70619
#
# Velocity S-wave (km/s) = 3.55986 3.60238 3.58118
# Velocity P-wave (km/s) = 7.09152 7.37423 7.23426
#
# Compressibility (1/GPa) = 0.01620089
#
# Stress axis : x y z
#
# Youngs Moduli (GPa) = 56.15767 56.15784 68.86034
#
# Poissons Ratio (x) = 0.15456 0.48944
# Poissons Ratio (y) = 0.15456 0.48943
# Poissons Ratio (z) = 0.39915 0.39915
#
# Static dielectric constant tensor:
#      x y z
#    x 3.430150 0.000000 0.000000 
#    y 0.000000 3.430150 0.000000 
#    z 0.000000 0.000000 3.473470 
# 
# 
# High freq. dielectric constant tensor:
#      x y z
#    x 1.709800 0.000000 0.000000 
#    y 0.000000 1.709800 0.000000 
#    z 0.000000 0.000000 1.707120 
# 
# From -- ./inp_files/2875.got.cif
#   From: 2010.03.12/outbox.cif.g09.slc.cpg/sg113_cif.got.tgz:2875.got - 2010.04.14 02:06:34.
