data_PCOD8308396
_publ_section_title
;
Structure prediction by ZEFSAII (Michael W. Deem and Ramdas Pophale) SiO2 
 PCOD8308396
Probable space group: P -4 2 C
;
_chemical_formula_sum "Si O2"
_cell_formula_units_Z 56
_cell_length_a 14.973751
_cell_length_b 14.973751
_cell_length_c 12.211158
_cell_angle_alpha 90.000000
_cell_angle_beta 90.000000
_cell_angle_gamma 90.000000
_cell_volume 2737.903043
_symmetry_space_group_name_H-M "P -4 2 C"
_symmetry_group_IT_number 112
_symmetry_cell_setting 'tetragonal'
loop_
_space_group_symop_operation_xyz
x,y,z
y,-x,-z
-x,-y,z
-y,x,-z
x,-y,1/2-z
-x,y,1/2-z
-y,-x,1/2+z
y,x,1/2+z
loop_
_atom_site_type_symbol
_atom_site_label
_atom_site_fract_x
_atom_site_fract_y
_atom_site_fract_z
Si Si1 0.001302 0.775319 0.122264
Si Si2 0.595750 0.535643 0.367303
Si Si3 0.824625 0.181524 0.499542
Si Si4 0.980216 0.401262 0.009126
Si Si5 0.812556 0.355510 0.878756
Si Si6 0.290094 0.481782 0.933205
Si Si7 0.859005 0.646750 0.870882
O O1 0.915181 0.821760 0.069620
O O2 0.000000 0.799507 0.250000
O O3 0.999687 0.667938 0.107490
O O4 0.087065 0.813277 0.058884
O O5 0.500000 0.500000 0.406827
O O6 0.624229 0.500000 0.250000
O O7 0.672865 0.499099 0.445569
O O8 0.582149 0.642589 0.364669
O O9 0.745563 0.208034 0.414971
O O10 0.827591 0.255219 0.594239
O O11 0.039516 0.372893 0.904476
O O12 0.000000 0.500000 0.053928
O O13 0.878671 0.396924 0.969138
O O14 0.725016 0.419905 0.879112
O O15 0.854328 0.359559 0.759003
O O16 0.198141 0.427874 0.934759
#
# Coordination Sequence:
#
# PCOD8308396 Si02
#       7
#     8   8   8   8   8   8   8
#     4  10  22  43  69  94 132 168 203 256 315 364
#     4  11  25  41  57  74 115 157 197 253 311 365
#     4  10  23  42  64  95 129 161 210 257 305 380
#     4  10  21  41  60  93 126 165 209 255 300 371
#     4  11  23  37  63  90 125 161 206 259 311 363
#     4  12  22  39  58  87 113 156 209 257 305 372
#     4  11  23  36  65  90 124 161 206 259 310 364
#
# _framework density 20.453607999999999
#
# number of rings (size 3 to 8) (size 9 to 14) (size 15 to 20)
#    0.000    1.286    2.857    2.571    4.000    1.143 
#    0.000    8.571    0.000    0.000    0.000    0.000 
#    0.000    0.000    0.000    0.000    0.000    0.000 
#
# Total GULP energy -694399.298991 kJ/mol
# GULP energy per Si atom -12399.987482 kJ/mol
# Density = 2.040706 g / cm^3
# Si number density = 20.453608 Si / 1000 Ang^3
#
#
#
# Elastic Constant Matrix: (Units=GPa)
#
#
# Indices 1 2 3 4 5 6 
#
# 1 99.7995 26.1075 32.8529 0.0000 0.0000 0.0000
# 2 26.1075 99.7995 32.8529 0.0000 0.0000 0.0000
# 3 32.8529 32.8529 114.1957 0.0000 0.0000 0.0000
# 4 0.0000 0.0000 0.0000 22.3728 0.0000 0.0000
# 5 0.0000 0.0000 0.0000 0.0000 22.3728 0.0000
# 6 0.0000 0.0000 0.0000 0.0000 0.0000 28.8807
#
#
#
# Elastic Compliance Matrix: (Units=1/GPa)
#
#
# Indices 1 2 3 4 5 6 
#
# 1 0.011458 -0.002112 -0.002689 0.000000 0.000000 0.000000
# 2 -0.002112 0.011458 -0.002689 0.000000 0.000000 0.000000
# 3 -0.002689 -0.002689 0.010304 0.000000 0.000000 0.000000
# 4 0.000000 0.000000 0.000000 0.044697 0.000000 0.000000
# 5 0.000000 0.000000 0.000000 0.000000 0.044697 0.000000
# 6 0.000000 0.000000 0.000000 0.000000 0.000000 0.034625
#
#
# Mechanical properties :
#
#
# Convention : Reuss Voigt Hill
#
# Bulk Modulus (GPa) = 54.82339 55.26903 55.04621
# Shear Modulus (GPa) = 28.04299 29.52403 28.78351
#
# Velocity S-wave (km/s) = 3.70679 3.80342 3.75541
# Velocity P-wave (km/s) = 6.72178 6.80943 6.76575
#
# Compressibility (1/GPa) = 0.01824039
#
# Stress axis : x y z
#
# Youngs Moduli (GPa) = 87.27740 87.27740 97.05114
#
# Poissons Ratio (x) = 0.18436 0.26093
# Poissons Ratio (y) = 0.18436 0.26093
# Poissons Ratio (z) = 0.23465 0.23465
#
# Static dielectric constant tensor:
#      x y z
#    x 3.905790 0.000000 0.000000 
#    y 0.000000 3.905790 0.000000 
#    z 0.000000 0.000000 3.445930 
# 
# 
# High freq. dielectric constant tensor:
#      x y z
#    x 1.806430 0.000000 0.000000 
#    y 0.000000 1.806430 0.000000 
#    z 0.000000 0.000000 1.790720 
# 
# From -- ./inp_files/2639.got.cif
#   From: 2010.03.12/outbox.cif.g09.slc.cpg/sg112_2_cif.got.tgz:2639.got - 2010.04.14 02:02:48.
