data_PCOD8308999
_publ_section_title
;
Structure prediction by ZEFSAII (Michael W. Deem and Ramdas Pophale) SiO2 
 PCOD8308999
Probable space group: P -4 21 C
;
_chemical_formula_sum "Si O2"
_cell_formula_units_Z 52
_cell_length_a 17.252567
_cell_length_b 17.252567
_cell_length_c 8.169005
_cell_angle_alpha 90.000000
_cell_angle_beta 90.000000
_cell_angle_gamma 90.000000
_cell_volume 2431.513063
_symmetry_space_group_name_H-M "P -4 21 C"
_symmetry_group_IT_number 114
_symmetry_cell_setting 'tetragonal'
loop_
_space_group_symop_operation_xyz
x,y,z
y,-x,-z
-x,-y,z
-y,x,-z
1/2+x,1/2-y,1/2-z
1/2-x,1/2+y,1/2-z
1/2-y,1/2-x,1/2+z
1/2+y,1/2+x,1/2+z
loop_
_atom_site_type_symbol
_atom_site_label
_atom_site_fract_x
_atom_site_fract_y
_atom_site_fract_z
Si Si1 0.754685 0.753732 0.138035
Si Si2 0.500000 0.000000 0.987693
Si Si3 0.746149 0.876674 0.879594
Si Si4 0.128752 0.500928 0.761350
Si Si5 0.052094 0.904640 0.078131
Si Si6 0.251665 0.877088 0.601714
Si Si7 0.551159 0.395620 0.936129
O O1 0.681292 0.721759 0.239932
O O2 0.825773 0.783629 0.249946
O O3 0.719817 0.824876 0.033218
O O4 0.788147 0.683812 0.027244
O O5 0.469954 0.073084 0.092877
O O6 0.427331 0.969298 0.881556
O O7 0.676528 0.926930 0.808553
O O8 0.814545 0.931201 0.945732
O O9 0.183133 0.432913 0.826678
O O10 0.091335 0.932245 0.245761
O O11 0.958234 0.913831 0.070344
O O12 0.187572 0.926380 0.506974
O O13 0.459200 0.402971 0.958607
#
# Coordination Sequence:
#
# PCOD8308999 Si02
#       7
#     8   4   8   8   8   8   8
#     4  10  24  42  62  96 138 170 229 281 340 420
#     4  10  24  46  68 102 136 176 246 292 344 412
#     4  11  23  42  66  95 132 178 223 281 352 401
#     4  11  23  43  72  97 135 181 230 294 351 407
#     4  11  24  41  64  96 132 173 221 275 333 413
#     4  11  23  42  68  97 134 179 222 284 348 410
#     4  11  23  40  64  94 131 172 220 267 334 410
#
# _framework density 21.385860999999998
#
# number of rings (size 3 to 8) (size 9 to 14) (size 15 to 20)
#    0.000    1.231    1.538    4.615    6.462    0.000 
#    0.000    1.538    0.000    0.000    0.000    0.000 
#    0.000    0.000    0.000    0.000    0.000    0.000 
#
# Total GULP energy -644605.765934 kJ/mol
# GULP energy per Si atom -12396.264729 kJ/mol
# Density = 2.133719 g / cm^3
# Si number density = 21.385861 Si / 1000 Ang^3
#
#
#
# Elastic Constant Matrix: (Units=GPa)
#
#
# Indices 1 2 3 4 5 6 
#
# 1 114.6108 50.1910 51.0736 0.0000 0.0000 0.0000
# 2 50.1910 114.6108 51.0736 0.0000 0.0000 0.0000
# 3 51.0736 51.0736 112.1645 0.0000 0.0000 0.0000
# 4 0.0000 0.0000 0.0000 25.3525 0.0000 0.0000
# 5 0.0000 0.0000 0.0000 0.0000 25.3525 0.0000
# 6 0.0000 0.0000 0.0000 0.0000 0.0000 33.8775
#
#
#
# Elastic Compliance Matrix: (Units=1/GPa)
#
#
# Indices 1 2 3 4 5 6 
#
# 1 0.011989 -0.003535 -0.003849 0.000000 0.000000 0.000000
# 2 -0.003535 0.011989 -0.003849 0.000000 0.000000 0.000000
# 3 -0.003849 -0.003849 0.012421 0.000000 0.000000 0.000000
# 4 0.000000 0.000000 0.000000 0.039444 0.000000 0.000000
# 5 0.000000 0.000000 0.000000 0.000000 0.039444 0.000000
# 6 0.000000 0.000000 0.000000 0.000000 0.000000 0.029518
#
#
# Mechanical properties :
#
#
# Convention : Reuss Voigt Hill
#
# Bulk Modulus (GPa) = 71.78177 71.78471 71.78324
# Shear Modulus (GPa) = 29.08421 29.51969 29.30195
#
# Velocity S-wave (km/s) = 3.69178 3.71932 3.70558
# Velocity P-wave (km/s) = 7.19794 7.21691 7.20743
#
# Compressibility (1/GPa) = 0.01393111
#
# Stress axis : x y z
#
# Youngs Moduli (GPa) = 83.41325 83.41325 80.50817
#
# Poissons Ratio (x) = 0.29484 0.30991
# Poissons Ratio (y) = 0.29484 0.30991
# Poissons Ratio (z) = 0.32109 0.32109
#
# Static dielectric constant tensor:
#      x y z
#    x 3.755350 0.000000 0.000000 
#    y 0.000000 3.755350 0.000000 
#    z 0.000000 0.000000 4.124810 
# 
# 
# High freq. dielectric constant tensor:
#      x y z
#    x 1.833940 0.000000 0.000000 
#    y 0.000000 1.833940 0.000000 
#    z 0.000000 0.000000 1.854120 
# 
# From -- ./inp_files/991.got.cif
#   From: 2010.03.12/outbox.cif.g09.slc.cpg/sg114_1_cif.got.tgz:991.got - 2010.04.14 02:08:34.
