data_PCOD8308390
_publ_section_title
;
Structure prediction by ZEFSAII (Michael W. Deem and Ramdas Pophale) SiO2 
 PCOD8308390
Probable space group: P -4 2 C
;
_chemical_formula_sum "Si O2"
_cell_formula_units_Z 56
_cell_length_a 10.489787
_cell_length_b 10.489787
_cell_length_c 23.408995
_cell_angle_alpha 90.000000
_cell_angle_beta 90.000000
_cell_angle_gamma 90.000000
_cell_volume 2575.823543
_symmetry_space_group_name_H-M "P -4 2 C"
_symmetry_group_IT_number 112
_symmetry_cell_setting 'tetragonal'
loop_
_space_group_symop_operation_xyz
x,y,z
y,-x,-z
-x,-y,z
-y,x,-z
x,-y,1/2-z
-x,y,1/2-z
-y,-x,1/2+z
y,x,1/2+z
loop_
_atom_site_type_symbol
_atom_site_label
_atom_site_fract_x
_atom_site_fract_y
_atom_site_fract_z
Si Si1 0.621853 0.139218 0.723029
Si Si2 0.187127 0.903830 0.500686
Si Si3 0.705331 0.521951 0.007368
Si Si4 0.579418 0.826664 0.394785
Si Si5 0.642786 0.794449 0.900068
Si Si6 0.128107 0.148375 0.728070
Si Si7 0.099466 0.694752 0.881545
O O1 0.500000 0.212467 0.750000
O O2 0.612112 0.121311 0.655147
O O3 0.750228 0.213558 0.741682
O O4 0.627750 0.000000 0.750000
O O5 0.261039 0.868193 0.558369
O O6 0.263662 0.858111 0.444864
O O7 0.054364 0.830463 0.501709
O O8 0.768325 0.491417 0.068556
O O9 0.636154 0.394030 0.984509
O O10 0.817295 0.561109 0.963726
O O11 0.660168 0.701819 0.377029
O O12 0.438513 0.828506 0.365617
O O13 0.663230 0.949497 0.379750
O O14 0.132826 0.185503 0.660588
O O15 0.000000 0.216648 0.750000
O O16 0.123933 0.000000 0.750000
#
# Coordination Sequence:
#
# PCOD8308390 Si02
#       7
#     8   8   8   8   8   8   8
#     4  10  24  46  62  97 132 181 237 281 338 413
#     4  11  24  37  63 103 140 177 221 285 361 418
#     4   9  19  36  62  96 129 173 223 266 348 427
#     4  10  21  39  62  93 137 169 221 278 359 416
#     4  11  21  42  66  93 139 176 219 291 342 420
#     4  10  23  41  70  94 125 178 232 284 345 412
#     4  11  22  40  60  99 135 170 228 286 344 429
#
# _framework density 21.740618999999999
#
# number of rings (size 3 to 8) (size 9 to 14) (size 15 to 20)
#    0.000    1.714    2.857    0.857    4.000    2.286 
#    5.143    5.000    0.000    0.857    0.000    0.000 
#    0.000    0.000    0.000    0.000    0.000    0.000 
#
# Total GULP energy -693830.559066 kJ/mol
# GULP energy per Si atom -12389.831412 kJ/mol
# Density = 2.169114 g / cm^3
# Si number density = 21.740619 Si / 1000 Ang^3
#
#
#
# Elastic Constant Matrix: (Units=GPa)
#
#
# Indices 1 2 3 4 5 6 
#
# 1 92.3825 3.5906 51.1363 0.0000 0.0000 0.0000
# 2 3.5906 92.3825 51.1363 0.0000 0.0000 0.0000
# 3 51.1363 51.1363 163.8116 0.0000 0.0000 0.0000
# 4 0.0000 0.0000 0.0000 24.8773 0.0000 0.0000
# 5 0.0000 0.0000 0.0000 0.0000 24.8773 0.0000
# 6 0.0000 0.0000 0.0000 0.0000 0.0000 15.0704
#
#
#
# Elastic Compliance Matrix: (Units=1/GPa)
#
#
# Indices 1 2 3 4 5 6 
#
# 1 0.013438 0.002176 -0.004874 0.000000 0.000000 0.000000
# 2 0.002176 0.013438 -0.004874 0.000000 0.000000 0.000000
# 3 -0.004874 -0.004874 0.009148 0.000000 0.000000 0.000000
# 4 0.000000 0.000000 0.000000 0.040197 0.000000 0.000000
# 5 0.000000 0.000000 0.000000 0.000000 0.040197 0.000000
# 6 0.000000 0.000000 0.000000 0.000000 0.000000 0.066355
#
#
# Mechanical properties :
#
#
# Convention : Reuss Voigt Hill
#
# Bulk Modulus (GPa) = 47.89595 62.25590 55.07593
# Shear Modulus (GPa) = 24.40485 29.14590 26.77538
#
# Velocity S-wave (km/s) = 3.35408 3.66542 3.51320
# Velocity P-wave (km/s) = 6.08919 6.82727 6.46877
#
# Compressibility (1/GPa) = 0.02087859
#
# Stress axis : x y z
#
# Youngs Moduli (GPa) = 74.41639 74.41639 109.31874
#
# Poissons Ratio (x) = -0.16190 0.53282
# Poissons Ratio (y) = -0.16190 0.53282
# Poissons Ratio (z) = 0.36271 0.36271
#
# Static dielectric constant tensor:
#      x y z
#    x 5.272080 0.000000 0.000000 
#    y 0.000000 5.272080 0.000000 
#    z 0.000000 0.000000 3.799950 
# 
# 
# High freq. dielectric constant tensor:
#      x y z
#    x 1.852470 0.000000 0.000000 
#    y 0.000000 1.852470 0.000000 
#    z 0.000000 0.000000 1.836290 
# 
# From -- ./inp_files/4946.got.cif
#   From: 2010.03.12/outbox.cif.g09.slc.cpg/sg112_3_cif.got.tgz:4946.got - 2010.04.14 02:02:48.
