data_PCOD8308847
_publ_section_title
;
Structure prediction by ZEFSAII (Michael W. Deem and Ramdas Pophale) SiO2 
 PCOD8308847
Probable space group: P -4 21 C
;
_chemical_formula_sum "Si O2"
_cell_formula_units_Z 56
_cell_length_a 11.686723
_cell_length_b 11.686723
_cell_length_c 20.566010
_cell_angle_alpha 90.000000
_cell_angle_beta 90.000000
_cell_angle_gamma 90.000000
_cell_volume 2808.895249
_symmetry_space_group_name_H-M "P -4 21 C"
_symmetry_group_IT_number 114
_symmetry_cell_setting 'tetragonal'
loop_
_space_group_symop_operation_xyz
x,y,z
y,-x,-z
-x,-y,z
-y,x,-z
1/2+x,1/2-y,1/2-z
1/2-x,1/2+y,1/2-z
1/2-y,1/2-x,1/2+z
1/2+y,1/2+x,1/2+z
loop_
_atom_site_type_symbol
_atom_site_label
_atom_site_fract_x
_atom_site_fract_y
_atom_site_fract_z
Si Si1 0.736602 0.150740 0.154540
Si Si2 0.762770 0.558770 0.743575
Si Si3 0.131807 0.629142 0.178629
Si Si4 0.792100 0.892638 0.644339
Si Si5 0.265765 0.601167 0.308167
Si Si6 0.275234 0.404032 0.947190
Si Si7 0.770692 0.005337 0.414993
O O1 0.652761 0.170532 0.215171
O O2 0.840623 0.238539 0.161165
O O3 0.671494 0.176895 0.086810
O O4 0.780164 0.020281 0.155575
O O5 0.863177 0.501506 0.699035
O O6 0.702548 0.465573 0.789678
O O7 0.661539 0.611293 0.700085
O O8 0.209973 0.584044 0.237434
O O9 0.155074 0.547707 0.116567
O O10 0.683720 0.808847 0.646228
O O11 0.913259 0.827730 0.639312
O O12 0.773613 0.968684 0.580865
O O13 0.401982 0.354714 0.934536
O O14 0.243514 0.414934 0.023023
#
# Coordination Sequence:
#
# PCOD8308847 Si02
#       7
#     8   8   8   8   8   8   8
#     4   9  20  38  56  86 116 157 203 240 290 362
#     4   9  20  38  55  90 118 159 197 234 307 359
#     4   9  21  34  57  89 121 153 193 247 296 360
#     4  10  21  35  57  88 118 157 194 233 306 361
#     4  10  21  38  57  78 126 159 193 246 289 364
#     4  10  20  35  61  86 116 156 194 250 302 346
#     4  11  20  36  59  92 124 146 195 258 303 349
#
# _framework density 19.936664
#
# number of rings (size 3 to 8) (size 9 to 14) (size 15 to 20)
#    0.000    2.286    1.429    1.286    6.000    5.714 
#    5.143    0.000    6.286    0.000    0.000    0.000 
#    0.000    0.000    0.000    0.000    0.000    0.000 
#
# Total GULP energy -694291.833446 kJ/mol
# GULP energy per Si atom -12398.068454 kJ/mol
# Density = 1.989129 g / cm^3
# Si number density = 19.936664 Si / 1000 Ang^3
#
#
#
# Elastic Constant Matrix: (Units=GPa)
#
#
# Indices 1 2 3 4 5 6 
#
# 1 47.4475 -10.5075 15.2469 0.0000 0.0000 0.0000
# 2 -10.5075 47.4475 15.2469 0.0000 0.0000 0.0000
# 3 15.2469 15.2469 67.3692 0.0000 0.0000 0.0000
# 4 0.0000 0.0000 0.0000 28.2577 0.0000 0.0000
# 5 0.0000 0.0000 0.0000 0.0000 28.2577 0.0000
# 6 0.0000 0.0000 0.0000 0.0000 0.0000 23.9775
#
#
#
# Elastic Compliance Matrix: (Units=1/GPa)
#
#
# Indices 1 2 3 4 5 6 
#
# 1 0.025273 0.008018 -0.007534 0.000000 0.000000 0.000000
# 2 0.008018 0.025273 -0.007534 0.000000 0.000000 0.000000
# 3 -0.007534 -0.007534 0.018254 0.000000 0.000000 0.000000
# 4 0.000000 0.000000 0.000000 0.035389 0.000000 0.000000
# 5 0.000000 0.000000 0.000000 0.000000 0.035389 0.000000
# 6 0.000000 0.000000 0.000000 0.000000 0.000000 0.041706
#
#
# Mechanical properties :
#
#
# Convention : Reuss Voigt Hill
#
# Bulk Modulus (GPa) = 18.28229 22.47077 20.37653
# Shear Modulus (GPa) = 23.40650 25.58378 24.49514
#
# Velocity S-wave (km/s) = 3.43015 3.58614 3.50901
# Velocity P-wave (km/s) = 4.98778 5.33317 5.16337
#
# Compressibility (1/GPa) = 0.05469775
#
# Stress axis : x y z
#
# Youngs Moduli (GPa) = 39.56851 39.56851 54.78294
#
# Poissons Ratio (x) = -0.31725 0.41275
# Poissons Ratio (y) = -0.31725 0.41275
# Poissons Ratio (z) = 0.29812 0.29812
#
# Static dielectric constant tensor:
#      x y z
#    x 3.601540 0.000000 0.000000 
#    y 0.000000 3.601540 0.000000 
#    z 0.000000 0.000000 3.585850 
# 
# 
# High freq. dielectric constant tensor:
#      x y z
#    x 1.770270 0.000000 0.000000 
#    y 0.000000 1.770270 0.000000 
#    z 0.000000 0.000000 1.758170 
# 
# From -- ./inp_files/3537.got.cif
#   From: 2010.03.12/outbox.cif.g09.slc.cpg/sg114_2_cif.got.tgz:3537.got - 2010.04.14 02:08:34.
