data_PCOD8308529
_publ_section_title
;
Structure prediction by ZEFSAII (Michael W. Deem and Ramdas Pophale) SiO2 
 PCOD8308529
Probable space group: P -4 21 M 
;
_chemical_formula_sum "Si O2"
_cell_formula_units_Z 56
_cell_length_a 15.768613
_cell_length_b 15.768613
_cell_length_c 13.147666
_cell_angle_alpha 90.000000
_cell_angle_beta 90.000000
_cell_angle_gamma 90.000000
_cell_volume 3269.156054
_symmetry_space_group_name_H-M "P -4 21 M "
_symmetry_group_IT_number 113
_symmetry_cell_setting 'tetragonal'
loop_
_space_group_symop_operation_xyz
x,y,z
y,-x,-z
-x,-y,z
-y,x,-z
1/2+x,1/2-y,-z
1/2-x,1/2+y,-z
1/2-y,1/2-x,z
1/2+y,1/2+x,z
loop_
_atom_site_type_symbol
_atom_site_label
_atom_site_fract_x
_atom_site_fract_y
_atom_site_fract_z
Si Si1 0.180956 0.178192 0.527805
Si Si2 0.563153 0.792880 0.854013
Si Si3 0.635584 0.003117 0.046155
Si Si4 0.995617 0.635911 0.340425
Si Si5 0.680210 0.316293 0.240732
Si Si6 0.252070 0.007219 0.466505
Si Si7 0.688611 0.045998 0.257544
O O1 0.244854 0.255147 0.493163
O O2 0.200988 0.155180 0.644471
O O3 0.082273 0.204369 0.516441
O O4 0.192489 0.091240 0.463398
O O5 0.636432 0.863569 0.851774
O O6 0.497567 0.807243 0.761545
O O7 0.605517 0.700125 0.835341
O O8 0.512630 0.791967 0.961306
O O9 0.560761 0.939240 0.021386
O O10 0.599204 0.099204 0.036704
O O11 0.667408 0.986872 0.161083
O O12 0.900614 0.599387 0.352212
O O13 0.021852 0.684437 0.441432
O O14 0.060488 0.560488 0.324374
O O15 0.738810 0.238810 0.207184
O O16 0.584648 0.281750 0.232612
O O17 0.304506 0.007962 0.360688
O O18 0.617765 0.117765 0.277114
#
# Coordination Sequence:
#
# PCOD8308529 Si02
#       7
#     8   8   8   8   8   8   8
#     4  10  20  34  52  76 104 135 175 220 262 304
#     4   9  15  26  46  68  92 124 158 199 254 309
#     4   9  17  28  43  67  98 127 158 204 259 311
#     4  10  18  27  45  75 103 126 159 206 262 314
#     4   8  14  28  48  68  90 122 166 204 238 289
#     4  11  20  33  52  72 102 139 174 211 255 305
#     4   9  18  31  48  70  96 132 171 205 245 307
#
# _framework density 17.129804
#
# number of rings (size 3 to 8) (size 9 to 14) (size 15 to 20)
#    0.000    2.571    1.429    3.000    0.000    3.143 
#    0.000    1.429    3.143    0.000    0.000    0.000 
#    0.000    0.000    0.000    0.000    0.000    0.000 
#
# Total GULP energy -693788.091626 kJ/mol
# GULP energy per Si atom -12389.073065 kJ/mol
# Density = 1.709082 g / cm^3
# Si number density = 17.129804 Si / 1000 Ang^3
#
#
#
# Elastic Constant Matrix: (Units=GPa)
#
#
# Indices 1 2 3 4 5 6 
#
# 1 52.1995 15.4271 16.5364 0.0000 0.0000 0.0000
# 2 15.4271 52.1979 16.5358 0.0000 0.0000 0.0000
# 3 16.5364 16.5358 99.6960 0.0000 0.0000 0.0000
# 4 0.0000 0.0000 0.0000 20.0503 0.0000 0.0000
# 5 0.0000 0.0000 0.0000 0.0000 20.0504 0.0000
# 6 0.0000 0.0000 0.0000 0.0000 0.0000 12.4995
#
#
#
# Elastic Compliance Matrix: (Units=1/GPa)
#
#
# Indices 1 2 3 4 5 6 
#
# 1 0.021643 -0.005551 -0.002669 0.000000 0.000000 0.000000
# 2 -0.005551 0.021644 -0.002669 0.000000 0.000000 0.000000
# 3 -0.002669 -0.002669 0.010916 0.000000 0.000000 0.000000
# 4 0.000000 0.000000 0.000000 0.049874 0.000000 0.000000
# 5 0.000000 0.000000 0.000000 0.000000 0.049874 0.000000
# 6 0.000000 0.000000 0.000000 0.000000 0.000000 0.080003
#
#
# Mechanical properties :
#
#
# Convention : Reuss Voigt Hill
#
# Bulk Modulus (GPa) = 30.84101 33.45468 32.14784
# Shear Modulus (GPa) = 18.75874 20.89299 19.82587
#
# Velocity S-wave (km/s) = 3.31281 3.49619 3.40573
# Velocity P-wave (km/s) = 5.71632 5.98918 5.85434
#
# Compressibility (1/GPa) = 0.03242436
#
# Stress axis : x y z
#
# Youngs Moduli (GPa) = 46.20337 46.20208 91.60905
#
# Poissons Ratio (x) = 0.25647 0.24453
# Poissons Ratio (y) = 0.25648 0.24452
# Poissons Ratio (z) = 0.12333 0.12332
#
# Static dielectric constant tensor:
#      x y z
#    x 3.116700 0.000000 0.000000 
#    y 0.000000 3.116700 0.000000 
#    z 0.000000 0.000000 3.259850 
# 
# 
# High freq. dielectric constant tensor:
#      x y z
#    x 1.633840 0.000000 0.000000 
#    y 0.000000 1.633840 0.000000 
#    z 0.000000 0.000000 1.659530 
# 
# From -- ./inp_files/1971.got.cif
#   From: 2010.03.12/outbox.cif.g09.slc.cpg/sg113_cif.got.tgz:1971.got - 2010.04.14 02:06:34.
