data_PCOD8308551
_publ_section_title
;
Structure prediction by ZEFSAII (Michael W. Deem and Ramdas Pophale) SiO2 
 PCOD8308551
Probable space group: P -4 21 M 
;
_chemical_formula_sum "Si O2"
_cell_formula_units_Z 40
_cell_length_a 14.078881
_cell_length_b 14.078881
_cell_length_c 12.829152
_cell_angle_alpha 90.000000
_cell_angle_beta 90.000000
_cell_angle_gamma 90.000000
_cell_volume 2542.928955
_symmetry_space_group_name_H-M "P -4 21 M "
_symmetry_group_IT_number 113
_symmetry_cell_setting 'tetragonal'
loop_
_space_group_symop_operation_xyz
x,y,z
y,-x,-z
-x,-y,z
-y,x,-z
1/2+x,1/2-y,-z
1/2-x,1/2+y,-z
1/2-y,1/2-x,z
1/2+y,1/2+x,z
loop_
_atom_site_type_symbol
_atom_site_label
_atom_site_fract_x
_atom_site_fract_y
_atom_site_fract_z
Si Si1 0.111460 0.235302 0.302133
Si Si2 0.105490 0.112818 0.884891
Si Si3 0.387182 0.605490 0.884891
Si Si4 0.608682 0.391318 0.500000
Si Si5 0.735301 0.388540 0.302133
O O1 0.164361 0.335640 0.308574
O O2 0.150606 0.177920 0.202019
O O3 0.136583 0.173957 0.403307
O O4 0.000000 0.256647 0.293610
O O5 0.177919 0.150606 0.797981
O O6 1.000000 0.155268 0.864193
O O7 0.098723 1.000000 0.878599
O O8 0.142601 0.142602 1.000000
O O9 0.500000 0.375137 0.465598
O O10 0.673957 0.363417 0.403307
O O11 0.835639 0.335639 0.308573
#
# Coordination Sequence:
#
# PCOD8308551 Si02
#       5
#     8   8   8   8   8
#     4  10  19  29  42  61  86 114 140 165 197 242
#     4   8  14  26  44  64  84 105 133 173 215 245
#     4   8  14  26  44  64  84 105 133 173 215 245
#     4   9  17  30  48  66  81  99 130 176 222 251
#     4  10  19  29  42  61  86 114 140 165 197 242
#
# _framework density 15.729893000000001
#
# number of rings (size 3 to 8) (size 9 to 14) (size 15 to 20)
#    0.000    3.000    0.000    3.000    0.000    6.000 
#    0.000    0.000    0.000    0.000    0.000    0.000 
#    0.000    7.200    0.000    1.600    0.000    0.000 
#
# Total GULP energy -495861.069350 kJ/mol
# GULP energy per Si atom -12396.526734 kJ/mol
# Density = 1.569409 g / cm^3
# Si number density = 15.729893 Si / 1000 Ang^3
#
#
#
# Elastic Constant Matrix: (Units=GPa)
#
#
# Indices 1 2 3 4 5 6 
#
# 1 63.4288 45.5388 53.4876 0.0000 0.0000 0.0000
# 2 45.5388 63.4261 53.4871 0.0000 0.0000 0.0000
# 3 53.4876 53.4871 129.9972 0.0000 0.0000 0.0000
# 4 0.0000 0.0000 0.0000 6.7467 0.0000 0.0000
# 5 0.0000 0.0000 0.0000 0.0000 6.7429 0.0000
# 6 0.0000 0.0000 0.0000 0.0000 0.0000 24.0695
#
#
#
# Elastic Compliance Matrix: (Units=1/GPa)
#
#
# Indices 1 2 3 4 5 6 
#
# 1 0.035648 -0.020253 -0.006334 0.000000 0.000000 0.000000
# 2 -0.020253 0.035650 -0.006335 0.000000 0.000000 0.000000
# 3 -0.006334 -0.006335 0.012905 0.000000 0.000000 0.000000
# 4 0.000000 0.000000 0.000000 0.148221 0.000000 0.000000
# 5 0.000000 0.000000 0.000000 0.000000 0.148305 0.000000
# 6 0.000000 0.000000 0.000000 0.000000 0.000000 0.041546
#
#
# Mechanical properties :
#
#
# Convention : Reuss Voigt Hill
#
# Bulk Modulus (GPa) = 54.47035 62.43103 58.45069
# Shear Modulus (GPa) = 10.11656 14.46770 12.29213
#
# Velocity S-wave (km/s) = 2.53878 3.03604 2.79848
# Velocity P-wave (km/s) = 6.58009 7.21565 6.90519
#
# Compressibility (1/GPa) = 0.01835861
#
# Stress axis : x y z
#
# Youngs Moduli (GPa) = 28.05224 28.05064 77.48733
#
# Poissons Ratio (x) = 0.56810 0.49084
# Poissons Ratio (y) = 0.56813 0.49089
# Poissons Ratio (z) = 0.17769 0.17770
#
# Static dielectric constant tensor:
#      x y z
#    x 2.760180 0.000000 0.000000 
#    y 0.000000 2.760190 0.000000 
#    z 0.000000 0.000000 3.342030 
# 
# 
# High freq. dielectric constant tensor:
#      x y z
#    x 1.575950 0.000000 0.000000 
#    y 0.000000 1.575950 0.000000 
#    z 0.000000 0.000000 1.623100 
# 
# From -- ./inp_files/1711.got.cif
#   From: 2010.03.12/outbox.cif.g09.slc.cpg/sg113_cif.got.tgz:1711.got - 2010.04.14 02:06:34.
