data_PCOD8308000
_publ_section_title
;
Structure prediction by ZEFSAII (Michael W. Deem and Ramdas Pophale) SiO2 
 PCOD8308000
Probable space group: I 41 C D
;
_chemical_formula_sum "Si O2"
_cell_formula_units_Z 104
_cell_length_a 17.858384
_cell_length_b 17.858384
_cell_length_c 17.444046
_cell_angle_alpha 90.000000
_cell_angle_beta 90.000000
_cell_angle_gamma 90.000000
_cell_volume 5563.287929
_symmetry_space_group_name_H-M "I 41 C D"
_symmetry_group_IT_number 110
_symmetry_cell_setting 'tetragonal'
loop_
_space_group_symop_operation_xyz
x,y,z
-y,1/2+x,1/4+z
-x,-y,z
y,1/2-x,1/4+z
-x,y,1/2+z
x,-y,1/2+z
1/2-y,-x,1/4+z
1/2+y,x,1/4+z
1/2+x,1/2+y,1/2+z
1/2-y,x,3/4+z
1/2-x,1/2-y,1/2+z
1/2+y,-x,3/4+z
1/2-x,1/2+y,z
1/2+x,1/2-y,z
-y,1/2-x,3/4+z
y,1/2+x,3/4+z
loop_
_atom_site_type_symbol
_atom_site_label
_atom_site_fract_x
_atom_site_fract_y
_atom_site_fract_z
Si Si1 0.220171 0.290316 0.587230
Si Si2 0.243128 0.177290 0.708011
Si Si3 0.500000 0.500000 0.874622
Si Si4 0.630750 0.868575 0.866607
Si Si5 0.558614 0.220482 0.071607
Si Si6 0.575397 0.867370 0.031684
Si Si7 0.384631 0.597192 0.952595
O O1 0.201866 0.212392 0.633615
O O2 0.248964 0.270692 0.502901
O O3 0.286682 0.334048 0.630897
O O4 0.148569 0.343490 0.579460
O O5 0.191834 0.125866 0.764117
O O6 0.313738 0.124031 0.686303
O O7 0.562260 0.537089 0.821338
O O8 0.465797 0.565791 0.927928
O O9 0.693041 0.930323 0.843173
O O10 0.576307 0.868305 0.792014
O O11 0.590475 0.892776 0.944360
O O12 0.479923 0.204516 0.029777
O O13 0.556017 0.176955 0.151559
#
# Coordination Sequence:
#
# PCOD8308000 Si02
#       7
#    16  16   8  16  16  16  16
#     4  10  18  34  61  89 111 145 204 257 294 348
#     4  10  17  35  62  84 113 148 195 254 303 345
#     4  10  24  38  54  80 132 168 190 246 294 390
#     4  10  19  36  66  84 114 156 202 255 303 355
#     4   9  19  36  56  85 120 154 192 250 305 361
#     4  11  22  39  57  91 125 156 208 247 314 367
#     4   9  17  36  57  77 113 161 191 228 309 359
#
# _framework density 18.693981999999998
#
# number of rings (size 3 to 8) (size 9 to 14) (size 15 to 20)
#    0.000    2.462    4.615    0.923    0.000    3.077 
#    5.538    3.077    0.000    0.000    0.000    0.000 
#    0.000    0.000    0.000    0.000    0.000    0.000 
#
# Total GULP energy -644261.603296 kJ/mol
# GULP energy per Si atom -12389.646217 kJ/mol
# Density = 1.865143 g / cm^3
# Si number density = 18.693982 Si / 1000 Ang^3
#
#
#
# Elastic Constant Matrix: (Units=GPa)
#
#
# Indices 1 2 3 4 5 6 
#
# 1 79.9577 41.2275 46.5732 0.0000 0.0000 0.0000
# 2 41.2275 79.9577 46.5732 0.0000 0.0000 0.0000
# 3 46.5732 46.5732 121.8353 0.0000 0.0000 0.0000
# 4 0.0000 0.0000 0.0000 21.2856 0.0000 0.0000
# 5 0.0000 0.0000 0.0000 0.0000 21.2856 0.0000
# 6 0.0000 0.0000 0.0000 0.0000 0.0000 38.0373
#
#
#
# Elastic Compliance Matrix: (Units=1/GPa)
#
#
# Indices 1 2 3 4 5 6 
#
# 1 0.018752 -0.007067 -0.004467 0.000000 0.000000 0.000000
# 2 -0.007067 0.018752 -0.004467 0.000000 0.000000 0.000000
# 3 -0.004467 -0.004467 0.011623 0.000000 0.000000 0.000000
# 4 0.000000 0.000000 0.000000 0.046980 0.000000 0.000000
# 5 0.000000 0.000000 0.000000 0.000000 0.046980 0.000000
# 6 0.000000 0.000000 0.000000 0.000000 0.000000 0.026290
#
#
# Mechanical properties :
#
#
# Convention : Reuss Voigt Hill
#
# Bulk Modulus (GPa) = 58.39118 61.16647 59.77883
# Shear Modulus (GPa) = 24.14430 25.94681 25.04556
#
# Velocity S-wave (km/s) = 3.59772 3.72960 3.66425
# Velocity P-wave (km/s) = 6.96859 7.16501 7.06748
#
# Compressibility (1/GPa) = 0.01712588
#
# Stress axis : x y z
#
# Youngs Moduli (GPa) = 53.32650 53.32650 86.03788
#
# Poissons Ratio (x) = 0.37687 0.38431
# Poissons Ratio (y) = 0.37687 0.38431
# Poissons Ratio (z) = 0.23820 0.23820
#
# Static dielectric constant tensor:
#      x y z
#    x 3.350450 0.000000 0.000000 
#    y 0.000000 3.350450 0.000000 
#    z 0.000000 0.000000 3.619010 
# 
# 
# High freq. dielectric constant tensor:
#      x y z
#    x 1.702010 0.000000 0.000000 
#    y 0.000000 1.702010 0.000000 
#    z 0.000000 0.000000 1.740700 
# 
# From -- ./inp_files/1760.got.cif
#   From: 2010.03.12/outbox.cif.g09.slc.cpg/sg110_1_cif.got.tgz:1760.got - 2010.04.14 01:58:01.
