data_PCOD8308097
_publ_section_title
;
Structure prediction by ZEFSAII (Michael W. Deem and Ramdas Pophale) SiO2 
 PCOD8308097
Probable space group: P -4 2 M 
;
_chemical_formula_sum "Si O2"
_cell_formula_units_Z 64
_cell_length_a 18.309070
_cell_length_b 18.309070
_cell_length_c 11.736527
_cell_angle_alpha 90.000000
_cell_angle_beta 90.000000
_cell_angle_gamma 90.000000
_cell_volume 3934.342574
_symmetry_space_group_name_H-M "P -4 2 M "
_symmetry_group_IT_number 111
_symmetry_cell_setting 'tetragonal'
loop_
_space_group_symop_operation_xyz
x,y,z
y,-x,-z
-x,-y,z
-y,x,-z
x,-y,-z
-x,y,-z
-y,-x,z
y,x,z
loop_
_atom_site_type_symbol
_atom_site_label
_atom_site_fract_x
_atom_site_fract_y
_atom_site_fract_z
Si Si1 0.008451 0.415766 0.322408
Si Si2 0.339804 0.222951 0.663955
Si Si3 0.825421 0.707842 0.088244
Si Si4 0.710444 0.593466 0.102958
Si Si5 0.250251 0.864384 0.159344
Si Si6 0.118849 0.415361 0.504966
Si Si7 0.569005 0.687318 0.839838
Si Si8 0.306720 0.013347 0.127279
O O1 0.086741 0.394412 0.380281
O O2 0.998451 0.376288 0.203921
O O3 0.000000 0.500000 0.294427
O O4 0.943624 0.394381 0.406076
O O5 0.287396 0.287396 0.623072
O O6 0.294876 0.160986 0.730328
O O7 0.372871 0.191036 0.546331
O O8 0.401321 0.254807 0.748424
O O9 0.774278 0.774278 0.128000
O O10 0.789558 0.630660 0.130037
O O11 0.904337 0.721841 0.145863
O O12 0.833625 0.707332 0.951282
O O13 0.647588 0.647588 0.144154
O O14 0.691577 0.518983 0.170618
O O15 0.711253 0.586661 0.967210
O O16 0.168136 0.831865 0.162759
O O17 0.244456 0.952888 0.157159
O O18 0.138453 0.500000 0.500000
O O19 0.606774 0.606774 0.818686
O O20 0.334818 0.000000 0.000000
#
# Coordination Sequence:
#
# PCOD8308097 Si02
#       8
#     8   8   8   8   8   8   8   8
#     4   9  18  32  46  65  94 129 159 192 242 295
#     4  10  17  29  51  72  89 117 167 218 247 284
#     4   9  17  30  44  65 100 138 164 189 246 302
#     4   9  16  27  41  62  95 133 166 201 256 308
#     4   9  16  29  48  69  96 124 160 210 246 283
#     4   9  18  32  49  63  90 128 158 196 249 297
#     4   9  17  27  43  66  91 124 167 214 255 291
#     4  10  19  30  48  74  99 129 166 199 235 296
#
# _framework density 16.267012999999999
#
# number of rings (size 3 to 8) (size 9 to 14) (size 15 to 20)
#    0.000    2.750    2.500    0.750    0.000    2.500 
#    0.000    1.875    0.000    1.125    0.000    2.625 
#    0.000    0.000    0.000    0.000    0.000    0.000 
#
# Total GULP energy -792836.284762 kJ/mol
# GULP energy per Si atom -12388.066949 kJ/mol
# Density = 1.622999 g / cm^3
# Si number density = 16.267013 Si / 1000 Ang^3
#
#
#
# Elastic Constant Matrix: (Units=GPa)
#
#
# Indices 1 2 3 4 5 6 
#
# 1 111.8725 58.7291 31.8157 0.0000 0.0000 0.0000
# 2 58.7291 111.8720 31.8158 0.0000 0.0000 0.0000
# 3 31.8157 31.8158 49.9412 0.0000 0.0000 0.0000
# 4 0.0000 0.0000 0.0000 19.7909 0.0000 0.0000
# 5 0.0000 0.0000 0.0000 0.0000 19.7910 0.0000
# 6 0.0000 0.0000 0.0000 0.0000 0.0000 19.3379
#
#
#
# Elastic Compliance Matrix: (Units=1/GPa)
#
#
# Indices 1 2 3 4 5 6 
#
# 1 0.013253 -0.005564 -0.004898 0.000000 0.000000 0.000000
# 2 -0.005564 0.013253 -0.004898 0.000000 0.000000 0.000000
# 3 -0.004898 -0.004898 0.026264 0.000000 0.000000 0.000000
# 4 0.000000 0.000000 0.000000 0.050528 0.000000 0.000000
# 5 0.000000 0.000000 0.000000 0.000000 0.050528 0.000000
# 6 0.000000 0.000000 0.000000 0.000000 0.000000 0.051712
#
#
# Mechanical properties :
#
#
# Convention : Reuss Voigt Hill
#
# Bulk Modulus (GPa) = 45.35343 57.60077 51.47710
# Shear Modulus (GPa) = 20.52472 21.87231 21.19851
#
# Velocity S-wave (km/s) = 3.55595 3.67083 3.61385
# Velocity P-wave (km/s) = 6.69334 7.31116 7.00906
#
# Compressibility (1/GPa) = 0.02204905
#
# Stress axis : x y z
#
# Youngs Moduli (GPa) = 75.45596 75.45546 38.07443
#
# Poissons Ratio (x) = 0.41986 0.18649
# Poissons Ratio (y) = 0.41986 0.18649
# Poissons Ratio (z) = 0.36959 0.36959
#
# Static dielectric constant tensor:
#      x y z
#    x 3.133770 0.000000 0.000000 
#    y 0.000000 3.133770 0.000000 
#    z 0.000000 0.000000 2.915220 
# 
# 
# High freq. dielectric constant tensor:
#      x y z
#    x 1.615940 0.000000 0.000000 
#    y 0.000000 1.615940 0.000000 
#    z 0.000000 0.000000 1.601120 
# 
# From -- ./inp_files/2912.got.cif
#   From: 2010.03.12/outbox.cif.g09.slc.cpg/sg111_2_cif.got.tgz:2912.got - 2010.04.14 01:59:48.
