data_PCOD8308701
_publ_section_title
;
Structure prediction by ZEFSAII (Michael W. Deem and Ramdas Pophale) SiO2 
 PCOD8308701
Probable space group: P -4 21 M 
;
_chemical_formula_sum "Si O2"
_cell_formula_units_Z 24
_cell_length_a 12.910231
_cell_length_b 12.910231
_cell_length_c 7.547263
_cell_angle_alpha 90.000000
_cell_angle_beta 90.000000
_cell_angle_gamma 90.000000
_cell_volume 1257.933000
_symmetry_space_group_name_H-M "P -4 21 M "
_symmetry_group_IT_number 113
_symmetry_cell_setting 'tetragonal'
loop_
_space_group_symop_operation_xyz
x,y,z
y,-x,-z
-x,-y,z
-y,x,-z
1/2+x,1/2-y,-z
1/2-x,1/2+y,-z
1/2-y,1/2-x,z
1/2+y,1/2+x,z
loop_
_atom_site_type_symbol
_atom_site_label
_atom_site_fract_x
_atom_site_fract_y
_atom_site_fract_z
Si Si1 0.256718 0.926906 0.160369
Si Si2 0.668323 0.509103 0.485200
Si Si3 0.241130 0.088793 0.859951
O O1 0.357912 0.857912 0.133301
O O2 0.251487 0.964299 0.363456
O O3 0.152233 0.864928 0.110902
O O4 0.266492 0.026404 0.036571
O O5 0.605492 0.407870 0.546684
O O6 0.509937 0.729723 0.696391
O O7 0.334042 0.165959 0.814422
#
# Coordination Sequence:
#
# PCOD8308701 Si02
#       3
#     8   8   8
#     4  10  21  36  55  80 109 141 177 218 264 314
#     4   9  18  34  56  79 104 138 180 223 264 309
#     4  10  21  36  55  80 109 141 177 218 264 314
#
# _framework density 19.078916
#
# number of rings (size 3 to 8) (size 9 to 14) (size 15 to 20)
#    0.000    2.333    0.000    2.000    0.000    6.667 
#    0.000    6.667    0.000    0.000    0.000    0.000 
#    0.000    0.000    0.000    0.000    0.000    0.000 
#
# Total GULP energy -297731.943338 kJ/mol
# GULP energy per Si atom -12405.497639 kJ/mol
# Density = 1.903549 g / cm^3
# Si number density = 19.078916 Si / 1000 Ang^3
#
#
#
# Elastic Constant Matrix: (Units=GPa)
#
#
# Indices 1 2 3 4 5 6 
#
# 1 51.2231 8.1085 17.9422 0.0000 0.0000 0.0000
# 2 8.1085 51.2210 17.9415 0.0000 0.0000 0.0000
# 3 17.9422 17.9415 64.4900 0.0000 0.0000 0.0000
# 4 0.0000 0.0000 0.0000 20.2443 0.0000 0.0000
# 5 0.0000 0.0000 0.0000 0.0000 20.2433 0.0000
# 6 0.0000 0.0000 0.0000 0.0000 0.0000 16.9436
#
#
#
# Elastic Compliance Matrix: (Units=1/GPa)
#
#
# Indices 1 2 3 4 5 6 
#
# 1 0.021729 -0.001465 -0.005638 0.000000 0.000000 0.000000
# 2 -0.001465 0.021730 -0.005638 0.000000 0.000000 0.000000
# 3 -0.005638 -0.005638 0.018643 0.000000 0.000000 0.000000
# 4 0.000000 0.000000 0.000000 0.049397 0.000000 0.000000
# 5 0.000000 0.000000 0.000000 0.000000 0.049399 0.000000
# 6 0.000000 0.000000 0.000000 0.000000 0.000000 0.059019
#
#
# Mechanical properties :
#
#
# Convention : Reuss Voigt Hill
#
# Bulk Modulus (GPa) = 27.30670 28.32428 27.81549
# Shear Modulus (GPa) = 19.40951 19.68237 19.54594
#
# Velocity S-wave (km/s) = 3.19302 3.21538 3.20422
# Velocity P-wave (km/s) = 5.28558 5.35378 5.31979
#
# Compressibility (1/GPa) = 0.03662105
#
# Stress axis : x y z
#
# Youngs Moduli (GPa) = 46.02117 46.01945 53.63860
#
# Poissons Ratio (x) = 0.06742 0.30241
# Poissons Ratio (y) = 0.06742 0.30240
# Poissons Ratio (z) = 0.25946 0.25945
#
# Static dielectric constant tensor:
#      x y z
#    x 3.406320 0.000000 0.000000 
#    y 0.000000 3.406320 0.000000 
#    z 0.000000 0.000000 3.429290 
# 
# 
# High freq. dielectric constant tensor:
#      x y z
#    x 1.734050 0.000000 0.000000 
#    y 0.000000 1.734050 0.000000 
#    z 0.000000 0.000000 1.747050 
# 
# From -- ./inp_files/118.got.cif
#   From: 2010.03.12/outbox.cif.g09.slc.cpg/sg113_cif.got.tgz:118.got - 2010.04.14 02:06:34.
