data_PCOD8308852
_publ_section_title
;
Structure prediction by ZEFSAII (Michael W. Deem and Ramdas Pophale) SiO2 
 PCOD8308852
Probable space group: P -4 21 C
;
_chemical_formula_sum "Si O2"
_cell_formula_units_Z 44
_cell_length_a 8.932618
_cell_length_b 8.932618
_cell_length_c 27.317766
_cell_angle_alpha 90.000000
_cell_angle_beta 90.000000
_cell_angle_gamma 90.000000
_cell_volume 2179.730015
_symmetry_space_group_name_H-M "P -4 21 C"
_symmetry_group_IT_number 114
_symmetry_cell_setting 'tetragonal'
loop_
_space_group_symop_operation_xyz
x,y,z
y,-x,-z
-x,-y,z
-y,x,-z
1/2+x,1/2-y,1/2-z
1/2-x,1/2+y,1/2-z
1/2-y,1/2-x,1/2+z
1/2+y,1/2+x,1/2+z
loop_
_atom_site_type_symbol
_atom_site_label
_atom_site_fract_x
_atom_site_fract_y
_atom_site_fract_z
Si Si1 0.500000 0.500000 0.748619
Si Si2 0.523884 0.753597 0.826310
Si Si3 0.854536 0.781361 0.071212
Si Si4 0.480056 0.330634 0.931565
Si Si5 0.533166 0.241762 0.327019
Si Si6 0.413516 0.153405 0.497217
O O1 0.540433 0.644643 0.780510
O O2 0.354794 0.513168 0.715187
O O3 0.570267 0.659571 0.874938
O O4 0.355949 0.817085 0.818966
O O5 0.635690 0.891354 0.829693
O O6 0.774051 0.622837 0.074182
O O7 0.928144 0.831064 0.122632
O O8 0.992141 0.769920 0.034127
O O9 0.729514 0.894645 0.050501
O O10 0.500000 0.500000 0.951541
O O11 0.368370 0.247284 0.969638
O O12 0.500000 0.000000 0.506265
#
# Coordination Sequence:
#
# PCOD8308852 Si02
#       6
#     4   8   8   8   8   8
#     4  12  22  36  64  95 115 160 218 258 308 370
#     4  10  20  41  62  86 120 163 204 256 313 377
#     4  10  22  39  60  84 128 169 197 257 325 381
#     4  10  20  36  62  91 115 157 215 267 305 367
#     4  10  22  40  61  87 127 161 204 249 322 384
#     4  10  22  38  60  92 122 161 213 255 315 384
#
# _framework density 20.185986
#
# number of rings (size 3 to 8) (size 9 to 14) (size 15 to 20)
#    0.000    1.818    2.727    1.091    5.091    1.818 
#    0.000    0.000    8.000    0.000    0.000    0.000 
#    0.000    0.000    0.000    0.000    0.000    0.000 
#
# Total GULP energy -545105.328093 kJ/mol
# GULP energy per Si atom -12388.757457 kJ/mol
# Density = 2.014004 g / cm^3
# Si number density = 20.185986 Si / 1000 Ang^3
#
#
#
# Elastic Constant Matrix: (Units=GPa)
#
#
# Indices 1 2 3 4 5 6 
#
# 1 78.6378 12.5931 41.2411 0.0000 0.0000 0.0000
# 2 12.5931 78.6378 41.2411 0.0000 0.0000 0.0000
# 3 41.2411 41.2411 136.3226 0.0000 0.0000 0.0000
# 4 0.0000 0.0000 0.0000 6.3806 0.0000 0.0000
# 5 0.0000 0.0000 0.0000 0.0000 6.3806 0.0000
# 6 0.0000 0.0000 0.0000 0.0000 0.0000 23.5467
#
#
#
# Elastic Compliance Matrix: (Units=1/GPa)
#
#
# Indices 1 2 3 4 5 6 
#
# 1 0.015115 -0.000027 -0.004565 0.000000 0.000000 0.000000
# 2 -0.000027 0.015115 -0.004565 0.000000 0.000000 0.000000
# 3 -0.004565 -0.004565 0.010097 0.000000 0.000000 0.000000
# 4 0.000000 0.000000 0.000000 0.156725 0.000000 0.000000
# 5 0.000000 0.000000 0.000000 0.000000 0.156725 0.000000
# 6 0.000000 0.000000 0.000000 0.000000 0.000000 0.042469
#
#
# Mechanical properties :
#
#
# Convention : Reuss Voigt Hill
#
# Bulk Modulus (GPa) = 45.42301 53.74983 49.58642
# Shear Modulus (GPa) = 11.85131 20.49645 16.17388
#
# Velocity S-wave (km/s) = 2.42566 3.18996 2.83369
# Velocity P-wave (km/s) = 5.51327 6.34452 5.94344
#
# Compressibility (1/GPa) = 0.02201527
#
# Stress axis : x y z
#
# Youngs Moduli (GPa) = 66.16108 66.16108 99.03642
#
# Poissons Ratio (x) = 0.00176 0.45205
# Poissons Ratio (y) = 0.00176 0.45205
# Poissons Ratio (z) = 0.30199 0.30199
#
# Static dielectric constant tensor:
#      x y z
#    x 3.806650 0.000000 0.000000 
#    y 0.000000 3.806650 0.000000 
#    z 0.000000 0.000000 3.894350 
# 
# 
# High freq. dielectric constant tensor:
#      x y z
#    x 1.783010 0.000000 0.000000 
#    y 0.000000 1.783010 0.000000 
#    z 0.000000 0.000000 1.795300 
# 
# From -- ./inp_files/3833.got.cif
#   From: 2010.03.12/outbox.cif.g09.slc.cpg/sg114_2_cif.got.tgz:3833.got - 2010.04.14 02:08:34.
