data_PCOD8308210
_publ_section_title
;
Structure prediction by ZEFSAII (Michael W. Deem and Ramdas Pophale) SiO2 
 PCOD8308210
Probable space group: P -4 2 M 
;
_chemical_formula_sum "Si O2"
_cell_formula_units_Z 56
_cell_length_a 14.273622
_cell_length_b 14.273622
_cell_length_c 13.431795
_cell_angle_alpha 90.000000
_cell_angle_beta 90.000000
_cell_angle_gamma 90.000000
_cell_volume 2736.544014
_symmetry_space_group_name_H-M "P -4 2 M "
_symmetry_group_IT_number 111
_symmetry_cell_setting 'tetragonal'
loop_
_space_group_symop_operation_xyz
x,y,z
y,-x,-z
-x,-y,z
-y,x,-z
x,-y,-z
-x,y,-z
-y,-x,z
y,x,z
loop_
_atom_site_type_symbol
_atom_site_label
_atom_site_fract_x
_atom_site_fract_y
_atom_site_fract_z
Si Si1 0.914348 0.238892 0.730815
Si Si2 0.348624 0.098249 0.467928
Si Si3 0.714763 0.563279 0.418423
Si Si4 0.250861 0.401814 0.724517
Si Si5 0.603089 0.752308 0.958176
Si Si6 0.257643 0.104402 0.041259
Si Si7 0.112977 0.260195 0.664252
O O1 0.854912 0.145089 0.709618
O O2 0.894618 0.316962 0.647008
O O3 0.893415 0.278481 0.840433
O O4 0.024436 0.219053 0.722774
O O5 0.411455 0.190262 0.480133
O O6 0.259846 0.099776 0.544369
O O7 0.400821 0.000000 0.500000
O O8 0.659700 0.500000 0.500000
O O9 0.655405 0.655405 0.389971
O O10 0.734249 0.506205 0.317727
O O11 0.332381 0.332381 0.682837
O O12 0.146630 0.365113 0.694362
O O13 0.255565 0.407533 0.841487
O O14 0.666656 0.666656 0.999467
O O15 0.652113 0.850167 0.988155
O O16 0.500000 0.745038 0.000000
O O17 0.163746 0.163746 0.017036
O O18 0.242471 0.000000 0.000000
O O19 0.194285 0.194285 0.702005
#
# Coordination Sequence:
#
# PCOD8308210 Si02
#       7
#     8   8   8   8   8   8   8
#     4  10  21  36  59  92 121 156 209 259 307 363
#     4  10  22  40  61  88 123 164 204 246 298 370
#     4  12  24  39  63  93 128 163 203 255 312 371
#     4  10  22  40  60  88 123 164 209 252 314 384
#     4  10  23  42  64  89 121 163 210 263 320 375
#     4  10  22  41  64  91 125 163 207 262 319 374
#     4  10  19  37  60  84 124 168 201 246 307 373
#
# _framework density 20.463768000000002
#
# number of rings (size 3 to 8) (size 9 to 14) (size 15 to 20)
#    0.000    1.714    1.429    2.571    2.000    4.429 
#    0.000    2.857    0.000    2.571    0.000    0.000 
#    0.000    0.000    0.000    0.000    0.000    0.000 
#
# Total GULP energy -694036.455419 kJ/mol
# GULP energy per Si atom -12393.508132 kJ/mol
# Density = 2.041719 g / cm^3
# Si number density = 20.463768 Si / 1000 Ang^3
#
#
#
# Elastic Constant Matrix: (Units=GPa)
#
#
# Indices 1 2 3 4 5 6 
#
# 1 121.4628 54.9893 36.6473 0.0000 0.0000 0.0000
# 2 54.9893 121.4615 36.6477 0.0000 0.0000 0.0000
# 3 36.6473 36.6477 88.0391 0.0000 0.0000 0.0000
# 4 0.0000 0.0000 0.0000 30.0532 0.0000 0.0000
# 5 0.0000 0.0000 0.0000 0.0000 30.0532 0.0000
# 6 0.0000 0.0000 0.0000 0.0000 0.0000 14.9530
#
#
#
# Elastic Compliance Matrix: (Units=1/GPa)
#
#
# Indices 1 2 3 4 5 6 
#
# 1 0.010948 -0.004096 -0.002852 0.000000 0.000000 0.000000
# 2 -0.004096 0.010948 -0.002852 0.000000 0.000000 0.000000
# 3 -0.002852 -0.002852 0.013733 0.000000 0.000000 0.000000
# 4 0.000000 0.000000 0.000000 0.033274 0.000000 0.000000
# 5 0.000000 0.000000 0.000000 0.000000 0.033274 0.000000
# 6 0.000000 0.000000 0.000000 0.000000 0.000000 0.066876
#
#
# Mechanical properties :
#
#
# Convention : Reuss Voigt Hill
#
# Bulk Modulus (GPa) = 62.38988 65.28133 63.83561
# Shear Modulus (GPa) = 25.77353 28.52380 27.14867
#
# Velocity S-wave (km/s) = 3.55275 3.73751 3.64630
# Velocity P-wave (km/s) = 6.88357 7.11305 6.99925
#
# Compressibility (1/GPa) = 0.01602824
#
# Stress axis : x y z
#
# Youngs Moduli (GPa) = 91.34241 91.34102 72.81636
#
# Poissons Ratio (x) = 0.37412 0.20769
# Poissons Ratio (y) = 0.37412 0.20770
# Poissons Ratio (z) = 0.26053 0.26054
#
# Static dielectric constant tensor:
#      x y z
#    x 3.762040 0.000000 0.000000 
#    y 0.000000 3.762040 0.000000 
#    z 0.000000 0.000000 3.841630 
# 
# 
# High freq. dielectric constant tensor:
#      x y z
#    x 1.793990 0.000000 0.000000 
#    y 0.000000 1.793990 0.000000 
#    z 0.000000 0.000000 1.811280 
# 
# From -- ./inp_files/2823.got.cif
#   From: 2010.03.12/outbox.cif.g09.slc.cpg/sg111_2_cif.got.tgz:2823.got - 2010.04.14 01:59:48.
