data_PCOD8308206
_publ_section_title
;
Structure prediction by ZEFSAII (Michael W. Deem and Ramdas Pophale) SiO2 
 PCOD8308206
Probable space group: P -4 2 M 
;
_chemical_formula_sum "Si O2"
_cell_formula_units_Z 64
_cell_length_a 12.532557
_cell_length_b 12.532557
_cell_length_c 22.191632
_cell_angle_alpha 90.000000
_cell_angle_beta 90.000000
_cell_angle_gamma 90.000000
_cell_volume 3485.528346
_symmetry_space_group_name_H-M "P -4 2 M "
_symmetry_group_IT_number 111
_symmetry_cell_setting 'tetragonal'
loop_
_space_group_symop_operation_xyz
x,y,z
y,-x,-z
-x,-y,z
-y,x,-z
x,-y,-z
-x,y,-z
-y,-x,z
y,x,z
loop_
_atom_site_type_symbol
_atom_site_label
_atom_site_fract_x
_atom_site_fract_y
_atom_site_fract_z
Si Si1 0.557365 0.109461 0.865362
Si Si2 0.218375 0.396816 0.674221
Si Si3 0.227513 0.403361 0.537267
Si Si4 0.207899 0.612678 0.740632
Si Si5 0.750329 0.418003 0.049782
Si Si6 0.724846 0.105211 0.967876
Si Si7 0.990043 0.375081 0.658927
Si Si8 0.912473 0.737738 0.458783
O O1 0.606549 0.172321 0.809545
O O2 0.475366 0.192471 0.894888
O O3 0.651254 0.077130 0.910970
O O4 0.500000 0.000000 0.844667
O O5 0.311251 0.311251 0.682869
O O6 0.202569 0.439325 0.605471
O O7 0.246355 0.497353 0.716372
O O8 0.103537 0.343133 0.690344
O O9 0.279334 0.500000 0.500000
O O10 0.309347 0.309347 0.542162
O O11 0.125930 0.362552 0.499406
O O12 0.304564 0.695437 0.732989
O O13 0.105441 0.652617 0.703948
O O14 0.651000 0.349001 0.074810
O O15 0.705372 0.500000 0.000000
O O16 0.836201 0.343494 0.018244
O O17 0.823716 0.176285 0.945468
O O18 0.770252 0.000000 0.000000
O O19 0.970747 0.305042 0.600135
O O20 0.000000 0.500000 0.643577
O O21 0.816866 0.816866 0.440842
O O22 0.000000 0.799000 0.500000
#
# Coordination Sequence:
#
# PCOD8308206 Si02
#       8
#     8   8   8   8   8   8   8   8
#     4  11  20  36  61  84 113 153 198 239 278 329
#     4  10  21  38  58  81 111 148 191 240 292 346
#     4  10  20  33  52  80 111 143 182 229 283 347
#     4  11  24  40  57  85 115 148 197 244 289 338
#     4   9  19  33  54  84 118 153 190 229 277 331
#     4  10  19  34  57  87 120 155 185 227 279 331
#     4  10  20  37  60  82 110 149 189 234 284 340
#     4  11  22  34  54  82 111 142 178 229 286 344
#
# _framework density 18.361635
#
# number of rings (size 3 to 8) (size 9 to 14) (size 15 to 20)
#    0.000    1.750    2.500    3.375    0.000    3.250 
#    0.000    1.250    0.000    1.125    0.000    0.000 
#    0.000    0.000    0.000    0.000    0.000    0.000 
#
# Total GULP energy -793441.622148 kJ/mol
# GULP energy per Si atom -12397.525346 kJ/mol
# Density = 1.831984 g / cm^3
# Si number density = 18.361635 Si / 1000 Ang^3
#
#
#
# Elastic Constant Matrix: (Units=GPa)
#
#
# Indices 1 2 3 4 5 6 
#
# 1 86.0517 49.8664 45.0093 0.0000 0.0000 0.0000
# 2 49.8664 86.0518 45.0086 0.0000 0.0000 0.0000
# 3 45.0093 45.0086 78.9229 0.0000 0.0000 0.0000
# 4 0.0000 0.0000 0.0000 21.4762 0.0000 0.0000
# 5 0.0000 0.0000 0.0000 0.0000 21.4754 0.0000
# 6 0.0000 0.0000 0.0000 0.0000 0.0000 95.3577
#
#
#
# Elastic Compliance Matrix: (Units=1/GPa)
#
#
# Indices 1 2 3 4 5 6 
#
# 1 0.019729 -0.007906 -0.006743 0.000000 0.000000 0.000000
# 2 -0.007906 0.019729 -0.006742 0.000000 0.000000 0.000000
# 3 -0.006743 -0.006742 0.020361 0.000000 0.000000 0.000000
# 4 0.000000 0.000000 0.000000 0.046563 0.000000 0.000000
# 5 0.000000 0.000000 0.000000 0.000000 0.046565 0.000000
# 6 0.000000 0.000000 0.000000 0.000000 0.000000 0.010487
#
#
# Mechanical properties :
#
#
# Convention : Reuss Voigt Hill
#
# Bulk Modulus (GPa) = 58.69648 58.97721 58.83685
# Shear Modulus (GPa) = 23.59653 35.07134 29.33394
#
# Velocity S-wave (km/s) = 3.58872 4.37513 4.00129
# Velocity P-wave (km/s) = 7.01485 7.59684 7.31164
#
# Compressibility (1/GPa) = 0.01703680
#
# Stress axis : x y z
#
# Youngs Moduli (GPa) = 50.68600 50.68671 49.11367
#
# Poissons Ratio (x) = 0.40074 0.33116
# Poissons Ratio (y) = 0.40074 0.33114
# Poissons Ratio (z) = 0.34176 0.34174
#
# Static dielectric constant tensor:
#      x y z
#    x 3.409600 0.000000 0.000000 
#    y 0.000000 3.409610 0.000000 
#    z 0.000000 0.000000 3.255010 
# 
# 
# High freq. dielectric constant tensor:
#      x y z
#    x 1.709520 0.000000 0.000000 
#    y 0.000000 1.709520 0.000000 
#    z 0.000000 0.000000 1.707480 
# 
# From -- ./inp_files/4242.got.cif
#   From: 2010.03.12/outbox.cif.g09.slc.cpg/sg111_3_cif.got.tgz:4242.got - 2010.04.14 01:59:48.
