data_PCOD8308140
_publ_section_title
;
Structure prediction by ZEFSAII (Michael W. Deem and Ramdas Pophale) SiO2 
 PCOD8308140
Probable space group: P -4 2 M 
;
_chemical_formula_sum "Si O2"
_cell_formula_units_Z 48
_cell_length_a 13.880621
_cell_length_b 13.880621
_cell_length_c 15.396874
_cell_angle_alpha 90.000000
_cell_angle_beta 90.000000
_cell_angle_gamma 90.000000
_cell_volume 2966.540954
_symmetry_space_group_name_H-M "P -4 2 M "
_symmetry_group_IT_number 111
_symmetry_cell_setting 'tetragonal'
loop_
_space_group_symop_operation_xyz
x,y,z
y,-x,-z
-x,-y,z
-y,x,-z
x,-y,-z
-x,y,-z
-y,-x,z
y,x,z
loop_
_atom_site_type_symbol
_atom_site_label
_atom_site_fract_x
_atom_site_fract_y
_atom_site_fract_z
Si Si1 0.888991 0.610559 0.166731
Si Si2 0.730702 0.113155 0.335799
Si Si3 0.610559 0.888991 0.833270
Si Si4 0.730701 0.886845 0.335799
Si Si5 0.612623 0.767651 0.000000
Si Si6 0.392189 0.885832 0.500000
O O1 0.868230 0.500000 0.191904
O O2 0.859662 0.675681 0.247869
O O3 1.000000 0.624803 0.141586
O O4 0.827532 0.643865 0.084371
O O5 0.832339 0.167662 0.338753
O O6 0.675682 0.140338 0.247869
O O7 0.664249 0.149357 0.414827
O O8 0.753008 1.000000 0.342588
O O9 0.643865 0.827532 0.915630
O O10 0.832337 0.832337 0.338753
O O11 0.664249 0.850643 0.414827
O O12 0.665912 0.665912 0.000000
O O13 0.500000 0.745692 0.000000
O O14 0.500000 0.841295 0.500000
O O15 0.400015 0.000000 0.500000
#
# Coordination Sequence:
#
# PCOD8308140 Si02
#       6
#     8   8   8   8   8   8
#     4   9  17  30  48  68  88 112 146 189 231 263
#     4  10  19  30  45  66  93 122 149 178 214 261
#     4   9  17  30  48  68  88 112 146 189 231 263
#     4  10  19  30  45  66  93 122 149 178 214 261
#     4  10  19  30  45  65  90 118 147 181 222 271
#     4   9  17  30  47  65  85 111 145 185 223 252
#
# _framework density 16.180461000000001
#
# number of rings (size 3 to 8) (size 9 to 14) (size 15 to 20)
#    0.000    2.500    0.000    3.000    0.000    6.500 
#    0.000    0.000    0.000    3.000    0.000    0.000 
#    0.000   37.333    0.000    0.000    0.000    0.000 
#
# Total GULP energy -595260.705522 kJ/mol
# GULP energy per Si atom -12401.264698 kJ/mol
# Density = 1.614363 g / cm^3
# Si number density = 16.180461 Si / 1000 Ang^3
#
#
#
# Elastic Constant Matrix: (Units=GPa)
#
#
# Indices 1 2 3 4 5 6 
#
# 1 75.9752 53.3909 58.8115 0.0000 0.0000 0.0000
# 2 53.3909 75.9775 58.8119 0.0000 0.0000 0.0000
# 3 58.8115 58.8119 144.0020 0.0000 0.0000 0.0000
# 4 0.0000 0.0000 0.0000 16.5034 0.0000 0.0000
# 5 0.0000 0.0000 0.0000 0.0000 16.5042 0.0000
# 6 0.0000 0.0000 0.0000 0.0000 0.0000 27.7721
#
#
#
# Elastic Compliance Matrix: (Units=1/GPa)
#
#
# Indices 1 2 3 4 5 6 
#
# 1 0.028287 -0.015990 -0.005022 0.000000 0.000000 0.000000
# 2 -0.015990 0.028285 -0.005022 0.000000 0.000000 0.000000
# 3 -0.005022 -0.005022 0.011046 0.000000 0.000000 0.000000
# 4 0.000000 0.000000 0.000000 0.060594 0.000000 0.000000
# 5 0.000000 0.000000 0.000000 0.000000 0.060591 0.000000
# 6 0.000000 0.000000 0.000000 0.000000 0.000000 0.036007
#
#
# Mechanical properties :
#
#
# Convention : Reuss Voigt Hill
#
# Bulk Modulus (GPa) = 64.30498 70.88701 67.59600
# Shear Modulus (GPa) = 17.72669 20.48531 19.10600
#
# Velocity S-wave (km/s) = 3.31352 3.56202 3.44001
# Velocity P-wave (km/s) = 7.38023 7.79889 7.59245
#
# Compressibility (1/GPa) = 0.01555090
#
# Stress axis : x y z
#
# Youngs Moduli (GPa) = 35.35251 35.35387 90.52925
#
# Poissons Ratio (x) = 0.56532 0.45462
# Poissons Ratio (y) = 0.56529 0.45460
# Poissons Ratio (z) = 0.17754 0.17753
#
# Static dielectric constant tensor:
#      x y z
#    x 2.896670 0.000000 0.000000 
#    y 0.000000 2.896670 0.000000 
#    z 0.000000 0.000000 3.252180 
# 
# 
# High freq. dielectric constant tensor:
#      x y z
#    x 1.606530 0.000000 0.000000 
#    y 0.000000 1.606530 0.000000 
#    z 0.000000 0.000000 1.641320 
# 
# From -- ./inp_files/3270.got.cif
#   From: 2010.03.12/outbox.cif.g09.slc.cpg/sg111_2_cif.got.tgz:3270.got - 2010.04.14 01:59:48.
