data_PCOD8308952
_publ_section_title
;
Structure prediction by ZEFSAII (Michael W. Deem and Ramdas Pophale) SiO2 
 PCOD8308952
Probable space group: P -4 21 C
;
_chemical_formula_sum "Si O2"
_cell_formula_units_Z 48
_cell_length_a 8.839031
_cell_length_b 8.839031
_cell_length_c 28.946407
_cell_angle_alpha 90.000000
_cell_angle_beta 90.000000
_cell_angle_gamma 90.000000
_cell_volume 2261.538463
_symmetry_space_group_name_H-M "P -4 21 C"
_symmetry_group_IT_number 114
_symmetry_cell_setting 'tetragonal'
loop_
_space_group_symop_operation_xyz
x,y,z
y,-x,-z
-x,-y,z
-y,x,-z
1/2+x,1/2-y,1/2-z
1/2-x,1/2+y,1/2-z
1/2-y,1/2-x,1/2+z
1/2+y,1/2+x,1/2+z
loop_
_atom_site_type_symbol
_atom_site_label
_atom_site_fract_x
_atom_site_fract_y
_atom_site_fract_z
Si Si1 0.157272 0.811002 0.993608
Si Si2 0.648115 0.097611 0.654070
Si Si3 0.324272 0.002623 0.243328
Si Si4 0.210665 0.187142 0.689882
Si Si5 0.334990 0.194776 0.914249
Si Si6 0.821102 0.658509 0.598071
O O1 0.227609 0.768673 0.944128
O O2 0.222641 0.694526 0.031440
O O3 0.977422 0.795100 0.989558
O O4 0.598478 0.201373 0.697249
O O5 0.720134 0.200019 0.614285
O O6 0.500000 0.000000 0.637221
O O7 0.778912 0.984847 0.672453
O O8 0.223437 0.951538 0.287032
O O9 0.500000 0.000000 0.258294
O O10 0.273515 0.171468 0.230653
O O11 0.249699 0.293089 0.646460
O O12 0.509786 0.227314 0.903869
O O13 0.303768 0.020661 0.903055
#
# Coordination Sequence:
#
# PCOD8308952 Si02
#       6
#     8   8   8   8   8   8
#     4   9  20  39  63  92 126 163 214 263 315 383
#     4   9  22  42  62  93 123 166 214 264 324 377
#     4   9  22  41  60  89 124 162 211 266 310 369
#     4  10  22  41  64  90 127 166 217 257 322 386
#     4  10  22  41  64  91 133 166 205 269 320 382
#     4  10  23  39  63  95 126 170 211 260 324 387
#
# _framework density 21.224488000000001
#
# number of rings (size 3 to 8) (size 9 to 14) (size 15 to 20)
#    0.000    2.833    0.000    0.000    9.333    3.333 
#    6.000    6.667    0.000    0.000    0.000    0.000 
#    0.000    0.000    0.000    0.000    0.000    0.000 
#
# Total GULP energy -595007.633261 kJ/mol
# GULP energy per Si atom -12395.992360 kJ/mol
# Density = 2.117618 g / cm^3
# Si number density = 21.224488 Si / 1000 Ang^3
#
#
#
# Elastic Constant Matrix: (Units=GPa)
#
#
# Indices 1 2 3 4 5 6 
#
# 1 56.6618 36.5980 38.4594 0.0000 0.0000 0.0000
# 2 36.5980 56.6618 38.4594 0.0000 0.0000 0.0000
# 3 38.4594 38.4594 107.5806 0.0000 0.0000 0.0000
# 4 0.0000 0.0000 0.0000 32.6831 0.0000 0.0000
# 5 0.0000 0.0000 0.0000 0.0000 32.6831 0.0000
# 6 0.0000 0.0000 0.0000 0.0000 0.0000 33.6072
#
#
#
# Elastic Compliance Matrix: (Units=1/GPa)
#
#
# Indices 1 2 3 4 5 6 
#
# 1 0.032524 -0.017317 -0.005436 0.000000 0.000000 0.000000
# 2 -0.017317 0.032524 -0.005436 0.000000 0.000000 0.000000
# 3 -0.005436 -0.005436 0.013182 0.000000 0.000000 0.000000
# 4 0.000000 0.000000 0.000000 0.030597 0.000000 0.000000
# 5 0.000000 0.000000 0.000000 0.000000 0.030597 0.000000
# 6 0.000000 0.000000 0.000000 0.000000 0.000000 0.029756
#
#
# Mechanical properties :
#
#
# Convention : Reuss Voigt Hill
#
# Bulk Modulus (GPa) = 45.76620 49.77086 47.76853
# Shear Modulus (GPa) = 21.47386 26.95385 24.21386
#
# Velocity S-wave (km/s) = 3.18425 3.56749 3.38130
# Velocity P-wave (km/s) = 5.92697 6.36160 6.14813
#
# Compressibility (1/GPa) = 0.02185019
#
# Stress axis : x y z
#
# Youngs Moduli (GPa) = 30.74690 30.74690 75.86008
#
# Poissons Ratio (x) = 0.53245 0.41239
# Poissons Ratio (y) = 0.53245 0.41239
# Poissons Ratio (z) = 0.16715 0.16715
#
# Static dielectric constant tensor:
#      x y z
#    x 3.699790 0.000000 0.000000 
#    y 0.000000 3.699790 0.000000 
#    z 0.000000 0.000000 3.827170 
# 
# 
# High freq. dielectric constant tensor:
#      x y z
#    x 1.821110 0.000000 0.000000 
#    y 0.000000 1.821110 0.000000 
#    z 0.000000 0.000000 1.839260 
# 
# From -- ./inp_files/3960.got.cif
#   From: 2010.03.12/outbox.cif.g09.slc.cpg/sg114_2_cif.got.tgz:3960.got - 2010.04.14 02:08:34.
