data_PCOD8308340
_publ_section_title
;
Structure prediction by ZEFSAII (Michael W. Deem and Ramdas Pophale) SiO2 
 PCOD8308340
Probable space group: P -4 2 C
;
_chemical_formula_sum "Si O2"
_cell_formula_units_Z 36
_cell_length_a 20.442381
_cell_length_b 20.442381
_cell_length_c 5.114287
_cell_angle_alpha 90.000000
_cell_angle_beta 90.000000
_cell_angle_gamma 90.000000
_cell_volume 2137.214207
_symmetry_space_group_name_H-M "P -4 2 C"
_symmetry_group_IT_number 112
_symmetry_cell_setting 'tetragonal'
loop_
_space_group_symop_operation_xyz
x,y,z
y,-x,-z
-x,-y,z
-y,x,-z
x,-y,1/2-z
-x,y,1/2-z
-y,-x,1/2+z
y,x,1/2+z
loop_
_atom_site_type_symbol
_atom_site_label
_atom_site_fract_x
_atom_site_fract_y
_atom_site_fract_z
Si Si1 0.649421 0.106528 0.317257
Si Si2 0.739702 0.787403 0.391047
Si Si3 0.153331 0.898061 0.048456
Si Si4 0.426475 0.075805 0.695175
Si Si5 0.754961 0.000000 0.250000
O O1 0.675737 0.174761 0.206869
O O2 0.617676 0.116982 0.601771
O O3 0.708437 0.055439 0.373704
O O4 0.595675 0.083450 0.105514
O O5 0.730687 0.754316 0.675276
O O6 0.800475 0.835401 0.429572
O O7 0.105180 0.894069 0.298662
O O8 0.197571 0.964156 0.040221
O O9 0.500000 0.099596 0.750000
O O10 0.418401 0.000000 0.750000
#
# Coordination Sequence:
#
# PCOD8308340 Si02
#       5
#     8   8   8   8   4
#     4  11  20  32  49  69  86 116 147 177 225 266
#     4   9  17  30  45  65  88 106 134 179 224 264
#     4   9  19  31  44  62  81 100 122 165 218 261
#     4  11  21  33  45  65  93 119 148 183 216 256
#     4  10  20  32  51  65  80 102 142 170 208 286
#
# _framework density 16.844356999999999
#
# number of rings (size 3 to 8) (size 9 to 14) (size 15 to 20)
#    0.000    2.000    2.222    2.000    0.000    9.778 
#    0.000    0.000    0.000    2.000    0.000    0.000 
#    0.000    0.000    0.000    0.000    0.000    0.000 
#
# Total GULP energy -446065.792778 kJ/mol
# GULP energy per Si atom -12390.716466 kJ/mol
# Density = 1.680602 g / cm^3
# Si number density = 16.844357 Si / 1000 Ang^3
#
#
#
# Elastic Constant Matrix: (Units=GPa)
#
#
# Indices 1 2 3 4 5 6 
#
# 1 41.1982 23.5749 9.1764 0.0000 0.0000 0.0000
# 2 23.5749 41.1982 9.1764 0.0000 0.0000 0.0000
# 3 9.1764 9.1764 84.3220 0.0000 0.0000 0.0000
# 4 0.0000 0.0000 0.0000 15.1843 0.0000 0.0000
# 5 0.0000 0.0000 0.0000 0.0000 15.1843 0.0000
# 6 0.0000 0.0000 0.0000 0.0000 0.0000 9.1954
#
#
#
# Elastic Compliance Matrix: (Units=1/GPa)
#
#
# Indices 1 2 3 4 5 6 
#
# 1 0.036336 -0.020407 -0.001734 0.000000 0.000000 0.000000
# 2 -0.020407 0.036336 -0.001734 0.000000 0.000000 0.000000
# 3 -0.001734 -0.001734 0.012237 0.000000 0.000000 0.000000
# 4 0.000000 0.000000 0.000000 0.065858 0.000000 0.000000
# 5 0.000000 0.000000 0.000000 0.000000 0.065858 0.000000
# 6 0.000000 0.000000 0.000000 0.000000 0.000000 0.108749
#
#
# Mechanical properties :
#
#
# Convention : Reuss Voigt Hill
#
# Bulk Modulus (GPa) = 26.90938 27.84153 27.37545
# Shear Modulus (GPa) = 12.96988 16.23219 14.60103
#
# Velocity S-wave (km/s) = 2.77787 3.10765 2.94738
# Velocity P-wave (km/s) = 5.12823 5.42598 5.27920
#
# Compressibility (1/GPa) = 0.03716177
#
# Stress axis : x y z
#
# Youngs Moduli (GPa) = 27.52069 27.52069 81.72192
#
# Poissons Ratio (x) = 0.56160 0.14167
# Poissons Ratio (y) = 0.56160 0.14167
# Poissons Ratio (z) = 0.04771 0.04771
#
# Static dielectric constant tensor:
#      x y z
#    x 2.962450 0.000000 0.000000 
#    y 0.000000 2.962450 0.000000 
#    z 0.000000 0.000000 3.547570 
# 
# 
# High freq. dielectric constant tensor:
#      x y z
#    x 1.606190 0.000000 0.000000 
#    y 0.000000 1.606190 0.000000 
#    z 0.000000 0.000000 1.668530 
# 
# From -- ./inp_files/262.got.cif
#   From: 2010.03.12/outbox.cif.g09.slc.cpg/sg112_1_cif.got.tgz:262.got - 2010.04.14 02:02:48.
