data_PCOD8308087
_publ_section_title
;
Structure prediction by ZEFSAII (Michael W. Deem and Ramdas Pophale) SiO2 
 PCOD8308087
Probable space group: I 41 C D
;
_chemical_formula_sum "Si O2"
_cell_formula_units_Z 48
_cell_length_a 19.090348
_cell_length_b 19.090348
_cell_length_c 4.742147
_cell_angle_alpha 90.000000
_cell_angle_beta 90.000000
_cell_angle_gamma 90.000000
_cell_volume 1728.234629
_symmetry_space_group_name_H-M "I 41 C D"
_symmetry_group_IT_number 110
_symmetry_cell_setting 'tetragonal'
loop_
_space_group_symop_operation_xyz
x,y,z
-y,1/2+x,1/4+z
-x,-y,z
y,1/2-x,1/4+z
-x,y,1/2+z
x,-y,1/2+z
1/2-y,-x,1/4+z
1/2+y,x,1/4+z
1/2+x,1/2+y,1/2+z
1/2-y,x,3/4+z
1/2-x,1/2-y,1/2+z
1/2+y,-x,3/4+z
1/2-x,1/2+y,z
1/2+x,1/2-y,z
-y,1/2-x,3/4+z
y,1/2+x,3/4+z
loop_
_atom_site_type_symbol
_atom_site_label
_atom_site_fract_x
_atom_site_fract_y
_atom_site_fract_z
Si Si1 0.048916 0.632213 0.658500
Si Si2 0.820290 0.453203 0.559107
Si Si3 0.241191 0.857627 0.647023
O O1 0.098905 0.570531 0.548591
O O2 0.091694 0.705610 0.661944
O O3 0.977925 0.628581 0.479882
O O4 0.807770 0.474122 0.886162
O O5 0.768100 0.395190 0.432115
O O6 0.180339 0.804167 0.737512
#
# Coordination Sequence:
#
# PCOD8308087 Si02
#       3
#    16  16  16
#     4  12  27  49  77 110 151 201 256 319 389 466
#     4  12  27  49  77 110 151 201 256 319 389 466
#     4  12  26  48  78 116 158 206 264 332 402 476
#
# _framework density 27.774004999999999
#
# number of rings (size 3 to 8) (size 9 to 14) (size 15 to 20)
#    0.000    0.000    0.000   10.000    0.000    9.333 
#    0.000    0.000    0.000    0.000    0.000    0.000 
#    0.000    0.000    0.000    0.000    0.000    0.000 
#
# Total GULP energy -297545.217563 kJ/mol
# GULP energy per Si atom -12397.717398 kJ/mol
# Density = 2.771079 g / cm^3
# Si number density = 27.774005 Si / 1000 Ang^3
#
#
#
# Elastic Constant Matrix: (Units=GPa)
#
#
# Indices 1 2 3 4 5 6 
#
# 1 97.6333 30.6626 23.6347 0.0000 0.0000 0.0000
# 2 30.6626 97.6333 23.6347 0.0000 0.0000 0.0000
# 3 23.6347 23.6347 113.7918 0.0000 0.0000 0.0000
# 4 0.0000 0.0000 0.0000 45.5757 0.0000 0.0000
# 5 0.0000 0.0000 0.0000 0.0000 45.5757 0.0000
# 6 0.0000 0.0000 0.0000 0.0000 0.0000 61.5146
#
#
#
# Elastic Compliance Matrix: (Units=1/GPa)
#
#
# Indices 1 2 3 4 5 6 
#
# 1 0.011686 -0.003246 -0.001753 0.000000 0.000000 0.000000
# 2 -0.003246 0.011686 -0.001753 0.000000 0.000000 0.000000
# 3 -0.001753 -0.001753 0.009516 0.000000 0.000000 0.000000
# 4 0.000000 0.000000 0.000000 0.021942 0.000000 0.000000
# 5 0.000000 0.000000 0.000000 0.000000 0.021942 0.000000
# 6 0.000000 0.000000 0.000000 0.000000 0.000000 0.016256
#
#
# Mechanical properties :
#
#
# Convention : Reuss Voigt Hill
#
# Bulk Modulus (GPa) = 51.58713 51.65802 51.62258
# Shear Modulus (GPa) = 44.25044 45.94163 45.09604
#
# Velocity S-wave (km/s) = 3.99586 4.07150 4.03386
# Velocity P-wave (km/s) = 6.31692 6.38300 6.35004
#
# Compressibility (1/GPa) = 0.01938468
#
# Stress axis : x y z
#
# Youngs Moduli (GPa) = 85.57142 85.57142 105.08382
#
# Poissons Ratio (x) = 0.27774 0.18422
# Poissons Ratio (y) = 0.27774 0.18422
# Poissons Ratio (z) = 0.15001 0.15001
#
# Static dielectric constant tensor:
#      x y z
#    x 5.173660 0.000000 0.000000 
#    y 0.000000 5.173660 0.000000 
#    z 0.000000 0.000000 4.888490 
# 
# 
# High freq. dielectric constant tensor:
#      x y z
#    x 2.136670 0.000000 0.000000 
#    y 0.000000 2.136670 0.000000 
#    z 0.000000 0.000000 2.134940 
# 
# From -- ./inp_files/54.got.cif
#   From: 2010.03.12/outbox.cif.g09.slc.cpg/sg110_1_cif.got.tgz:54.got - 2010.04.14 01:58:01.
