data_PCOD8308763
_publ_section_title
;
Structure prediction by ZEFSAII (Michael W. Deem and Ramdas Pophale) SiO2 
 PCOD8308763
Probable space group: P -4 21 M 
;
_chemical_formula_sum "Si O2"
_cell_formula_units_Z 40
_cell_length_a 10.724301
_cell_length_b 10.724301
_cell_length_c 15.722005
_cell_angle_alpha 90.000000
_cell_angle_beta 90.000000
_cell_angle_gamma 90.000000
_cell_volume 1808.197730
_symmetry_space_group_name_H-M "P -4 21 M "
_symmetry_group_IT_number 113
_symmetry_cell_setting 'tetragonal'
loop_
_space_group_symop_operation_xyz
x,y,z
y,-x,-z
-x,-y,z
-y,x,-z
1/2+x,1/2-y,-z
1/2-x,1/2+y,-z
1/2-y,1/2-x,z
1/2+y,1/2+x,z
loop_
_atom_site_type_symbol
_atom_site_label
_atom_site_fract_x
_atom_site_fract_y
_atom_site_fract_z
Si Si1 0.003428 0.696543 0.678400
Si Si2 0.594970 0.403899 0.204702
Si Si3 0.501334 0.195282 0.679609
Si Si4 0.300382 0.482011 0.497923
Si Si5 0.858204 0.849809 0.976063
O O1 0.893216 0.606785 0.708023
O O2 0.984617 0.824194 0.727953
O O3 0.001072 0.708398 0.576496
O O4 0.136595 0.636595 0.703815
O O5 0.500000 0.500000 0.160749
O O6 0.693068 0.486563 0.255606
O O7 0.653187 0.329324 0.126064
O O8 0.366208 0.133793 0.665604
O O9 0.557096 0.231779 0.588104
O O10 0.598211 0.098211 0.721031
O O11 0.371956 0.608136 0.474958
O O12 0.754500 0.745501 0.011783
O O13 0.004105 0.820954 0.002693
#
# Coordination Sequence:
#
# PCOD8308763 Si02
#       5
#     8   8   8   8   8
#     4  11  24  40  62  95 132 176 229 281 336 399
#     4  12  24  45  71  98 136 179 223 279 342 409
#     4  11  24  40  62  95 132 176 229 281 336 399
#     4  11  22  37  58  88 128 179 229 278 338 394
#     4  11  25  50  79 111 147 187 232 290 360 436
#
# _framework density 22.121473999999999
#
# number of rings (size 3 to 8) (size 9 to 14) (size 15 to 20)
#    0.000    0.800    4.000    4.200    0.000    8.400 
#    0.000    0.000    0.000    0.000    0.000    0.000 
#    0.000    0.000    0.000    0.000    0.000    0.000 
#
# Total GULP energy -495709.637579 kJ/mol
# GULP energy per Si atom -12392.740939 kJ/mol
# Density = 2.207112 g / cm^3
# Si number density = 22.121474 Si / 1000 Ang^3
#
#
#
# Elastic Constant Matrix: (Units=GPa)
#
#
# Indices 1 2 3 4 5 6 
#
# 1 107.2352 57.8088 19.5962 0.0000 0.0000 0.0000
# 2 57.8088 107.2336 19.5960 0.0000 0.0000 0.0000
# 3 19.5962 19.5960 108.4814 0.0000 0.0000 0.0000
# 4 0.0000 0.0000 0.0000 181.0882 0.0000 0.0000
# 5 0.0000 0.0000 0.0000 0.0000 181.0149 0.0000
# 6 0.0000 0.0000 0.0000 0.0000 0.0000 31.4225
#
#
#
# Elastic Compliance Matrix: (Units=1/GPa)
#
#
# Indices 1 2 3 4 5 6 
#
# 1 0.013281 -0.006951 -0.001144 0.000000 0.000000 0.000000
# 2 -0.006951 0.013282 -0.001144 0.000000 0.000000 0.000000
# 3 -0.001144 -0.001144 0.009631 0.000000 0.000000 0.000000
# 4 0.000000 0.000000 0.000000 0.005522 0.000000 0.000000
# 5 0.000000 0.000000 0.000000 0.000000 0.005524 0.000000
# 6 0.000000 0.000000 0.000000 0.000000 0.000000 0.031824
#
#
# Mechanical properties :
#
#
# Convention : Reuss Voigt Hill
#
# Bulk Modulus (GPa) = 56.43899 57.43911 56.93905
# Shear Modulus (GPa) = 48.33376 93.76841 71.05109
#
# Velocity S-wave (km/s) = 4.67939 6.51767 5.67348
# Velocity P-wave (km/s) = 7.40028 9.09185 8.28933
#
# Compressibility (1/GPa) = 0.01771825
#
# Stress axis : x y z
#
# Youngs Moduli (GPa) = 75.29325 75.29219 103.82799
#
# Poissons Ratio (x) = 0.52335 0.11873
# Poissons Ratio (y) = 0.52336 0.11873
# Poissons Ratio (z) = 0.08610 0.08610
#
# Static dielectric constant tensor:
#      x y z
#    x 4.141300 0.000000 0.000000 
#    y 0.000000 4.141290 0.000000 
#    z 0.000000 0.000000 3.738960 
# 
# 
# High freq. dielectric constant tensor:
#      x y z
#    x 1.878110 0.000000 0.000000 
#    y 0.000000 1.878110 0.000000 
#    z 0.000000 0.000000 1.858260 
# 
# From -- ./inp_files/2180.got.cif
#   From: 2010.03.12/outbox.cif.g09.slc.cpg/sg113_cif.got.tgz:2180.got - 2010.04.14 02:06:34.
