data_PCOD8308930
_publ_section_title
;
Structure prediction by ZEFSAII (Michael W. Deem and Ramdas Pophale) SiO2 
 PCOD8308930
Probable space group: P -4 21 C
;
_chemical_formula_sum "Si O2"
_cell_formula_units_Z 56
_cell_length_a 14.335189
_cell_length_b 14.335189
_cell_length_c 13.371720
_cell_angle_alpha 90.000000
_cell_angle_beta 90.000000
_cell_angle_gamma 90.000000
_cell_volume 2747.856952
_symmetry_space_group_name_H-M "P -4 21 C"
_symmetry_group_IT_number 114
_symmetry_cell_setting 'tetragonal'
loop_
_space_group_symop_operation_xyz
x,y,z
y,-x,-z
-x,-y,z
-y,x,-z
1/2+x,1/2-y,1/2-z
1/2-x,1/2+y,1/2-z
1/2-y,1/2-x,1/2+z
1/2+y,1/2+x,1/2+z
loop_
_atom_site_type_symbol
_atom_site_label
_atom_site_fract_x
_atom_site_fract_y
_atom_site_fract_z
Si Si1 0.733508 0.044341 0.510414
Si Si2 0.278637 0.507597 0.471867
Si Si3 0.593502 0.558428 0.640562
Si Si4 0.294027 0.327690 0.163974
Si Si5 0.281170 0.814798 0.121145
Si Si6 0.604931 0.495136 0.850612
Si Si7 0.321989 0.163300 0.508160
O O1 0.738832 0.102203 0.408464
O O2 0.682264 0.108908 0.593160
O O3 0.836389 0.022942 0.552434
O O4 0.681799 0.947495 0.487544
O O5 0.325194 0.492871 0.579636
O O6 0.339047 0.575034 0.400974
O O7 0.264538 0.408413 0.421036
O O8 0.184773 0.567488 0.488575
O O9 0.500000 0.500000 0.626247
O O10 0.622421 0.565109 0.757174
O O11 0.229240 0.312629 0.259820
O O12 0.392877 0.372409 0.193055
O O13 0.312204 0.227836 0.112796
O O14 0.230416 0.722726 0.077698
O O15 0.500000 0.500000 0.888413
#
# Coordination Sequence:
#
# PCOD8308930 Si02
#       7
#     8   8   8   8   8   8   8
#     4  10  25  42  60  90 132 174 217 262 323 400
#     4  12  20  36  64  92 127 163 212 274 329 381
#     4  11  19  34  59  95 123 155 213 279 337 377
#     4  10  23  40  60  92 126 168 217 267 328 386
#     4  11  23  40  64  92 125 170 216 267 326 400
#     4  10  22  34  60  91 125 167 217 269 330 384
#     4  10  23  42  61  91 131 170 213 270 325 388
#
# _framework density 20.379517
#
# number of rings (size 3 to 8) (size 9 to 14) (size 15 to 20)
#    0.000    1.429    2.857    2.571    8.000    1.714 
#    0.000    0.000    0.000    3.429    0.000    0.000 
#    0.000    0.000    0.000    0.000    0.000    0.000 
#
# Total GULP energy -694481.237065 kJ/mol
# GULP energy per Si atom -12401.450662 kJ/mol
# Density = 2.033313 g / cm^3
# Si number density = 20.379517 Si / 1000 Ang^3
#
#
#
# Elastic Constant Matrix: (Units=GPa)
#
#
# Indices 1 2 3 4 5 6 
#
# 1 95.3434 16.0277 29.8565 0.0000 0.0000 0.0000
# 2 16.0277 95.3434 29.8565 0.0000 0.0000 0.0000
# 3 29.8565 29.8565 107.7558 0.0000 0.0000 0.0000
# 4 0.0000 0.0000 0.0000 19.7681 0.0000 0.0000
# 5 0.0000 0.0000 0.0000 0.0000 19.7681 0.0000
# 6 0.0000 0.0000 0.0000 0.0000 0.0000 34.0768
#
#
#
# Elastic Compliance Matrix: (Units=1/GPa)
#
#
# Indices 1 2 3 4 5 6 
#
# 1 0.011577 -0.001031 -0.002922 0.000000 0.000000 0.000000
# 2 -0.001031 0.011577 -0.002922 0.000000 0.000000 0.000000
# 3 -0.002922 -0.002922 0.010899 0.000000 0.000000 0.000000
# 4 0.000000 0.000000 0.000000 0.050587 0.000000 0.000000
# 5 0.000000 0.000000 0.000000 0.000000 0.050587 0.000000
# 6 0.000000 0.000000 0.000000 0.000000 0.000000 0.029345
#
#
# Mechanical properties :
#
#
# Convention : Reuss Voigt Hill
#
# Bulk Modulus (GPa) = 49.25395 49.99157 49.62276
# Shear Modulus (GPa) = 27.01403 29.56940 28.29171
#
# Velocity S-wave (km/s) = 3.64476 3.81325 3.72995
# Velocity P-wave (km/s) = 6.47558 6.63109 6.55380
#
# Compressibility (1/GPa) = 0.02030294
#
# Stress axis : x y z
#
# Youngs Moduli (GPa) = 86.38013 86.38013 91.74784
#
# Poissons Ratio (x) = 0.08907 0.26808
# Poissons Ratio (y) = 0.08907 0.26808
# Poissons Ratio (z) = 0.25240 0.25240
#
# Static dielectric constant tensor:
#      x y z
#    x 3.755170 0.000000 0.000000 
#    y 0.000000 3.755170 0.000000 
#    z 0.000000 0.000000 3.711450 
# 
# 
# High freq. dielectric constant tensor:
#      x y z
#    x 1.790330 0.000000 0.000000 
#    y 0.000000 1.790330 0.000000 
#    z 0.000000 0.000000 1.798440 
# 
# From -- ./inp_files/2237.got.cif
#   From: 2010.03.12/outbox.cif.g09.slc.cpg/sg114_2_cif.got.tgz:2237.got - 2010.04.14 02:08:34.
