data_PCOD8308354
_publ_section_title
;
Structure prediction by ZEFSAII (Michael W. Deem and Ramdas Pophale) SiO2 
 PCOD8308354
Probable space group: P -4 2 C
;
_chemical_formula_sum "Si O2"
_cell_formula_units_Z 50
_cell_length_a 11.837191
_cell_length_b 11.837191
_cell_length_c 20.073532
_cell_angle_alpha 90.000000
_cell_angle_beta 90.000000
_cell_angle_gamma 90.000000
_cell_volume 2812.685052
_symmetry_space_group_name_H-M "P -4 2 C"
_symmetry_group_IT_number 112
_symmetry_cell_setting 'tetragonal'
loop_
_space_group_symop_operation_xyz
x,y,z
y,-x,-z
-x,-y,z
-y,x,-z
x,-y,1/2-z
-x,y,1/2-z
-y,-x,1/2+z
y,x,1/2+z
loop_
_atom_site_type_symbol
_atom_site_label
_atom_site_fract_x
_atom_site_fract_y
_atom_site_fract_z
Si Si1 0.251634 0.777357 0.909102
Si Si2 0.632404 0.298749 0.792080
Si Si3 0.627669 0.005764 0.574584
Si Si4 0.166654 0.048559 0.015760
Si Si5 0.406216 0.223591 0.848100
Si Si6 0.613168 0.641254 0.984373
Si Si7 0.500000 0.500000 0.750000
O O1 0.258495 0.707842 0.839842
O O2 0.333747 0.884290 0.900083
O O3 0.122465 0.819891 0.917089
O O4 0.288105 0.701857 0.971911
O O5 0.536300 0.218729 0.824709
O O6 0.665539 0.265851 0.716349
O O7 0.580167 0.424277 0.796465
O O8 0.710497 0.045830 0.516405
O O9 0.632256 0.096939 0.634208
O O10 0.500000 0.000000 0.545683
O O11 0.076082 0.117202 0.968885
O O12 0.387603 0.309070 0.909733
O O13 0.652062 0.510768 0.982581
#
# Coordination Sequence:
#
# PCOD8308354 Si02
#       7
#     8   8   8   8   8   8   2
#     4  11  21  33  54  80 109 146 190 227 279 339
#     4  10  21  34  51  80 113 161 180 223 282 348
#     4  11  19  34  54  84 114 138 181 233 285 339
#     4   9  20  37  57  79 110 148 188 236 285 334
#     4  10  20  35  49  78 117 143 181 224 291 333
#     4  11  21  31  51  78 110 147 185 231 277 342
#     4   8  20  32  48  68 124 154 184 202 282 352
#
# _framework density 17.776609000000001
#
# number of rings (size 3 to 8) (size 9 to 14) (size 15 to 20)
#    0.000    1.920    4.800    0.000    4.480    0.640 
#    0.000    0.000    0.000    0.960    0.000    4.480 
#    0.000    0.000    0.000    0.000    0.000    0.000 
#
# Total GULP energy -619509.825534 kJ/mol
# GULP energy per Si atom -12390.196511 kJ/mol
# Density = 1.773615 g / cm^3
# Si number density = 17.776609 Si / 1000 Ang^3
#
#
#
# Elastic Constant Matrix: (Units=GPa)
#
#
# Indices 1 2 3 4 5 6 
#
# 1 101.1857 28.6461 43.7345 0.0000 0.0000 0.0000
# 2 28.6461 101.1857 43.7345 0.0000 0.0000 0.0000
# 3 43.7345 43.7345 125.2744 0.0000 0.0000 0.0000
# 4 0.0000 0.0000 0.0000 17.5695 0.0000 0.0000
# 5 0.0000 0.0000 0.0000 0.0000 17.5695 0.0000
# 6 0.0000 0.0000 0.0000 0.0000 0.0000 19.1074
#
#
#
# Elastic Compliance Matrix: (Units=1/GPa)
#
#
# Indices 1 2 3 4 5 6 
#
# 1 0.011928 -0.001857 -0.003516 0.000000 0.000000 0.000000
# 2 -0.001857 0.011928 -0.003516 0.000000 0.000000 0.000000
# 3 -0.003516 -0.003516 0.010437 0.000000 0.000000 0.000000
# 4 0.000000 0.000000 0.000000 0.056917 0.000000 0.000000
# 5 0.000000 0.000000 0.000000 0.000000 0.056917 0.000000
# 6 0.000000 0.000000 0.000000 0.000000 0.000000 0.052336
#
#
# Mechanical properties :
#
#
# Convention : Reuss Voigt Hill
#
# Bulk Modulus (GPa) = 60.54826 62.20846 61.37836
# Shear Modulus (GPa) = 22.34674 24.95133 23.64903
#
# Velocity S-wave (km/s) = 3.54939 3.75054 3.65135
# Velocity P-wave (km/s) = 7.13667 7.33661 7.23733
#
# Compressibility (1/GPa) = 0.01651575
#
# Stress axis : x y z
#
# Youngs Moduli (GPa) = 83.83445 83.83445 95.80994
#
# Poissons Ratio (x) = 0.15571 0.33686
# Poissons Ratio (y) = 0.15571 0.33686
# Poissons Ratio (z) = 0.29475 0.29475
#
# Static dielectric constant tensor:
#      x y z
#    x 3.418130 0.000000 0.000000 
#    y 0.000000 3.418130 0.000000 
#    z 0.000000 0.000000 3.285200 
# 
# 
# High freq. dielectric constant tensor:
#      x y z
#    x 1.686570 0.000000 0.000000 
#    y 0.000000 1.686570 0.000000 
#    z 0.000000 0.000000 1.664320 
# 
# From -- ./inp_files/4888.got.cif
#   From: 2010.03.12/outbox.cif.g09.slc.cpg/sg112_3_cif.got.tgz:4888.got - 2010.04.14 02:02:48.
