data_PCOD8308448
_publ_section_title
;
Structure prediction by ZEFSAII (Michael W. Deem and Ramdas Pophale) SiO2 
 PCOD8308448
Probable space group: P -4 2 C
;
_chemical_formula_sum "Si O2"
_cell_formula_units_Z 12
_cell_length_a 5.087991
_cell_length_b 5.087991
_cell_length_c 17.591905
_cell_angle_alpha 90.000000
_cell_angle_beta 90.000000
_cell_angle_gamma 90.000000
_cell_volume 455.413122
_symmetry_space_group_name_H-M "P -4 2 C"
_symmetry_group_IT_number 112
_symmetry_cell_setting 'tetragonal'
loop_
_space_group_symop_operation_xyz
x,y,z
y,-x,-z
-x,-y,z
-y,x,-z
x,-y,1/2-z
-x,y,1/2-z
-y,-x,1/2+z
y,x,1/2+z
loop_
_atom_site_type_symbol
_atom_site_label
_atom_site_fract_x
_atom_site_fract_y
_atom_site_fract_z
Si Si1 0.243567 0.679379 0.879641
Si Si2 0.000000 0.000000 0.000000
Si Si3 0.000000 0.000000 0.250000
O O1 0.500000 0.500000 0.877310
O O2 0.000000 0.500000 0.899573
O O3 0.198472 0.821866 0.799086
O O4 0.241795 0.896982 0.946841
#
# Coordination Sequence:
#
# PCOD8308448 Si02
#       3
#     8   2   2
#     4  11  27  48  81 114 163 214 273 342 416 492
#     4  10  28  46  76 118 160 206 280 334 420 490
#     4  10  26  52  76 122 156 216 274 344 410 500
#
# _framework density 26.349706999999999
#
# number of rings (size 3 to 8) (size 9 to 14) (size 15 to 20)
#    0.000    1.333    0.000    1.000    9.333   16.000 
#    0.000   10.000    0.000    0.000    0.000    0.000 
#    0.000    0.000    0.000    0.000    0.000    0.000 
#
# Total GULP energy -148781.079676 kJ/mol
# GULP energy per Si atom -12398.423306 kJ/mol
# Density = 2.628973 g / cm^3
# Si number density = 26.349707 Si / 1000 Ang^3
#
#
#
# Elastic Constant Matrix: (Units=GPa)
#
#
# Indices 1 2 3 4 5 6 
#
# 1 173.0680 86.2289 83.8482 0.0000 0.0000 0.0000
# 2 86.2289 173.0680 83.8482 0.0000 0.0000 0.0000
# 3 83.8482 83.8482 221.8560 0.0000 0.0000 0.0000
# 4 0.0000 0.0000 0.0000 17.0883 0.0000 0.0000
# 5 0.0000 0.0000 0.0000 0.0000 17.0883 0.0000
# 6 0.0000 0.0000 0.0000 0.0000 0.0000 80.5683
#
#
#
# Elastic Compliance Matrix: (Units=1/GPa)
#
#
# Indices 1 2 3 4 5 6 
#
# 1 0.008310 -0.003206 -0.001929 0.000000 0.000000 0.000000
# 2 -0.003206 0.008310 -0.001929 0.000000 0.000000 0.000000
# 3 -0.001929 -0.001929 0.005966 0.000000 0.000000 0.000000
# 4 0.000000 0.000000 0.000000 0.058520 0.000000 0.000000
# 5 0.000000 0.000000 0.000000 0.000000 0.058520 0.000000
# 6 0.000000 0.000000 0.000000 0.000000 0.000000 0.012412
#
#
# Mechanical properties :
#
#
# Convention : Reuss Voigt Hill
#
# Bulk Modulus (GPa) = 118.23623 119.53809 118.88716
# Shear Modulus (GPa) = 29.58870 43.88673 36.73772
#
# Velocity S-wave (km/s) = 3.35464 4.08554 3.73800
# Velocity P-wave (km/s) = 7.74430 8.22922 7.99044
#
# Compressibility (1/GPa) = 0.00845764
#
# Stress axis : x y z
#
# Youngs Moduli (GPa) = 120.33883 120.33883 167.62837
#
# Poissons Ratio (x) = 0.38577 0.32337
# Poissons Ratio (y) = 0.38577 0.32337
# Poissons Ratio (z) = 0.23214 0.23214
#
# Static dielectric constant tensor:
#      x y z
#    x 4.721080 0.000000 0.000000 
#    y 0.000000 4.721080 0.000000 
#    z 0.000000 0.000000 5.038140 
# 
# 
# High freq. dielectric constant tensor:
#      x y z
#    x 2.060890 0.000000 0.000000 
#    y 0.000000 2.060890 0.000000 
#    z 0.000000 0.000000 2.079360 
# 
# From -- ./inp_files/3520.got.cif
#   From: 2010.03.12/outbox.cif.g09.slc.cpg/sg112_2_cif.got.tgz:3520.got - 2010.04.14 02:02:48.
