data_PCOD8308729
_publ_section_title
;
Structure prediction by ZEFSAII (Michael W. Deem and Ramdas Pophale) SiO2 
 PCOD8308729
Probable space group: P -4 21 M 
;
_chemical_formula_sum "Si O2"
_cell_formula_units_Z 32
_cell_length_a 13.039208
_cell_length_b 13.039208
_cell_length_c 9.791645
_cell_angle_alpha 90.000000
_cell_angle_beta 90.000000
_cell_angle_gamma 90.000000
_cell_volume 1664.784739
_symmetry_space_group_name_H-M "P -4 21 M "
_symmetry_group_IT_number 113
_symmetry_cell_setting 'tetragonal'
loop_
_space_group_symop_operation_xyz
x,y,z
y,-x,-z
-x,-y,z
-y,x,-z
1/2+x,1/2-y,-z
1/2-x,1/2+y,-z
1/2-y,1/2-x,z
1/2+y,1/2+x,z
loop_
_atom_site_type_symbol
_atom_site_label
_atom_site_fract_x
_atom_site_fract_y
_atom_site_fract_z
Si Si1 0.085517 0.747417 0.135013
Si Si2 0.885507 0.954702 0.336556
Si Si3 0.862413 0.802965 0.092785
Si Si4 0.163836 0.169719 0.603399
O O1 0.135906 0.635906 0.109853
O O2 0.090975 0.776502 0.295623
O O3 0.969316 0.741754 0.082718
O O4 0.150401 0.833775 0.054055
O O5 0.807818 0.051102 0.335126
O O6 0.876208 0.897718 0.194102
O O7 0.849880 0.878903 0.455175
O O8 0.000000 0.000000 0.360468
O O9 0.775140 0.724861 0.145003
O O10 0.223190 0.276811 0.591764
#
# Coordination Sequence:
#
# PCOD8308729 Si02
#       4
#     8   8   8   8
#     4  10  22  37  57  88 120 157 199 246 299 353
#     4  12  20  37  60  89 112 152 203 247 295 348
#     4  11  23  38  60  89 120 158 202 247 299 358
#     4  11  21  35  57  85 119 150 193 250 299 349
#
# _framework density 19.221705
#
# number of rings (size 3 to 8) (size 9 to 14) (size 15 to 20)
#    0.000    1.000    5.000    2.250    0.000    0.500 
#    0.000    0.000    0.000    6.000    0.000    0.000 
#    0.000    0.000    0.000    0.000    0.000    0.000 
#
# Total GULP energy -396755.774554 kJ/mol
# GULP energy per Si atom -12398.617955 kJ/mol
# Density = 1.917796 g / cm^3
# Si number density = 19.221705 Si / 1000 Ang^3
#
#
#
# Elastic Constant Matrix: (Units=GPa)
#
#
# Indices 1 2 3 4 5 6 
#
# 1 96.1704 48.2356 18.3586 0.0000 0.0000 0.0000
# 2 48.2356 96.1671 18.3583 0.0000 0.0000 0.0000
# 3 18.3586 18.3583 72.8892 0.0000 0.0000 0.0000
# 4 0.0000 0.0000 0.0000 29.4429 0.0000 0.0000
# 5 0.0000 0.0000 0.0000 0.0000 29.4431 0.0000
# 6 0.0000 0.0000 0.0000 0.0000 0.0000 29.8361
#
#
#
# Elastic Compliance Matrix: (Units=1/GPa)
#
#
# Indices 1 2 3 4 5 6 
#
# 1 0.014130 -0.006732 -0.001864 0.000000 0.000000 0.000000
# 2 -0.006732 0.014131 -0.001864 0.000000 0.000000 0.000000
# 3 -0.001864 -0.001864 0.014658 0.000000 0.000000 0.000000
# 4 0.000000 0.000000 0.000000 0.033964 0.000000 0.000000
# 5 0.000000 0.000000 0.000000 0.000000 0.033964 0.000000
# 6 0.000000 0.000000 0.000000 0.000000 0.000000 0.033516
#
#
# Mechanical properties :
#
#
# Convention : Reuss Voigt Hill
#
# Bulk Modulus (GPa) = 45.45099 48.34797 46.89948
# Shear Modulus (GPa) = 28.96616 29.76271 29.36444
#
# Velocity S-wave (km/s) = 3.88616 3.93923 3.91278
# Velocity P-wave (km/s) = 6.62067 6.77476 6.69816
#
# Compressibility (1/GPa) = 0.02200172
#
# Stress axis : x y z
#
# Youngs Moduli (GPa) = 70.76961 70.76719 68.22135
#
# Poissons Ratio (x) = 0.47639 0.12713
# Poissons Ratio (y) = 0.47640 0.12713
# Poissons Ratio (z) = 0.13188 0.13188
#
# Static dielectric constant tensor:
#      x y z
#    x 3.620910 0.000000 0.000000 
#    y 0.000000 3.620910 0.000000 
#    z 0.000000 0.000000 3.543740 
# 
# 
# High freq. dielectric constant tensor:
#      x y z
#    x 1.738460 0.000000 0.000000 
#    y 0.000000 1.738460 0.000000 
#    z 0.000000 0.000000 1.762200 
# 
# From -- ./inp_files/842.got.cif
#   From: 2010.03.12/outbox.cif.g09.slc.cpg/sg113_cif.got.tgz:842.got - 2010.04.14 02:06:34.
