data_PCOD8308652
_publ_section_title
;
Structure prediction by ZEFSAII (Michael W. Deem and Ramdas Pophale) SiO2 
 PCOD8308652
Probable space group: P -4 21 M 
;
_chemical_formula_sum "Si O2"
_cell_formula_units_Z 32
_cell_length_a 10.508397
_cell_length_b 10.508397
_cell_length_c 13.645089
_cell_angle_alpha 90.000000
_cell_angle_beta 90.000000
_cell_angle_gamma 90.000000
_cell_volume 1506.778158
_symmetry_space_group_name_H-M "P -4 21 M "
_symmetry_group_IT_number 113
_symmetry_cell_setting 'tetragonal'
loop_
_space_group_symop_operation_xyz
x,y,z
y,-x,-z
-x,-y,z
-y,x,-z
1/2+x,1/2-y,-z
1/2-x,1/2+y,-z
1/2-y,1/2-x,z
1/2+y,1/2+x,z
loop_
_atom_site_type_symbol
_atom_site_label
_atom_site_fract_x
_atom_site_fract_y
_atom_site_fract_z
Si Si1 0.950731 0.252789 0.603868
Si Si2 0.892869 0.107131 0.253104
Si Si3 0.145269 0.854731 0.032460
Si Si4 0.252789 0.950731 0.603868
O O1 0.858321 0.358321 0.649909
O O2 0.878744 0.121256 0.581561
O O3 0.057238 0.228193 0.685404
O O4 1.000000 0.303862 0.500000
O O5 0.845077 0.154923 0.149168
O O6 0.942762 0.228193 0.314596
O O7 0.000000 0.000000 0.236343
O O8 0.250000 0.750000 0.991646
O O9 0.000000 0.819887 0.000000
O O10 0.358321 0.858321 0.649909
#
# Coordination Sequence:
#
# PCOD8308652 Si02
#       4
#     8   8   8   8
#     4  10  20  34  58  90 125 167 210 251 304 374
#     4  10  20  39  63  91 123 167 213 261 318 386
#     4  11  25  48  73 100 132 171 220 282 344 405
#     4  10  20  34  58  90 125 167 210 251 304 374
#
# _framework density 21.237365
#
# number of rings (size 3 to 8) (size 9 to 14) (size 15 to 20)
#    0.000    1.750    5.000    0.000    0.000    5.000 
#    0.000    0.000    0.000    0.000    0.000    0.000 
#    0.000    0.000    0.000    0.000    0.000    0.000 
#
# Total GULP energy -396623.147164 kJ/mol
# GULP energy per Si atom -12394.473349 kJ/mol
# Density = 2.118903 g / cm^3
# Si number density = 21.237365 Si / 1000 Ang^3
#
#
#
# Elastic Constant Matrix: (Units=GPa)
#
#
# Indices 1 2 3 4 5 6 
#
# 1 96.5467 71.3834 37.2956 0.0000 0.0000 0.0000
# 2 71.3834 96.5467 37.2956 0.0000 0.0000 0.0000
# 3 37.2956 37.2956 136.8334 0.0000 0.0000 0.0000
# 4 0.0000 0.0000 0.0000 7.3434 0.0000 0.0000
# 5 0.0000 0.0000 0.0000 0.0000 7.3434 0.0000
# 6 0.0000 0.0000 0.0000 0.0000 0.0000 43.0609
#
#
#
# Elastic Compliance Matrix: (Units=1/GPa)
#
#
# Indices 1 2 3 4 5 6 
#
# 1 0.023258 -0.016483 -0.001847 0.000000 0.000000 0.000000
# 2 -0.016483 0.023258 -0.001847 0.000000 0.000000 0.000000
# 3 -0.001847 -0.001847 0.008315 0.000000 0.000000 0.000000
# 4 0.000000 0.000000 0.000000 0.136177 0.000000 0.000000
# 5 0.000000 0.000000 0.000000 0.000000 0.136177 0.000000
# 6 0.000000 0.000000 0.000000 0.000000 0.000000 0.023223
#
#
# Mechanical properties :
#
#
# Convention : Reuss Voigt Hill
#
# Bulk Modulus (GPa) = 69.06814 69.09735 69.08274
# Shear Modulus (GPa) = 12.63951 23.81302 18.22627
#
# Velocity S-wave (km/s) = 2.44222 3.35218 2.93271
# Velocity P-wave (km/s) = 6.36751 6.89849 6.63831
#
# Compressibility (1/GPa) = 0.01447845
#
# Stress axis : x y z
#
# Youngs Moduli (GPa) = 42.99639 42.99639 120.26745
#
# Poissons Ratio (x) = 0.70870 0.22209
# Poissons Ratio (y) = 0.70870 0.22209
# Poissons Ratio (z) = 0.07940 0.07940
#
# Static dielectric constant tensor:
#      x y z
#    x 3.832680 0.000000 0.000000 
#    y 0.000000 3.832680 0.000000 
#    z 0.000000 0.000000 3.706590 
# 
# 
# High freq. dielectric constant tensor:
#      x y z
#    x 1.829460 0.000000 0.000000 
#    y 0.000000 1.829460 0.000000 
#    z 0.000000 0.000000 1.818840 
# 
# From -- ./inp_files/1547.got.cif
#   From: 2010.03.12/outbox.cif.g09.slc.cpg/sg113_cif.got.tgz:1547.got - 2010.04.14 02:06:34.
