data_PCOD8308038
_publ_section_title
;
Structure prediction by ZEFSAII (Michael W. Deem and Ramdas Pophale) SiO2 
 PCOD8308038
Probable space group: I 41 C D
;
_chemical_formula_sum "Si O2"
_cell_formula_units_Z 112
_cell_length_a 16.198124
_cell_length_b 16.198124
_cell_length_c 18.642544
_cell_angle_alpha 90.000000
_cell_angle_beta 90.000000
_cell_angle_gamma 90.000000
_cell_volume 4891.416174
_symmetry_space_group_name_H-M "I 41 C D"
_symmetry_group_IT_number 110
_symmetry_cell_setting 'tetragonal'
loop_
_space_group_symop_operation_xyz
x,y,z
-y,1/2+x,1/4+z
-x,-y,z
y,1/2-x,1/4+z
-x,y,1/2+z
x,-y,1/2+z
1/2-y,-x,1/4+z
1/2+y,x,1/4+z
1/2+x,1/2+y,1/2+z
1/2-y,x,3/4+z
1/2-x,1/2-y,1/2+z
1/2+y,-x,3/4+z
1/2-x,1/2+y,z
1/2+x,1/2-y,z
-y,1/2-x,3/4+z
y,1/2+x,3/4+z
loop_
_atom_site_type_symbol
_atom_site_label
_atom_site_fract_x
_atom_site_fract_y
_atom_site_fract_z
Si Si1 0.381094 0.077761 0.558760
Si Si2 0.296796 0.670338 0.212742
Si Si3 0.158214 0.555702 0.170367
Si Si4 0.839578 0.999055 0.418582
Si Si5 0.526988 0.353166 0.181500
Si Si6 0.418060 0.617612 0.030036
Si Si7 0.742449 0.293492 0.818983
O O1 0.460517 0.114564 0.599309
O O2 0.312120 0.147643 0.553150
O O3 0.342157 0.999661 0.599425
O O4 0.398568 0.045058 0.477499
O O5 0.249643 0.591519 0.180689
O O6 0.390636 0.646508 0.230029
O O7 0.294263 0.744081 0.154138
O O8 0.258049 0.702607 0.286802
O O9 0.135982 0.500467 0.237635
O O10 0.095464 0.632571 0.167781
O O11 0.741047 0.002567 0.410214
O O12 0.868456 0.042819 0.492509
O O13 0.549834 0.404733 0.109901
O O14 0.359468 0.697497 0.031138
#
# Coordination Sequence:
#
# PCOD8308038 Si02
#       7
#    16  16  16  16  16  16  16
#     4  11  22  41  67 100 133 181 230 276 355 416
#     4  11  22  41  65  99 129 172 234 281 334 411
#     4  11  25  41  67  97 136 186 227 276 359 424
#     4  11  22  47  67  91 147 187 218 287 369 413
#     4  11  23  40  72 101 132 182 236 292 338 418
#     4  10  21  42  66  93 133 179 225 280 355 405
#     4  11  21  42  69  91 133 178 217 283 337 412
#
# _framework density 22.897252999999999
#
# number of rings (size 3 to 8) (size 9 to 14) (size 15 to 20)
#    0.000    1.143    4.286    4.286    2.000    3.429 
#    2.571    5.714    3.143    0.000    0.000    0.000 
#    0.000    0.000    0.000    0.000    0.000    0.000 
#
# Total GULP energy -694393.028919 kJ/mol
# GULP energy per Si atom -12399.875516 kJ/mol
# Density = 2.284514 g / cm^3
# Si number density = 22.897253 Si / 1000 Ang^3
#
#
#
# Elastic Constant Matrix: (Units=GPa)
#
#
# Indices 1 2 3 4 5 6 
#
# 1 53.5277 -8.2719 -3.5483 0.0000 0.0000 0.0000
# 2 -8.2719 53.5277 -3.5483 0.0000 0.0000 0.0000
# 3 -3.5483 -3.5483 94.9434 0.0000 0.0000 0.0000
# 4 0.0000 0.0000 0.0000 20.6877 0.0000 0.0000
# 5 0.0000 0.0000 0.0000 0.0000 20.6877 0.0000
# 6 0.0000 0.0000 0.0000 0.0000 0.0000 22.6636
#
#
#
# Elastic Compliance Matrix: (Units=1/GPa)
#
#
# Indices 1 2 3 4 5 6 
#
# 1 0.019204 0.003023 0.000831 0.000000 0.000000 0.000000
# 2 0.003023 0.019204 0.000831 0.000000 0.000000 0.000000
# 3 0.000831 0.000831 0.010595 0.000000 0.000000 0.000000
# 4 0.000000 0.000000 0.000000 0.048338 0.000000 0.000000
# 5 0.000000 0.000000 0.000000 0.000000 0.048338 0.000000
# 6 0.000000 0.000000 0.000000 0.000000 0.000000 0.044124
#
#
# Mechanical properties :
#
#
# Convention : Reuss Voigt Hill
#
# Bulk Modulus (GPa) = 17.13176 19.02909 18.08042
# Shear Modulus (GPa) = 25.01362 27.29896 26.15629
#
# Velocity S-wave (km/s) = 3.30878 3.45662 3.38351
# Velocity P-wave (km/s) = 4.70060 4.92541 4.81432
#
# Compressibility (1/GPa) = 0.05837113
#
# Stress axis : x y z
#
# Youngs Moduli (GPa) = 52.07221 52.07222 94.38697
#
# Poissons Ratio (x) = -0.15740 -0.07841
# Poissons Ratio (y) = -0.15740 -0.07841
# Poissons Ratio (z) = -0.04326 -0.04326
#
# Static dielectric constant tensor:
#      x y z
#    x 4.067560 0.000000 0.000000 
#    y 0.000000 4.067560 0.000000 
#    z 0.000000 0.000000 4.283710 
# 
# 
# High freq. dielectric constant tensor:
#      x y z
#    x 1.897040 0.000000 0.000000 
#    y 0.000000 1.897040 0.000000 
#    z 0.000000 0.000000 1.910470 
# 
# From -- ./inp_files/2300.got.cif
#   From: 2010.03.12/outbox.cif.g09.slc.cpg/sg110_2_cif.got.tgz:2300.got - 2010.04.14 01:58:01.
