data_PCOD8308800
_publ_section_title
;
Structure prediction by ZEFSAII (Michael W. Deem and Ramdas Pophale) SiO2 
 PCOD8308800
Probable space group: P -4 21 C
;
_chemical_formula_sum "Si O2"
_cell_formula_units_Z 56
_cell_length_a 12.063363
_cell_length_b 12.063363
_cell_length_c 21.371354
_cell_angle_alpha 90.000000
_cell_angle_beta 90.000000
_cell_angle_gamma 90.000000
_cell_volume 3110.060454
_symmetry_space_group_name_H-M "P -4 21 C"
_symmetry_group_IT_number 114
_symmetry_cell_setting 'tetragonal'
loop_
_space_group_symop_operation_xyz
x,y,z
y,-x,-z
-x,-y,z
-y,x,-z
1/2+x,1/2-y,1/2-z
1/2-x,1/2+y,1/2-z
1/2-y,1/2-x,1/2+z
1/2+y,1/2+x,1/2+z
loop_
_atom_site_type_symbol
_atom_site_label
_atom_site_fract_x
_atom_site_fract_y
_atom_site_fract_z
Si Si1 0.888440 0.556336 0.065169
Si Si2 0.609292 0.277578 0.158510
Si Si3 0.879217 0.963776 0.760266
Si Si4 0.327450 0.454114 0.982707
Si Si5 0.943698 0.713537 0.163576
Si Si6 0.088990 0.667605 0.684362
Si Si7 0.109291 0.295303 0.763419
O O1 0.921666 0.679615 0.091287
O O2 0.845146 0.490102 0.124765
O O3 0.000000 0.500000 0.036201
O O4 0.790415 0.564524 0.015649
O O5 0.504822 0.305197 0.202106
O O6 0.573262 0.304070 0.088722
O O7 0.720265 0.343622 0.176293
O O8 0.643040 0.148823 0.172341
O O9 0.867142 0.834048 0.769393
O O10 0.843170 0.027564 0.825043
O O11 0.000000 0.000000 0.741606
O O12 0.369951 0.580513 0.989657
O O13 0.838154 0.683863 0.205695
O O14 0.055444 0.657276 0.191471
O O15 0.018659 0.679489 0.748498
#
# Coordination Sequence:
#
# PCOD8308800 Si02
#       7
#     8   8   8   8   8   8   8
#     4   9  19  38  62  77 105 154 202 228 273 351
#     4  11  22  34  54  89 119 148 182 242 287 345
#     4  11  21  32  55  86 119 144 183 232 298 343
#     4  11  24  36  60  91 117 151 193 248 299 335
#     4   9  20  35  57  81 105 159 196 225 277 353
#     4  10  17  36  57  79 111 152 192 224 282 350
#     4  10  20  33  54  81 115 146 184 233 279 341
#
# _framework density 18.006080000000001
#
# number of rings (size 3 to 8) (size 9 to 14) (size 15 to 20)
#    0.000    1.857    4.286    1.286    6.000    0.000 
#    0.000    2.857    3.143    0.000    0.000    0.000 
#    0.000    0.000    0.000    0.000    0.000    0.000 
#
# Total GULP energy -693736.007551 kJ/mol
# GULP energy per Si atom -12388.142992 kJ/mol
# Density = 1.796510 g / cm^3
# Si number density = 18.006080 Si / 1000 Ang^3
#
#
#
# Elastic Constant Matrix: (Units=GPa)
#
#
# Indices 1 2 3 4 5 6 
#
# 1 81.1477 24.0523 42.4820 0.0000 0.0000 0.0000
# 2 24.0523 81.1477 42.4820 0.0000 0.0000 0.0000
# 3 42.4820 42.4820 84.0498 0.0000 0.0000 0.0000
# 4 0.0000 0.0000 0.0000 22.6563 0.0000 0.0000
# 5 0.0000 0.0000 0.0000 0.0000 22.6563 0.0000
# 6 0.0000 0.0000 0.0000 0.0000 0.0000 22.1129
#
#
#
# Elastic Compliance Matrix: (Units=1/GPa)
#
#
# Indices 1 2 3 4 5 6 
#
# 1 0.016789 -0.000726 -0.008119 0.000000 0.000000 0.000000
# 2 -0.000726 0.016789 -0.008119 0.000000 0.000000 0.000000
# 3 -0.008119 -0.008119 0.020105 0.000000 0.000000 0.000000
# 4 0.000000 0.000000 0.000000 0.044138 0.000000 0.000000
# 5 0.000000 0.000000 0.000000 0.000000 0.044138 0.000000
# 6 0.000000 0.000000 0.000000 0.000000 0.000000 0.045223
#
#
# Mechanical properties :
#
#
# Convention : Reuss Voigt Hill
#
# Bulk Modulus (GPa) = 50.61933 51.59756 51.10844
# Shear Modulus (GPa) = 21.95950 22.64037 22.29994
#
# Velocity S-wave (km/s) = 3.49601 3.54979 3.52300
# Velocity P-wave (km/s) = 6.66854 6.74679 6.70778
#
# Compressibility (1/GPa) = 0.01975530
#
# Stress axis : x y z
#
# Youngs Moduli (GPa) = 59.56408 59.56408 49.73952
#
# Poissons Ratio (x) = 0.04324 0.40382
# Poissons Ratio (y) = 0.04324 0.40382
# Poissons Ratio (z) = 0.48358 0.48358
#
# Static dielectric constant tensor:
#      x y z
#    x 3.659910 0.000000 0.000000 
#    y 0.000000 3.659910 0.000000 
#    z 0.000000 0.000000 3.162890 
# 
# 
# High freq. dielectric constant tensor:
#      x y z
#    x 1.705340 0.000000 0.000000 
#    y 0.000000 1.705340 0.000000 
#    z 0.000000 0.000000 1.661260 
# 
# From -- ./inp_files/3131.got.cif
#   From: 2010.03.12/outbox.cif.g09.slc.cpg/sg114_2_cif.got.tgz:3131.got - 2010.04.14 02:08:34.
