data_PCOD8308493
_publ_section_title
;
Structure prediction by ZEFSAII (Michael W. Deem and Ramdas Pophale) SiO2 
 PCOD8308493
Probable space group: P -4 2 C
;
_chemical_formula_sum "Si O2"
_cell_formula_units_Z 24
_cell_length_a 11.493150
_cell_length_b 11.493150
_cell_length_c 8.663285
_cell_angle_alpha 90.000000
_cell_angle_beta 90.000000
_cell_angle_gamma 90.000000
_cell_volume 1144.354947
_symmetry_space_group_name_H-M "P -4 2 C"
_symmetry_group_IT_number 112
_symmetry_cell_setting 'tetragonal'
loop_
_space_group_symop_operation_xyz
x,y,z
y,-x,-z
-x,-y,z
-y,x,-z
x,-y,1/2-z
-x,y,1/2-z
-y,-x,1/2+z
y,x,1/2+z
loop_
_atom_site_type_symbol
_atom_site_label
_atom_site_fract_x
_atom_site_fract_y
_atom_site_fract_z
Si Si1 0.166206 0.970522 0.572064
Si Si2 0.339568 0.466069 0.584446
Si Si3 0.929403 0.396364 0.910314
O O1 0.293886 0.930076 0.532312
O O2 0.080260 0.864521 0.534772
O O3 0.153754 0.000000 0.750000
O O4 0.358287 0.581245 0.477307
O O5 0.389855 0.500000 0.750000
O O6 0.205316 0.430124 0.608443
O O7 0.000000 0.500000 0.992124
O O8 0.000000 0.369058 0.750000
#
# Coordination Sequence:
#
# PCOD8308493 Si02
#       3
#     8   8   8
#     4  11  24  44  69  99 136 182 232 283 346 416
#     4  11  24  46  70 100 136 185 232 288 348 418
#     4  11  24  45  69  99 140 176 229 287 350 402
#
# _framework density 20.972515000000001
#
# number of rings (size 3 to 8) (size 9 to 14) (size 15 to 20)
#    0.000    1.000    3.333    6.000    4.667    3.333 
#    6.000    0.000    0.000    0.000    0.000    0.000 
#    0.000    0.000    0.000    0.000    0.000    0.000 
#
# Total GULP energy -297380.261379 kJ/mol
# GULP energy per Si atom -12390.844224 kJ/mol
# Density = 2.092478 g / cm^3
# Si number density = 20.972515 Si / 1000 Ang^3
#
#
#
# Elastic Constant Matrix: (Units=GPa)
#
#
# Indices 1 2 3 4 5 6 
#
# 1 133.6770 41.8964 55.8912 0.0000 0.0000 0.0000
# 2 41.8964 133.6770 55.8912 0.0000 0.0000 0.0000
# 3 55.8912 55.8912 148.4909 0.0000 0.0000 0.0000
# 4 0.0000 0.0000 0.0000 19.5854 0.0000 0.0000
# 5 0.0000 0.0000 0.0000 0.0000 19.5854 0.0000
# 6 0.0000 0.0000 0.0000 0.0000 0.0000 12.4027
#
#
#
# Elastic Compliance Matrix: (Units=1/GPa)
#
#
# Indices 1 2 3 4 5 6 
#
# 1 0.009193 -0.001702 -0.002819 0.000000 0.000000 0.000000
# 2 -0.001702 0.009193 -0.002819 0.000000 0.000000 0.000000
# 3 -0.002819 -0.002819 0.008857 0.000000 0.000000 0.000000
# 4 0.000000 0.000000 0.000000 0.051058 0.000000 0.000000
# 5 0.000000 0.000000 0.000000 0.000000 0.051058 0.000000
# 6 0.000000 0.000000 0.000000 0.000000 0.000000 0.080628
#
#
# Mechanical properties :
#
#
# Convention : Reuss Voigt Hill
#
# Bulk Modulus (GPa) = 79.61513 80.35584 79.98549
# Shear Modulus (GPa) = 21.84768 27.79244 24.82006
#
# Velocity S-wave (km/s) = 3.23108 3.64426 3.44387
# Velocity P-wave (km/s) = 7.20860 7.49036 7.35083
#
# Compressibility (1/GPa) = 0.01256043
#
# Stress axis : x y z
#
# Youngs Moduli (GPa) = 108.77704 108.77704 112.90655
#
# Poissons Ratio (x) = 0.18518 0.31834
# Poissons Ratio (y) = 0.18518 0.31834
# Poissons Ratio (z) = 0.30669 0.30669
#
# Static dielectric constant tensor:
#      x y z
#    x 3.906260 0.000000 0.000000 
#    y 0.000000 3.906260 0.000000 
#    z 0.000000 0.000000 3.748670 
# 
# 
# High freq. dielectric constant tensor:
#      x y z
#    x 1.829860 0.000000 0.000000 
#    y 0.000000 1.829860 0.000000 
#    z 0.000000 0.000000 1.822380 
# 
# From -- ./inp_files/779.got.cif
#   From: 2010.03.12/outbox.cif.g09.slc.cpg/sg112_1_cif.got.tgz:779.got - 2010.04.14 02:02:48.
