data_PCOD8308792
_publ_section_title
;
Structure prediction by ZEFSAII (Michael W. Deem and Ramdas Pophale) SiO2 
 PCOD8308792
Probable space group: P -4 21 M 
;
_chemical_formula_sum "Si O2"
_cell_formula_units_Z 56
_cell_length_a 19.235775
_cell_length_b 19.235775
_cell_length_c 9.581895
_cell_angle_alpha 90.000000
_cell_angle_beta 90.000000
_cell_angle_gamma 90.000000
_cell_volume 3545.445260
_symmetry_space_group_name_H-M "P -4 21 M "
_symmetry_group_IT_number 113
_symmetry_cell_setting 'tetragonal'
loop_
_space_group_symop_operation_xyz
x,y,z
y,-x,-z
-x,-y,z
-y,x,-z
1/2+x,1/2-y,-z
1/2-x,1/2+y,-z
1/2-y,1/2-x,z
1/2+y,1/2+x,z
loop_
_atom_site_type_symbol
_atom_site_label
_atom_site_fract_x
_atom_site_fract_y
_atom_site_fract_z
Si Si1 0.055505 0.444496 0.916765
Si Si2 0.293521 0.981302 0.084768
Si Si3 0.659548 0.273828 0.089494
Si Si4 0.055505 0.444496 0.583214
Si Si5 0.253393 0.132668 0.412661
Si Si6 0.981302 0.706478 0.584759
Si Si7 0.253392 0.132668 0.087337
Si Si8 0.726172 0.659548 0.589490
O O1 0.033951 0.369585 0.978233
O O2 0.057636 0.442365 0.749990
O O3 0.000000 0.500000 0.971658
O O4 0.241138 0.919500 0.041839
O O5 0.300723 0.985119 0.250004
O O6 0.265490 0.055012 0.028820
O O7 0.703521 0.203521 0.067299
O O8 0.662933 0.297683 0.250002
O O9 0.688234 0.335975 0.995152
O O10 0.130416 0.466050 0.521750
O O11 0.000000 0.500000 0.528320
O O12 0.322883 0.177118 0.441316
O O13 0.265490 0.055013 0.471184
O O14 0.234200 0.132829 0.249999
O O15 0.188234 0.164026 0.495149
O O16 0.919500 0.758862 0.541834
O O17 0.322883 0.177118 0.058683
O O18 0.796480 0.703521 0.567295
#
# Coordination Sequence:
#
# PCOD8308792 Si02
#       8
#     4   8   8   4   8   8   8   8
#     4   9  14  20  36  64  93 115 137 170 217 266
#     4   9  15  25  41  63  89 115 142 176 216 258
#     4   9  16  28  45  63  85 115 149 178 208 255
#     4   9  14  20  36  64  93 115 137 170 217 266
#     4   9  17  28  43  65  91 114 140 178 220 257
#     4   9  15  25  41  63  89 115 142 176 216 258
#     4   9  17  28  43  65  91 114 140 178 220 257
#     4   9  16  28  45  63  85 115 149 178 208 255
#
# _framework density 15.794912999999999
#
# number of rings (size 3 to 8) (size 9 to 14) (size 15 to 20)
#    0.000    3.000    1.429    0.857    0.000    3.429 
#    0.000    1.429    0.000    0.857    0.000    6.000 
#    0.000    6.857    0.000    0.000    0.000    0.000 
#
# Total GULP energy -694277.754001 kJ/mol
# GULP energy per Si atom -12397.817036 kJ/mol
# Density = 1.575896 g / cm^3
# Si number density = 15.794913 Si / 1000 Ang^3
#
#
#
# Elastic Constant Matrix: (Units=GPa)
#
#
# Indices 1 2 3 4 5 6 
#
# 1 130.4324 82.4749 37.2840 0.0000 0.0000 0.0000
# 2 82.4749 130.4327 37.2841 0.0000 0.0000 0.0000
# 3 37.2840 37.2841 31.3464 0.0000 0.0000 0.0000
# 4 0.0000 0.0000 0.0000 19.5310 0.0000 0.0000
# 5 0.0000 0.0000 0.0000 0.0000 19.5305 0.0000
# 6 0.0000 0.0000 0.0000 0.0000 0.0000 23.9721
#
#
#
# Elastic Compliance Matrix: (Units=1/GPa)
#
#
# Indices 1 2 3 4 5 6 
#
# 1 0.014451 -0.006401 -0.009575 0.000000 0.000000 0.000000
# 2 -0.006401 0.014451 -0.009576 0.000000 0.000000 0.000000
# 3 -0.009575 -0.009576 0.054680 0.000000 0.000000 0.000000
# 4 0.000000 0.000000 0.000000 0.051201 0.000000 0.000000
# 5 0.000000 0.000000 0.000000 0.000000 0.051202 0.000000
# 6 0.000000 0.000000 0.000000 0.000000 0.000000 0.041715
#
#
# Mechanical properties :
#
#
# Convention : Reuss Voigt Hill
#
# Bulk Modulus (GPa) = 30.78885 67.36640 49.07763
# Shear Modulus (GPa) = 17.26341 21.61797 19.44069
#
# Velocity S-wave (km/s) = 3.30960 3.70356 3.51211
# Velocity P-wave (km/s) = 5.84293 7.81228 6.89825
#
# Compressibility (1/GPa) = 0.03247929
#
# Stress axis : x y z
#
# Youngs Moduli (GPa) = 69.19860 69.19865 18.28814
#
# Poissons Ratio (x) = 0.44291 0.17512
# Poissons Ratio (y) = 0.44291 0.17512
# Poissons Ratio (z) = 0.66261 0.66262
#
# Static dielectric constant tensor:
#      x y z
#    x 3.070950 0.000000 0.000000 
#    y 0.000000 3.070950 0.000000 
#    z 0.000000 0.000000 2.612950 
# 
# 
# High freq. dielectric constant tensor:
#      x y z
#    x 1.603170 0.000000 0.000000 
#    y 0.000000 1.603170 0.000000 
#    z 0.000000 0.000000 1.560090 
# 
# From -- ./inp_files/1364.got.cif
#   From: 2010.03.12/outbox.cif.g09.slc.cpg/sg113_cif.got.tgz:1364.got - 2010.04.14 02:06:34.
