data_PCOD8308488
_publ_section_title
;
Structure prediction by ZEFSAII (Michael W. Deem and Ramdas Pophale) SiO2 
 PCOD8308488
Probable space group: P -4 2 C
;
_chemical_formula_sum "Si O2"
_cell_formula_units_Z 46
_cell_length_a 11.692417
_cell_length_b 11.692417
_cell_length_c 16.786065
_cell_angle_alpha 90.000000
_cell_angle_beta 90.000000
_cell_angle_gamma 90.000000
_cell_volume 2294.866847
_symmetry_space_group_name_H-M "P -4 2 C"
_symmetry_group_IT_number 112
_symmetry_cell_setting 'tetragonal'
loop_
_space_group_symop_operation_xyz
x,y,z
y,-x,-z
-x,-y,z
-y,x,-z
x,-y,1/2-z
-x,y,1/2-z
-y,-x,1/2+z
y,x,1/2+z
loop_
_atom_site_type_symbol
_atom_site_label
_atom_site_fract_x
_atom_site_fract_y
_atom_site_fract_z
Si Si1 0.424601 0.104729 0.592371
Si Si2 0.968042 0.817999 0.123693
Si Si3 0.322801 0.451123 0.981742
Si Si4 0.000000 0.000000 0.500000
Si Si5 0.500000 0.770824 0.750000
Si Si6 0.709364 0.614786 0.801349
Si Si7 0.819587 0.131382 0.229923
O O1 0.303828 0.042394 0.583778
O O2 0.435830 0.210460 0.533572
O O3 0.454495 0.145729 0.681383
O O4 0.500000 0.000000 0.563068
O O5 0.874789 0.811879 0.193044
O O6 0.095865 0.846388 0.155329
O O7 0.935493 0.908936 0.055896
O O8 0.365923 0.581392 0.984133
O O9 0.292696 0.421352 0.892194
O O10 0.597749 0.687912 0.781997
O O11 0.716504 0.500000 0.750000
O O12 0.819326 0.694057 0.786254
O O13 0.806234 0.000000 0.250000
#
# Coordination Sequence:
#
# PCOD8308488 Si02
#       7
#     8   8   8   2   4   8   8
#     4  12  26  42  70 106 141 172 234 297 351 407
#     4  11  24  42  69 101 129 180 230 288 339 408
#     4  11  26  47  68 100 143 184 227 288 352 422
#     4  12  24  42  72  96 132 182 240 276 360 410
#     4  12  22  46  72 102 132 180 236 288 340 418
#     4  12  26  44  73 100 134 186 233 277 348 423
#     4  11  23  47  68  94 140 179 229 281 341 417
#
# _framework density 20.044737000000001
#
# number of rings (size 3 to 8) (size 9 to 14) (size 15 to 20)
#    0.000    0.522    5.217    3.130    7.304    0.348 
#    3.130    0.000    0.000    0.000    0.000    0.000 
#    0.000    0.000    0.000    0.000    0.000    0.000 
#
# Total GULP energy -570454.467059 kJ/mol
# GULP energy per Si atom -12401.184066 kJ/mol
# Density = 1.999911 g / cm^3
# Si number density = 20.044737 Si / 1000 Ang^3
#
#
#
# Elastic Constant Matrix: (Units=GPa)
#
#
# Indices 1 2 3 4 5 6 
#
# 1 100.7119 44.0185 93.2042 0.0000 0.0000 0.0000
# 2 44.0185 100.7119 93.2042 0.0000 0.0000 0.0000
# 3 93.2042 93.2042 64.0846 0.0000 0.0000 0.0000
# 4 0.0000 0.0000 0.0000 -81.7156 0.0000 0.0000
# 5 0.0000 0.0000 0.0000 0.0000 -81.7156 0.0000
# 6 0.0000 0.0000 0.0000 0.0000 0.0000 31.2018
#
#
#
# Elastic Compliance Matrix: (Units=1/GPa)
#
#
# Indices 1 2 3 4 5 6 
#
# 1 0.004863 -0.012776 0.011508 0.000000 0.000000 0.000000
# 2 -0.012776 0.004863 0.011508 0.000000 0.000000 0.000000
# 3 0.011508 0.011508 -0.017870 0.000000 0.000000 0.000000
# 4 0.000000 0.000000 0.000000 -0.012238 0.000000 0.000000
# 5 0.000000 0.000000 0.000000 0.000000 -0.012238 0.000000
# 6 0.000000 0.000000 0.000000 0.000000 0.000000 0.032049
#
#
# Mechanical properties :
#
#
# Convention : Reuss Voigt Hill
#
# Bulk Modulus (GPa) = 81.05768 80.70692 80.88230
# Shear Modulus (GPa) = -295.19266 -24.10709 -159.64987
#
# Velocity S-wave (km/s) = -12.14852 -3.47171 -8.93419
# Velocity P-wave (km/s) = 12.50024 4.92752 8.12329
#
# Compressibility (1/GPa) = 0.01233689
#
# Stress axis : x y z
#
# Youngs Moduli (GPa) = 205.63166 205.63166 -55.95966
#
# Poissons Ratio (x) = 2.62708 0.64398
# Poissons Ratio (y) = 2.62708 0.64398
# Poissons Ratio (z) = -2.36641 -2.36641
#
# Static dielectric constant tensor:
#      x y z
#    x 3.852620 0.000000 0.000000 
#    y 0.000000 3.852620 0.000000 
#    z 0.000000 0.000000 3.742760 
# 
# 
# High freq. dielectric constant tensor:
#      x y z
#    x 1.792480 0.000000 0.000000 
#    y 0.000000 1.792480 0.000000 
#    z 0.000000 0.000000 1.788810 
# 
# From -- ./inp_files/4176.got.cif
#   From: 2010.03.12/outbox.cif.g09.slc.cpg/sg112_3_cif.got.tgz:4176.got - 2010.04.14 02:02:48.
