data_PCOD8308306
_publ_section_title
;
Structure prediction by ZEFSAII (Michael W. Deem and Ramdas Pophale) SiO2 
 PCOD8308306
Probable space group: P -4 2 C
;
_chemical_formula_sum "Si O2"
_cell_formula_units_Z 64
_cell_length_a 16.260932
_cell_length_b 16.260932
_cell_length_c 18.132669
_cell_angle_alpha 90.000000
_cell_angle_beta 90.000000
_cell_angle_gamma 90.000000
_cell_volume 4794.602431
_symmetry_space_group_name_H-M "P -4 2 C"
_symmetry_group_IT_number 112
_symmetry_cell_setting 'tetragonal'
loop_
_space_group_symop_operation_xyz
x,y,z
y,-x,-z
-x,-y,z
-y,x,-z
x,-y,1/2-z
-x,y,1/2-z
-y,-x,1/2+z
y,x,1/2+z
loop_
_atom_site_type_symbol
_atom_site_label
_atom_site_fract_x
_atom_site_fract_y
_atom_site_fract_z
Si Si1 0.402964 0.000000 0.333427
Si Si2 0.721348 0.404642 0.467818
Si Si3 0.278652 0.595361 0.032182
Si Si4 0.500000 0.409257 0.337233
Si Si5 0.595462 0.827894 0.104978
Si Si6 0.332571 0.674974 0.333997
Si Si7 0.667429 0.674975 0.333996
Si Si8 0.827894 0.404542 0.604979
O O1 0.374254 0.079289 0.380442
O O2 0.500000 0.000000 0.326677
O O3 0.365791 0.000000 0.250000
O O4 0.374253 0.920712 0.380442
O O5 0.698716 0.500001 0.459913
O O6 0.643130 0.356871 0.499999
O O7 0.738065 0.364823 0.386392
O O8 0.802138 0.392556 0.519167
O O9 0.261934 0.635181 0.113608
O O10 0.197861 0.607446 0.980834
O O11 0.500000 0.500000 0.371954
O O12 0.500000 0.413558 0.250000
O O13 0.581195 0.362400 0.363598
O O14 0.418802 0.362405 0.363600
O O15 0.655188 0.772534 0.156184
O O16 0.500002 0.816838 0.128934
O O17 0.310734 0.652767 0.250000
O O18 0.655182 0.772534 0.343813
#
# Coordination Sequence:
#
# PCOD8308306 Si02
#       8
#     8   8   8   8   8   8   8   8
#     4   9  16  24  40  58  67  81 111 150 198 247
#     4   9  18  27  34  46  68  98 127 155 184 217
#     4   9  18  27  34  46  68  98 127 155 184 217
#     4   9  16  22  30  45  65  93 128 161 186 205
#     4   9  16  27  37  50  70  90 115 154 200 236
#     4  10  17  25  36  49  69  95 124 159 190 216
#     4  10  17  25  36  49  69  95 124 159 190 216
#     4   9  16  27  37  50  70  90 115 154 200 236
#
# _framework density 13.348343
#
# number of rings (size 3 to 8) (size 9 to 14) (size 15 to 20)
#    0.000    2.750    1.250    1.500    1.750    2.750 
#    0.000    0.000    0.000    0.000    0.000    0.875 
#    0.000    5.000    0.000    0.000    0.000   50.625 
#
# Total GULP energy -793037.437844 kJ/mol
# GULP energy per Si atom -12391.209966 kJ/mol
# Density = 1.331796 g / cm^3
# Si number density = 13.348343 Si / 1000 Ang^3
#
#
#
# Elastic Constant Matrix: (Units=GPa)
#
#
# Indices 1 2 3 4 5 6 
#
# 1 68.9734 17.6604 33.5509 0.0000 0.0000 0.0000
# 2 17.6604 68.9734 33.5509 0.0000 0.0000 0.0000
# 3 33.5509 33.5509 104.3475 0.0000 0.0000 0.0000
# 4 0.0000 0.0000 0.0000 15.0834 0.0000 0.0000
# 5 0.0000 0.0000 0.0000 0.0000 15.0834 0.0000
# 6 0.0000 0.0000 0.0000 0.0000 0.0000 5.7690
#
#
#
# Elastic Compliance Matrix: (Units=1/GPa)
#
#
# Indices 1 2 3 4 5 6 
#
# 1 0.017430 -0.002059 -0.004942 0.000000 0.000000 0.000000
# 2 -0.002059 0.017430 -0.004942 0.000000 0.000000 0.000000
# 3 -0.004942 -0.004942 0.012761 0.000000 0.000000 0.000000
# 4 0.000000 0.000000 0.000000 0.066298 0.000000 0.000000
# 5 0.000000 0.000000 0.000000 0.000000 0.066298 0.000000
# 6 0.000000 0.000000 0.000000 0.000000 0.000000 0.173341
#
#
# Mechanical properties :
#
#
# Convention : Reuss Voigt Hill
#
# Bulk Modulus (GPa) = 42.13304 45.75762 43.94533
# Shear Modulus (GPa) = 12.97504 17.68930 15.33217
#
# Velocity S-wave (km/s) = 3.12113 3.64429 3.39281
# Velocity P-wave (km/s) = 6.67992 7.21539 6.95281
#
# Compressibility (1/GPa) = 0.02373434
#
# Stress axis : x y z
#
# Youngs Moduli (GPa) = 57.37396 57.37396 78.36087
#
# Poissons Ratio (x) = 0.11812 0.38727
# Poissons Ratio (y) = 0.11812 0.38727
# Poissons Ratio (z) = 0.28355 0.28355
#
# Static dielectric constant tensor:
#      x y z
#    x 2.487360 0.000000 0.000000 
#    y 0.000000 2.487360 0.000000 
#    z 0.000000 0.000000 2.902610 
# 
# 
# High freq. dielectric constant tensor:
#      x y z
#    x 1.465920 0.000000 0.000000 
#    y 0.000000 1.465920 0.000000 
#    z 0.000000 0.000000 1.521120 
# 
# From -- ./inp_files/4227.got.cif
#   From: 2010.03.12/outbox.cif.g09.slc.cpg/sg112_3_cif.got.tgz:4227.got - 2010.04.14 02:02:48.
