data_PCOD8308922
_publ_section_title
;
Structure prediction by ZEFSAII (Michael W. Deem and Ramdas Pophale) SiO2 
 PCOD8308922
Probable space group: P -4 21 C
;
_chemical_formula_sum "Si O2"
_cell_formula_units_Z 32
_cell_length_a 8.974045
_cell_length_b 8.974045
_cell_length_c 17.204173
_cell_angle_alpha 90.000000
_cell_angle_beta 90.000000
_cell_angle_gamma 90.000000
_cell_volume 1385.511985
_symmetry_space_group_name_H-M "P -4 21 C"
_symmetry_group_IT_number 114
_symmetry_cell_setting 'tetragonal'
loop_
_space_group_symop_operation_xyz
x,y,z
y,-x,-z
-x,-y,z
-y,x,-z
1/2+x,1/2-y,1/2-z
1/2-x,1/2+y,1/2-z
1/2-y,1/2-x,1/2+z
1/2+y,1/2+x,1/2+z
loop_
_atom_site_type_symbol
_atom_site_label
_atom_site_fract_x
_atom_site_fract_y
_atom_site_fract_z
Si Si1 0.571485 0.700464 0.537046
Si Si2 0.161467 0.122154 0.534569
Si Si3 0.352237 0.583642 0.289210
Si Si4 0.346860 0.923097 0.329004
O O1 0.688825 0.564398 0.522398
O O2 0.664607 0.848040 0.518173
O O3 0.519837 0.690386 0.625686
O O4 0.099913 0.221307 0.604982
O O5 0.058756 0.154314 0.456700
O O6 0.500000 0.500000 0.259538
O O7 0.377142 0.761841 0.289859
O O8 0.216314 0.539294 0.233842
O O9 0.500000 0.000000 0.359811
#
# Coordination Sequence:
#
# PCOD8308922 Si02
#       4
#     8   8   8   8
#     4  10  21  42  68 102 136 179 227 281 348 418
#     4  10  25  43  65 101 137 182 220 288 348 413
#     4  11  23  44  70  99 138 182 231 293 348 424
#     4  11  26  46  70 101 137 188 237 293 356 426
#
# _framework density 23.096157999999999
#
# number of rings (size 3 to 8) (size 9 to 14) (size 15 to 20)
#    0.000    1.500    2.500    1.500   10.500    2.000 
#    9.000    0.000    0.000    0.000    0.000    0.000 
#    0.000    0.000    0.000    0.000    0.000    0.000 
#
# Total GULP energy -396489.876234 kJ/mol
# GULP energy per Si atom -12390.308632 kJ/mol
# Density = 2.304359 g / cm^3
# Si number density = 23.096158 Si / 1000 Ang^3
#
#
#
# Elastic Constant Matrix: (Units=GPa)
#
#
# Indices 1 2 3 4 5 6 
#
# 1 66.0819 -3.0720 13.7377 0.0000 0.0000 0.0000
# 2 -3.0720 66.0819 13.7377 0.0000 0.0000 0.0000
# 3 13.7377 13.7377 80.8916 0.0000 0.0000 0.0000
# 4 0.0000 0.0000 0.0000 34.4906 0.0000 0.0000
# 5 0.0000 0.0000 0.0000 0.0000 34.4906 0.0000
# 6 0.0000 0.0000 0.0000 0.0000 0.0000 42.0573
#
#
#
# Elastic Compliance Matrix: (Units=1/GPa)
#
#
# Indices 1 2 3 4 5 6 
#
# 1 0.015800 0.001340 -0.002911 0.000000 0.000000 0.000000
# 2 0.001340 0.015800 -0.002911 0.000000 0.000000 0.000000
# 3 -0.002911 -0.002911 0.013351 0.000000 0.000000 0.000000
# 4 0.000000 0.000000 0.000000 0.028993 0.000000 0.000000
# 5 0.000000 0.000000 0.000000 0.000000 0.028993 0.000000
# 6 0.000000 0.000000 0.000000 0.000000 0.000000 0.023777
#
#
# Mechanical properties :
#
#
# Convention : Reuss Voigt Hill
#
# Bulk Modulus (GPa) = 27.78767 29.09580 28.44173
# Shear Modulus (GPa) = 33.85816 34.78449 34.32133
#
# Velocity S-wave (km/s) = 3.83295 3.88503 3.85907
# Velocity P-wave (km/s) = 5.62548 5.72273 5.67431
#
# Compressibility (1/GPa) = 0.03598719
#
# Stress axis : x y z
#
# Youngs Moduli (GPa) = 63.29049 63.29049 74.90121
#
# Poissons Ratio (x) = -0.08479 0.21803
# Poissons Ratio (y) = -0.08479 0.21803
# Poissons Ratio (z) = 0.18423 0.18423
#
# Static dielectric constant tensor:
#      x y z
#    x 4.351160 0.000000 0.000000 
#    y 0.000000 4.351160 0.000000 
#    z 0.000000 0.000000 3.884780 
# 
# 
# High freq. dielectric constant tensor:
#      x y z
#    x 1.920930 0.000000 0.000000 
#    y 0.000000 1.920930 0.000000 
#    z 0.000000 0.000000 1.891510 
# 
# From -- ./inp_files/2837.got.cif
#   From: 2010.03.12/outbox.cif.g09.slc.cpg/sg114_2_cif.got.tgz:2837.got - 2010.04.14 02:08:34.
