data_PCOD8308435
_publ_section_title
;
Structure prediction by ZEFSAII (Michael W. Deem and Ramdas Pophale) SiO2 
 PCOD8308435
Probable space group: P -4 2 C
;
_chemical_formula_sum "Si O2"
_cell_formula_units_Z 34
_cell_length_a 10.836025
_cell_length_b 10.836025
_cell_length_c 13.360036
_cell_angle_alpha 90.000000
_cell_angle_beta 90.000000
_cell_angle_gamma 90.000000
_cell_volume 1568.727916
_symmetry_space_group_name_H-M "P -4 2 C"
_symmetry_group_IT_number 112
_symmetry_cell_setting 'tetragonal'
loop_
_space_group_symop_operation_xyz
x,y,z
y,-x,-z
-x,-y,z
-y,x,-z
x,-y,1/2-z
-x,y,1/2-z
-y,-x,1/2+z
y,x,1/2+z
loop_
_atom_site_type_symbol
_atom_site_label
_atom_site_fract_x
_atom_site_fract_y
_atom_site_fract_z
Si Si1 0.000000 0.500000 0.750000
Si Si2 0.396676 0.666718 0.028860
Si Si3 0.135074 0.060871 0.903789
Si Si4 0.812103 0.218332 0.407709
Si Si5 0.692297 0.812733 0.297083
O O1 0.085346 0.587461 0.681189
O O2 0.353982 0.688705 0.144848
O O3 0.542757 0.664351 0.014744
O O4 0.343425 0.781860 0.967133
O O5 0.135603 0.175915 0.830493
O O6 0.228205 0.952523 0.865463
O O7 0.184106 0.102498 0.014142
O O8 0.000000 0.000000 0.905235
O O9 0.707778 0.207157 0.321854
#
# Coordination Sequence:
#
# PCOD8308435 Si02
#       5
#     2   8   8   8   8
#     4  12  24  36  62  98 140 166 232 282 338 416
#     4  10  24  46  67  91 128 178 233 282 343 418
#     4  11  21  38  62  95 140 183 218 276 353 427
#     4  11  21  40  63  97 132 175 227 278 353 410
#     4  11  25  39  64 101 132 182 227 289 346 410
#
# _framework density 21.673611999999999
#
# number of rings (size 3 to 8) (size 9 to 14) (size 15 to 20)
#    0.000    1.176    2.353    3.529    3.294    2.824 
#    0.000    2.353    0.000    5.647    0.000    0.000 
#    0.000    0.000    0.000    0.000    0.000    0.000 
#
# Total GULP energy -421200.793951 kJ/mol
# GULP energy per Si atom -12388.258646 kJ/mol
# Density = 2.162428 g / cm^3
# Si number density = 21.673612 Si / 1000 Ang^3
#
#
#
# Elastic Constant Matrix: (Units=GPa)
#
#
# Indices 1 2 3 4 5 6 
#
# 1 119.1523 52.2590 34.0040 0.0000 0.0000 0.0000
# 2 52.2590 119.1523 34.0040 0.0000 0.0000 0.0000
# 3 34.0040 34.0040 105.5995 0.0000 0.0000 0.0000
# 4 0.0000 0.0000 0.0000 23.9372 0.0000 0.0000
# 5 0.0000 0.0000 0.0000 0.0000 23.9372 0.0000
# 6 0.0000 0.0000 0.0000 0.0000 0.0000 45.1154
#
#
#
# Elastic Compliance Matrix: (Units=1/GPa)
#
#
# Indices 1 2 3 4 5 6 
#
# 1 0.010819 -0.004130 -0.002154 0.000000 0.000000 0.000000
# 2 -0.004130 0.010819 -0.002154 0.000000 0.000000 0.000000
# 3 -0.002154 -0.002154 0.010857 0.000000 0.000000 0.000000
# 4 0.000000 0.000000 0.000000 0.041776 0.000000 0.000000
# 5 0.000000 0.000000 0.000000 0.000000 0.041776 0.000000
# 6 0.000000 0.000000 0.000000 0.000000 0.000000 0.022165
#
#
# Mechanical properties :
#
#
# Convention : Reuss Voigt Hill
#
# Bulk Modulus (GPa) = 64.02584 64.93758 64.48171
# Shear Modulus (GPa) = 31.19272 33.50708 32.34990
#
# Velocity S-wave (km/s) = 3.79780 3.93617 3.86760
# Velocity P-wave (km/s) = 6.98828 7.11931 7.05410
#
# Compressibility (1/GPa) = 0.01561869
#
# Stress axis : x y z
#
# Youngs Moduli (GPa) = 92.43165 92.43165 92.10824
#
# Poissons Ratio (x) = 0.38178 0.19838
# Poissons Ratio (y) = 0.38178 0.19838
# Poissons Ratio (z) = 0.19907 0.19907
#
# Static dielectric constant tensor:
#      x y z
#    x 4.199550 0.000000 0.000000 
#    y 0.000000 4.199550 0.000000 
#    z 0.000000 0.000000 4.091810 
# 
# 
# High freq. dielectric constant tensor:
#      x y z
#    x 1.846870 0.000000 0.000000 
#    y 0.000000 1.846870 0.000000 
#    z 0.000000 0.000000 1.851780 
# 
# From -- ./inp_files/3201.got.cif
#   From: 2010.03.12/outbox.cif.g09.slc.cpg/sg112_2_cif.got.tgz:3201.got - 2010.04.14 02:02:48.
