data_PCOD8308504
_publ_section_title
;
Structure prediction by ZEFSAII (Michael W. Deem and Ramdas Pophale) SiO2 
 PCOD8308504
Probable space group: P -4 2 C
;
_chemical_formula_sum "Si O2"
_cell_formula_units_Z 20
_cell_length_a 5.285161
_cell_length_b 5.285161
_cell_length_c 27.570134
_cell_angle_alpha 90.000000
_cell_angle_beta 90.000000
_cell_angle_gamma 90.000000
_cell_volume 770.114535
_symmetry_space_group_name_H-M "P -4 2 C"
_symmetry_group_IT_number 112
_symmetry_cell_setting 'tetragonal'
loop_
_space_group_symop_operation_xyz
x,y,z
y,-x,-z
-x,-y,z
-y,x,-z
x,-y,1/2-z
-x,y,1/2-z
-y,-x,1/2+z
y,x,1/2+z
loop_
_atom_site_type_symbol
_atom_site_label
_atom_site_fract_x
_atom_site_fract_y
_atom_site_fract_z
Si Si1 0.751379 0.838012 0.827441
Si Si2 0.000000 0.000000 0.000000
Si Si3 0.500000 0.000000 0.250000
Si Si4 0.347752 0.261534 0.932468
O O1 0.720695 0.675877 0.876642
O O2 0.804302 0.659799 0.781929
O O3 0.500000 0.000000 0.815979
O O4 0.000000 0.000000 0.836330
O O5 0.771754 0.099958 0.034079
O O6 0.500000 0.500000 0.953528
O O7 0.500000 0.000000 0.934608
#
# Coordination Sequence:
#
# PCOD8308504 Si02
#       4
#     8   2   2   8
#     4  11  28  55  79 124 169 219 280 352 425 512
#     4  12  28  52  88 122 168 224 292 364 424 518
#     4  12  30  50  92 116 172 218 290 342 438 500
#     4  11  29  53  85 121 174 222 285 353 434 510
#
# _framework density 25.970165999999999
#
# number of rings (size 3 to 8) (size 9 to 14) (size 15 to 20)
#    0.000    0.800    2.000    0.600   16.800    4.800 
#    0.000    0.000    0.000    0.000    0.000    0.000 
#    0.000    0.000    0.000    0.000    0.000    0.000 
#
# Total GULP energy -248063.496705 kJ/mol
# GULP energy per Si atom -12403.174835 kJ/mol
# Density = 2.591106 g / cm^3
# Si number density = 25.970166 Si / 1000 Ang^3
#
#
#
# Elastic Constant Matrix: (Units=GPa)
#
#
# Indices 1 2 3 4 5 6 
#
# 1 158.7600 66.3319 62.1292 0.0000 0.0000 0.0000
# 2 66.3319 158.7600 62.1292 0.0000 0.0000 0.0000
# 3 62.1292 62.1292 204.1349 0.0000 0.0000 0.0000
# 4 0.0000 0.0000 0.0000 -373.1014 0.0000 0.0000
# 5 0.0000 0.0000 0.0000 0.0000 -373.1014 0.0000
# 6 0.0000 0.0000 0.0000 0.0000 0.0000 46.7806
#
#
#
# Elastic Compliance Matrix: (Units=1/GPa)
#
#
# Indices 1 2 3 4 5 6 
#
# 1 0.008080 -0.002740 -0.001625 0.000000 0.000000 0.000000
# 2 -0.002740 0.008080 -0.001625 0.000000 0.000000 0.000000
# 3 -0.001625 -0.001625 0.005888 0.000000 0.000000 0.000000
# 4 0.000000 0.000000 0.000000 -0.002680 0.000000 0.000000
# 5 0.000000 0.000000 0.000000 0.000000 -0.002680 0.000000
# 6 0.000000 0.000000 0.000000 0.000000 0.000000 0.021376
#
#
# Mechanical properties :
#
#
# Convention : Reuss Voigt Hill
#
# Bulk Modulus (GPa) = 99.33625 100.31508 99.82566
# Shear Modulus (GPa) = 93.63524 -117.81347 -12.08911
#
# Velocity S-wave (km/s) = 6.01109 -6.74266 -2.15989
# Velocity P-wave (km/s) = 9.30112 4.68049 5.68348
#
# Compressibility (1/GPa) = 0.01006682
#
# Stress axis : x y z
#
# Youngs Moduli (GPa) = 123.76997 123.76997 169.83748
#
# Poissons Ratio (x) = 0.33909 0.27602
# Poissons Ratio (y) = 0.33909 0.27602
# Poissons Ratio (z) = 0.20115 0.20115
#
# Static dielectric constant tensor:
#      x y z
#    x 5.263690 0.000000 0.000000 
#    y 0.000000 5.263690 0.000000 
#    z 0.000000 0.000000 5.242830 
# 
# 
# High freq. dielectric constant tensor:
#      x y z
#    x 2.040360 0.000000 0.000000 
#    y 0.000000 2.040360 0.000000 
#    z 0.000000 0.000000 2.069490 
# 
# From -- ./inp_files/5624.got.cif
#   From: 2010.03.12/outbox.cif.g09.slc.cpg/sg112_3_cif.got.tgz:5624.got - 2010.04.14 02:02:48.
