data_PCOD8308645
_publ_section_title
;
Structure prediction by ZEFSAII (Michael W. Deem and Ramdas Pophale) SiO2 
 PCOD8308645
Probable space group: P -4 21 M 
;
_chemical_formula_sum "Si O2"
_cell_formula_units_Z 48
_cell_length_a 13.420205
_cell_length_b 13.420205
_cell_length_c 14.747392
_cell_angle_alpha 90.000000
_cell_angle_beta 90.000000
_cell_angle_gamma 90.000000
_cell_volume 2656.033352
_symmetry_space_group_name_H-M "P -4 21 M "
_symmetry_group_IT_number 113
_symmetry_cell_setting 'tetragonal'
loop_
_space_group_symop_operation_xyz
x,y,z
y,-x,-z
-x,-y,z
-y,x,-z
1/2+x,1/2-y,-z
1/2-x,1/2+y,-z
1/2-y,1/2-x,z
1/2+y,1/2+x,z
loop_
_atom_site_type_symbol
_atom_site_label
_atom_site_fract_x
_atom_site_fract_y
_atom_site_fract_z
Si Si1 0.163355 0.500876 0.443547
Si Si2 0.258034 0.074137 0.377008
Si Si3 0.613376 0.279198 0.697433
Si Si4 0.080246 0.743950 0.971345
Si Si5 0.994529 0.662238 0.797339
Si Si6 0.601929 0.266899 0.902773
O O1 0.091864 0.408137 0.467798
O O2 0.239042 0.516676 0.527318
O O3 0.229015 0.479190 0.354500
O O4 0.098927 0.598927 0.422328
O O5 0.344804 0.155197 0.377798
O O6 0.150233 0.124040 0.358922
O O7 0.277046 0.995385 0.296459
O O8 0.706019 0.206019 0.703294
O O9 0.584213 0.306065 0.800301
O O10 0.144914 0.644914 0.986414
O O11 0.150670 0.839872 0.961435
O O12 0.014317 0.736105 0.880485
O O13 0.007613 0.753460 0.056621
O O14 0.886144 0.613857 0.810263
O O15 0.078986 0.578986 0.794554
O O16 0.662558 0.162558 0.903916
#
# Coordination Sequence:
#
# PCOD8308645 Si02
#       6
#     8   8   8   8   8   8
#     4   9  17  28  47  77 105 130 167 211 251 299
#     4   9  15  27  48  72 100 132 164 205 258 308
#     4   9  17  31  51  73 101 138 171 205 258 315
#     4  10  20  34  53  78 106 139 178 221 267 315
#     4   9  15  25  46  76 103 125 160 214 267 307
#     4  10  20  35  55  78 106 141 180 220 265 320
#
# _framework density 18.072063
#
# number of rings (size 3 to 8) (size 9 to 14) (size 15 to 20)
#    0.000    2.667    1.667    1.000    0.000    4.000 
#    0.000    1.667    3.667    0.500    0.000    0.000 
#    0.000    0.000    0.000    0.000    0.000    0.000 
#
# Total GULP energy -595081.534820 kJ/mol
# GULP energy per Si atom -12397.531975 kJ/mol
# Density = 1.803093 g / cm^3
# Si number density = 18.072063 Si / 1000 Ang^3
#
#
#
# Elastic Constant Matrix: (Units=GPa)
#
#
# Indices 1 2 3 4 5 6 
#
# 1 66.0327 34.3614 46.3417 0.0000 0.0000 0.0000
# 2 34.3614 66.0328 46.3415 0.0000 0.0000 0.0000
# 3 46.3417 46.3415 115.6827 0.0000 0.0000 0.0000
# 4 0.0000 0.0000 0.0000 19.4983 0.0000 0.0000
# 5 0.0000 0.0000 0.0000 0.0000 19.4977 0.0000
# 6 0.0000 0.0000 0.0000 0.0000 0.0000 20.9513
#
#
#
# Elastic Compliance Matrix: (Units=1/GPa)
#
#
# Indices 1 2 3 4 5 6 
#
# 1 0.023690 -0.007884 -0.006332 0.000000 0.000000 0.000000
# 2 -0.007884 0.023690 -0.006332 0.000000 0.000000 0.000000
# 3 -0.006332 -0.006332 0.013717 0.000000 0.000000 0.000000
# 4 0.000000 0.000000 0.000000 0.051286 0.000000 0.000000
# 5 0.000000 0.000000 0.000000 0.000000 0.051288 0.000000
# 6 0.000000 0.000000 0.000000 0.000000 0.000000 0.047730
#
#
# Mechanical properties :
#
#
# Convention : Reuss Voigt Hill
#
# Bulk Modulus (GPa) = 49.99399 55.75970 52.87684
# Shear Modulus (GPa) = 19.29273 20.03638 19.66456
#
# Velocity S-wave (km/s) = 3.27087 3.33332 3.30224
# Velocity P-wave (km/s) = 6.47986 6.76282 6.62285
#
# Compressibility (1/GPa) = 0.02000240
#
# Stress axis : x y z
#
# Youngs Moduli (GPa) = 42.21130 42.21149 72.90052
#
# Poissons Ratio (x) = 0.33280 0.46160
# Poissons Ratio (y) = 0.33279 0.46159
# Poissons Ratio (z) = 0.26728 0.26728
#
# Static dielectric constant tensor:
#      x y z
#    x 3.129040 0.000000 0.000000 
#    y 0.000000 3.129040 0.000000 
#    z 0.000000 0.000000 3.456610 
# 
# 
# High freq. dielectric constant tensor:
#      x y z
#    x 1.672200 0.000000 0.000000 
#    y 0.000000 1.672200 0.000000 
#    z 0.000000 0.000000 1.707060 
# 
# From -- ./inp_files/1833.got.cif
#   From: 2010.03.12/outbox.cif.g09.slc.cpg/sg113_cif.got.tgz:1833.got - 2010.04.14 02:06:34.
