data_PCOD8308023
_publ_section_title
;
Structure prediction by ZEFSAII (Michael W. Deem and Ramdas Pophale) SiO2 
 PCOD8308023
Probable space group: I 41 C D
;
_chemical_formula_sum "Si O2"
_cell_formula_units_Z 120
_cell_length_a 24.964992
_cell_length_b 24.964992
_cell_length_c 8.954991
_cell_angle_alpha 90.000000
_cell_angle_beta 90.000000
_cell_angle_gamma 90.000000
_cell_volume 5581.205534
_symmetry_space_group_name_H-M "I 41 C D"
_symmetry_group_IT_number 110
_symmetry_cell_setting 'tetragonal'
loop_
_space_group_symop_operation_xyz
x,y,z
-y,1/2+x,1/4+z
-x,-y,z
y,1/2-x,1/4+z
-x,y,1/2+z
x,-y,1/2+z
1/2-y,-x,1/4+z
1/2+y,x,1/4+z
1/2+x,1/2+y,1/2+z
1/2-y,x,3/4+z
1/2-x,1/2-y,1/2+z
1/2+y,-x,3/4+z
1/2-x,1/2+y,z
1/2+x,1/2-y,z
-y,1/2-x,3/4+z
y,1/2+x,3/4+z
loop_
_atom_site_type_symbol
_atom_site_label
_atom_site_fract_x
_atom_site_fract_y
_atom_site_fract_z
Si Si1 0.111758 0.965234 0.487810
Si Si2 0.000000 0.500000 0.111349
Si Si3 0.293617 0.787650 0.722817
Si Si4 0.841576 0.606562 0.814138
Si Si5 0.571417 0.356745 0.030376
Si Si6 0.838937 0.055930 0.183817
Si Si7 0.977361 0.116688 0.825254
Si Si8 0.232137 0.396875 0.084509
O O1 0.110988 0.906484 0.563746
O O2 0.154507 0.962205 0.353969
O O3 0.131921 0.009382 0.597786
O O4 0.050118 0.980034 0.456512
O O5 0.946671 0.478521 0.023965
O O6 0.285714 0.762935 0.559337
O O7 0.314789 0.848534 0.707084
O O8 0.336789 0.753538 0.816496
O O9 0.887553 0.631688 0.916869
O O10 0.869575 0.562764 0.710215
O O11 0.796841 0.584345 0.930013
O O12 0.536456 0.347649 0.180121
O O13 0.535673 0.367376 0.882627
O O14 0.605471 0.305110 0.982501
O O15 0.778341 0.060367 0.124796
#
# Coordination Sequence:
#
# PCOD8308023 Si02
#       8
#    16   8  16  16  16  16  16  16
#     4  11  23  38  63  98 132 169 219 268 333 399
#     4  10  22  38  60  96 132 168 206 270 326 398
#     4   9  20  38  68  94 121 167 218 278 338 390
#     4  10  20  42  64  93 127 168 218 278 334 395
#     4  11  24  39  62  95 127 176 215 265 330 399
#     4  11  23  40  64  94 131 173 219 276 327 399
#     4  11  23  37  64  91 132 168 218 266 331 405
#     4  10  22  43  65  87 132 177 221 271 332 396
#
# _framework density 21.500731999999999
#
# number of rings (size 3 to 8) (size 9 to 14) (size 15 to 20)
#    0.000    1.600    2.667    1.600    1.867    5.867 
#    0.000    0.000    5.867    0.000    0.000    0.000 
#    0.000    0.000    0.000    0.000    0.000    0.000 
#
# Total GULP energy -743628.487078 kJ/mol
# GULP energy per Si atom -12393.808118 kJ/mol
# Density = 2.145180 g / cm^3
# Si number density = 21.500732 Si / 1000 Ang^3
#
#
#
# Elastic Constant Matrix: (Units=GPa)
#
#
# Indices 1 2 3 4 5 6 
#
# 1 81.4367 25.8716 10.6711 0.0000 0.0000 0.0000
# 2 25.8716 81.4367 10.6711 0.0000 0.0000 0.0000
# 3 10.6711 10.6711 56.4429 0.0000 0.0000 0.0000
# 4 0.0000 0.0000 0.0000 26.3536 0.0000 0.0000
# 5 0.0000 0.0000 0.0000 0.0000 26.3536 0.0000
# 6 0.0000 0.0000 0.0000 0.0000 0.0000 28.9400
#
#
#
# Elastic Compliance Matrix: (Units=1/GPa)
#
#
# Indices 1 2 3 4 5 6 
#
# 1 0.013840 -0.004157 -0.001831 0.000000 0.000000 0.000000
# 2 -0.004157 0.013840 -0.001831 0.000000 0.000000 0.000000
# 3 -0.001831 -0.001831 0.018409 0.000000 0.000000 0.000000
# 4 0.000000 0.000000 0.000000 0.037946 0.000000 0.000000
# 5 0.000000 0.000000 0.000000 0.000000 0.037946 0.000000
# 6 0.000000 0.000000 0.000000 0.000000 0.000000 0.034554
#
#
# Mechanical properties :
#
#
# Convention : Reuss Voigt Hill
#
# Bulk Modulus (GPa) = 32.83792 34.86045 33.84918
# Shear Modulus (GPa) = 27.42402 27.80292 27.61347
#
# Velocity S-wave (km/s) = 3.57528 3.59989 3.58761
# Velocity P-wave (km/s) = 5.68767 5.79032 5.73922
#
# Compressibility (1/GPa) = 0.03045260
#
# Stress axis : x y z
#
# Youngs Moduli (GPa) = 72.25443 72.25443 54.32051
#
# Poissons Ratio (x) = 0.30036 0.09944
# Poissons Ratio (y) = 0.30036 0.09944
# Poissons Ratio (z) = 0.13228 0.13228
#
# Static dielectric constant tensor:
#      x y z
#    x 4.099870 0.000000 0.000000 
#    y 0.000000 4.099870 0.000000 
#    z 0.000000 0.000000 3.641360 
# 
# 
# High freq. dielectric constant tensor:
#      x y z
#    x 1.843730 0.000000 0.000000 
#    y 0.000000 1.843730 0.000000 
#    z 0.000000 0.000000 1.830340 
# 
# From -- ./inp_files/510.got.cif
#   From: 2010.03.12/outbox.cif.g09.slc.cpg/sg110_1_cif.got.tgz:510.got - 2010.04.14 01:58:01.
