data_PCOD8308616
_publ_section_title
;
Structure prediction by ZEFSAII (Michael W. Deem and Ramdas Pophale) SiO2 
 PCOD8308616
Probable space group: P -4 21 M 
;
_chemical_formula_sum "Si O2"
_cell_formula_units_Z 48
_cell_length_a 14.575354
_cell_length_b 14.575354
_cell_length_c 12.306110
_cell_angle_alpha 90.000000
_cell_angle_beta 90.000000
_cell_angle_gamma 90.000000
_cell_volume 2614.321628
_symmetry_space_group_name_H-M "P -4 21 M "
_symmetry_group_IT_number 113
_symmetry_cell_setting 'tetragonal'
loop_
_space_group_symop_operation_xyz
x,y,z
y,-x,-z
-x,-y,z
-y,x,-z
1/2+x,1/2-y,-z
1/2-x,1/2+y,-z
1/2-y,1/2-x,z
1/2+y,1/2+x,z
loop_
_atom_site_type_symbol
_atom_site_label
_atom_site_fract_x
_atom_site_fract_y
_atom_site_fract_z
Si Si1 0.494194 0.349761 0.599733
Si Si2 0.577224 0.077224 0.849199
Si Si3 0.984732 0.139406 0.632144
Si Si4 0.207309 0.561251 0.229603
Si Si5 0.577003 0.077003 0.093063
Si Si6 0.482948 0.723039 0.133688
Si Si7 0.850253 0.200453 0.024208
O O1 0.489729 0.300595 0.480008
O O2 0.437209 0.442333 0.601238
O O3 0.595621 0.381713 0.640838
O O4 0.443979 0.283530 0.681424
O O5 0.540322 0.166190 0.787202
O O6 0.500000 0.000000 0.855592
O O7 0.603844 0.103844 0.970859
O O8 0.012418 0.190433 0.741931
O O9 0.130265 0.630265 0.272887
O O10 0.246671 0.594784 0.116190
O O11 0.537854 0.169226 0.147112
O O12 0.500000 0.000000 0.103137
O O13 0.402175 0.673368 0.065007
O O14 0.580994 0.699146 0.078835
O O15 0.757047 0.257047 0.995711
#
# Coordination Sequence:
#
# PCOD8308616 Si02
#       7
#     8   4   8   8   4   8   8
#     4   9  18  38  59  82 114 151 191 242 304 347
#     4   9  18  34  57  81 107 157 195 225 285 349
#     4   9  20  35  60  85 112 151 193 239 298 363
#     4  10  19  35  60  83 115 152 197 239 288 353
#     4  11  22  40  59  81 121 172 195 223 297 374
#     4  12  23  37  61  90 122 156 204 245 298 358
#     4  11  24  38  56  91 125 158 199 248 294 359
#
# _framework density 18.360403000000002
#
# number of rings (size 3 to 8) (size 9 to 14) (size 15 to 20)
#    0.000    1.833    4.167    1.500    2.333    0.333 
#    0.000    2.500    7.333    1.000    0.000    0.000 
#    0.000    0.000    0.000    0.000    0.000    0.000 
#
# Total GULP energy -594694.363276 kJ/mol
# GULP energy per Si atom -12389.465902 kJ/mol
# Density = 1.831861 g / cm^3
# Si number density = 18.360403 Si / 1000 Ang^3
#
#
#
# Elastic Constant Matrix: (Units=GPa)
#
#
# Indices 1 2 3 4 5 6 
#
# 1 68.3236 10.6175 20.4488 0.0000 0.0000 0.0000
# 2 10.6175 68.3236 20.4488 0.0000 0.0000 0.0000
# 3 20.4488 20.4488 87.0664 0.0000 0.0000 0.0000
# 4 0.0000 0.0000 0.0000 -19.7195 0.0000 0.0000
# 5 0.0000 0.0000 0.0000 0.0000 -19.7195 0.0000
# 6 0.0000 0.0000 0.0000 0.0000 0.0000 20.2559
#
#
#
# Elastic Compliance Matrix: (Units=1/GPa)
#
#
# Indices 1 2 3 4 5 6 
#
# 1 0.015876 -0.001453 -0.003387 0.000000 0.000000 0.000000
# 2 -0.001453 0.015876 -0.003387 0.000000 0.000000 0.000000
# 3 -0.003387 -0.003387 0.013077 0.000000 0.000000 0.000000
# 4 0.000000 0.000000 0.000000 -0.050711 0.000000 0.000000
# 5 0.000000 0.000000 0.000000 0.000000 -0.050711 0.000000
# 6 0.000000 0.000000 0.000000 0.000000 0.000000 0.049368
#
#
# Mechanical properties :
#
#
# Convention : Reuss Voigt Hill
#
# Bulk Modulus (GPa) = 35.24555 36.30487 35.77521
# Shear Modulus (GPa) = 267.55893 7.64330 137.60111
#
# Velocity S-wave (km/s) = 12.08480 2.04254 8.66644
# Velocity P-wave (km/s) = 14.62742 5.03776 10.93939
#
# Compressibility (1/GPa) = 0.02837237
#
# Stress axis : x y z
#
# Youngs Moduli (GPa) = 62.98863 62.98863 76.47236
#
# Poissons Ratio (x) = 0.09154 0.25904
# Poissons Ratio (y) = 0.09154 0.25904
# Poissons Ratio (z) = 0.21336 0.21336
#
# Static dielectric constant tensor:
#      x y z
#    x 3.457690 0.000000 0.000000 
#    y 0.000000 3.457690 0.000000 
#    z 0.000000 0.000000 3.412020 
# 
# 
# High freq. dielectric constant tensor:
#      x y z
#    x 1.706850 0.000000 0.000000 
#    y 0.000000 1.706850 0.000000 
#    z 0.000000 0.000000 1.708620 
# 
# From -- ./inp_files/1871.got.cif
#   From: 2010.03.12/outbox.cif.g09.slc.cpg/sg113_cif.got.tgz:1871.got - 2010.04.14 02:06:34.
