data_PCOD8308587
_publ_section_title
;
Structure prediction by ZEFSAII (Michael W. Deem and Ramdas Pophale) SiO2 
 PCOD8308587
Probable space group: P -4 21 M 
;
_chemical_formula_sum "Si O2"
_cell_formula_units_Z 64
_cell_length_a 12.961091
_cell_length_b 12.961091
_cell_length_c 21.519119
_cell_angle_alpha 90.000000
_cell_angle_beta 90.000000
_cell_angle_gamma 90.000000
_cell_volume 3614.994217
_symmetry_space_group_name_H-M "P -4 21 M "
_symmetry_group_IT_number 113
_symmetry_cell_setting 'tetragonal'
loop_
_space_group_symop_operation_xyz
x,y,z
y,-x,-z
-x,-y,z
-y,x,-z
1/2+x,1/2-y,-z
1/2-x,1/2+y,-z
1/2-y,1/2-x,z
1/2+y,1/2+x,z
loop_
_atom_site_type_symbol
_atom_site_label
_atom_site_fract_x
_atom_site_fract_y
_atom_site_fract_z
Si Si1 0.722008 0.609882 0.649551
Si Si2 0.764147 0.430438 0.559966
Si Si3 0.146033 0.956156 0.974518
Si Si4 0.300295 0.630617 0.865730
Si Si5 0.960314 0.110933 0.741921
Si Si6 0.662558 0.999752 0.048304
Si Si7 0.240143 0.571168 0.417694
Si Si8 0.870526 0.792357 0.357855
O O1 0.806438 0.693563 0.671997
O O2 0.775753 0.532621 0.601113
O O3 0.678827 0.550553 0.710131
O O4 0.628972 0.662858 0.612498
O O5 0.873749 0.373749 0.564608
O O6 0.735710 0.455045 0.489108
O O7 0.672566 0.358409 0.584817
O O8 0.141745 0.904480 0.906671
O O9 0.264756 0.953808 0.994911
O O10 0.075036 0.893710 0.024831
O O11 0.239746 0.739746 0.861928
O O12 0.326803 0.588708 0.798388
O O13 0.228668 0.542836 0.894901
O O14 0.868486 0.088717 0.694518
O O15 0.000000 0.000000 0.765118
O O16 0.591056 0.091056 0.074547
O O17 0.592140 0.907861 0.019580
O O18 0.136531 0.636531 0.410336
O O19 0.222625 0.464455 0.381850
O O20 0.782679 0.717322 0.330324
#
# Coordination Sequence:
#
# PCOD8308587 Si02
#       8
#     8   8   8   8   8   8   8   8
#     4  10  21  37  54  77 109 142 177 222 274 326
#     4   9  19  32  52  79 106 134 171 216 271 333
#     4   9  18  32  55  83 113 145 181 220 266 318
#     4  10  21  35  56  83 110 141 181 227 269 315
#     4  11  22  37  58  76 102 143 186 224 263 313
#     4   9  18  33  54  82 117 149 176 214 270 329
#     4  10  19  33  52  78 105 135 173 219 273 328
#     4  10  20  36  53  75 103 137 176 218 264 319
#
# _framework density 17.704041
#
# number of rings (size 3 to 8) (size 9 to 14) (size 15 to 20)
#    0.000    2.250    1.250    1.500    3.500    3.500 
#    0.000    2.500    0.000    0.750    0.000    0.000 
#    0.000    0.000    0.000    0.000    0.000    0.000 
#
# Total GULP energy -793529.650211 kJ/mol
# GULP energy per Si atom -12398.900785 kJ/mol
# Density = 1.766375 g / cm^3
# Si number density = 17.704041 Si / 1000 Ang^3
#
#
#
# Elastic Constant Matrix: (Units=GPa)
#
#
# Indices 1 2 3 4 5 6 
#
# 1 87.3579 34.1187 36.3243 0.0000 0.0000 0.0000
# 2 34.1187 87.3560 36.3236 0.0000 0.0000 0.0000
# 3 36.3243 36.3236 87.7345 0.0000 0.0000 0.0000
# 4 0.0000 0.0000 0.0000 22.9203 0.0000 0.0000
# 5 0.0000 0.0000 0.0000 0.0000 22.9206 0.0000
# 6 0.0000 0.0000 0.0000 0.0000 0.0000 22.4552
#
#
#
# Elastic Compliance Matrix: (Units=1/GPa)
#
#
# Indices 1 2 3 4 5 6 
#
# 1 0.014862 -0.003921 -0.004530 0.000000 0.000000 0.000000
# 2 -0.003921 0.014862 -0.004530 0.000000 0.000000 0.000000
# 3 -0.004530 -0.004530 0.015149 0.000000 0.000000 0.000000
# 4 0.000000 0.000000 0.000000 0.043629 0.000000 0.000000
# 5 0.000000 0.000000 0.000000 0.000000 0.043629 0.000000
# 6 0.000000 0.000000 0.000000 0.000000 0.000000 0.044533
#
#
# Mechanical properties :
#
#
# Convention : Reuss Voigt Hill
#
# Bulk Modulus (GPa) = 52.87707 52.88684 52.88196
# Shear Modulus (GPa) = 23.93137 24.03801 23.98469
#
# Velocity S-wave (km/s) = 3.68060 3.68879 3.68470
# Velocity P-wave (km/s) = 6.92780 6.93401 6.93091
#
# Compressibility (1/GPa) = 0.01891179
#
# Stress axis : x y z
#
# Youngs Moduli (GPa) = 67.28486 67.28364 66.01119
#
# Poissons Ratio (x) = 0.26383 0.29902
# Poissons Ratio (y) = 0.26383 0.29902
# Poissons Ratio (z) = 0.30479 0.30478
#
# Static dielectric constant tensor:
#      x y z
#    x 3.367610 0.000000 0.000000 
#    y 0.000000 3.367610 0.000000 
#    z 0.000000 0.000000 3.090300 
# 
# 
# High freq. dielectric constant tensor:
#      x y z
#    x 1.691430 0.000000 0.000000 
#    y 0.000000 1.691430 0.000000 
#    z 0.000000 0.000000 1.663030 
# 
# From -- ./inp_files/2900.got.cif
#   From: 2010.03.12/outbox.cif.g09.slc.cpg/sg113_cif.got.tgz:2900.got - 2010.04.14 02:06:34.
