data_PCOD8308357
_publ_section_title
;
Structure prediction by ZEFSAII (Michael W. Deem and Ramdas Pophale) SiO2 
 PCOD8308357
Probable space group: P -4 2 C
;
_chemical_formula_sum "Si O2"
_cell_formula_units_Z 56
_cell_length_a 15.299881
_cell_length_b 15.299881
_cell_length_c 11.636004
_cell_angle_alpha 90.000000
_cell_angle_beta 90.000000
_cell_angle_gamma 90.000000
_cell_volume 2723.829805
_symmetry_space_group_name_H-M "P -4 2 C"
_symmetry_group_IT_number 112
_symmetry_cell_setting 'tetragonal'
loop_
_space_group_symop_operation_xyz
x,y,z
y,-x,-z
-x,-y,z
-y,x,-z
x,-y,1/2-z
-x,y,1/2-z
-y,-x,1/2+z
y,x,1/2+z
loop_
_atom_site_type_symbol
_atom_site_label
_atom_site_fract_x
_atom_site_fract_y
_atom_site_fract_z
Si Si1 0.995821 0.205686 0.063079
Si Si2 0.159241 0.764796 0.306291
Si Si3 0.229692 0.574698 0.825755
Si Si4 0.637811 0.532046 0.482934
Si Si5 0.127631 0.074666 0.343353
Si Si6 0.285668 0.827193 0.484591
Si Si7 0.339418 0.291602 0.818827
O O1 0.058055 0.248653 0.160371
O O2 0.964371 0.108640 0.103167
O O3 0.038818 0.194803 0.938259
O O4 0.915744 0.274995 0.057743
O O5 0.172579 0.837658 0.207461
O O6 0.195551 0.808699 0.421393
O O7 0.208492 0.674070 0.269150
O O8 0.181317 0.500000 0.750000
O O9 0.160346 0.636928 0.890104
O O10 0.288188 0.628475 0.735790
O O11 0.288408 0.526864 0.920700
O O12 0.599032 0.435455 0.468676
O O13 0.676261 0.562948 0.357028
O O14 0.109038 0.000000 0.250000
O O15 0.301965 0.740758 0.559196
#
# Coordination Sequence:
#
# PCOD8308357 Si02
#       7
#     8   8   8   8   8   8   8
#     4  12  22  36  52  84 121 162 211 256 305 367
#     4  11  21  36  55  79 117 165 200 247 306 360
#     4  10  20  37  60  85 122 163 194 249 307 361
#     4  10  20  35  57  92 128 154 187 239 304 382
#     4  12  23  35  50  76 117 163 196 248 309 361
#     4  10  21  36  55  84 118 159 213 246 298 373
#     4  10  20  36  55  81 122 156 201 235 295 374
#
# _framework density 20.559287999999999
#
# number of rings (size 3 to 8) (size 9 to 14) (size 15 to 20)
#    0.000    1.286    5.714    0.429    0.000    4.286 
#    0.000    0.000    0.000    0.000    0.000   18.000 
#    0.000    8.571    0.000    0.000    0.000    0.000 
#
# Total GULP energy -693773.102210 kJ/mol
# GULP energy per Si atom -12388.805397 kJ/mol
# Density = 2.051249 g / cm^3
# Si number density = 20.559288 Si / 1000 Ang^3
#
#
#
# Elastic Constant Matrix: (Units=GPa)
#
#
# Indices 1 2 3 4 5 6 
#
# 1 52.9745 10.3688 9.1420 0.0000 0.0000 0.0000
# 2 10.3688 52.9745 9.1420 0.0000 0.0000 0.0000
# 3 9.1420 9.1420 52.4954 0.0000 0.0000 0.0000
# 4 0.0000 0.0000 0.0000 38.1130 0.0000 0.0000
# 5 0.0000 0.0000 0.0000 0.0000 38.1130 0.0000
# 6 0.0000 0.0000 0.0000 0.0000 0.0000 24.1873
#
#
#
# Elastic Compliance Matrix: (Units=1/GPa)
#
#
# Indices 1 2 3 4 5 6 
#
# 1 0.020047 -0.003424 -0.002895 0.000000 0.000000 0.000000
# 2 -0.003424 0.020047 -0.002895 0.000000 0.000000 0.000000
# 3 -0.002895 -0.002895 0.020058 0.000000 0.000000 0.000000
# 4 0.000000 0.000000 0.000000 0.026238 0.000000 0.000000
# 5 0.000000 0.000000 0.000000 0.000000 0.026238 0.000000
# 6 0.000000 0.000000 0.000000 0.000000 0.000000 0.041344
#
#
# Mechanical properties :
#
#
# Convention : Reuss Voigt Hill
#
# Bulk Modulus (GPa) = 23.96729 23.97220 23.96975
# Shear Modulus (GPa) = 26.83754 28.73543 27.78649
#
# Velocity S-wave (km/s) = 3.61691 3.74262 3.68030
# Velocity P-wave (km/s) = 5.39682 5.51014 5.45378
#
# Compressibility (1/GPa) = 0.04172353
#
# Stress axis : x y z
#
# Youngs Moduli (GPa) = 49.88323 49.88323 49.85652
#
# Poissons Ratio (x) = 0.17081 0.14432
# Poissons Ratio (y) = 0.17081 0.14432
# Poissons Ratio (z) = 0.14440 0.14440
#
# Static dielectric constant tensor:
#      x y z
#    x 3.613800 0.000000 0.000000 
#    y 0.000000 3.613800 0.000000 
#    z 0.000000 0.000000 4.058830 
# 
# 
# High freq. dielectric constant tensor:
#      x y z
#    x 1.776610 0.000000 0.000000 
#    y 0.000000 1.776610 0.000000 
#    z 0.000000 0.000000 1.832710 
# 
# From -- ./inp_files/2641.got.cif
#   From: 2010.03.12/outbox.cif.g09.slc.cpg/sg112_2_cif.got.tgz:2641.got - 2010.04.14 02:02:48.
