data_PCOD8308843
_publ_section_title
;
Structure prediction by ZEFSAII (Michael W. Deem and Ramdas Pophale) SiO2 
 PCOD8308843
Probable space group: P -4 21 C
;
_chemical_formula_sum "Si O2"
_cell_formula_units_Z 60
_cell_length_a 13.951874
_cell_length_b 13.951874
_cell_length_c 16.690494
_cell_angle_alpha 90.000000
_cell_angle_beta 90.000000
_cell_angle_gamma 90.000000
_cell_volume 3248.884573
_symmetry_space_group_name_H-M "P -4 21 C"
_symmetry_group_IT_number 114
_symmetry_cell_setting 'tetragonal'
loop_
_space_group_symop_operation_xyz
x,y,z
y,-x,-z
-x,-y,z
-y,x,-z
1/2+x,1/2-y,1/2-z
1/2-x,1/2+y,1/2-z
1/2-y,1/2-x,1/2+z
1/2+y,1/2+x,1/2+z
loop_
_atom_site_type_symbol
_atom_site_label
_atom_site_fract_x
_atom_site_fract_y
_atom_site_fract_z
Si Si1 0.612775 0.864394 0.909041
Si Si2 0.613511 0.912670 0.582845
Si Si3 0.687644 0.522391 0.062713
Si Si4 0.435654 0.642151 0.119892
Si Si5 0.140525 0.803706 0.338394
Si Si6 0.500000 0.000000 0.295648
Si Si7 0.254892 0.759558 0.176059
Si Si8 0.576654 0.109949 0.655773
O O1 0.540327 0.777962 0.917285
O O2 0.717335 0.824536 0.884075
O O3 0.574529 0.938311 0.845073
O O4 0.617367 0.917175 0.993699
O O5 0.712864 0.864978 0.604385
O O6 0.532860 0.863879 0.637428
O O7 0.616642 0.028343 0.595053
O O8 0.593616 0.467267 0.097754
O O9 0.701126 0.620403 0.110867
O O10 0.687731 0.541977 0.967582
O O11 0.531985 0.653558 0.174675
O O12 0.350639 0.692611 0.171965
O O13 0.200508 0.772355 0.260536
O O14 0.434509 0.926367 0.244762
O O15 0.292091 0.863835 0.149226
#
# Coordination Sequence:
#
# PCOD8308843 Si02
#       8
#     8   8   8   8   8   4   8   8
#     4  11  21  36  57  89 120 151 201 243 301 364
#     4  10  20  36  60  79 112 156 196 246 289 350
#     4  11  21  36  60  92 119 155 197 258 311 370
#     4  11  21  37  61  88 124 154 198 255 312 364
#     4  12  21  35  58  86 123 155 196 246 312 360
#     4  10  20  34  58  84 118 154 194 244 296 364
#     4  11  23  36  56  86 123 157 194 243 301 371
#     4  10  20  38  56  80 118 157 192 243 303 346
#
# _framework density 18.467877000000001
#
# number of rings (size 3 to 8) (size 9 to 14) (size 15 to 20)
#    0.000    1.333    4.000    4.400    0.000    1.067 
#    0.000    1.333    0.000    0.000    0.000    0.000 
#    0.000    0.000    0.000    0.000    0.000    0.000 
#
# Total GULP energy -743382.690588 kJ/mol
# GULP energy per Si atom -12389.711510 kJ/mol
# Density = 1.842584 g / cm^3
# Si number density = 18.467877 Si / 1000 Ang^3
#
#
#
# Elastic Constant Matrix: (Units=GPa)
#
#
# Indices 1 2 3 4 5 6 
#
# 1 82.5584 28.7942 46.7875 0.0000 0.0000 0.0000
# 2 28.7942 82.5584 46.7875 0.0000 0.0000 0.0000
# 3 46.7875 46.7875 115.4964 0.0000 0.0000 0.0000
# 4 0.0000 0.0000 0.0000 26.2600 0.0000 0.0000
# 5 0.0000 0.0000 0.0000 0.0000 26.2600 0.0000
# 6 0.0000 0.0000 0.0000 0.0000 0.0000 35.1281
#
#
#
# Elastic Compliance Matrix: (Units=1/GPa)
#
#
# Indices 1 2 3 4 5 6 
#
# 1 0.016108 -0.002492 -0.005516 0.000000 0.000000 0.000000
# 2 -0.002492 0.016108 -0.005516 0.000000 0.000000 0.000000
# 3 -0.005516 -0.005516 0.013127 0.000000 0.000000 0.000000
# 4 0.000000 0.000000 0.000000 0.038081 0.000000 0.000000
# 5 0.000000 0.000000 0.000000 0.000000 0.038081 0.000000
# 6 0.000000 0.000000 0.000000 0.000000 0.000000 0.028467
#
#
# Mechanical properties :
#
#
# Convention : Reuss Voigt Hill
#
# Bulk Modulus (GPa) = 54.65809 58.37239 56.51524
# Shear Modulus (GPa) = 27.30506 28.07923 27.69214
#
# Velocity S-wave (km/s) = 3.84932 3.90351 3.87651
# Velocity P-wave (km/s) = 7.02972 7.21059 7.12073
#
# Compressibility (1/GPa) = 0.01829555
#
# Stress axis : x y z
#
# Youngs Moduli (GPa) = 62.08236 62.08236 76.17870
#
# Poissons Ratio (x) = 0.15472 0.42017
# Poissons Ratio (y) = 0.15472 0.42017
# Poissons Ratio (z) = 0.34242 0.34242
#
# Static dielectric constant tensor:
#      x y z
#    x 3.536460 0.000000 0.000000 
#    y 0.000000 3.536460 0.000000 
#    z 0.000000 0.000000 3.533310 
# 
# 
# High freq. dielectric constant tensor:
#      x y z
#    x 1.715060 0.000000 0.000000 
#    y 0.000000 1.715060 0.000000 
#    z 0.000000 0.000000 1.707200 
# 
# From -- ./inp_files/2294.got.cif
#   From: 2010.03.12/outbox.cif.g09.slc.cpg/sg114_2_cif.got.tgz:2294.got - 2010.04.14 02:08:34.
