data_PCOD8308670
_publ_section_title
;
Structure prediction by ZEFSAII (Michael W. Deem and Ramdas Pophale) SiO2 
 PCOD8308670
Probable space group: P -4 21 M 
;
_chemical_formula_sum "Si O2"
_cell_formula_units_Z 40
_cell_length_a 15.487935
_cell_length_b 15.487935
_cell_length_c 8.641766
_cell_angle_alpha 90.000000
_cell_angle_beta 90.000000
_cell_angle_gamma 90.000000
_cell_volume 2072.953389
_symmetry_space_group_name_H-M "P -4 21 M "
_symmetry_group_IT_number 113
_symmetry_cell_setting 'tetragonal'
loop_
_space_group_symop_operation_xyz
x,y,z
y,-x,-z
-x,-y,z
-y,x,-z
1/2+x,1/2-y,-z
1/2-x,1/2+y,-z
1/2-y,1/2-x,z
1/2+y,1/2+x,z
loop_
_atom_site_type_symbol
_atom_site_label
_atom_site_fract_x
_atom_site_fract_y
_atom_site_fract_z
Si Si1 0.544278 0.378537 0.068560
Si Si2 0.697097 0.053827 0.929216
Si Si3 0.621463 0.544278 0.568562
Si Si4 0.927514 0.427514 0.576006
Si Si5 0.572487 0.927514 0.075997
Si Si6 0.946174 0.697096 0.429222
O O1 0.553950 0.393605 0.249999
O O2 0.445389 0.393197 0.018492
O O3 0.574244 0.282820 0.024997
O O4 0.632434 0.132434 0.960368
O O5 0.719959 0.043781 0.749997
O O6 0.655920 0.963793 0.987065
O O7 0.606804 0.445389 0.518490
O O8 0.717180 0.574245 0.525002
O O9 0.901035 0.401035 0.750005
O O10 0.844080 0.463793 0.487074
O O11 0.000000 0.500000 0.578305
O O12 0.500000 0.000000 0.078295
O O13 0.867568 0.632432 0.460374
#
# Coordination Sequence:
#
# PCOD8308670 Si02
#       6
#     8   8   8   4   4   8
#     4  11  22  39  61  83 112 149 191 232 283 340
#     4  10  20  36  58  85 117 150 188 234 283 334
#     4  11  22  39  61  83 112 149 191 232 283 340
#     4   9  17  31  53  81 113 149 185 224 277 334
#     4   9  17  31  53  81 113 149 185 224 277 334
#     4  10  20  36  58  85 117 150 188 234 283 334
#
# _framework density 19.296142
#
# number of rings (size 3 to 8) (size 9 to 14) (size 15 to 20)
#    0.000    1.800    0.000    6.600    0.000    4.800 
#    3.600    0.000    0.000    0.000    0.000    0.000 
#    0.000    0.000    0.000    0.000    0.000    0.000 
#
# Total GULP energy -496169.900874 kJ/mol
# GULP energy per Si atom -12404.247522 kJ/mol
# Density = 1.925222 g / cm^3
# Si number density = 19.296142 Si / 1000 Ang^3
#
#
#
# Elastic Constant Matrix: (Units=GPa)
#
#
# Indices 1 2 3 4 5 6 
#
# 1 72.2924 17.5455 20.0689 0.0000 0.0000 0.0000
# 2 17.5455 72.2923 20.0683 0.0000 0.0000 0.0000
# 3 20.0689 20.0683 94.3410 0.0000 0.0000 0.0000
# 4 0.0000 0.0000 0.0000 34.0293 0.0000 0.0000
# 5 0.0000 0.0000 0.0000 0.0000 34.0294 0.0000
# 6 0.0000 0.0000 0.0000 0.0000 0.0000 13.4059
#
#
#
# Elastic Compliance Matrix: (Units=1/GPa)
#
#
# Indices 1 2 3 4 5 6 
#
# 1 0.015283 -0.002983 -0.002617 0.000000 0.000000 0.000000
# 2 -0.002983 0.015283 -0.002616 0.000000 0.000000 0.000000
# 3 -0.002617 -0.002616 0.011713 0.000000 0.000000 0.000000
# 4 0.000000 0.000000 0.000000 0.029386 0.000000 0.000000
# 5 0.000000 0.000000 0.000000 0.000000 0.029386 0.000000
# 6 0.000000 0.000000 0.000000 0.000000 0.000000 0.074594
#
#
# Mechanical properties :
#
#
# Convention : Reuss Voigt Hill
#
# Bulk Modulus (GPa) = 38.68891 39.36570 39.02730
# Shear Modulus (GPa) = 24.91360 28.37577 26.64469
#
# Velocity S-wave (km/s) = 3.59711 3.83892 3.71998
# Velocity P-wave (km/s) = 6.11113 6.33205 6.22257
#
# Compressibility (1/GPa) = 0.02584720
#
# Stress axis : x y z
#
# Youngs Moduli (GPa) = 65.43196 65.43206 85.37485
#
# Poissons Ratio (x) = 0.19518 0.22339
# Poissons Ratio (y) = 0.19518 0.22338
# Poissons Ratio (z) = 0.17121 0.17120
#
# Static dielectric constant tensor:
#      x y z
#    x 3.424760 0.000000 0.000000 
#    y 0.000000 3.424760 0.000000 
#    z 0.000000 0.000000 3.712640 
# 
# 
# High freq. dielectric constant tensor:
#      x y z
#    x 1.740540 0.000000 0.000000 
#    y 0.000000 1.740540 0.000000 
#    z 0.000000 0.000000 1.771020 
# 
# From -- ./inp_files/1039.got.cif
#   From: 2010.03.12/outbox.cif.g09.slc.cpg/sg113_cif.got.tgz:1039.got - 2010.04.14 02:06:34.
