data_PCOD8308773
_publ_section_title
;
Structure prediction by ZEFSAII (Michael W. Deem and Ramdas Pophale) SiO2 
 PCOD8308773
Probable space group: P -4 21 M 
;
_chemical_formula_sum "Si O2"
_cell_formula_units_Z 40
_cell_length_a 15.676147
_cell_length_b 15.676147
_cell_length_c 7.672515
_cell_angle_alpha 90.000000
_cell_angle_beta 90.000000
_cell_angle_gamma 90.000000
_cell_volume 1885.455995
_symmetry_space_group_name_H-M "P -4 21 M "
_symmetry_group_IT_number 113
_symmetry_cell_setting 'tetragonal'
loop_
_space_group_symop_operation_xyz
x,y,z
y,-x,-z
-x,-y,z
-y,x,-z
1/2+x,1/2-y,-z
1/2-x,1/2+y,-z
1/2-y,1/2-x,z
1/2+y,1/2+x,z
loop_
_atom_site_type_symbol
_atom_site_label
_atom_site_fract_x
_atom_site_fract_y
_atom_site_fract_z
Si Si1 0.323542 0.677294 0.898049
Si Si2 0.333310 0.309489 0.503968
Si Si3 0.073928 0.291995 0.661885
Si Si4 0.180670 0.540378 0.358293
Si Si5 0.503779 0.751093 0.996806
O O1 0.253582 0.753582 0.927045
O O2 0.334294 0.652030 0.696675
O O3 0.416655 0.698813 0.972351
O O4 0.298959 0.593287 0.008165
O O5 0.259337 0.240664 0.514861
O O6 0.303181 0.392005 0.614722
O O7 0.419370 0.272443 0.588495
O O8 0.151491 0.348510 0.733292
O O9 0.038490 0.335324 0.486186
O O10 0.001610 0.292982 0.811324
O O11 0.105643 0.605643 0.389483
O O12 0.180069 0.508165 0.159084
#
# Coordination Sequence:
#
# PCOD8308773 Si02
#       5
#     8   8   8   8   8
#     4  11  23  42  69  99 133 179 228 274 335 400
#     4   9  19  41  67  89 123 172 221 268 327 394
#     4  11  23  40  64  94 129 173 222 276 335 401
#     4  11  23  40  64  94 129 173 222 276 335 401
#     4  12  24  41  70  99 134 172 226 279 334 397
#
# _framework density 21.215026999999999
#
# number of rings (size 3 to 8) (size 9 to 14) (size 15 to 20)
#    0.000    1.200    4.000    2.400    0.000    4.000 
#    0.000    0.000    0.000    6.000    0.000    0.000 
#    0.000    0.000    0.000    0.000    0.000    0.000 
#
# Total GULP energy -495850.184821 kJ/mol
# GULP energy per Si atom -12396.254621 kJ/mol
# Density = 2.116674 g / cm^3
# Si number density = 21.215027 Si / 1000 Ang^3
#
#
#
# Elastic Constant Matrix: (Units=GPa)
#
#
# Indices 1 2 3 4 5 6 
#
# 1 85.3246 23.8063 11.9706 0.0000 0.0000 0.0000
# 2 23.8063 85.3250 11.9704 0.0000 0.0000 0.0000
# 3 11.9706 11.9704 106.5608 0.0000 0.0000 0.0000
# 4 0.0000 0.0000 0.0000 33.3218 0.0000 0.0000
# 5 0.0000 0.0000 0.0000 0.0000 33.3218 0.0000
# 6 0.0000 0.0000 0.0000 0.0000 0.0000 21.8903
#
#
#
# Elastic Compliance Matrix: (Units=1/GPa)
#
#
# Indices 1 2 3 4 5 6 
#
# 1 0.012825 -0.003430 -0.001055 0.000000 0.000000 0.000000
# 2 -0.003430 0.012825 -0.001055 0.000000 0.000000 0.000000
# 3 -0.001055 -0.001055 0.009621 0.000000 0.000000 0.000000
# 4 0.000000 0.000000 0.000000 0.030010 0.000000 0.000000
# 5 0.000000 0.000000 0.000000 0.000000 0.030010 0.000000
# 6 0.000000 0.000000 0.000000 0.000000 0.000000 0.045682
#
#
# Mechanical properties :
#
#
# Convention : Reuss Voigt Hill
#
# Bulk Modulus (GPa) = 41.34009 41.41166 41.37587
# Shear Modulus (GPa) = 31.22663 33.00432 32.11547
#
# Velocity S-wave (km/s) = 3.84071 3.94852 3.89499
# Velocity P-wave (km/s) = 6.26072 6.35217 6.30661
#
# Compressibility (1/GPa) = 0.02418959
#
# Stress axis : x y z
#
# Youngs Moduli (GPa) = 77.97219 77.97269 103.93474
#
# Poissons Ratio (x) = 0.26746 0.10969
# Poissons Ratio (y) = 0.26746 0.10969
# Poissons Ratio (z) = 0.08229 0.08229
#
# Static dielectric constant tensor:
#      x y z
#    x 3.757960 0.000000 0.000000 
#    y 0.000000 3.757970 0.000000 
#    z 0.000000 0.000000 4.128660 
# 
# 
# High freq. dielectric constant tensor:
#      x y z
#    x 1.815530 0.000000 0.000000 
#    y 0.000000 1.815530 0.000000 
#    z 0.000000 0.000000 1.857940 
# 
# From -- ./inp_files/1032.got.cif
#   From: 2010.03.12/outbox.cif.g09.slc.cpg/sg113_cif.got.tgz:1032.got - 2010.04.14 02:06:34.
