data_PCOD8308643
_publ_section_title
;
Structure prediction by ZEFSAII (Michael W. Deem and Ramdas Pophale) SiO2 
 PCOD8308643
Probable space group: P -4 21 M 
;
_chemical_formula_sum "Si O2"
_cell_formula_units_Z 64
_cell_length_a 12.750125
_cell_length_b 12.750125
_cell_length_c 20.939211
_cell_angle_alpha 90.000000
_cell_angle_beta 90.000000
_cell_angle_gamma 90.000000
_cell_volume 3403.997232
_symmetry_space_group_name_H-M "P -4 21 M "
_symmetry_group_IT_number 113
_symmetry_cell_setting 'tetragonal'
loop_
_space_group_symop_operation_xyz
x,y,z
y,-x,-z
-x,-y,z
-y,x,-z
1/2+x,1/2-y,-z
1/2-x,1/2+y,-z
1/2-y,1/2-x,z
1/2+y,1/2+x,z
loop_
_atom_site_type_symbol
_atom_site_label
_atom_site_fract_x
_atom_site_fract_y
_atom_site_fract_z
Si Si1 0.584790 0.261501 0.266198
Si Si2 0.994692 0.327559 0.854200
Si Si3 0.500274 0.172028 0.618660
Si Si4 0.505653 0.170377 0.009285
Si Si5 0.327574 0.995983 0.872057
Si Si6 0.008147 0.827679 0.494878
Si Si7 0.749664 0.925489 0.747626
Si Si8 0.827914 0.500738 0.609919
O O1 0.669840 0.169840 0.265079
O O2 0.514127 0.254911 0.202420
O O3 0.636835 0.376399 0.267940
O O4 0.513783 0.247656 0.328992
O O5 0.085628 0.414373 0.856837
O O6 0.883716 0.383716 0.840859
O O7 0.993518 0.266230 0.923495
O O8 0.395701 0.104300 0.605806
O O9 0.501595 0.271478 0.572907
O O10 0.502636 0.214218 0.691053
O O11 0.603027 0.103027 0.606480
O O12 0.422730 0.077271 0.013025
O O13 0.491256 0.231827 0.941444
O O14 0.621751 0.121751 0.006174
O O15 0.382252 0.882252 0.866265
O O16 0.416586 0.083415 0.866279
O O17 0.245308 0.009806 0.814107
O O18 0.902648 0.891479 0.508774
O O19 0.026150 0.741491 0.548957
O O20 0.668663 0.831338 0.755097
O O21 0.893728 0.606273 0.595787
O O22 0.904912 0.404912 0.624592
#
# Coordination Sequence:
#
# PCOD8308643 Si02
#       8
#     8   8   8   8   8   8   8   8
#     4   9  16  25  39  62  93 126 157 193 239 287
#     4   8  12  19  32  52  80 113 150 193 239 285
#     4  10  20  34  53  76 100 128 163 201 241 286
#     4   7  10  16  28  48  74 104 140 187 240 286
#     4   8  12  19  32  52  80 113 150 193 239 285
#     4  11  24  39  54  74 100 129 160 195 238 288
#     4   9  16  25  39  62  93 126 157 193 239 287
#     4  10  20  34  53  76 100 128 163 201 241 286
#
# _framework density 18.801425999999999
#
# number of rings (size 3 to 8) (size 9 to 14) (size 15 to 20)
#    0.000    3.000    0.000    3.750    0.000    7.000 
#    0.000    0.000    0.000    0.000    0.000    1.750 
#    0.000    6.000    0.000    0.000    0.000    0.000 
#
# Total GULP energy -793017.026271 kJ/mol
# GULP energy per Si atom -12390.891035 kJ/mol
# Density = 1.875863 g / cm^3
# Si number density = 18.801426 Si / 1000 Ang^3
#
#
#
# Elastic Constant Matrix: (Units=GPa)
#
#
# Indices 1 2 3 4 5 6 
#
# 1 41.7301 15.2694 16.6462 0.0000 0.0000 0.0000
# 2 15.2694 41.7294 16.6462 0.0000 0.0000 0.0000
# 3 16.6462 16.6462 114.4277 0.0000 0.0000 0.0000
# 4 0.0000 0.0000 0.0000 4.3503 0.0000 0.0000
# 5 0.0000 0.0000 0.0000 0.0000 4.3505 0.0000
# 6 0.0000 0.0000 0.0000 0.0000 0.0000 17.7074
#
#
#
# Elastic Compliance Matrix: (Units=1/GPa)
#
#
# Indices 1 2 3 4 5 6 
#
# 1 0.028483 -0.009310 -0.002789 0.000000 0.000000 0.000000
# 2 -0.009310 0.028483 -0.002789 0.000000 0.000000 0.000000
# 3 -0.002789 -0.002789 0.009551 0.000000 0.000000 0.000000
# 4 0.000000 0.000000 0.000000 0.229869 0.000000 0.000000
# 5 0.000000 0.000000 0.000000 0.000000 0.229858 0.000000
# 6 0.000000 0.000000 0.000000 0.000000 0.000000 0.056473
#
#
# Mechanical properties :
#
#
# Convention : Reuss Voigt Hill
#
# Bulk Modulus (GPa) = 27.21805 32.77898 29.99852
# Shear Modulus (GPa) = 8.00334 15.23668 11.62001
#
# Velocity S-wave (km/s) = 2.06543 2.84984 2.48874
# Velocity P-wave (km/s) = 4.49400 5.31986 4.92428
#
# Compressibility (1/GPa) = 0.03674033
#
# Stress axis : x y z
#
# Youngs Moduli (GPa) = 35.10915 35.10857 104.70488
#
# Poissons Ratio (x) = 0.32685 0.29204
# Poissons Ratio (y) = 0.32685 0.29205
# Poissons Ratio (z) = 0.09792 0.09793
#
# Static dielectric constant tensor:
#      x y z
#    x 3.098370 0.000000 0.000000 
#    y 0.000000 3.098370 0.000000 
#    z 0.000000 0.000000 3.935160 
# 
# 
# High freq. dielectric constant tensor:
#      x y z
#    x 1.682770 0.000000 0.000000 
#    y 0.000000 1.682770 0.000000 
#    z 0.000000 0.000000 1.759600 
# 
# From -- ./inp_files/2888.got.cif
#   From: 2010.03.12/outbox.cif.g09.slc.cpg/sg113_cif.got.tgz:2888.got - 2010.04.14 02:06:34.
