data_PCOD8308848
_publ_section_title
;
Structure prediction by ZEFSAII (Michael W. Deem and Ramdas Pophale) SiO2 
 PCOD8308848
Probable space group: P -4 21 C
;
_chemical_formula_sum "Si O2"
_cell_formula_units_Z 60
_cell_length_a 11.798982
_cell_length_b 11.798982
_cell_length_c 19.385140
_cell_angle_alpha 90.000000
_cell_angle_beta 90.000000
_cell_angle_gamma 90.000000
_cell_volume 2698.721190
_symmetry_space_group_name_H-M "P -4 21 C"
_symmetry_group_IT_number 114
_symmetry_cell_setting 'tetragonal'
loop_
_space_group_symop_operation_xyz
x,y,z
y,-x,-z
-x,-y,z
-y,x,-z
1/2+x,1/2-y,1/2-z
1/2-x,1/2+y,1/2-z
1/2-y,1/2-x,1/2+z
1/2+y,1/2+x,1/2+z
loop_
_atom_site_type_symbol
_atom_site_label
_atom_site_fract_x
_atom_site_fract_y
_atom_site_fract_z
Si Si1 0.500000 0.500000 0.230063
Si Si2 0.306706 0.191191 0.189325
Si Si3 0.753548 0.728371 0.426527
Si Si4 0.109816 0.125452 0.030462
Si Si5 0.455315 0.738075 0.163680
Si Si6 0.382911 0.861745 0.300671
Si Si7 0.325264 0.489580 0.345059
Si Si8 0.367570 0.117406 0.331578
O O1 0.452446 0.605517 0.185734
O O2 0.396976 0.456638 0.277555
O O3 0.416717 0.228112 0.146615
O O4 0.204979 0.273925 0.165426
O O5 0.288333 0.057679 0.174951
O O6 0.324354 0.203132 0.271742
O O7 0.728103 0.696865 0.507302
O O8 0.885887 0.743065 0.407496
O O9 0.699887 0.622960 0.385845
O O10 0.693648 0.845434 0.402314
O O11 0.110214 0.086720 0.109852
O O12 0.980507 0.155790 0.014930
O O13 0.404378 0.822863 0.221693
O O14 0.499324 0.860984 0.343351
O O15 0.335654 0.989558 0.308233
#
# Coordination Sequence:
#
# PCOD8308848 Si02
#       8
#     4   8   8   8   8   8   8   8
#     4  12  22  34  63  98 127 154 214 264 338 410
#     4  11  22  33  55  83 118 161 203 246 315 398
#     4  11  21  38  59  86 126 158 206 264 329 391
#     4   9  20  36  61  92 118 156 212 277 329 362
#     4  11  24  35  56  90 128 172 201 255 333 413
#     4  10  20  36  51  83 119 159 199 245 317 402
#     4  11  21  36  61  86 122 160 205 268 314 387
#     4  10  21  34  55  81 119 160 197 250 329 386
#
# _framework density 22.232752999999999
#
# number of rings (size 3 to 8) (size 9 to 14) (size 15 to 20)
#    0.000    1.467    2.667    4.000    5.600    1.600 
#    0.000    0.000    2.933    0.000    0.000    0.000 
#    0.000    0.000    0.000    0.000    0.000    0.000 
#
# Total GULP energy -743459.247750 kJ/mol
# GULP energy per Si atom -12390.987462 kJ/mol
# Density = 2.218215 g / cm^3
# Si number density = 22.232753 Si / 1000 Ang^3
#
#
#
# Elastic Constant Matrix: (Units=GPa)
#
#
# Indices 1 2 3 4 5 6 
#
# 1 95.1069 28.8184 5.3934 0.0000 0.0000 0.0000
# 2 28.8184 95.1069 5.3934 0.0000 0.0000 0.0000
# 3 5.3934 5.3934 30.8244 0.0000 0.0000 0.0000
# 4 0.0000 0.0000 0.0000 26.1356 0.0000 0.0000
# 5 0.0000 0.0000 0.0000 0.0000 26.1356 0.0000
# 6 0.0000 0.0000 0.0000 0.0000 0.0000 40.5215
#
#
#
# Elastic Compliance Matrix: (Units=1/GPa)
#
#
# Indices 1 2 3 4 5 6 
#
# 1 0.011640 -0.003446 -0.001434 0.000000 0.000000 0.000000
# 2 -0.003446 0.011640 -0.001434 0.000000 0.000000 0.000000
# 3 -0.001434 -0.001434 0.032944 0.000000 0.000000 0.000000
# 4 0.000000 0.000000 0.000000 0.038262 0.000000 0.000000
# 5 0.000000 0.000000 0.000000 0.000000 0.038262 0.000000
# 6 0.000000 0.000000 0.000000 0.000000 0.000000 0.024678
#
#
# Mechanical properties :
#
#
# Convention : Reuss Voigt Hill
#
# Bulk Modulus (GPa) = 22.93741 33.36095 28.14918
# Shear Modulus (GPa) = 27.08790 30.65407 28.87098
#
# Velocity S-wave (km/s) = 3.49431 3.71722 3.60749
# Velocity P-wave (km/s) = 5.15942 5.78459 5.48093
#
# Compressibility (1/GPa) = 0.04359691
#
# Stress axis : x y z
#
# Youngs Moduli (GPa) = 85.91155 85.91155 30.35497
#
# Poissons Ratio (x) = 0.29603 0.04352
# Poissons Ratio (y) = 0.29603 0.04352
# Poissons Ratio (z) = 0.12318 0.12318
#
# Static dielectric constant tensor:
#      x y z
#    x 4.151110 0.000000 0.000000 
#    y 0.000000 4.151110 0.000000 
#    z 0.000000 0.000000 3.744110 
# 
# 
# High freq. dielectric constant tensor:
#      x y z
#    x 1.879090 0.000000 0.000000 
#    y 0.000000 1.879090 0.000000 
#    z 0.000000 0.000000 1.822590 
# 
# From -- ./inp_files/3244.got.cif
#   From: 2010.03.12/outbox.cif.g09.slc.cpg/sg114_2_cif.got.tgz:3244.got - 2010.04.14 02:08:34.
