data_PCOD8308426
_publ_section_title
;
Structure prediction by ZEFSAII (Michael W. Deem and Ramdas Pophale) SiO2 
 PCOD8308426
Probable space group: P -4 2 C
;
_chemical_formula_sum "Si O2"
_cell_formula_units_Z 32
_cell_length_a 7.539139
_cell_length_b 7.539139
_cell_length_c 22.116061
_cell_angle_alpha 90.000000
_cell_angle_beta 90.000000
_cell_angle_gamma 90.000000
_cell_volume 1257.046318
_symmetry_space_group_name_H-M "P -4 2 C"
_symmetry_group_IT_number 112
_symmetry_cell_setting 'tetragonal'
loop_
_space_group_symop_operation_xyz
x,y,z
y,-x,-z
-x,-y,z
-y,x,-z
x,-y,1/2-z
-x,y,1/2-z
-y,-x,1/2+z
y,x,1/2+z
loop_
_atom_site_type_symbol
_atom_site_label
_atom_site_fract_x
_atom_site_fract_y
_atom_site_fract_z
Si Si1 0.309370 0.439865 0.632037
Si Si2 0.652124 0.855867 0.019009
Si Si3 0.141706 0.787031 0.597743
Si Si4 0.057978 0.698570 0.318119
O O1 0.500000 0.500000 0.655306
O O2 0.314860 0.394582 0.560107
O O3 0.168915 0.604381 0.637136
O O4 0.260991 0.268044 0.673082
O O5 0.500000 0.000000 0.009094
O O6 0.798009 0.954154 0.062382
O O7 0.709160 0.788680 0.954272
O O8 0.159810 0.954209 0.641236
O O9 0.000000 0.500000 0.337872
O O10 0.000000 0.734201 0.250000
#
# Coordination Sequence:
#
# PCOD8308426 Si02
#       4
#     8   8   8   8
#     4  11  24  41  68  98 136 187 238 299 374 442
#     4  10  24  40  67 103 143 184 234 298 383 464
#     4  11  23  43  66 101 144 180 234 305 372 455
#     4  11  24  44  68 102 138 190 255 309 366 442
#
# _framework density 25.456499999999998
#
# number of rings (size 3 to 8) (size 9 to 14) (size 15 to 20)
#    0.000    1.250    2.500    2.250    7.000    4.500 
#    0.000    2.500    0.000    4.500    0.000    0.000 
#    0.000    0.000    0.000    0.000    0.000    0.000 
#
# Total GULP energy -396498.810620 kJ/mol
# GULP energy per Si atom -12390.587832 kJ/mol
# Density = 2.539856 g / cm^3
# Si number density = 25.456500 Si / 1000 Ang^3
#
#
#
# Elastic Constant Matrix: (Units=GPa)
#
#
# Indices 1 2 3 4 5 6 
#
# 1 117.0380 34.4651 41.7088 0.0000 0.0000 0.0000
# 2 34.4651 117.0380 41.7088 0.0000 0.0000 0.0000
# 3 41.7088 41.7088 108.3650 0.0000 0.0000 0.0000
# 4 0.0000 0.0000 0.0000 27.9449 0.0000 0.0000
# 5 0.0000 0.0000 0.0000 0.0000 27.9449 0.0000
# 6 0.0000 0.0000 0.0000 0.0000 0.0000 30.3312
#
#
#
# Elastic Compliance Matrix: (Units=1/GPa)
#
#
# Indices 1 2 3 4 5 6 
#
# 1 0.010243 -0.001868 -0.003224 0.000000 0.000000 0.000000
# 2 -0.001868 0.010243 -0.003224 0.000000 0.000000 0.000000
# 3 -0.003224 -0.003224 0.011710 0.000000 0.000000 0.000000
# 4 0.000000 0.000000 0.000000 0.035785 0.000000 0.000000
# 5 0.000000 0.000000 0.000000 0.000000 0.035785 0.000000
# 6 0.000000 0.000000 0.000000 0.000000 0.000000 0.032969
#
#
# Mechanical properties :
#
#
# Convention : Reuss Voigt Hill
#
# Bulk Modulus (GPa) = 64.24287 64.24512 64.24400
# Shear Modulus (GPa) = 31.53530 32.21477 31.87504
#
# Velocity S-wave (km/s) = 3.52347 3.56122 3.54239
# Velocity P-wave (km/s) = 6.46871 6.49629 6.48251
#
# Compressibility (1/GPa) = 0.01556593
#
# Stress axis : x y z
#
# Youngs Moduli (GPa) = 97.62781 97.62781 85.40015
#
# Poissons Ratio (x) = 0.18232 0.27530
# Poissons Ratio (y) = 0.18232 0.27530
# Poissons Ratio (z) = 0.31472 0.31472
#
# Static dielectric constant tensor:
#      x y z
#    x 4.880450 0.000000 0.000000 
#    y 0.000000 4.880450 0.000000 
#    z 0.000000 0.000000 4.344460 
# 
# 
# High freq. dielectric constant tensor:
#      x y z
#    x 2.025540 0.000000 0.000000 
#    y 0.000000 2.025540 0.000000 
#    z 0.000000 0.000000 1.988000 
# 
# From -- ./inp_files/4546.got.cif
#   From: 2010.03.12/outbox.cif.g09.slc.cpg/sg112_3_cif.got.tgz:4546.got - 2010.04.14 02:02:48.
