data_PCOD8308972
_publ_section_title
;
Structure prediction by ZEFSAII (Michael W. Deem and Ramdas Pophale) SiO2 
 PCOD8308972
Probable space group: P -4 21 C
;
_chemical_formula_sum "Si O2"
_cell_formula_units_Z 60
_cell_length_a 17.701019
_cell_length_b 17.701019
_cell_length_c 8.670589
_cell_angle_alpha 90.000000
_cell_angle_beta 90.000000
_cell_angle_gamma 90.000000
_cell_volume 2716.721608
_symmetry_space_group_name_H-M "P -4 21 C"
_symmetry_group_IT_number 114
_symmetry_cell_setting 'tetragonal'
loop_
_space_group_symop_operation_xyz
x,y,z
y,-x,-z
-x,-y,z
-y,x,-z
1/2+x,1/2-y,1/2-z
1/2-x,1/2+y,1/2-z
1/2-y,1/2-x,1/2+z
1/2+y,1/2+x,1/2+z
loop_
_atom_site_type_symbol
_atom_site_label
_atom_site_fract_x
_atom_site_fract_y
_atom_site_fract_z
Si Si1 0.645706 0.967764 0.516804
Si Si2 0.610538 0.106075 0.679236
Si Si3 0.757651 0.873901 0.342712
Si Si4 0.813246 0.238236 0.993660
Si Si5 0.050382 0.886593 0.493111
Si Si6 0.000000 0.500000 0.129157
Si Si7 0.054865 0.760543 0.232969
Si Si8 0.221464 0.406628 0.563233
O O1 0.696856 0.940189 0.375417
O O2 0.556807 0.949482 0.479135
O O3 0.680777 0.933920 0.675393
O O4 0.650889 0.058549 0.540138
O O5 0.552302 0.050839 0.763844
O O6 0.570309 0.174680 0.590697
O O7 0.672611 0.133345 0.801396
O O8 0.742408 0.849680 0.169400
O O9 0.746738 0.803474 0.461268
O O10 0.841892 0.907664 0.367667
O O11 0.779975 0.155245 0.990738
O O12 0.874576 0.234647 0.124850
O O13 0.051372 0.832810 0.344075
O O14 0.964102 0.904839 0.541613
O O15 0.980144 0.762299 0.128437
#
# Coordination Sequence:
#
# PCOD8308972 Si02
#       8
#     8   8   8   8   8   4   8   8
#     4  10  24  43  63  98 137 180 221 280 333 415
#     4  11  24  40  66  98 137 184 224 279 335 435
#     4  11  25  42  71 101 139 189 230 294 351 424
#     4  12  26  45  67  99 140 182 237 292 350 428
#     4  10  22  46  76 104 136 181 238 303 361 415
#     4  12  24  40  68 102 138 180 226 268 340 422
#     4  10  25  46  69 101 138 180 241 291 354 430
#     4  11  25  45  67  97 139 185 231 289 352 410
#
# _framework density 22.085443999999999
#
# number of rings (size 3 to 8) (size 9 to 14) (size 15 to 20)
#    0.000    1.200    1.333    3.600    7.467    3.200 
#    2.400    0.000    0.000    1.600    0.000    0.000 
#    0.000    0.000    0.000    0.000    0.000    0.000 
#
# Total GULP energy -743579.782964 kJ/mol
# GULP energy per Si atom -12392.996383 kJ/mol
# Density = 2.203518 g / cm^3
# Si number density = 22.085444 Si / 1000 Ang^3
#
#
#
# Elastic Constant Matrix: (Units=GPa)
#
#
# Indices 1 2 3 4 5 6 
#
# 1 120.1106 67.1026 62.0547 0.0000 0.0000 0.0000
# 2 67.1026 120.1106 62.0547 0.0000 0.0000 0.0000
# 3 62.0547 62.0547 110.5362 0.0000 0.0000 0.0000
# 4 0.0000 0.0000 0.0000 39.6075 0.0000 0.0000
# 5 0.0000 0.0000 0.0000 0.0000 39.6075 0.0000
# 6 0.0000 0.0000 0.0000 0.0000 0.0000 34.6078
#
#
#
# Elastic Compliance Matrix: (Units=1/GPa)
#
#
# Indices 1 2 3 4 5 6 
#
# 1 0.013686 -0.005179 -0.004776 0.000000 0.000000 0.000000
# 2 -0.005179 0.013686 -0.004776 0.000000 0.000000 0.000000
# 3 -0.004776 -0.004776 0.014410 0.000000 0.000000 0.000000
# 4 0.000000 0.000000 0.000000 0.025248 0.000000 0.000000
# 5 0.000000 0.000000 0.000000 0.000000 0.025248 0.000000
# 6 0.000000 0.000000 0.000000 0.000000 0.000000 0.028895
#
#
# Mechanical properties :
#
#
# Convention : Reuss Voigt Hill
#
# Bulk Modulus (GPa) = 81.16776 81.46460 81.31618
# Shear Modulus (GPa) = 32.31178 33.40091 32.85634
#
# Velocity S-wave (km/s) = 3.82911 3.89311 3.86125
# Velocity P-wave (km/s) = 7.50873 7.56139 7.53510
#
# Compressibility (1/GPa) = 0.01232016
#
# Stress axis : x y z
#
# Youngs Moduli (GPa) = 73.06492 73.06492 69.39832
#
# Poissons Ratio (x) = 0.37838 0.33147
# Poissons Ratio (y) = 0.37838 0.33147
# Poissons Ratio (z) = 0.34898 0.34898
#
# Static dielectric constant tensor:
#      x y z
#    x 4.284500 0.000000 0.000000 
#    y 0.000000 4.284500 0.000000 
#    z 0.000000 0.000000 4.273270 
# 
# 
# High freq. dielectric constant tensor:
#      x y z
#    x 1.866200 0.000000 0.000000 
#    y 0.000000 1.866200 0.000000 
#    z 0.000000 0.000000 1.882410 
# 
# From -- ./inp_files/1036.got.cif
#   From: 2010.03.12/outbox.cif.g09.slc.cpg/sg114_1_cif.got.tgz:1036.got - 2010.04.14 02:08:34.
