data_PCOD8308797
_publ_section_title
;
Structure prediction by ZEFSAII (Michael W. Deem and Ramdas Pophale) SiO2 
 PCOD8308797
Probable space group: P -4 21 C
;
_chemical_formula_sum "Si O2"
_cell_formula_units_Z 40
_cell_length_a 22.726901
_cell_length_b 22.726901
_cell_length_c 5.262457
_cell_angle_alpha 90.000000
_cell_angle_beta 90.000000
_cell_angle_gamma 90.000000
_cell_volume 2718.122343
_symmetry_space_group_name_H-M "P -4 21 C"
_symmetry_group_IT_number 114
_symmetry_cell_setting 'tetragonal'
loop_
_space_group_symop_operation_xyz
x,y,z
y,-x,-z
-x,-y,z
-y,x,-z
1/2+x,1/2-y,1/2-z
1/2-x,1/2+y,1/2-z
1/2-y,1/2-x,1/2+z
1/2+y,1/2+x,1/2+z
loop_
_atom_site_type_symbol
_atom_site_label
_atom_site_fract_x
_atom_site_fract_y
_atom_site_fract_z
Si Si1 0.769493 0.829277 0.738999
Si Si2 0.127125 0.427145 0.233627
Si Si3 0.113268 0.562906 0.256718
Si Si4 0.227966 0.642462 0.260944
Si Si5 0.217935 0.333828 0.284694
O O1 0.711356 0.788289 0.738567
O O2 0.768171 0.870168 0.487403
O O3 0.827903 0.788260 0.742115
O O4 0.766563 0.871281 0.987465
O O5 0.087649 0.402467 0.463678
O O6 0.134994 0.496373 0.257926
O O7 0.193183 0.399940 0.248337
O O8 0.074629 0.574118 0.507680
O O9 0.169639 0.604262 0.254923
O O10 0.206225 0.313866 0.573205
#
# Coordination Sequence:
#
# PCOD8308797 Si02
#       5
#     8   8   8   8   8
#     4  10  14  25  43  64  76  91 119 165 209 255
#     4  10  23  35  42  58  77 113 152 175 204 227
#     4  12  21  32  46  57  82 107 144 187 203 230
#     4  10  16  25  41  67  76  93 121 167 216 243
#     4  10  16  27  44  58  78  95 126 173 199 245
#
# _framework density 14.716042
#
# number of rings (size 3 to 8) (size 9 to 14) (size 15 to 20)
#    0.000    1.600    8.000    1.200    0.000    2.400 
#    0.000    0.000    0.000    0.000    0.000    0.000 
#    0.000    0.000    0.000    0.000    0.000    6.000 
#
# Total GULP energy -495632.559066 kJ/mol
# GULP energy per Si atom -12390.813977 kJ/mol
# Density = 1.468255 g / cm^3
# Si number density = 14.716042 Si / 1000 Ang^3
#
#
#
# Elastic Constant Matrix: (Units=GPa)
#
#
# Indices 1 2 3 4 5 6 
#
# 1 32.6695 32.3444 12.6936 0.0000 0.0000 0.0000
# 2 32.3444 32.6695 12.6936 0.0000 0.0000 0.0000
# 3 12.6936 12.6936 125.3384 0.0000 0.0000 0.0000
# 4 0.0000 0.0000 0.0000 13.4795 0.0000 0.0000
# 5 0.0000 0.0000 0.0000 0.0000 13.4795 0.0000
# 6 0.0000 0.0000 0.0000 0.0000 0.0000 9.1388
#
#
#
# Elastic Compliance Matrix: (Units=1/GPa)
#
#
# Indices 1 2 3 4 5 6 
#
# 1 1.545708 -1.529693 -0.001622 0.000000 0.000000 0.000000
# 2 -1.529693 1.545708 -0.001622 0.000000 0.000000 0.000000
# 3 -0.001622 -0.001622 0.008307 0.000000 0.000000 0.000000
# 4 0.000000 0.000000 0.000000 0.074187 0.000000 0.000000
# 5 0.000000 0.000000 0.000000 0.000000 0.074187 0.000000
# 6 0.000000 0.000000 0.000000 0.000000 0.000000 0.109423
#
#
# Mechanical properties :
#
#
# Convention : Reuss Voigt Hill
#
# Bulk Modulus (GPa) = 29.54324 34.01563 31.77944
# Shear Modulus (GPa) = 0.77704 16.08261 8.42983
#
# Velocity S-wave (km/s) = 0.72744 3.30943 2.39599
# Velocity P-wave (km/s) = 4.56341 6.14557 5.41261
#
# Compressibility (1/GPa) = 0.03384869
#
# Stress axis : x y z
#
# Youngs Moduli (GPa) = 0.64695 0.64695 120.38167
#
# Poissons Ratio (x) = 0.98964 0.19524
# Poissons Ratio (y) = 0.98964 0.19524
# Poissons Ratio (z) = 0.00105 0.00105
#
# Static dielectric constant tensor:
#      x y z
#    x 2.626460 0.000000 0.000000 
#    y 0.000000 2.626460 0.000000 
#    z 0.000000 0.000000 4.786410 
# 
# 
# High freq. dielectric constant tensor:
#      x y z
#    x 1.518010 0.000000 0.000000 
#    y 0.000000 1.518010 0.000000 
#    z 0.000000 0.000000 1.605950 
# 
# From -- ./inp_files/186.got.cif
#   From: 2010.03.12/outbox.cif.g09.slc.cpg/sg114_1_cif.got.tgz:186.got - 2010.04.14 02:08:34.
