data_PCOD8308444
_publ_section_title
;
Structure prediction by ZEFSAII (Michael W. Deem and Ramdas Pophale) SiO2 
 PCOD8308444
Probable space group: P -4 2 C
;
_chemical_formula_sum "Si O2"
_cell_formula_units_Z 14
_cell_length_a 6.515148
_cell_length_b 6.515148
_cell_length_c 15.542483
_cell_angle_alpha 90.000000
_cell_angle_beta 90.000000
_cell_angle_gamma 90.000000
_cell_volume 659.734161
_symmetry_space_group_name_H-M "P -4 2 C"
_symmetry_group_IT_number 112
_symmetry_cell_setting 'tetragonal'
loop_
_space_group_symop_operation_xyz
x,y,z
y,-x,-z
-x,-y,z
-y,x,-z
x,-y,1/2-z
-x,y,1/2-z
-y,-x,1/2+z
y,x,1/2+z
loop_
_atom_site_type_symbol
_atom_site_label
_atom_site_fract_x
_atom_site_fract_y
_atom_site_fract_z
Si Si1 0.500000 0.000000 0.035856
Si Si2 0.856076 0.201503 0.109452
Si Si3 0.000000 0.500000 0.250000
O O1 0.385502 0.846169 0.100902
O O2 0.681792 0.908089 0.978753
O O3 0.863934 0.352829 0.190463
O O4 0.000000 0.000000 0.122128
#
# Coordination Sequence:
#
# PCOD8308444 Si02
#       3
#     4   8   2
#     4  11  20  41  77  95 132 178 230 277 338 402
#     4  11  22  45  69 102 137 177 225 291 337 400
#     4  10  26  44  70  92 148 184 218 286 358 394
#
# _framework density 21.220670999999999
#
# number of rings (size 3 to 8) (size 9 to 14) (size 15 to 20)
#    0.000    1.143    5.714    0.857    0.000    1.143 
#    0.000    8.571    0.000    0.000    0.000    0.000 
#    0.000    0.000    0.000    0.000    0.000    0.000 
#
# Total GULP energy -173467.870014 kJ/mol
# GULP energy per Si atom -12390.562144 kJ/mol
# Density = 2.117237 g / cm^3
# Si number density = 21.220671 Si / 1000 Ang^3
#
#
#
# Elastic Constant Matrix: (Units=GPa)
#
#
# Indices 1 2 3 4 5 6 
#
# 1 152.3822 71.6755 72.7693 0.0000 0.0000 0.0000
# 2 71.6755 152.3822 72.7693 0.0000 0.0000 0.0000
# 3 72.7693 72.7693 139.8778 0.0000 0.0000 0.0000
# 4 0.0000 0.0000 0.0000 21.2738 0.0000 0.0000
# 5 0.0000 0.0000 0.0000 0.0000 21.2738 0.0000
# 6 0.0000 0.0000 0.0000 0.0000 0.0000 37.9305
#
#
#
# Elastic Compliance Matrix: (Units=1/GPa)
#
#
# Indices 1 2 3 4 5 6 
#
# 1 0.009566 -0.002825 -0.003507 0.000000 0.000000 0.000000
# 2 -0.002825 0.009566 -0.003507 0.000000 0.000000 0.000000
# 3 -0.003507 -0.003507 0.010798 0.000000 0.000000 0.000000
# 4 0.000000 0.000000 0.000000 0.047006 0.000000 0.000000
# 5 0.000000 0.000000 0.000000 0.000000 0.047006 0.000000
# 6 0.000000 0.000000 0.000000 0.000000 0.000000 0.026364
#
#
# Mechanical properties :
#
#
# Convention : Reuss Voigt Hill
#
# Bulk Modulus (GPa) = 97.53846 97.67446 97.60646
# Shear Modulus (GPa) = 28.83492 31.25748 30.04620
#
# Velocity S-wave (km/s) = 3.69021 3.84210 3.76692
# Velocity P-wave (km/s) = 8.01377 8.11235 8.06321
#
# Compressibility (1/GPa) = 0.01025237
#
# Stress axis : x y z
#
# Youngs Moduli (GPa) = 104.53876 104.53876 92.60991
#
# Poissons Ratio (x) = 0.29529 0.32478
# Poissons Ratio (y) = 0.29529 0.32478
# Poissons Ratio (z) = 0.36661 0.36661
#
# Static dielectric constant tensor:
#      x y z
#    x 3.972590 0.000000 0.000000 
#    y 0.000000 3.972590 0.000000 
#    z 0.000000 0.000000 3.951280 
# 
# 
# High freq. dielectric constant tensor:
#      x y z
#    x 1.831790 0.000000 0.000000 
#    y 0.000000 1.831790 0.000000 
#    z 0.000000 0.000000 1.838170 
# 
# From -- ./inp_files/3515.got.cif
#   From: 2010.03.12/outbox.cif.g09.slc.cpg/sg112_2_cif.got.tgz:3515.got - 2010.04.14 02:02:48.
