data_PCOD8308274
_publ_section_title
;
Structure prediction by ZEFSAII (Michael W. Deem and Ramdas Pophale) SiO2 
 PCOD8308274
Probable space group: P -4 2 M 
;
_chemical_formula_sum "Si O2"
_cell_formula_units_Z 32
_cell_length_a 13.305421
_cell_length_b 13.305421
_cell_length_c 9.951659
_cell_angle_alpha 90.000000
_cell_angle_beta 90.000000
_cell_angle_gamma 90.000000
_cell_volume 1761.784268
_symmetry_space_group_name_H-M "P -4 2 M "
_symmetry_group_IT_number 111
_symmetry_cell_setting 'tetragonal'
loop_
_space_group_symop_operation_xyz
x,y,z
y,-x,-z
-x,-y,z
-y,x,-z
x,-y,-z
-x,y,-z
-y,-x,z
y,x,z
loop_
_atom_site_type_symbol
_atom_site_label
_atom_site_fract_x
_atom_site_fract_y
_atom_site_fract_z
Si Si1 0.386839 0.775277 0.025832
Si Si2 0.733451 0.891733 0.512155
Si Si3 0.440545 0.895292 0.273124
Si Si4 0.209955 0.364553 0.270818
O O1 0.317405 0.682596 0.074694
O O2 0.384150 0.865067 0.135212
O O3 0.500000 0.734442 0.000000
O O4 0.346758 0.821220 0.884954
O O5 0.811772 0.811772 0.573478
O O6 0.636056 0.901347 0.605116
O O7 0.701920 0.863158 0.361669
O O8 0.786518 0.000000 0.500000
O O9 0.518420 0.804694 0.308304
O O10 0.500000 0.000000 0.254606
O O11 0.325677 0.325677 0.292535
#
# Coordination Sequence:
#
# PCOD8308274 Si02
#       4
#     8   8   8   8
#     4   9  19  34  52  80 114 147 182 225 273 330
#     4  11  22  37  56  81 111 147 185 233 284 336
#     4  11  20  34  57  83 112 141 189 235 282 330
#     4   9  19  34  53  79 114 144 180 227 277 329
#
# _framework density 18.163405000000001
#
# number of rings (size 3 to 8) (size 9 to 14) (size 15 to 20)
#    0.000    2.000    2.500    1.500    0.000    5.000 
#    0.000    0.000    0.000    2.250    0.000   17.500 
#    0.000    6.000    0.000    0.000    0.000    0.000 
#
# Total GULP energy -396523.907521 kJ/mol
# GULP energy per Si atom -12391.372110 kJ/mol
# Density = 1.812206 g / cm^3
# Si number density = 18.163405 Si / 1000 Ang^3
#
#
#
# Elastic Constant Matrix: (Units=GPa)
#
#
# Indices 1 2 3 4 5 6 
#
# 1 96.1778 63.1452 53.2436 0.0000 0.0000 0.0000
# 2 63.1452 96.1793 53.2435 0.0000 0.0000 0.0000
# 3 53.2436 53.2435 104.0040 0.0000 0.0000 0.0000
# 4 0.0000 0.0000 0.0000 26.1005 0.0000 0.0000
# 5 0.0000 0.0000 0.0000 0.0000 26.1004 0.0000
# 6 0.0000 0.0000 0.0000 0.0000 0.0000 32.5471
#
#
#
# Elastic Compliance Matrix: (Units=1/GPa)
#
#
# Indices 1 2 3 4 5 6 
#
# 1 0.019907 -0.010366 -0.004885 0.000000 0.000000 0.000000
# 2 -0.010366 0.019907 -0.004884 0.000000 0.000000 0.000000
# 3 -0.004885 -0.004884 0.014616 0.000000 0.000000 0.000000
# 4 0.000000 0.000000 0.000000 0.038313 0.000000 0.000000
# 5 0.000000 0.000000 0.000000 0.000000 0.038314 0.000000
# 6 0.000000 0.000000 0.000000 0.000000 0.000000 0.030725
#
#
# Mechanical properties :
#
#
# Convention : Reuss Voigt Hill
#
# Bulk Modulus (GPa) = 70.61887 70.62507 70.62197
# Shear Modulus (GPa) = 24.18135 25.39818 24.78977
#
# Velocity S-wave (km/s) = 3.65269 3.74346 3.69835
# Velocity P-wave (km/s) = 7.53350 7.59291 7.56326
#
# Compressibility (1/GPa) = 0.01416052
#
# Stress axis : x y z
#
# Youngs Moduli (GPa) = 50.23347 50.23465 68.41764
#
# Poissons Ratio (x) = 0.52071 0.33419
# Poissons Ratio (y) = 0.52070 0.33418
# Poissons Ratio (z) = 0.24537 0.24536
#
# Static dielectric constant tensor:
#      x y z
#    x 3.484530 0.000000 0.000000 
#    y 0.000000 3.484530 0.000000 
#    z 0.000000 0.000000 3.543910 
# 
# 
# High freq. dielectric constant tensor:
#      x y z
#    x 1.688490 0.000000 0.000000 
#    y 0.000000 1.688490 0.000000 
#    z 0.000000 0.000000 1.716670 
# 
# From -- ./inp_files/1244.got.cif
#   From: 2010.03.12/outbox.cif.g09.slc.cpg/sg111_1_cif.got.tgz:1244.got - 2010.04.14 01:59:48.
