data_PCOD8308296
_publ_section_title
;
Structure prediction by ZEFSAII (Michael W. Deem and Ramdas Pophale) SiO2 
 PCOD8308296
Probable space group: P -4 2 M 
;
_chemical_formula_sum "Si O2"
_cell_formula_units_Z 56
_cell_length_a 12.027966
_cell_length_b 12.027966
_cell_length_c 23.885144
_cell_angle_alpha 90.000000
_cell_angle_beta 90.000000
_cell_angle_gamma 90.000000
_cell_volume 3455.510743
_symmetry_space_group_name_H-M "P -4 2 M "
_symmetry_group_IT_number 111
_symmetry_cell_setting 'tetragonal'
loop_
_space_group_symop_operation_xyz
x,y,z
y,-x,-z
-x,-y,z
-y,x,-z
x,-y,-z
-x,y,-z
-y,-x,z
y,x,z
loop_
_atom_site_type_symbol
_atom_site_label
_atom_site_fract_x
_atom_site_fract_y
_atom_site_fract_z
Si Si1 0.873068 0.304568 0.563215
Si Si2 0.695436 0.873071 0.563216
Si Si3 0.131830 0.684969 0.851423
Si Si4 0.500000 0.868600 0.062143
Si Si5 0.500000 0.131258 0.234935
Si Si6 0.684969 0.131829 0.148577
Si Si7 0.867107 0.500001 0.639943
O O1 0.810667 0.189334 0.571537
O O2 0.859446 0.351076 0.499999
O O3 0.822697 0.393016 0.606647
O O4 0.999998 0.278590 0.577251
O O5 0.810672 0.810672 0.571537
O O6 0.606991 0.822699 0.606650
O O7 0.199777 0.800224 0.851469
O O8 0.167124 0.612079 0.905478
O O9 0.167201 0.612108 0.797347
O O10 0.000000 0.712655 0.851419
O O11 0.387920 0.832877 0.094522
O O12 0.500000 0.000000 0.058584
O O13 0.500000 0.815104 0.000000
O O14 0.612109 0.167201 0.202653
O O15 0.500000 0.182669 0.297284
O O16 0.500000 0.000000 0.238444
O O17 0.800225 0.199776 0.148531
O O18 0.000000 0.500000 0.639533
#
# Coordination Sequence:
#
# PCOD8308296 Si02
#       7
#     8   8   8   8   8   8   8
#     4   9  17  28  43  65  91 116 142 175 217 265
#     4   9  17  28  43  65  91 116 142 175 217 265
#     4   9  17  29  46  69  95 120 147 181 220 262
#     4   8  15  29  47  65  88 123 161 186 208 248
#     4   8  16  30  45  61  83 116 155 186 214 256
#     4   9  17  29  46  69  95 120 147 181 220 262
#     4   9  16  28  46  63  81 111 152 191 219 248
#
# _framework density 16.205998000000001
#
# number of rings (size 3 to 8) (size 9 to 14) (size 15 to 20)
#    0.000    3.286    0.000    2.143    0.000    4.000 
#    0.000    1.429    0.000    7.286    0.000   22.000 
#    0.000    0.000    0.000    0.000    0.000    0.000 
#
# Total GULP energy -694007.179530 kJ/mol
# GULP energy per Si atom -12392.985349 kJ/mol
# Density = 1.616911 g / cm^3
# Si number density = 16.205998 Si / 1000 Ang^3
#
#
#
# Elastic Constant Matrix: (Units=GPa)
#
#
# Indices 1 2 3 4 5 6 
#
# 1 76.5422 48.2107 46.4569 0.0000 0.0000 0.0000
# 2 48.2107 76.5434 46.4572 0.0000 0.0000 0.0000
# 3 46.4569 46.4572 140.2983 0.0000 0.0000 0.0000
# 4 0.0000 0.0000 0.0000 14.2541 0.0000 0.0000
# 5 0.0000 0.0000 0.0000 0.0000 14.2542 0.0000
# 6 0.0000 0.0000 0.0000 0.0000 0.0000 9.7831
#
#
#
# Elastic Compliance Matrix: (Units=1/GPa)
#
#
# Indices 1 2 3 4 5 6 
#
# 1 0.022968 -0.012328 -0.003523 0.000000 0.000000 0.000000
# 2 -0.012328 0.022968 -0.003523 0.000000 0.000000 0.000000
# 3 -0.003523 -0.003523 0.009461 0.000000 0.000000 0.000000
# 4 0.000000 0.000000 0.000000 0.070155 0.000000 0.000000
# 5 0.000000 0.000000 0.000000 0.000000 0.070155 0.000000
# 6 0.000000 0.000000 0.000000 0.000000 0.000000 0.102218
#
#
# Mechanical properties :
#
#
# Convention : Reuss Voigt Hill
#
# Bulk Modulus (GPa) = 60.06777 63.95928 62.01352
# Shear Modulus (GPa) = 14.61041 17.80888 16.20965
#
# Velocity S-wave (km/s) = 3.00583 3.31857 3.16606
# Velocity P-wave (km/s) = 7.01372 7.36451 7.19125
#
# Compressibility (1/GPa) = 0.01664786
#
# Stress axis : x y z
#
# Youngs Moduli (GPa) = 43.53904 43.53977 105.69799
#
# Poissons Ratio (x) = 0.53675 0.37239
# Poissons Ratio (y) = 0.53675 0.37239
# Poissons Ratio (z) = 0.15340 0.15340
#
# Static dielectric constant tensor:
#      x y z
#    x 2.794330 0.000000 0.000000 
#    y 0.000000 2.794330 0.000000 
#    z 0.000000 0.000000 3.721950 
# 
# 
# High freq. dielectric constant tensor:
#      x y z
#    x 1.597660 0.000000 0.000000 
#    y 0.000000 1.597660 0.000000 
#    z 0.000000 0.000000 1.633840 
# 
# From -- ./inp_files/4163.got.cif
#   From: 2010.03.12/outbox.cif.g09.slc.cpg/sg111_3_cif.got.tgz:4163.got - 2010.04.14 01:59:48.
