data_PCOD8308064
_publ_section_title
;
Structure prediction by ZEFSAII (Michael W. Deem and Ramdas Pophale) SiO2 
 PCOD8308064
Probable space group: I 41 C D
;
_chemical_formula_sum "Si O2"
_cell_formula_units_Z 120
_cell_length_a 18.472121
_cell_length_b 18.472121
_cell_length_c 15.695328
_cell_angle_alpha 90.000000
_cell_angle_beta 90.000000
_cell_angle_gamma 90.000000
_cell_volume 5355.548115
_symmetry_space_group_name_H-M "I 41 C D"
_symmetry_group_IT_number 110
_symmetry_cell_setting 'tetragonal'
loop_
_space_group_symop_operation_xyz
x,y,z
-y,1/2+x,1/4+z
-x,-y,z
y,1/2-x,1/4+z
-x,y,1/2+z
x,-y,1/2+z
1/2-y,-x,1/4+z
1/2+y,x,1/4+z
1/2+x,1/2+y,1/2+z
1/2-y,x,3/4+z
1/2-x,1/2-y,1/2+z
1/2+y,-x,3/4+z
1/2-x,1/2+y,z
1/2+x,1/2-y,z
-y,1/2-x,3/4+z
y,1/2+x,3/4+z
loop_
_atom_site_type_symbol
_atom_site_label
_atom_site_fract_x
_atom_site_fract_y
_atom_site_fract_z
Si Si1 0.765297 0.438650 0.918220
Si Si2 0.387025 0.931238 0.296840
Si Si3 0.398579 0.267189 0.411271
Si Si4 0.500000 0.500000 0.437689
Si Si5 0.147134 0.211509 0.335349
Si Si6 0.353459 0.545447 0.353648
Si Si7 0.545403 0.187326 0.410847
Si Si8 0.280184 0.691776 0.801134
O O1 0.838653 0.466571 0.871695
O O2 0.705493 0.501322 0.908691
O O3 0.742190 0.365139 0.872805
O O4 0.783601 0.417605 0.015130
O O5 0.336833 0.895680 0.223964
O O6 0.431494 0.993234 0.249877
O O7 0.442190 0.872224 0.336958
O O8 0.476511 0.236492 0.389408
O O9 0.361603 0.282509 0.320837
O O10 0.345789 0.210662 0.459379
O O11 0.431306 0.514004 0.378340
O O12 0.155651 0.130703 0.371738
O O13 0.117091 0.261696 0.412800
O O14 0.223199 0.241738 0.300462
O O15 0.346943 0.532346 0.252895
#
# Coordination Sequence:
#
# PCOD8308064 Si02
#       8
#    16  16  16   8  16  16  16  16
#     4  11  22  46  73  98 137 195 237 289 368 440
#     4  11  23  47  73  97 146 192 236 295 366 431
#     4  11  23  42  70 102 139 184 240 292 360 433
#     4  12  28  48  68 102 150 196 232 306 368 430
#     4  12  23  44  71 103 142 186 238 302 367 428
#     4  12  26  43  72 108 139 192 252 286 367 454
#     4  12  23  43  72 107 141 187 240 299 365 437
#     4  11  20  41  69  94 135 184 231 295 355 423
#
# _framework density 22.406669999999998
#
# number of rings (size 3 to 8) (size 9 to 14) (size 15 to 20)
#    0.000    0.533    8.000    2.400    0.000    0.533 
#    7.200    0.000    0.000    0.000    0.000    0.000 
#    0.000    0.000    0.000    0.000    0.000    0.000 
#
# Total GULP energy -743847.190402 kJ/mol
# GULP energy per Si atom -12397.453173 kJ/mol
# Density = 2.235567 g / cm^3
# Si number density = 22.406670 Si / 1000 Ang^3
#
#
#
# Elastic Constant Matrix: (Units=GPa)
#
#
# Indices 1 2 3 4 5 6 
#
# 1 111.3517 33.2532 27.8243 0.0000 0.0000 0.0000
# 2 33.2532 111.3517 27.8243 0.0000 0.0000 0.0000
# 3 27.8243 27.8243 65.3827 0.0000 0.0000 0.0000
# 4 0.0000 0.0000 0.0000 31.4464 0.0000 0.0000
# 5 0.0000 0.0000 0.0000 0.0000 31.4464 0.0000
# 6 0.0000 0.0000 0.0000 0.0000 0.0000 30.4914
#
#
#
# Elastic Compliance Matrix: (Units=1/GPa)
#
#
# Indices 1 2 3 4 5 6 
#
# 1 0.010537 -0.002267 -0.003519 0.000000 0.000000 0.000000
# 2 -0.002267 0.010537 -0.003519 0.000000 0.000000 0.000000
# 3 -0.003519 -0.003519 0.018290 0.000000 0.000000 0.000000
# 4 0.000000 0.000000 0.000000 0.031800 0.000000 0.000000
# 5 0.000000 0.000000 0.000000 0.000000 0.031800 0.000000
# 6 0.000000 0.000000 0.000000 0.000000 0.000000 0.032796
#
#
# Mechanical properties :
#
#
# Convention : Reuss Voigt Hill
#
# Bulk Modulus (GPa) = 48.18752 51.76552 49.97652
# Shear Modulus (GPa) = 31.00016 31.95579 31.47798
#
# Velocity S-wave (km/s) = 3.72361 3.78057 3.75220
# Velocity P-wave (km/s) = 6.32769 6.49691 6.41285
#
# Compressibility (1/GPa) = 0.02075226
#
# Stress axis : x y z
#
# Youngs Moduli (GPa) = 94.90334 94.90334 54.67500
#
# Poissons Ratio (x) = 0.21518 0.19242
# Poissons Ratio (y) = 0.21518 0.19242
# Poissons Ratio (z) = 0.33399 0.33399
#
# Static dielectric constant tensor:
#      x y z
#    x 4.225060 0.000000 0.000000 
#    y 0.000000 4.225060 0.000000 
#    z 0.000000 0.000000 4.128410 
# 
# 
# High freq. dielectric constant tensor:
#      x y z
#    x 1.879710 0.000000 0.000000 
#    y 0.000000 1.879710 0.000000 
#    z 0.000000 0.000000 1.882240 
# 
# From -- ./inp_files/1808.got.cif
#   From: 2010.03.12/outbox.cif.g09.slc.cpg/sg110_1_cif.got.tgz:1808.got - 2010.04.14 01:58:01.
