data_PCOD8308994
_publ_section_title
;
Structure prediction by ZEFSAII (Michael W. Deem and Ramdas Pophale) SiO2 
 PCOD8308994
Probable space group: P -4 21 C
;
_chemical_formula_sum "Si O2"
_cell_formula_units_Z 52
_cell_length_a 17.259036
_cell_length_b 17.259036
_cell_length_c 8.598620
_cell_angle_alpha 90.000000
_cell_angle_beta 90.000000
_cell_angle_gamma 90.000000
_cell_volume 2561.308117
_symmetry_space_group_name_H-M "P -4 21 C"
_symmetry_group_IT_number 114
_symmetry_cell_setting 'tetragonal'
loop_
_space_group_symop_operation_xyz
x,y,z
y,-x,-z
-x,-y,z
-y,x,-z
1/2+x,1/2-y,1/2-z
1/2-x,1/2+y,1/2-z
1/2-y,1/2-x,1/2+z
1/2+y,1/2+x,1/2+z
loop_
_atom_site_type_symbol
_atom_site_label
_atom_site_fract_x
_atom_site_fract_y
_atom_site_fract_z
Si Si1 0.750000 0.750000 0.106730
Si Si2 0.500000 0.000000 0.000000
Si Si3 0.746337 0.875506 0.856165
Si Si4 0.125081 0.500000 0.750000
Si Si5 0.101428 0.033185 0.915274
Si Si6 0.253663 0.875506 0.643835
Si Si7 0.466816 0.601428 0.084726
O O1 0.677480 0.724147 0.213124
O O2 0.822520 0.775853 0.213124
O O3 0.722442 0.821956 0.001405
O O4 0.777558 0.678044 0.001405
O O5 0.572516 0.025816 0.895048
O O6 0.474184 0.072516 0.104952
O O7 0.813194 0.932507 0.913494
O O8 0.674377 0.925738 0.799728
O O9 0.174377 0.425738 0.799728
O O10 0.077292 0.000000 0.750000
O O11 0.038464 0.098436 0.962753
O O12 0.186806 0.932507 0.586506
O O13 0.538464 0.598435 0.962753
#
# Coordination Sequence:
#
# PCOD8308994 Si02
#       7
#     8   4   8   8   8   8   8
#     4  10  24  40  62  90 126 160 212 248 306 374
#     4  10  24  42  68  90 120 154 220 254 308 362
#     4  11  22  41  64  90 126 163 202 257 311 361
#     4  11  22  42  66  91 120 162 202 265 308 358
#     4  11  22  38  61  91 127 164 202 248 302 373
#     4  11  22  41  64  90 126 163 202 257 311 361
#     4  11  22  38  61  91 127 164 202 248 302 373
#
# _framework density 20.302128
#
# number of rings (size 3 to 8) (size 9 to 14) (size 15 to 20)
#    0.000    1.231    1.538    5.538    0.000    0.000 
#    0.000    0.000    6.769    0.000    0.000    0.000 
#    0.000    0.000    0.000    0.000    0.000    0.000 
#
# Total GULP energy -644856.997246 kJ/mol
# GULP energy per Si atom -12401.096101 kJ/mol
# Density = 2.025592 g / cm^3
# Si number density = 20.302128 Si / 1000 Ang^3
#
#
#
# Elastic Constant Matrix: (Units=GPa)
#
#
# Indices 1 2 3 4 5 6 
#
# 1 111.7105 53.0229 47.0915 0.0000 0.0000 0.0000
# 2 53.0229 111.7105 47.0915 0.0000 0.0000 0.0000
# 3 47.0915 47.0915 118.2453 0.0000 0.0000 0.0000
# 4 0.0000 0.0000 0.0000 27.4893 0.0000 0.0000
# 5 0.0000 0.0000 0.0000 0.0000 27.4893 0.0000
# 6 0.0000 0.0000 0.0000 0.0000 0.0000 44.2052
#
#
#
# Elastic Compliance Matrix: (Units=1/GPa)
#
#
# Indices 1 2 3 4 5 6 
#
# 1 0.012450 -0.004590 -0.003130 0.000000 0.000000 0.000000
# 2 -0.004590 0.012450 -0.003130 0.000000 0.000000 0.000000
# 3 -0.003130 -0.003130 0.010950 0.000000 0.000000 0.000000
# 4 0.000000 0.000000 0.000000 0.036378 0.000000 0.000000
# 5 0.000000 0.000000 0.000000 0.000000 0.036378 0.000000
# 6 0.000000 0.000000 0.000000 0.000000 0.000000 0.022622
#
#
# Mechanical properties :
#
#
# Convention : Reuss Voigt Hill
#
# Bulk Modulus (GPa) = 70.67494 70.67533 70.67513
# Shear Modulus (GPa) = 31.71702 32.80080 32.25891
#
# Velocity S-wave (km/s) = 3.95682 4.02385 3.99048
# Velocity P-wave (km/s) = 7.46742 7.51504 7.49127
#
# Compressibility (1/GPa) = 0.01414929
#
# Stress axis : x y z
#
# Youngs Moduli (GPa) = 80.32294 80.32294 91.32174
#
# Poissons Ratio (x) = 0.36865 0.28586
# Poissons Ratio (y) = 0.36865 0.28586
# Poissons Ratio (z) = 0.25144 0.25144
#
# Static dielectric constant tensor:
#      x y z
#    x 3.624560 0.000000 0.000000 
#    y 0.000000 3.624560 0.000000 
#    z 0.000000 0.000000 3.954060 
# 
# 
# High freq. dielectric constant tensor:
#      x y z
#    x 1.791290 0.000000 0.000000 
#    y 0.000000 1.791290 0.000000 
#    z 0.000000 0.000000 1.811640 
# 
# From -- ./inp_files/990.got.cif
#   From: 2010.03.12/outbox.cif.g09.slc.cpg/sg114_1_cif.got.tgz:990.got - 2010.04.14 02:08:34.
