data_PCOD8308563
_publ_section_title
;
Structure prediction by ZEFSAII (Michael W. Deem and Ramdas Pophale) SiO2 
 PCOD8308563
Probable space group: P -4 21 M 
;
_chemical_formula_sum "Si O2"
_cell_formula_units_Z 56
_cell_length_a 12.441267
_cell_length_b 12.441267
_cell_length_c 21.304367
_cell_angle_alpha 90.000000
_cell_angle_beta 90.000000
_cell_angle_gamma 90.000000
_cell_volume 3297.599100
_symmetry_space_group_name_H-M "P -4 21 M "
_symmetry_group_IT_number 113
_symmetry_cell_setting 'tetragonal'
loop_
_space_group_symop_operation_xyz
x,y,z
y,-x,-z
-x,-y,z
-y,x,-z
1/2+x,1/2-y,-z
1/2-x,1/2+y,-z
1/2-y,1/2-x,z
1/2+y,1/2+x,z
loop_
_atom_site_type_symbol
_atom_site_label
_atom_site_fract_x
_atom_site_fract_y
_atom_site_fract_z
Si Si1 0.875273 0.207529 0.866614
Si Si2 0.207529 0.875273 0.133386
Si Si3 0.373914 0.302617 0.432286
Si Si4 0.378506 0.378506 0.000000
Si Si5 0.197385 0.873915 0.432286
Si Si6 0.499999 0.372591 0.651776
Si Si7 0.000000 0.872105 0.206856
O O1 0.811780 0.311780 0.842472
O O2 0.852604 0.195936 0.940809
O O3 0.829773 0.105066 0.829171
O O4 1.000000 0.226007 0.852277
O O5 0.311780 0.811780 0.157528
O O6 0.105066 0.829773 0.170829
O O7 0.195936 0.852604 0.059191
O O8 0.306558 0.193443 0.421724
O O9 0.353161 0.353162 0.500000
O O10 0.499999 0.275241 0.424124
O O11 0.333017 0.391719 0.382610
O O12 0.361821 0.500000 0.023466
O O13 0.306560 0.806560 0.421725
O O14 0.108284 0.833018 0.382609
O O15 0.500000 0.500000 0.651314
O O16 0.500000 0.326669 0.722410
O O17 0.000000 0.000000 0.205681
#
# Coordination Sequence:
#
# PCOD8308563 Si02
#       7
#     8   8   8   8   8   8   8
#     4  10  19  31  50  74 102 132 168 211 258 304
#     4  10  19  31  50  74 102 132 168 211 258 304
#     4  10  19  32  52  78 106 136 171 211 256 302
#     4   9  15  28  50  74  96 126 170 216 254 296
#     4  10  19  32  52  78 106 136 171 211 256 302
#     4   9  18  32  54  73  99 131 171 212 242 294
#     4   9  18  34  50  73  97 131 175 206 240 296
#
# _framework density 16.982053000000001
#
# number of rings (size 3 to 8) (size 9 to 14) (size 15 to 20)
#    0.000    2.429    2.857    0.429    0.000    1.714 
#    0.000    0.000    0.000    0.857    0.000   10.000 
#    0.000    0.000    0.000    0.000    0.000    0.000 
#
# Total GULP energy -694262.214475 kJ/mol
# GULP energy per Si atom -12397.539544 kJ/mol
# Density = 1.694340 g / cm^3
# Si number density = 16.982053 Si / 1000 Ang^3
#
#
#
# Elastic Constant Matrix: (Units=GPa)
#
#
# Indices 1 2 3 4 5 6 
#
# 1 66.5617 88.8464 37.5167 0.0000 0.0000 0.0000
# 2 88.8464 66.5623 37.5169 0.0000 0.0000 0.0000
# 3 37.5167 37.5169 96.8404 0.0000 0.0000 0.0000
# 4 0.0000 0.0000 0.0000 10.5352 0.0000 0.0000
# 5 0.0000 0.0000 0.0000 0.0000 10.5355 0.0000
# 6 0.0000 0.0000 0.0000 0.0000 0.0000 26.1020
#
#
#
# Elastic Compliance Matrix: (Units=1/GPa)
#
#
# Indices 1 2 3 4 5 6 
#
# 1 -0.018480 0.026395 -0.003066 0.000000 0.000000 0.000000
# 2 0.026395 -0.018480 -0.003066 0.000000 0.000000 0.000000
# 3 -0.003066 -0.003066 0.012702 0.000000 0.000000 0.000000
# 4 0.000000 0.000000 0.000000 0.094920 0.000000 0.000000
# 5 0.000000 0.000000 0.000000 0.000000 0.094917 0.000000
# 6 0.000000 0.000000 0.000000 0.000000 0.000000 0.038311
#
#
# Mechanical properties :
#
#
# Convention : Reuss Voigt Hill
#
# Bulk Modulus (GPa) = 61.47456 61.96937 61.72196
# Shear Modulus (GPa) = 29.62269 13.84017 21.73143
#
# Velocity S-wave (km/s) = 4.18108 2.85790 3.58113
# Velocity P-wave (km/s) = 7.71925 6.88915 7.31598
#
# Compressibility (1/GPa) = 0.01626689
#
# Stress axis : x y z
#
# Youngs Moduli (GPa) = -54.11333 -54.11378 78.72671
#
# Poissons Ratio (x) = 1.42832 0.24141
# Poissons Ratio (y) = 1.42831 0.24141
# Poissons Ratio (z) = -0.16593 -0.16593
#
# Static dielectric constant tensor:
#      x y z
#    x 2.990790 0.000000 0.000000 
#    y 0.000000 2.990780 0.000000 
#    z 0.000000 0.000000 3.332890 
# 
# 
# High freq. dielectric constant tensor:
#      x y z
#    x 1.637030 0.000000 0.000000 
#    y 0.000000 1.637030 0.000000 
#    z 0.000000 0.000000 1.660490 
# 
# From -- ./inp_files/2668.got.cif
#   From: 2010.03.12/outbox.cif.g09.slc.cpg/sg113_cif.got.tgz:2668.got - 2010.04.14 02:06:34.
