data_PCOD8308749
_publ_section_title
;
Structure prediction by ZEFSAII (Michael W. Deem and Ramdas Pophale) SiO2 
 PCOD8308749
Probable space group: P -4 21 M 
;
_chemical_formula_sum "Si O2"
_cell_formula_units_Z 48
_cell_length_a 14.923795
_cell_length_b 14.923795
_cell_length_c 11.788475
_cell_angle_alpha 90.000000
_cell_angle_beta 90.000000
_cell_angle_gamma 90.000000
_cell_volume 2625.525111
_symmetry_space_group_name_H-M "P -4 21 M "
_symmetry_group_IT_number 113
_symmetry_cell_setting 'tetragonal'
loop_
_space_group_symop_operation_xyz
x,y,z
y,-x,-z
-x,-y,z
-y,x,-z
1/2+x,1/2-y,-z
1/2-x,1/2+y,-z
1/2-y,1/2-x,z
1/2+y,1/2+x,z
loop_
_atom_site_type_symbol
_atom_site_label
_atom_site_fract_x
_atom_site_fract_y
_atom_site_fract_z
Si Si1 0.644822 0.000414 0.165655
Si Si2 0.231489 0.123924 0.038974
Si Si3 0.887484 0.907711 0.824171
Si Si4 0.383185 0.432414 0.472661
Si Si5 0.391061 0.745340 0.338226
Si Si6 0.596734 0.603325 0.224454
O O1 0.578302 0.921699 0.207091
O O2 0.706095 0.964359 0.061440
O O3 0.587525 0.087525 0.124922
O O4 0.708324 0.026104 0.271688
O O5 0.292912 0.207089 0.001962
O O6 0.180472 0.148676 0.156082
O O7 0.154062 0.109462 0.947427
O O8 0.848677 0.834326 0.737237
O O9 0.995144 0.898844 0.822606
O O10 0.856444 0.007293 0.791942
O O11 0.399451 0.537310 0.442571
O O12 0.289937 0.421815 0.538535
O O13 0.394020 0.374239 0.357996
O O14 0.315122 0.815122 0.365914
#
# Coordination Sequence:
#
# PCOD8308749 Si02
#       6
#     8   8   8   8   8   8
#     4   9  19  37  57  79 113 153 189 227 277 334
#     4  11  22  35  53  82 114 143 190 236 270 327
#     4  11  20  37  53  81 107 148 180 225 284 339
#     4  11  18  35  56  80 108 143 182 224 277 337
#     4  11  21  35  58  86 111 145 189 231 274 328
#     4  11  21  35  58  76 112 147 181 219 288 347
#
# _framework density 18.282056999999998
#
# number of rings (size 3 to 8) (size 9 to 14) (size 15 to 20)
#    0.000    1.333    5.000    2.500    0.000    2.000 
#    0.000    0.833    0.000    0.000    0.000    0.000 
#    0.000    0.000    0.000    0.000    0.000    0.000 
#
# Total GULP energy -594941.639506 kJ/mol
# GULP energy per Si atom -12394.617490 kJ/mol
# Density = 1.824045 g / cm^3
# Si number density = 18.282057 Si / 1000 Ang^3
#
#
#
# Elastic Constant Matrix: (Units=GPa)
#
#
# Indices 1 2 3 4 5 6 
#
# 1 79.6938 26.2761 37.2214 0.0000 0.0000 0.0000
# 2 26.2761 79.6930 37.2209 0.0000 0.0000 0.0000
# 3 37.2214 37.2209 103.2889 0.0000 0.0000 0.0000
# 4 0.0000 0.0000 0.0000 26.9385 0.0000 0.0000
# 5 0.0000 0.0000 0.0000 0.0000 26.9388 0.0000
# 6 0.0000 0.0000 0.0000 0.0000 0.0000 13.2471
#
#
#
# Elastic Compliance Matrix: (Units=1/GPa)
#
#
# Indices 1 2 3 4 5 6 
#
# 1 0.015678 -0.003043 -0.004553 0.000000 0.000000 0.000000
# 2 -0.003043 0.015678 -0.004553 0.000000 0.000000 0.000000
# 3 -0.004553 -0.004553 0.012963 0.000000 0.000000 0.000000
# 4 0.000000 0.000000 0.000000 0.037122 0.000000 0.000000
# 5 0.000000 0.000000 0.000000 0.000000 0.037121 0.000000
# 6 0.000000 0.000000 0.000000 0.000000 0.000000 0.075488
#
#
# Mechanical properties :
#
#
# Convention : Reuss Voigt Hill
#
# Bulk Modulus (GPa) = 49.94813 51.56807 50.75810
# Shear Modulus (GPa) = 22.22005 24.22203 23.22104
#
# Velocity S-wave (km/s) = 3.49004 3.64388 3.56779
# Velocity P-wave (km/s) = 6.60460 6.78026 6.69301
#
# Compressibility (1/GPa) = 0.02002077
#
# Stress axis : x y z
#
# Youngs Moduli (GPa) = 63.78421 63.78379 77.14146
#
# Poissons Ratio (x) = 0.19407 0.35125
# Poissons Ratio (y) = 0.19407 0.35124
# Poissons Ratio (z) = 0.29043 0.29042
#
# Static dielectric constant tensor:
#      x y z
#    x 3.447850 0.000000 0.000000 
#    y 0.000000 3.447850 0.000000 
#    z 0.000000 0.000000 3.197200 
# 
# 
# High freq. dielectric constant tensor:
#      x y z
#    x 1.702070 0.000000 0.000000 
#    y 0.000000 1.702070 0.000000 
#    z 0.000000 0.000000 1.697400 
# 
# From -- ./inp_files/1825.got.cif
#   From: 2010.03.12/outbox.cif.g09.slc.cpg/sg113_cif.got.tgz:1825.got - 2010.04.14 02:06:34.
