data_PCOD8308651
_publ_section_title
;
Structure prediction by ZEFSAII (Michael W. Deem and Ramdas Pophale) SiO2 
 PCOD8308651
Probable space group: P -4 21 M 
;
_chemical_formula_sum "Si O2"
_cell_formula_units_Z 48
_cell_length_a 16.230995
_cell_length_b 16.230995
_cell_length_c 10.218241
_cell_angle_alpha 90.000000
_cell_angle_beta 90.000000
_cell_angle_gamma 90.000000
_cell_volume 2691.946531
_symmetry_space_group_name_H-M "P -4 21 M "
_symmetry_group_IT_number 113
_symmetry_cell_setting 'tetragonal'
loop_
_space_group_symop_operation_xyz
x,y,z
y,-x,-z
-x,-y,z
-y,x,-z
1/2+x,1/2-y,-z
1/2-x,1/2+y,-z
1/2-y,1/2-x,z
1/2+y,1/2+x,z
loop_
_atom_site_type_symbol
_atom_site_label
_atom_site_fract_x
_atom_site_fract_y
_atom_site_fract_z
Si Si1 0.688230 0.679596 0.303662
Si Si2 0.074233 0.710305 0.393752
Si Si3 0.750650 0.482280 0.676302
Si Si4 0.633327 0.999277 0.083769
Si Si5 0.696511 0.061723 0.825104
Si Si6 0.342653 0.709176 0.403395
O O1 0.728542 0.771459 0.299048
O O2 0.589594 0.684886 0.289935
O O3 0.725072 0.622840 0.188261
O O4 0.712549 0.638027 0.441760
O O5 0.132755 0.632755 0.383912
O O6 0.125218 0.794312 0.371065
O O7 0.032309 0.708514 0.535626
O O8 0.007400 0.702180 0.282928
O O9 0.820470 0.476805 0.784516
O O10 0.707455 0.571905 0.676984
O O11 0.577940 0.922061 0.038358
O O12 0.578127 0.078127 0.114843
O O13 0.697860 0.020160 0.968047
O O14 0.611793 0.111793 0.803904
O O15 0.288813 0.788813 0.361299
#
# Coordination Sequence:
#
# PCOD8308651 Si02
#       6
#     8   8   8   8   8   8
#     4   9  18  34  55  79 106 143 189 225 263 324
#     4  10  20  34  56  83 109 142 185 223 267 327
#     4  11  19  34  57  80 109 143 178 227 276 316
#     4  10  21  35  52  81 115 141 175 228 282 329
#     4  10  20  37  56  76 111 148 181 225 272 323
#     4   9  18  33  53  81 113 139 176 230 271 320
#
# _framework density 17.830963000000001
#
# number of rings (size 3 to 8) (size 9 to 14) (size 15 to 20)
#    0.000    2.167    1.667    3.500    0.000    1.667 
#    3.000    0.833    0.000    0.000    0.000    0.000 
#    0.000    0.000    0.000    0.000    0.000    0.000 
#
# Total GULP energy -595188.988791 kJ/mol
# GULP energy per Si atom -12399.770600 kJ/mol
# Density = 1.779038 g / cm^3
# Si number density = 17.830963 Si / 1000 Ang^3
#
#
#
# Elastic Constant Matrix: (Units=GPa)
#
#
# Indices 1 2 3 4 5 6 
#
# 1 99.1084 35.4329 46.2034 0.0000 0.0000 0.0000
# 2 35.4329 99.1071 46.2028 0.0000 0.0000 0.0000
# 3 46.2034 46.2028 84.9162 0.0000 0.0000 0.0000
# 4 0.0000 0.0000 0.0000 26.9683 0.0000 0.0000
# 5 0.0000 0.0000 0.0000 0.0000 26.9689 0.0000
# 6 0.0000 0.0000 0.0000 0.0000 0.0000 17.3713
#
#
#
# Elastic Compliance Matrix: (Units=1/GPa)
#
#
# Indices 1 2 3 4 5 6 
#
# 1 0.013786 -0.001919 -0.006457 0.000000 0.000000 0.000000
# 2 -0.001919 0.013786 -0.006457 0.000000 0.000000 0.000000
# 3 -0.006457 -0.006457 0.018803 0.000000 0.000000 0.000000
# 4 0.000000 0.000000 0.000000 0.037081 0.000000 0.000000
# 5 0.000000 0.000000 0.000000 0.000000 0.037080 0.000000
# 6 0.000000 0.000000 0.000000 0.000000 0.000000 0.057566
#
#
# Mechanical properties :
#
#
# Convention : Reuss Voigt Hill
#
# Bulk Modulus (GPa) = 59.84601 59.86776 59.85689
# Shear Modulus (GPa) = 23.43696 24.61452 24.02574
#
# Velocity S-wave (km/s) = 3.62939 3.71945 3.67470
# Velocity P-wave (km/s) = 7.15536 7.21761 7.18655
#
# Compressibility (1/GPa) = 0.01670955
#
# Stress axis : x y z
#
# Youngs Moduli (GPa) = 72.53634 72.53568 53.18264
#
# Poissons Ratio (x) = 0.13916 0.34341
# Poissons Ratio (y) = 0.13916 0.34341
# Poissons Ratio (z) = 0.46839 0.46838
#
# Static dielectric constant tensor:
#      x y z
#    x 3.296900 0.000000 0.000000 
#    y 0.000000 3.296900 0.000000 
#    z 0.000000 0.000000 3.268520 
# 
# 
# High freq. dielectric constant tensor:
#      x y z
#    x 1.684960 0.000000 0.000000 
#    y 0.000000 1.684960 0.000000 
#    z 0.000000 0.000000 1.679840 
# 
# From -- ./inp_files/1855.got.cif
#   From: 2010.03.12/outbox.cif.g09.slc.cpg/sg113_cif.got.tgz:1855.got - 2010.04.14 02:06:34.
