data_PCOD8308715
_publ_section_title
;
Structure prediction by ZEFSAII (Michael W. Deem and Ramdas Pophale) SiO2 
 PCOD8308715
Probable space group: P -4 21 M 
;
_chemical_formula_sum "Si O2"
_cell_formula_units_Z 40
_cell_length_a 16.450961
_cell_length_b 16.450961
_cell_length_c 7.683950
_cell_angle_alpha 90.000000
_cell_angle_beta 90.000000
_cell_angle_gamma 90.000000
_cell_volume 2079.539030
_symmetry_space_group_name_H-M "P -4 21 M "
_symmetry_group_IT_number 113
_symmetry_cell_setting 'tetragonal'
loop_
_space_group_symop_operation_xyz
x,y,z
y,-x,-z
-x,-y,z
-y,x,-z
1/2+x,1/2-y,-z
1/2-x,1/2+y,-z
1/2-y,1/2-x,z
1/2+y,1/2+x,z
loop_
_atom_site_type_symbol
_atom_site_label
_atom_site_fract_x
_atom_site_fract_y
_atom_site_fract_z
Si Si1 0.822188 0.192319 0.286690
Si Si2 0.112618 0.055948 0.458898
Si Si3 0.134049 0.500767 0.448924
Si Si4 0.694140 0.936137 0.902569
Si Si5 0.740887 0.519548 0.760549
O O1 0.755466 0.255466 0.359896
O O2 0.881628 0.171662 0.445118
O O3 0.872895 0.233195 0.131279
O O4 0.778408 0.113747 0.209132
O O5 0.025282 0.098048 0.422092
O O6 0.156753 0.029113 0.279531
O O7 0.082196 0.582196 0.483012
O O8 0.180287 0.506788 0.265019
O O9 0.199952 0.492011 0.598362
O O10 0.078268 0.421733 0.446132
O O11 0.611022 0.888979 0.947374
O O12 0.716517 0.990954 0.065218
#
# Coordination Sequence:
#
# PCOD8308715 Si02
#       5
#     8   8   8   8   8
#     4  10  21  38  58  87 123 151 194 252 299 348
#     4   9  19  36  60  86 114 155 200 240 293 357
#     4  10  21  38  60  86 118 157 198 245 302 360
#     4  10  22  39  57  84 121 157 193 244 303 361
#     4  11  21  37  63  87 116 155 205 246 294 355
#
# _framework density 19.235030999999999
#
# number of rings (size 3 to 8) (size 9 to 14) (size 15 to 20)
#    0.000    2.000    2.000    1.200    0.000    4.000 
#    0.000    2.000    0.000    0.000    0.000    0.000 
#    0.000    0.000    0.000    0.000    0.000    0.000 
#
# Total GULP energy -496004.491475 kJ/mol
# GULP energy per Si atom -12400.112287 kJ/mol
# Density = 1.919125 g / cm^3
# Si number density = 19.235031 Si / 1000 Ang^3
#
#
#
# Elastic Constant Matrix: (Units=GPa)
#
#
# Indices 1 2 3 4 5 6 
#
# 1 103.5606 49.3082 46.8820 0.0000 0.0000 0.0000
# 2 49.3082 103.5602 46.8825 0.0000 0.0000 0.0000
# 3 46.8820 46.8825 96.1549 0.0000 0.0000 0.0000
# 4 0.0000 0.0000 0.0000 22.3048 0.0000 0.0000
# 5 0.0000 0.0000 0.0000 0.0000 22.3048 0.0000
# 6 0.0000 0.0000 0.0000 0.0000 0.0000 37.7518
#
#
#
# Elastic Compliance Matrix: (Units=1/GPa)
#
#
# Indices 1 2 3 4 5 6 
#
# 1 0.013882 -0.004550 -0.004550 0.000000 0.000000 0.000000
# 2 -0.004550 0.013883 -0.004550 0.000000 0.000000 0.000000
# 3 -0.004550 -0.004550 0.014837 0.000000 0.000000 0.000000
# 4 0.000000 0.000000 0.000000 0.044833 0.000000 0.000000
# 5 0.000000 0.000000 0.000000 0.000000 0.044833 0.000000
# 6 0.000000 0.000000 0.000000 0.000000 0.000000 0.026489
#
#
# Mechanical properties :
#
#
# Convention : Reuss Voigt Hill
#
# Bulk Modulus (GPa) = 65.35498 65.49123 65.42310
# Shear Modulus (GPa) = 26.15624 27.15248 26.65436
#
# Velocity S-wave (km/s) = 3.69158 3.76122 3.72656
# Velocity P-wave (km/s) = 7.22642 7.27903 7.25277
#
# Compressibility (1/GPa) = 0.01530105
#
# Stress axis : x y z
#
# Youngs Moduli (GPa) = 72.03361 72.03275 67.39893
#
# Poissons Ratio (x) = 0.32774 0.30668
# Poissons Ratio (y) = 0.32775 0.30669
# Poissons Ratio (z) = 0.32777 0.32778
#
# Static dielectric constant tensor:
#      x y z
#    x 3.787380 0.000000 0.000000 
#    y 0.000000 3.787370 0.000000 
#    z 0.000000 0.000000 3.165940 
# 
# 
# High freq. dielectric constant tensor:
#      x y z
#    x 1.765100 0.000000 0.000000 
#    y 0.000000 1.765100 0.000000 
#    z 0.000000 0.000000 1.715500 
# 
# From -- ./inp_files/328.got.cif
#   From: 2010.03.12/outbox.cif.g09.slc.cpg/sg113_cif.got.tgz:328.got - 2010.04.14 02:06:34.
