data_PCOD8308543
_publ_section_title
;
Structure prediction by ZEFSAII (Michael W. Deem and Ramdas Pophale) SiO2 
 PCOD8308543
Probable space group: P -4 21 M 
;
_chemical_formula_sum "Si O2"
_cell_formula_units_Z 40
_cell_length_a 15.283014
_cell_length_b 15.283014
_cell_length_c 9.814699
_cell_angle_alpha 90.000000
_cell_angle_beta 90.000000
_cell_angle_gamma 90.000000
_cell_volume 2292.424319
_symmetry_space_group_name_H-M "P -4 21 M "
_symmetry_group_IT_number 113
_symmetry_cell_setting 'tetragonal'
loop_
_space_group_symop_operation_xyz
x,y,z
y,-x,-z
-x,-y,z
-y,x,-z
1/2+x,1/2-y,-z
1/2-x,1/2+y,-z
1/2-y,1/2-x,z
1/2+y,1/2+x,z
loop_
_atom_site_type_symbol
_atom_site_label
_atom_site_fract_x
_atom_site_fract_y
_atom_site_fract_z
Si Si1 0.431903 0.068098 0.725600
Si Si2 0.295031 0.942071 0.030825
Si Si3 0.867666 0.050982 0.509288
Si Si4 0.985026 0.242479 0.250530
Si Si5 0.432456 0.067545 0.049565
Si Si6 0.155814 0.197690 0.739868
O O1 0.459160 0.165357 0.679022
O O2 0.500000 0.000000 0.658576
O O3 0.436569 0.063432 0.887047
O O4 0.374516 0.874516 0.007509
O O5 0.225241 0.906962 0.136948
O O6 0.334779 0.035068 0.089423
O O7 0.249577 0.957951 0.886082
O O8 0.811419 0.045292 0.646202
O O9 0.808875 0.098777 0.396528
O O10 0.954301 0.106872 0.543254
O O11 0.895586 0.192834 0.215615
O O12 0.500000 0.000000 0.117947
O O13 0.233105 0.266896 0.715636
#
# Coordination Sequence:
#
# PCOD8308543 Si02
#       6
#     4   8   8   8   4   8
#     4   9  16  28  51  79 103 132 176 216 260 311
#     4   9  18  31  51  76 103 135 173 211 262 317
#     4   9  20  37  55  72 101 145 184 215 264 320
#     4  10  18  33  54  76 105 138 180 221 261 313
#     4   7  12  26  45  65  93 129 160 194 242 306
#     4  10  20  34  52  78 109 137 171 224 275 308
#
# _framework density 17.448778000000001
#
# number of rings (size 3 to 8) (size 9 to 14) (size 15 to 20)
#    0.000    2.800    1.000    1.800    0.000    3.200 
#    0.000    1.000    0.000    1.200    0.000    0.000 
#    0.000    0.000    0.000    0.000    0.000    0.000 
#
# Total GULP energy -495771.644186 kJ/mol
# GULP energy per Si atom -12394.291105 kJ/mol
# Density = 1.740906 g / cm^3
# Si number density = 17.448778 Si / 1000 Ang^3
#
#
#
# Elastic Constant Matrix: (Units=GPa)
#
#
# Indices 1 2 3 4 5 6 
#
# 1 82.4621 40.3421 55.6049 0.0000 0.0000 0.0000
# 2 40.3421 82.4655 55.6050 0.0000 0.0000 0.0000
# 3 55.6049 55.6050 91.5666 0.0000 0.0000 0.0000
# 4 0.0000 0.0000 0.0000 27.0526 0.0000 0.0000
# 5 0.0000 0.0000 0.0000 0.0000 27.0520 0.0000
# 6 0.0000 0.0000 0.0000 0.0000 0.0000 27.3440
#
#
#
# Elastic Compliance Matrix: (Units=1/GPa)
#
#
# Indices 1 2 3 4 5 6 
#
# 1 0.020917 -0.002824 -0.010987 0.000000 0.000000 0.000000
# 2 -0.002824 0.020916 -0.010986 0.000000 0.000000 0.000000
# 3 -0.010987 -0.010986 0.024265 0.000000 0.000000 0.000000
# 4 0.000000 0.000000 0.000000 0.036965 0.000000 0.000000
# 5 0.000000 0.000000 0.000000 0.000000 0.036966 0.000000
# 6 0.000000 0.000000 0.000000 0.000000 0.000000 0.036571
#
#
# Mechanical properties :
#
#
# Convention : Reuss Voigt Hill
#
# Bulk Modulus (GPa) = 60.59795 62.17759 61.38777
# Shear Modulus (GPa) = 21.58003 23.28588 22.43296
#
# Velocity S-wave (km/s) = 3.52058 3.65708 3.58948
# Velocity P-wave (km/s) = 7.16453 7.31738 7.24136
#
# Compressibility (1/GPa) = 0.01650221
#
# Stress axis : x y z
#
# Youngs Moduli (GPa) = 47.80759 47.81079 41.21215
#
# Poissons Ratio (x) = 0.13503 0.45280
# Poissons Ratio (y) = 0.13502 0.45277
# Poissons Ratio (z) = 0.52527 0.52527
#
# Static dielectric constant tensor:
#      x y z
#    x 3.450230 0.000000 0.000000 
#    y 0.000000 3.450220 0.000000 
#    z 0.000000 0.000000 2.914200 
# 
# 
# High freq. dielectric constant tensor:
#      x y z
#    x 1.680720 0.000000 0.000000 
#    y 0.000000 1.680720 0.000000 
#    z 0.000000 0.000000 1.643210 
# 
# From -- ./inp_files/1062.got.cif
#   From: 2010.03.12/outbox.cif.g09.slc.cpg/sg113_cif.got.tgz:1062.got - 2010.04.14 02:06:34.
