data_PCOD8308427
_publ_section_title
;
Structure prediction by ZEFSAII (Michael W. Deem and Ramdas Pophale) SiO2 
 PCOD8308427
Probable space group: P -4 2 C
;
_chemical_formula_sum "Si O2"
_cell_formula_units_Z 30
_cell_length_a 8.643443
_cell_length_b 8.643443
_cell_length_c 18.131706
_cell_angle_alpha 90.000000
_cell_angle_beta 90.000000
_cell_angle_gamma 90.000000
_cell_volume 1354.603562
_symmetry_space_group_name_H-M "P -4 2 C"
_symmetry_group_IT_number 112
_symmetry_cell_setting 'tetragonal'
loop_
_space_group_symop_operation_xyz
x,y,z
y,-x,-z
-x,-y,z
-y,x,-z
x,-y,1/2-z
-x,y,1/2-z
-y,-x,1/2+z
y,x,1/2+z
loop_
_atom_site_type_symbol
_atom_site_label
_atom_site_fract_x
_atom_site_fract_y
_atom_site_fract_z
Si Si1 0.328314 0.023993 0.591512
Si Si2 0.742605 0.000000 0.250000
Si Si3 0.298252 0.233069 0.460298
Si Si4 0.000000 0.234470 0.250000
Si Si5 0.000000 0.500000 0.868922
Si Si6 0.500000 0.500000 0.000000
O O1 0.228412 0.869244 0.577484
O O2 0.500000 0.000000 0.562617
O O3 0.265575 0.169073 0.543493
O O4 0.331080 0.058940 0.679272
O O5 0.853589 0.136148 0.221443
O O6 0.637488 0.935235 0.183148
O O7 0.427889 0.133121 0.418885
O O8 0.364807 0.408835 0.456033
#
# Coordination Sequence:
#
# PCOD8308427 Si02
#       6
#     8   4   8   4   4   2
#     4  12  26  44  67 102 140 183 230 289 351 419
#     4  10  24  40  70  94 138 176 230 286 354 424
#     4  12  25  44  73 100 138 181 237 293 347 417
#     4  11  25  42  64 100 137 187 220 288 352 414
#     4  11  22  46  68 103 132 180 232 291 354 414
#     4  12  24  44  68 102 136 176 228 298 352 400
#
# _framework density 22.146704
#
# number of rings (size 3 to 8) (size 9 to 14) (size 15 to 20)
#    0.000    0.533    6.667    0.400    7.467    0.533 
#    0.000    0.000    0.000    1.600    0.000    0.000 
#    0.000    0.000    0.000    0.000    0.000    0.000 
#
# Total GULP energy -371793.313837 kJ/mol
# GULP energy per Si atom -12393.110461 kJ/mol
# Density = 2.209630 g / cm^3
# Si number density = 22.146704 Si / 1000 Ang^3
#
#
#
# Elastic Constant Matrix: (Units=GPa)
#
#
# Indices 1 2 3 4 5 6 
#
# 1 88.8969 17.7661 28.3614 0.0000 0.0000 0.0000
# 2 17.7661 88.8969 28.3614 0.0000 0.0000 0.0000
# 3 28.3614 28.3614 145.3331 0.0000 0.0000 0.0000
# 4 0.0000 0.0000 0.0000 29.9588 0.0000 0.0000
# 5 0.0000 0.0000 0.0000 0.0000 29.9588 0.0000
# 6 0.0000 0.0000 0.0000 0.0000 0.0000 29.2187
#
#
#
# Elastic Compliance Matrix: (Units=1/GPa)
#
#
# Indices 1 2 3 4 5 6 
#
# 1 0.012260 -0.001799 -0.002041 0.000000 0.000000 0.000000
# 2 -0.001799 0.012260 -0.002041 0.000000 0.000000 0.000000
# 3 -0.002041 -0.002041 0.007678 0.000000 0.000000 0.000000
# 4 0.000000 0.000000 0.000000 0.033379 0.000000 0.000000
# 5 0.000000 0.000000 0.000000 0.000000 0.033379 0.000000
# 6 0.000000 0.000000 0.000000 0.000000 0.000000 0.034225
#
#
# Mechanical properties :
#
#
# Convention : Reuss Voigt Hill
#
# Bulk Modulus (GPa) = 48.93880 52.45606 50.69743
# Shear Modulus (GPa) = 32.94792 34.40313 33.67552
#
# Velocity S-wave (km/s) = 3.86127 3.94562 3.90367
# Velocity P-wave (km/s) = 6.48265 6.67041 6.57720
#
# Compressibility (1/GPa) = 0.02043368
#
# Stress axis : x y z
#
# Youngs Moduli (GPa) = 81.56756 81.56756 130.25068
#
# Poissons Ratio (x) = 0.14673 0.26590
# Poissons Ratio (y) = 0.14673 0.26590
# Poissons Ratio (z) = 0.16651 0.16651
#
# Static dielectric constant tensor:
#      x y z
#    x 3.941050 0.000000 0.000000 
#    y 0.000000 3.941050 0.000000 
#    z 0.000000 0.000000 3.938660 
# 
# 
# High freq. dielectric constant tensor:
#      x y z
#    x 1.869150 0.000000 0.000000 
#    y 0.000000 1.869150 0.000000 
#    z 0.000000 0.000000 1.874550 
# 
# From -- ./inp_files/4465.got.cif
#   From: 2010.03.12/outbox.cif.g09.slc.cpg/sg112_3_cif.got.tgz:4465.got - 2010.04.14 02:02:48.
