data_PCOD8308628
_publ_section_title
;
Structure prediction by ZEFSAII (Michael W. Deem and Ramdas Pophale) SiO2 
 PCOD8308628
Probable space group: P -4 21 M 
;
_chemical_formula_sum "Si O2"
_cell_formula_units_Z 56
_cell_length_a 13.520201
_cell_length_b 13.520201
_cell_length_c 17.930277
_cell_angle_alpha 90.000000
_cell_angle_beta 90.000000
_cell_angle_gamma 90.000000
_cell_volume 3277.579957
_symmetry_space_group_name_H-M "P -4 21 M "
_symmetry_group_IT_number 113
_symmetry_cell_setting 'tetragonal'
loop_
_space_group_symop_operation_xyz
x,y,z
y,-x,-z
-x,-y,z
-y,x,-z
1/2+x,1/2-y,-z
1/2-x,1/2+y,-z
1/2-y,1/2-x,z
1/2+y,1/2+x,z
loop_
_atom_site_type_symbol
_atom_site_label
_atom_site_fract_x
_atom_site_fract_y
_atom_site_fract_z
Si Si1 0.225344 0.116114 0.774606
Si Si2 0.884522 0.224106 0.649971
Si Si3 0.386707 0.386708 0.500000
Si Si4 0.774657 0.116115 0.774607
Si Si5 0.115478 0.224107 0.649970
Si Si6 0.609674 0.382497 0.081510
Si Si7 0.890326 0.117504 0.918490
O O1 0.328663 0.171338 0.759481
O O2 0.146013 0.142842 0.711131
O O3 0.182916 0.153666 0.853873
O O4 0.246448 1.000000 0.773431
O O5 0.826054 0.326054 0.663023
O O6 0.857145 0.181625 0.569112
O O7 0.853990 0.142842 0.711132
O O8 0.000000 0.246958 0.657657
O O9 0.369388 0.500000 0.476284
O O10 0.318373 0.357144 0.569110
O O11 0.671340 0.171340 0.759481
O O12 0.817084 0.153666 0.853874
O O13 0.173945 0.326056 0.663023
O O14 0.500000 0.337719 0.095715
O O15 0.601817 0.500000 0.082492
O O16 0.650718 0.349284 0.000000
#
# Coordination Sequence:
#
# PCOD8308628 Si02
#       7
#     8   8   8   8   8   8   8
#     4  10  20  32  47  68  93 123 159 197 237 280
#     4  10  20  33  50  72  97 125 157 193 233 277
#     4   9  17  30  50  74  97 123 156 192 227 265
#     4  10  20  32  47  68  93 123 159 197 237 280
#     4  10  20  33  50  72  97 125 157 193 233 277
#     4   8  14  26  45  68  92 117 148 189 233 275
#     4   8  14  26  45  68  92 117 148 189 233 275
#
# _framework density 17.085777
#
# number of rings (size 3 to 8) (size 9 to 14) (size 15 to 20)
#    0.000    2.714    0.000    3.000    0.000    4.000 
#    0.000    0.000    0.000    0.000    0.000    4.000 
#    0.000    6.857    0.000    0.000    0.000    0.000 
#
# Total GULP energy -694301.575809 kJ/mol
# GULP energy per Si atom -12398.242425 kJ/mol
# Density = 1.704689 g / cm^3
# Si number density = 17.085777 Si / 1000 Ang^3
#
#
#
# Elastic Constant Matrix: (Units=GPa)
#
#
# Indices 1 2 3 4 5 6 
#
# 1 74.7222 35.0622 40.9005 0.0000 0.0000 0.0000
# 2 35.0622 74.7220 40.9009 0.0000 0.0000 0.0000
# 3 40.9005 40.9009 112.4505 0.0000 0.0000 0.0000
# 4 0.0000 0.0000 0.0000 21.5079 0.0000 0.0000
# 5 0.0000 0.0000 0.0000 0.0000 21.5080 0.0000
# 6 0.0000 0.0000 0.0000 0.0000 0.0000 16.0136
#
#
#
# Elastic Compliance Matrix: (Units=1/GPa)
#
#
# Indices 1 2 3 4 5 6 
#
# 1 0.018855 -0.006360 -0.004545 0.000000 0.000000 0.000000
# 2 -0.006360 0.018855 -0.004545 0.000000 0.000000 0.000000
# 3 -0.004545 -0.004545 0.012199 0.000000 0.000000 0.000000
# 4 0.000000 0.000000 0.000000 0.046494 0.000000 0.000000
# 5 0.000000 0.000000 0.000000 0.000000 0.046494 0.000000
# 6 0.000000 0.000000 0.000000 0.000000 0.000000 0.062447
#
#
# Mechanical properties :
#
#
# Convention : Reuss Voigt Hill
#
# Bulk Modulus (GPa) = 52.60366 55.06909 53.83637
# Shear Modulus (GPa) = 20.61183 21.47464 21.04323
#
# Velocity S-wave (km/s) = 3.47706 3.54909 3.51326
# Velocity P-wave (km/s) = 6.85381 7.00683 6.93074
#
# Compressibility (1/GPa) = 0.01901009
#
# Stress axis : x y z
#
# Youngs Moduli (GPa) = 53.03721 53.03685 81.97497
#
# Poissons Ratio (x) = 0.33730 0.37255
# Poissons Ratio (y) = 0.33730 0.37256
# Poissons Ratio (z) = 0.24104 0.24104
#
# Static dielectric constant tensor:
#      x y z
#    x 2.949510 0.000000 0.000000 
#    y 0.000000 2.949510 0.000000 
#    z 0.000000 0.000000 3.521380 
# 
# 
# High freq. dielectric constant tensor:
#      x y z
#    x 1.640400 0.000000 0.000000 
#    y 0.000000 1.640400 0.000000 
#    z 0.000000 0.000000 1.678120 
# 
# From -- ./inp_files/2734.got.cif
#   From: 2010.03.12/outbox.cif.g09.slc.cpg/sg113_cif.got.tgz:2734.got - 2010.04.14 02:06:34.
