data_PCOD8308001
_publ_section_title
;
Structure prediction by ZEFSAII (Michael W. Deem and Ramdas Pophale) SiO2 
 PCOD8308001
Probable space group: I 41 C D
;
_chemical_formula_sum "Si O2"
_cell_formula_units_Z 112
_cell_length_a 13.962361
_cell_length_b 13.962361
_cell_length_c 28.980205
_cell_angle_alpha 90.000000
_cell_angle_beta 90.000000
_cell_angle_gamma 90.000000
_cell_volume 5649.619230
_symmetry_space_group_name_H-M "I 41 C D"
_symmetry_group_IT_number 110
_symmetry_cell_setting 'tetragonal'
loop_
_space_group_symop_operation_xyz
x,y,z
-y,1/2+x,1/4+z
-x,-y,z
y,1/2-x,1/4+z
-x,y,1/2+z
x,-y,1/2+z
1/2-y,-x,1/4+z
1/2+y,x,1/4+z
1/2+x,1/2+y,1/2+z
1/2-y,x,3/4+z
1/2-x,1/2-y,1/2+z
1/2+y,-x,3/4+z
1/2-x,1/2+y,z
1/2+x,1/2-y,z
-y,1/2-x,3/4+z
y,1/2+x,3/4+z
loop_
_atom_site_type_symbol
_atom_site_label
_atom_site_fract_x
_atom_site_fract_y
_atom_site_fract_z
Si Si1 0.230231 0.460703 0.384700
Si Si2 0.977743 0.697489 0.014804
Si Si3 0.811138 0.323279 0.802830
Si Si4 0.098535 0.048554 0.173155
Si Si5 0.425546 0.077248 0.602576
Si Si6 0.505160 0.786446 0.335603
Si Si7 0.796643 0.370852 0.321946
O O1 0.187821 0.408099 0.339997
O O2 0.162504 0.429553 0.427702
O O3 0.339488 0.425209 0.392040
O O4 0.226125 0.574116 0.370538
O O5 0.877576 0.759342 0.009247
O O6 0.965290 0.619763 0.054954
O O7 0.068549 0.764435 0.027194
O O8 0.002702 0.638658 0.969450
O O9 0.753551 0.232371 0.821679
O O10 0.921907 0.292222 0.796225
O O11 0.178691 0.034061 0.134670
O O12 0.000000 0.000000 0.157681
O O13 0.322415 0.034215 0.593658
O O14 0.500000 0.000000 0.621285
O O15 0.590502 0.852502 0.317526
#
# Coordination Sequence:
#
# PCOD8308001 Si02
#       7
#    16  16  16  16  16  16  16
#     4   9  19  33  56  88 114 147 207 248 294 377
#     4  10  22  36  56  87 128 150 204 259 312 367
#     4   9  19  34  57  87 116 151 211 249 295 372
#     4  11  22  37  58  91 124 159 201 259 317 368
#     4  10  19  37  63  87 120 160 212 252 307 373
#     4  11  19  35  67  85 113 166 210 253 304 372
#     4  10  17  37  61  87 111 160 205 252 291 376
#
# _framework density 19.824342999999999
#
# number of rings (size 3 to 8) (size 9 to 14) (size 15 to 20)
#    0.000    2.286    4.286    2.143    0.000    0.000 
#    2.571    0.000    3.143    0.000    0.000    0.000 
#    0.000    0.000    0.000    0.000    0.000    0.000 
#
# Total GULP energy -693745.941223 kJ/mol
# GULP energy per Si atom -12388.320379 kJ/mol
# Density = 1.977922 g / cm^3
# Si number density = 19.824343 Si / 1000 Ang^3
#
#
#
# Elastic Constant Matrix: (Units=GPa)
#
#
# Indices 1 2 3 4 5 6 
#
# 1 139.9512 47.8833 25.9962 0.0000 0.0000 0.0000
# 2 47.8833 139.9512 25.9962 0.0000 0.0000 0.0000
# 3 25.9962 25.9962 44.5690 0.0000 0.0000 0.0000
# 4 0.0000 0.0000 0.0000 19.5638 0.0000 0.0000
# 5 0.0000 0.0000 0.0000 0.0000 19.5638 0.0000
# 6 0.0000 0.0000 0.0000 0.0000 0.0000 42.0775
#
#
#
# Elastic Compliance Matrix: (Units=1/GPa)
#
#
# Indices 1 2 3 4 5 6 
#
# 1 0.008605 -0.002256 -0.003703 0.000000 0.000000 0.000000
# 2 -0.002256 0.008605 -0.003703 0.000000 0.000000 0.000000
# 3 -0.003703 -0.003703 0.026757 0.000000 0.000000 0.000000
# 4 0.000000 0.000000 0.000000 0.051115 0.000000 0.000000
# 5 0.000000 0.000000 0.000000 0.000000 0.051115 0.000000
# 6 0.000000 0.000000 0.000000 0.000000 0.000000 0.023766
#
#
# Mechanical properties :
#
#
# Convention : Reuss Voigt Hill
#
# Bulk Modulus (GPa) = 40.58085 58.24698 49.41391
# Shear Modulus (GPa) = 25.31619 31.21408 28.26514
#
# Velocity S-wave (km/s) = 3.57743 3.97234 3.78005
# Velocity P-wave (km/s) = 6.13014 7.10526 6.63563
#
# Compressibility (1/GPa) = 0.02464217
#
# Stress axis : x y z
#
# Youngs Moduli (GPa) = 116.20863 116.20863 37.37322
#
# Poissons Ratio (x) = 0.26221 0.13840
# Poissons Ratio (y) = 0.26221 0.13840
# Poissons Ratio (z) = 0.43034 0.43034
#
# Static dielectric constant tensor:
#      x y z
#    x 4.117660 0.000000 0.000000 
#    y 0.000000 4.117660 0.000000 
#    z 0.000000 0.000000 3.128850 
# 
# 
# High freq. dielectric constant tensor:
#      x y z
#    x 1.795320 0.000000 0.000000 
#    y 0.000000 1.795320 0.000000 
#    z 0.000000 0.000000 1.705100 
# 
# From -- ./inp_files/3252.got.cif
#   From: 2010.03.12/outbox.cif.g09.slc.cpg/sg110_2_cif.got.tgz:3252.got - 2010.04.14 01:58:01.
