data_PCOD8308603
_publ_section_title
;
Structure prediction by ZEFSAII (Michael W. Deem and Ramdas Pophale) SiO2 
 PCOD8308603
Probable space group: P -4 21 M 
;
_chemical_formula_sum "Si O2"
_cell_formula_units_Z 28
_cell_length_a 9.215121
_cell_length_b 9.215121
_cell_length_c 17.371553
_cell_angle_alpha 90.000000
_cell_angle_beta 90.000000
_cell_angle_gamma 90.000000
_cell_volume 1475.165442
_symmetry_space_group_name_H-M "P -4 21 M "
_symmetry_group_IT_number 113
_symmetry_cell_setting 'tetragonal'
loop_
_space_group_symop_operation_xyz
x,y,z
y,-x,-z
-x,-y,z
-y,x,-z
1/2+x,1/2-y,-z
1/2-x,1/2+y,-z
1/2-y,1/2-x,z
1/2+y,1/2+x,z
loop_
_atom_site_type_symbol
_atom_site_label
_atom_site_fract_x
_atom_site_fract_y
_atom_site_fract_z
Si Si1 0.502293 0.237472 0.794157
Si Si2 0.426891 0.697664 0.963929
Si Si3 0.000000 0.000000 0.680818
Si Si4 0.416944 0.317597 0.456643
O O1 0.360829 0.139171 0.802991
O O2 0.531006 0.316196 0.874942
O O3 0.469757 0.358517 0.731187
O O4 0.640964 0.140964 0.769226
O O5 0.352157 0.852157 0.980977
O O6 0.567633 0.685069 0.017823
O O7 0.972107 0.142634 0.628766
O O8 0.308714 0.445554 0.485848
O O9 0.336199 0.163802 0.455779
#
# Coordination Sequence:
#
# PCOD8308603 Si02
#       4
#     8   8   4   8
#     4  10  21  36  54  77 106 141 178 216 264 319
#     4  10  20  34  53  77 105 138 177 221 266 313
#     4  10  19  34  57  80 106 136 176 220 259 306
#     4   9  20  36  55  81 110 139 173 214 259 308
#
# _framework density 18.980919
#
# number of rings (size 3 to 8) (size 9 to 14) (size 15 to 20)
#    0.000    2.571    0.000    3.429    0.000    6.857 
#    0.000    0.000    0.000    4.286    0.000    0.000 
#    0.000    0.000    0.000    0.000    0.000    0.000 
#
# Total GULP energy -347176.899678 kJ/mol
# GULP energy per Si atom -12399.174989 kJ/mol
# Density = 1.893772 g / cm^3
# Si number density = 18.980919 Si / 1000 Ang^3
#
#
#
# Elastic Constant Matrix: (Units=GPa)
#
#
# Indices 1 2 3 4 5 6 
#
# 1 75.5938 34.1395 54.8295 0.0000 0.0000 0.0000
# 2 34.1395 75.5965 54.8300 0.0000 0.0000 0.0000
# 3 54.8295 54.8300 132.4848 0.0000 0.0000 0.0000
# 4 0.0000 0.0000 0.0000 20.4538 0.0000 0.0000
# 5 0.0000 0.0000 0.0000 0.0000 20.4535 0.0000
# 6 0.0000 0.0000 0.0000 0.0000 0.0000 48.2430
#
#
#
# Elastic Compliance Matrix: (Units=1/GPa)
#
#
# Indices 1 2 3 4 5 6 
#
# 1 0.019831 -0.004291 -0.006431 0.000000 0.000000 0.000000
# 2 -0.004291 0.019830 -0.006431 0.000000 0.000000 0.000000
# 3 -0.006431 -0.006431 0.012871 0.000000 0.000000 0.000000
# 4 0.000000 0.000000 0.000000 0.048891 0.000000 0.000000
# 5 0.000000 0.000000 0.000000 0.000000 0.048891 0.000000
# 6 0.000000 0.000000 0.000000 0.000000 0.000000 0.020728
#
#
# Mechanical properties :
#
#
# Convention : Reuss Voigt Hill
#
# Bulk Modulus (GPa) = 54.86728 63.47477 59.17103
# Shear Modulus (GPa) = 23.64893 27.15514 25.40204
#
# Velocity S-wave (km/s) = 3.53361 3.78650 3.66224
# Velocity P-wave (km/s) = 6.75409 7.25471 7.00887
#
# Compressibility (1/GPa) = 0.01822580
#
# Stress axis : x y z
#
# Youngs Moduli (GPa) = 50.42518 50.42739 77.69257
#
# Poissons Ratio (x) = 0.21639 0.49967
# Poissons Ratio (y) = 0.21639 0.49965
# Poissons Ratio (z) = 0.32430 0.32430
#
# Static dielectric constant tensor:
#      x y z
#    x 3.432310 0.000000 0.000000 
#    y 0.000000 3.432310 0.000000 
#    z 0.000000 0.000000 3.512070 
# 
# 
# High freq. dielectric constant tensor:
#      x y z
#    x 1.731760 0.000000 0.000000 
#    y 0.000000 1.731760 0.000000 
#    z 0.000000 0.000000 1.742200 
# 
# From -- ./inp_files/2385.got.cif
#   From: 2010.03.12/outbox.cif.g09.slc.cpg/sg113_cif.got.tgz:2385.got - 2010.04.14 02:06:34.
