data_PCOD8308253
_publ_section_title
;
Structure prediction by ZEFSAII (Michael W. Deem and Ramdas Pophale) SiO2 
 PCOD8308253
Probable space group: P -4 2 M 
;
_chemical_formula_sum "Si O2"
_cell_formula_units_Z 34
_cell_length_a 16.142104
_cell_length_b 16.142104
_cell_length_c 6.615896
_cell_angle_alpha 90.000000
_cell_angle_beta 90.000000
_cell_angle_gamma 90.000000
_cell_volume 1723.887624
_symmetry_space_group_name_H-M "P -4 2 M "
_symmetry_group_IT_number 111
_symmetry_cell_setting 'tetragonal'
loop_
_space_group_symop_operation_xyz
x,y,z
y,-x,-z
-x,-y,z
-y,x,-z
x,-y,-z
-x,y,-z
-y,-x,z
y,x,z
loop_
_atom_site_type_symbol
_atom_site_label
_atom_site_fract_x
_atom_site_fract_y
_atom_site_fract_z
Si Si1 0.802618 0.197383 0.824408
Si Si2 0.725164 0.908189 0.516200
Si Si3 0.500000 0.500000 0.500000
Si Si4 0.000000 0.000000 0.000000
Si Si5 0.878486 0.121515 0.209378
Si Si6 0.225613 0.409187 0.526899
Si Si7 0.616815 0.616815 0.768583
Si Si8 0.672654 0.672654 0.180453
O O1 0.872406 0.244328 0.695931
O O2 0.737304 0.262696 0.920074
O O3 0.849698 0.150303 0.994130
O O4 0.801137 0.916278 0.671075
O O5 0.653770 0.846501 0.592758
O O6 0.686840 0.000000 0.500000
O O7 0.554148 0.554148 0.656311
O O8 0.052817 0.947184 0.161675
O O9 0.186169 0.500000 0.500000
O O10 0.290383 0.407638 0.709349
O O11 0.274376 0.388532 0.320958
O O12 0.619346 0.619346 0.015957
#
# Coordination Sequence:
#
# PCOD8308253 Si02
#       8
#     4   8   1   1   4   8   4   4
#     4   9  18  37  60  85 112 152 206 231 291 364
#     4  10  21  36  59  85 115 156 198 241 294 349
#     4  12  24  40  62  96 122 140 196 254 284 376
#     4  12  24  32  58  92 120 146 200 244 302 372
#     4  11  21  38  57  84 116 156 180 251 302 342
#     4  10  21  39  57  84 119 151 199 243 284 356
#     4  11  21  42  59  86 120 151 187 241 303 345
#     4   9  20  37  63  82 111 161 190 233 296 356
#
# _framework density 19.722861999999999
#
# number of rings (size 3 to 8) (size 9 to 14) (size 15 to 20)
#    0.000    1.882    1.176    4.941    0.000    2.353 
#    0.000    5.882    0.000    0.000    0.000    6.588 
#    0.000    0.000    0.000    0.000    0.000    0.000 
#
# Total GULP energy -421445.623994 kJ/mol
# GULP energy per Si atom -12395.459529 kJ/mol
# Density = 1.967797 g / cm^3
# Si number density = 19.722862 Si / 1000 Ang^3
#
#
#
# Elastic Constant Matrix: (Units=GPa)
#
#
# Indices 1 2 3 4 5 6 
#
# 1 113.9154 60.7638 33.1861 0.0000 0.0000 0.0000
# 2 60.7638 113.9122 33.1843 0.0000 0.0000 0.0000
# 3 33.1861 33.1843 87.4667 0.0000 0.0000 0.0000
# 4 0.0000 0.0000 0.0000 21.7573 0.0000 0.0000
# 5 0.0000 0.0000 0.0000 0.0000 21.7573 0.0000
# 6 0.0000 0.0000 0.0000 0.0000 0.0000 19.4139
#
#
#
# Elastic Compliance Matrix: (Units=1/GPa)
#
#
# Indices 1 2 3 4 5 6 
#
# 1 0.012752 -0.006063 -0.002538 0.000000 0.000000 0.000000
# 2 -0.006063 0.012752 -0.002538 0.000000 0.000000 0.000000
# 3 -0.002538 -0.002538 0.013359 0.000000 0.000000 0.000000
# 4 0.000000 0.000000 0.000000 0.045961 0.000000 0.000000
# 5 0.000000 0.000000 0.000000 0.000000 0.045962 0.000000
# 6 0.000000 0.000000 0.000000 0.000000 0.000000 0.051510
#
#
# Mechanical properties :
#
#
# Convention : Reuss Voigt Hill
#
# Bulk Modulus (GPa) = 60.29393 63.28473 61.78933
# Shear Modulus (GPa) = 23.79812 25.12971 24.46392
#
# Velocity S-wave (km/s) = 3.47742 3.57338 3.52573
# Velocity P-wave (km/s) = 6.83814 7.01299 6.92612
#
# Compressibility (1/GPa) = 0.01658542
#
# Stress axis : x y z
#
# Youngs Moduli (GPa) = 78.42043 78.41898 74.85764
#
# Poissons Ratio (x) = 0.47544 0.18999
# Poissons Ratio (y) = 0.47545 0.18997
# Poissons Ratio (z) = 0.19903 0.19901
#
# Static dielectric constant tensor:
#      x y z
#    x 3.741160 0.000000 0.000000 
#    y 0.000000 3.741150 0.000000 
#    z 0.000000 0.000000 3.530020 
# 
# 
# High freq. dielectric constant tensor:
#      x y z
#    x 1.768360 0.000000 0.000000 
#    y 0.000000 1.768360 0.000000 
#    z 0.000000 0.000000 1.762370 
# 
# From -- ./inp_files/453.got.cif
#   From: 2010.03.12/outbox.cif.g09.slc.cpg/sg111_1_cif.got.tgz:453.got - 2010.04.14 01:59:48.
