data_PCOD8308966
_publ_section_title
;
Structure prediction by ZEFSAII (Michael W. Deem and Ramdas Pophale) SiO2 
 PCOD8308966
Probable space group: P -4 21 C
;
_chemical_formula_sum "Si O2"
_cell_formula_units_Z 48
_cell_length_a 8.568246
_cell_length_b 8.568246
_cell_length_c 28.356497
_cell_angle_alpha 90.000000
_cell_angle_beta 90.000000
_cell_angle_gamma 90.000000
_cell_volume 2081.787677
_symmetry_space_group_name_H-M "P -4 21 C"
_symmetry_group_IT_number 114
_symmetry_cell_setting 'tetragonal'
loop_
_space_group_symop_operation_xyz
x,y,z
y,-x,-z
-x,-y,z
-y,x,-z
1/2+x,1/2-y,1/2-z
1/2-x,1/2+y,1/2-z
1/2-y,1/2-x,1/2+z
1/2+y,1/2+x,1/2+z
loop_
_atom_site_type_symbol
_atom_site_label
_atom_site_fract_x
_atom_site_fract_y
_atom_site_fract_z
Si Si1 0.322494 0.804019 0.191524
Si Si2 0.362146 0.900170 0.593819
Si Si3 0.116914 0.126356 0.563965
Si Si4 0.145748 0.111659 0.721737
Si Si5 0.814492 0.509855 0.148880
Si Si6 0.168109 0.187998 0.991832
O O1 0.337478 0.914915 0.145484
O O2 0.194381 0.866532 0.227600
O O3 0.494281 0.793332 0.216427
O O4 0.261949 0.642881 0.170292
O O5 0.320844 0.753904 0.560894
O O6 0.500000 0.000000 0.570041
O O7 0.219476 0.020863 0.599554
O O8 0.031917 0.259244 0.594843
O O9 0.219828 0.207255 0.523553
O O10 0.000000 0.000000 0.540231
O O11 0.150268 0.247488 0.681761
O O12 0.000000 0.000000 0.716133
O O13 0.000000 0.500000 0.150424
O O14 0.993960 0.211535 0.012087
#
# Coordination Sequence:
#
# PCOD8308966 Si02
#       6
#     8   8   8   8   8   8
#     4  11  23  44  68 101 143 186 242 300 363 432
#     4  12  26  46  71 106 143 186 242 299 365 437
#     4  12  25  47  75 104 141 186 238 298 361 434
#     4  10  22  43  66 100 143 185 240 295 361 434
#     4  11  23  42  69 101 139 184 237 296 355 430
#     4  11  28  51  73 106 149 188 243 306 373 449
#
# _framework density 23.057103999999999
#
# number of rings (size 3 to 8) (size 9 to 14) (size 15 to 20)
#    0.000    0.833    5.000    1.500    4.667    4.000 
#    6.000    0.000    0.000    0.000    0.000    0.000 
#    0.000    0.000    0.000    0.000    0.000    0.000 
#
# Total GULP energy -594952.441011 kJ/mol
# GULP energy per Si atom -12394.842521 kJ/mol
# Density = 2.300462 g / cm^3
# Si number density = 23.057104 Si / 1000 Ang^3
#
#
#
# Elastic Constant Matrix: (Units=GPa)
#
#
# Indices 1 2 3 4 5 6 
#
# 1 105.5138 49.7085 38.6217 0.0000 0.0000 0.0000
# 2 49.7085 105.5138 38.6217 0.0000 0.0000 0.0000
# 3 38.6217 38.6217 131.6714 0.0000 0.0000 0.0000
# 4 0.0000 0.0000 0.0000 30.9204 0.0000 0.0000
# 5 0.0000 0.0000 0.0000 0.0000 30.9204 0.0000
# 6 0.0000 0.0000 0.0000 0.0000 0.0000 32.7134
#
#
#
# Elastic Compliance Matrix: (Units=1/GPa)
#
#
# Indices 1 2 3 4 5 6 
#
# 1 0.012731 -0.005188 -0.002213 0.000000 0.000000 0.000000
# 2 -0.005188 0.012731 -0.002213 0.000000 0.000000 0.000000
# 3 -0.002213 -0.002213 0.008893 0.000000 0.000000 0.000000
# 4 0.000000 0.000000 0.000000 0.032341 0.000000 0.000000
# 5 0.000000 0.000000 0.000000 0.000000 0.032341 0.000000
# 6 0.000000 0.000000 0.000000 0.000000 0.000000 0.030569
#
#
# Mechanical properties :
#
#
# Convention : Reuss Voigt Hill
#
# Bulk Modulus (GPa) = 66.09808 66.28921 66.19365
# Shear Modulus (GPa) = 32.49371 33.29396 32.89384
#
# Velocity S-wave (km/s) = 3.75810 3.80409 3.78117
# Velocity P-wave (km/s) = 6.89641 6.93594 6.91620
#
# Compressibility (1/GPa) = 0.01512903
#
# Stress axis : x y z
#
# Youngs Moduli (GPa) = 78.54569 78.54569 112.45200
#
# Poissons Ratio (x) = 0.40749 0.24882
# Poissons Ratio (y) = 0.40749 0.24882
# Poissons Ratio (z) = 0.17379 0.17379
#
# Static dielectric constant tensor:
#      x y z
#    x 4.389220 0.000000 0.000000 
#    y 0.000000 4.389220 0.000000 
#    z 0.000000 0.000000 4.206430 
# 
# 
# High freq. dielectric constant tensor:
#      x y z
#    x 1.911150 0.000000 0.000000 
#    y 0.000000 1.911150 0.000000 
#    z 0.000000 0.000000 1.916140 
# 
# From -- ./inp_files/3965.got.cif
#   From: 2010.03.12/outbox.cif.g09.slc.cpg/sg114_2_cif.got.tgz:3965.got - 2010.04.14 02:08:34.
