data_PCOD8308663
_publ_section_title
;
Structure prediction by ZEFSAII (Michael W. Deem and Ramdas Pophale) SiO2 
 PCOD8308663
Probable space group: P -4 21 M 
;
_chemical_formula_sum "Si O2"
_cell_formula_units_Z 48
_cell_length_a 11.107211
_cell_length_b 11.107211
_cell_length_c 18.449386
_cell_angle_alpha 90.000000
_cell_angle_beta 90.000000
_cell_angle_gamma 90.000000
_cell_volume 2276.103264
_symmetry_space_group_name_H-M "P -4 21 M "
_symmetry_group_IT_number 113
_symmetry_cell_setting 'tetragonal'
loop_
_space_group_symop_operation_xyz
x,y,z
y,-x,-z
-x,-y,z
-y,x,-z
1/2+x,1/2-y,-z
1/2-x,1/2+y,-z
1/2-y,1/2-x,z
1/2+y,1/2+x,z
loop_
_atom_site_type_symbol
_atom_site_label
_atom_site_fract_x
_atom_site_fract_y
_atom_site_fract_z
Si Si1 0.057264 0.747388 0.925039
Si Si2 0.745978 0.055490 0.924578
Si Si3 0.210721 0.895704 0.324654
Si Si4 0.821742 0.869842 0.404404
Si Si5 0.399288 0.600702 0.173727
Si Si6 0.434748 0.254391 0.560741
O O1 0.138728 0.638728 0.892534
O O2 0.137485 0.864192 0.941977
O O3 0.953009 0.783155 0.868455
O O4 0.001836 0.702531 0.000362
O O5 0.636727 0.136727 0.892786
O O6 0.782076 0.952220 0.867222
O O7 0.351748 0.851748 0.319505
O O8 0.143608 0.854487 0.251853
O O9 0.159535 0.829085 0.393922
O O10 0.182415 0.036445 0.337581
O O11 0.704767 0.795234 0.389340
O O12 0.809336 0.940024 0.480125
O O13 0.934717 0.777547 0.403710
O O14 0.500000 0.500000 0.182851
O O15 0.385948 0.114053 0.559919
#
# Coordination Sequence:
#
# PCOD8308663 Si02
#       6
#     8   8   8   8   8   8
#     4  10  20  35  60  91 123 165 213 257 310 376
#     4  10  20  36  62  92 123 165 217 264 313 377
#     4  11  24  41  62  92 127 169 215 263 323 387
#     4  11  22  38  65  95 127 169 214 264 323 388
#     4  10  21  38  62  89 128 171 210 259 322 382
#     4  10  21  38  63  95 126 165 214 261 318 388
#
# _framework density 21.088674000000001
#
# number of rings (size 3 to 8) (size 9 to 14) (size 15 to 20)
#    0.000    1.667    3.333    1.500    0.000    3.000 
#    0.000    5.833    0.000    1.000    0.000    0.000 
#    0.000    0.000    0.000    0.000    0.000    0.000 
#
# Total GULP energy -594870.876255 kJ/mol
# GULP energy per Si atom -12393.143255 kJ/mol
# Density = 2.104068 g / cm^3
# Si number density = 21.088674 Si / 1000 Ang^3
#
#
#
# Elastic Constant Matrix: (Units=GPa)
#
#
# Indices 1 2 3 4 5 6 
#
# 1 75.5257 58.0687 43.3263 0.0000 0.0000 0.0000
# 2 58.0687 75.5190 43.3288 0.0000 0.0000 0.0000
# 3 43.3263 43.3288 88.7951 0.0000 0.0000 0.0000
# 4 0.0000 0.0000 0.0000 13.1274 0.0000 0.0000
# 5 0.0000 0.0000 0.0000 0.0000 13.1273 0.0000
# 6 0.0000 0.0000 0.0000 0.0000 0.0000 28.9410
#
#
#
# Elastic Compliance Matrix: (Units=1/GPa)
#
#
# Indices 1 2 3 4 5 6 
#
# 1 0.034120 -0.023171 -0.005342 0.000000 0.000000 0.000000
# 2 -0.023171 0.034126 -0.005346 0.000000 0.000000 0.000000
# 3 -0.005342 -0.005346 0.016477 0.000000 0.000000 0.000000
# 4 0.000000 0.000000 0.000000 0.076177 0.000000 0.000000
# 5 0.000000 0.000000 0.000000 0.000000 0.076177 0.000000
# 6 0.000000 0.000000 0.000000 0.000000 0.000000 0.034553
#
#
# Mechanical properties :
#
#
# Convention : Reuss Voigt Hill
#
# Bulk Modulus (GPa) = 58.80623 58.80971 58.80797
# Shear Modulus (GPa) = 14.49202 17.38020 15.93611
#
# Velocity S-wave (km/s) = 2.62428 2.87391 2.75193
# Velocity P-wave (km/s) = 6.09329 6.24179 6.16799
#
# Compressibility (1/GPa) = 0.01700500
#
# Stress axis : x y z
#
# Youngs Moduli (GPa) = 29.30797 29.30305 60.69021
#
# Poissons Ratio (x) = 0.67899 0.32420
# Poissons Ratio (y) = 0.67910 0.32446
# Poissons Ratio (z) = 0.15656 0.15666
#
# Static dielectric constant tensor:
#      x y z
#    x 3.915040 0.000000 0.000000 
#    y 0.000000 3.915040 0.000000 
#    z 0.000000 0.000000 3.745600 
# 
# 
# High freq. dielectric constant tensor:
#      x y z
#    x 1.819720 0.000000 0.000000 
#    y 0.000000 1.819720 0.000000 
#    z 0.000000 0.000000 1.815210 
# 
# From -- ./inp_files/2487.got.cif
#   From: 2010.03.12/outbox.cif.g09.slc.cpg/sg113_cif.got.tgz:2487.got - 2010.04.14 02:06:34.
