data_PCOD8308319
_publ_section_title
;
Structure prediction by ZEFSAII (Michael W. Deem and Ramdas Pophale) SiO2 
 PCOD8308319
Probable space group: P -4 2 C
;
_chemical_formula_sum "Si O2"
_cell_formula_units_Z 56
_cell_length_a 11.841729
_cell_length_b 11.841729
_cell_length_c 19.160533
_cell_angle_alpha 90.000000
_cell_angle_beta 90.000000
_cell_angle_gamma 90.000000
_cell_volume 2686.815357
_symmetry_space_group_name_H-M "P -4 2 C"
_symmetry_group_IT_number 112
_symmetry_cell_setting 'tetragonal'
loop_
_space_group_symop_operation_xyz
x,y,z
y,-x,-z
-x,-y,z
-y,x,-z
x,-y,1/2-z
-x,y,1/2-z
-y,-x,1/2+z
y,x,1/2+z
loop_
_atom_site_type_symbol
_atom_site_label
_atom_site_fract_x
_atom_site_fract_y
_atom_site_fract_z
Si Si1 0.254204 0.375445 0.739803
Si Si2 0.101455 0.736190 0.123523
Si Si3 0.874072 0.531833 0.463173
Si Si4 0.155603 0.629067 0.256652
Si Si5 0.067561 0.749803 0.682392
Si Si6 0.667718 0.139957 0.401672
Si Si7 0.703607 0.860051 0.586989
O O1 0.302324 0.500000 0.750000
O O2 0.349687 0.286903 0.763948
O O3 0.142653 0.351524 0.786234
O O4 0.225399 0.368117 0.658415
O O5 0.173986 0.635338 0.084887
O O6 0.073792 0.691371 0.201435
O O7 0.163146 0.856521 0.136307
O O8 0.989682 0.745581 0.074012
O O9 0.868365 0.565357 0.544026
O O10 0.813675 0.410306 0.451460
O O11 0.000000 0.500000 0.438066
O O12 0.123754 0.500000 0.250000
O O13 0.140752 0.685262 0.330743
O O14 0.000000 0.805020 0.750000
O O15 0.983790 0.695707 0.626612
O O16 0.779497 0.194222 0.437541
#
# Coordination Sequence:
#
# PCOD8308319 Si02
#       7
#     8   8   8   8   8   8   8
#     4   9  20  36  56  86 114 149 197 248 301 356
#     4  10  20  35  58  90 120 155 191 243 297 358
#     4  10  22  37  58  86 113 159 206 241 292 359
#     4  10  18  33  58  83 117 150 188 249 299 349
#     4   9  20  37  60  91 121 155 200 242 304 364
#     4  10  22  38  57  85 120 155 195 250 290 358
#     4  10  21  38  57  87 118 149 202 238 294 360
#
# _framework density 20.84252
#
# number of rings (size 3 to 8) (size 9 to 14) (size 15 to 20)
#    0.000    2.286    1.429    1.286    2.000    5.714 
#    2.571    3.571    0.000    3.857    0.000    0.000 
#    0.000    0.000    0.000    0.000    0.000    0.000 
#
# Total GULP energy -693750.808042 kJ/mol
# GULP energy per Si atom -12388.407286 kJ/mol
# Density = 2.079508 g / cm^3
# Si number density = 20.842520 Si / 1000 Ang^3
#
#
#
# Elastic Constant Matrix: (Units=GPa)
#
#
# Indices 1 2 3 4 5 6 
#
# 1 62.3229 16.2808 19.5633 0.0000 0.0000 0.0000
# 2 16.2808 62.3229 19.5633 0.0000 0.0000 0.0000
# 3 19.5633 19.5633 85.2363 0.0000 0.0000 0.0000
# 4 0.0000 0.0000 0.0000 46.7378 0.0000 0.0000
# 5 0.0000 0.0000 0.0000 0.0000 46.7378 0.0000
# 6 0.0000 0.0000 0.0000 0.0000 0.0000 14.4589
#
#
#
# Elastic Compliance Matrix: (Units=1/GPa)
#
#
# Indices 1 2 3 4 5 6 
#
# 1 0.018041 -0.003678 -0.003297 0.000000 0.000000 0.000000
# 2 -0.003678 0.018041 -0.003297 0.000000 0.000000 0.000000
# 3 -0.003297 -0.003297 0.013245 0.000000 0.000000 0.000000
# 4 0.000000 0.000000 0.000000 0.021396 0.000000 0.000000
# 5 0.000000 0.000000 0.000000 0.000000 0.021396 0.000000
# 6 0.000000 0.000000 0.000000 0.000000 0.000000 0.069161
#
#
# Mechanical properties :
#
#
# Convention : Reuss Voigt Hill
#
# Bulk Modulus (GPa) = 34.74028 35.63298 35.18663
# Shear Modulus (GPa) = 26.12078 31.88520 29.00299
#
# Velocity S-wave (km/s) = 3.54396 3.91553 3.73437
# Velocity P-wave (km/s) = 5.78363 6.12986 5.95926
#
# Compressibility (1/GPa) = 0.02878503
#
# Stress axis : x y z
#
# Youngs Moduli (GPa) = 55.42894 55.42894 75.49830
#
# Poissons Ratio (x) = 0.20388 0.24889
# Poissons Ratio (y) = 0.20388 0.24889
# Poissons Ratio (z) = 0.18273 0.18273
#
# Static dielectric constant tensor:
#      x y z
#    x 3.816980 0.000000 0.000000 
#    y 0.000000 3.816980 0.000000 
#    z 0.000000 0.000000 3.669050 
# 
# 
# High freq. dielectric constant tensor:
#      x y z
#    x 1.800560 0.000000 0.000000 
#    y 0.000000 1.800560 0.000000 
#    z 0.000000 0.000000 1.814980 
# 
# From -- ./inp_files/4915.got.cif
#   From: 2010.03.12/outbox.cif.g09.slc.cpg/sg112_3_cif.got.tgz:4915.got - 2010.04.14 02:02:48.
