data_PCOD8308207
_publ_section_title
;
Structure prediction by ZEFSAII (Michael W. Deem and Ramdas Pophale) SiO2 
 PCOD8308207
Probable space group: P -4 2 M 
;
_chemical_formula_sum "Si O2"
_cell_formula_units_Z 60
_cell_length_a 15.700501
_cell_length_b 15.700501
_cell_length_c 13.243973
_cell_angle_alpha 90.000000
_cell_angle_beta 90.000000
_cell_angle_gamma 90.000000
_cell_volume 3264.715254
_symmetry_space_group_name_H-M "P -4 2 M "
_symmetry_group_IT_number 111
_symmetry_cell_setting 'tetragonal'
loop_
_space_group_symop_operation_xyz
x,y,z
y,-x,-z
-x,-y,z
-y,x,-z
x,-y,-z
-x,y,-z
-y,-x,z
y,x,z
loop_
_atom_site_type_symbol
_atom_site_label
_atom_site_fract_x
_atom_site_fract_y
_atom_site_fract_z
Si Si1 0.727098 0.961006 0.352589
Si Si2 0.259918 0.395730 0.669626
Si Si3 0.804670 0.332632 0.531460
Si Si4 0.587505 0.277920 0.722961
Si Si5 0.299573 0.158601 0.168763
Si Si6 0.272332 0.133962 0.750571
Si Si7 0.233402 0.093281 0.971720
Si Si8 0.868400 0.000000 0.500000
O O1 0.671049 0.904379 0.432310
O O2 0.724285 0.918387 0.243186
O O3 0.704795 0.061349 0.333587
O O4 0.818498 0.962352 0.404401
O O5 0.349081 0.349081 0.648528
O O6 0.203452 0.392676 0.567015
O O7 0.284631 0.486652 0.714453
O O8 0.203814 0.346977 0.752854
O O9 0.761904 0.238097 0.510976
O O10 0.749388 0.377206 0.615818
O O11 0.630870 0.369131 0.752385
O O12 0.610881 0.204418 0.804978
O O13 0.227107 0.227107 0.188817
O O14 0.302946 0.125892 0.053682
O O15 0.182086 0.182086 0.727017
O O16 0.274116 0.093200 0.861365
O O17 0.150311 0.150311 0.977438
O O18 0.202219 0.000000 0.000000
O O19 0.925154 0.074847 0.453332
#
# Coordination Sequence:
#
# PCOD8308207 Si02
#       8
#     8   8   8   8   8   8   8   4
#     4  11  18  32  52  68  99 143 186 219 256 310
#     4  10  20  35  53  78 113 142 171 217 269 321
#     4   9  18  32  52  76 105 143 181 217 260 314
#     4   9  18  34  57  83 105 133 176 218 264 326
#     4   9  18  33  55  77 101 137 177 220 265 319
#     4  10  21  34  52  78 106 142 184 225 269 320
#     4  10  19  35  56  79 108 140 182 229 278 327
#     4  11  22  30  40  66 101 136 180 226 257 294
#
# _framework density 18.378323999999999
#
# number of rings (size 3 to 8) (size 9 to 14) (size 15 to 20)
#    0.000    2.200    1.333    3.600    0.000    1.467 
#    0.000    3.333    0.000    6.400    0.000    0.000 
#    0.000    5.333    0.000    0.000    0.000    0.133 
#
# Total GULP energy -743301.359545 kJ/mol
# GULP energy per Si atom -12388.355992 kJ/mol
# Density = 1.833649 g / cm^3
# Si number density = 18.378324 Si / 1000 Ang^3
#
#
#
# Elastic Constant Matrix: (Units=GPa)
#
#
# Indices 1 2 3 4 5 6 
#
# 1 95.8234 40.6824 33.2420 0.0000 0.0000 0.0000
# 2 40.6824 95.8235 33.2420 0.0000 0.0000 0.0000
# 3 33.2420 33.2420 82.2737 0.0000 0.0000 0.0000
# 4 0.0000 0.0000 0.0000 18.1025 0.0000 0.0000
# 5 0.0000 0.0000 0.0000 0.0000 18.1025 0.0000
# 6 0.0000 0.0000 0.0000 0.0000 0.0000 13.2891
#
#
#
# Elastic Compliance Matrix: (Units=1/GPa)
#
#
# Indices 1 2 3 4 5 6 
#
# 1 0.013628 -0.004507 -0.003685 0.000000 0.000000 0.000000
# 2 -0.004507 0.013628 -0.003685 0.000000 0.000000 0.000000
# 3 -0.003685 -0.003685 0.015132 0.000000 0.000000 0.000000
# 4 0.000000 0.000000 0.000000 0.055241 0.000000 0.000000
# 5 0.000000 0.000000 0.000000 0.000000 0.055241 0.000000
# 6 0.000000 0.000000 0.000000 0.000000 0.000000 0.075249
#
#
# Mechanical properties :
#
#
# Convention : Reuss Voigt Hill
#
# Bulk Modulus (GPa) = 53.66788 54.25036 53.95912
# Shear Modulus (GPa) = 19.37343 21.01579 20.19461
#
# Velocity S-wave (km/s) = 3.25028 3.38525 3.31845
# Velocity P-wave (km/s) = 6.58414 6.69796 6.64129
#
# Compressibility (1/GPa) = 0.01863312
#
# Stress axis : x y z
#
# Youngs Moduli (GPa) = 73.37889 73.37901 66.08349
#
# Poissons Ratio (x) = 0.33075 0.24352
# Poissons Ratio (y) = 0.33075 0.24352
# Poissons Ratio (z) = 0.27040 0.27040
#
# Static dielectric constant tensor:
#      x y z
#    x 3.416360 0.000000 0.000000 
#    y 0.000000 3.416360 0.000000 
#    z 0.000000 0.000000 3.532810 
# 
# 
# High freq. dielectric constant tensor:
#      x y z
#    x 1.696240 0.000000 0.000000 
#    y 0.000000 1.696240 0.000000 
#    z 0.000000 0.000000 1.712150 
# 
# From -- ./inp_files/3402.got.cif
#   From: 2010.03.12/outbox.cif.g09.slc.cpg/sg111_2_cif.got.tgz:3402.got - 2010.04.14 01:59:48.
