data_PCOD8308664
_publ_section_title
;
Structure prediction by ZEFSAII (Michael W. Deem and Ramdas Pophale) SiO2 
 PCOD8308664
Probable space group: P -4 21 M 
;
_chemical_formula_sum "Si O2"
_cell_formula_units_Z 48
_cell_length_a 13.570461
_cell_length_b 13.570461
_cell_length_c 14.521319
_cell_angle_alpha 90.000000
_cell_angle_beta 90.000000
_cell_angle_gamma 90.000000
_cell_volume 2674.208522
_symmetry_space_group_name_H-M "P -4 21 M "
_symmetry_group_IT_number 113
_symmetry_cell_setting 'tetragonal'
loop_
_space_group_symop_operation_xyz
x,y,z
y,-x,-z
-x,-y,z
-y,x,-z
1/2+x,1/2-y,-z
1/2-x,1/2+y,-z
1/2-y,1/2-x,z
1/2+y,1/2+x,z
loop_
_atom_site_type_symbol
_atom_site_label
_atom_site_fract_x
_atom_site_fract_y
_atom_site_fract_z
Si Si1 0.505391 0.158763 0.182556
Si Si2 0.513026 0.342861 0.521355
Si Si3 0.412787 0.250388 0.018363
Si Si4 0.786294 0.130569 0.691264
Si Si5 0.945341 0.288942 0.631780
Si Si6 0.601135 0.263478 0.902918
O O1 0.411160 0.088841 0.190327
O O2 0.524152 0.199157 0.285404
O O3 0.601878 0.101878 0.147060
O O4 0.481214 0.243001 0.109193
O O5 0.410433 0.401735 0.523201
O O6 0.537666 0.304594 0.624000
O O7 0.503868 0.246983 0.457548
O O8 0.346755 0.153246 0.003687
O O9 0.486895 0.256999 0.932150
O O10 0.344525 0.345953 0.031957
O O11 0.678272 0.178272 0.674202
O O12 0.867788 0.210552 0.668801
O O13 0.798141 0.098856 0.797093
O O14 0.890983 0.390983 0.605788
O O15 0.659319 0.159319 0.912253
#
# Coordination Sequence:
#
# PCOD8308664 Si02
#       6
#     8   8   8   8   8   8
#     4   9  16  28  49  74  98 127 165 211 263 309
#     4   9  18  32  49  73 100 131 168 207 248 301
#     4  10  20  36  54  77 107 139 178 221 266 315
#     4   9  17  33  54  71  97 139 174 202 252 314
#     4   9  16  30  50  71  98 131 167 210 253 301
#     4  10  20  36  56  78 106 141 180 221 263 319
#
# _framework density 17.949235000000002
#
# number of rings (size 3 to 8) (size 9 to 14) (size 15 to 20)
#    0.000    2.667    1.667    0.500    0.000    2.000 
#    3.000    2.500    0.000    1.000    0.000    0.000 
#    0.000    0.000    0.000    0.000    0.000    0.000 
#
# Total GULP energy -594971.113606 kJ/mol
# GULP energy per Si atom -12395.231533 kJ/mol
# Density = 1.790838 g / cm^3
# Si number density = 17.949235 Si / 1000 Ang^3
#
#
#
# Elastic Constant Matrix: (Units=GPa)
#
#
# Indices 1 2 3 4 5 6 
#
# 1 57.2680 23.4187 36.3455 0.0000 0.0000 0.0000
# 2 23.4187 57.2689 36.3456 0.0000 0.0000 0.0000
# 3 36.3455 36.3456 99.3819 0.0000 0.0000 0.0000
# 4 0.0000 0.0000 0.0000 32.0784 0.0000 0.0000
# 5 0.0000 0.0000 0.0000 0.0000 32.0783 0.0000
# 6 0.0000 0.0000 0.0000 0.0000 0.0000 14.5936
#
#
#
# Elastic Compliance Matrix: (Units=1/GPa)
#
#
# Indices 1 2 3 4 5 6 
#
# 1 0.024013 -0.005530 -0.006760 0.000000 0.000000 0.000000
# 2 -0.005530 0.024013 -0.006760 0.000000 0.000000 0.000000
# 3 -0.006760 -0.006760 0.015006 0.000000 0.000000 0.000000
# 4 0.000000 0.000000 0.000000 0.031174 0.000000 0.000000
# 5 0.000000 0.000000 0.000000 0.000000 0.031174 0.000000
# 6 0.000000 0.000000 0.000000 0.000000 0.000000 0.068523
#
#
# Mechanical properties :
#
#
# Convention : Reuss Voigt Hill
#
# Bulk Modulus (GPa) = 40.10512 45.12649 42.61580
# Shear Modulus (GPa) = 20.80631 23.60398 22.20514
#
# Velocity S-wave (km/s) = 3.40836 3.63028 3.52107
# Velocity P-wave (km/s) = 6.15478 6.53970 6.35016
#
# Compressibility (1/GPa) = 0.02493447
#
# Stress axis : x y z
#
# Youngs Moduli (GPa) = 41.64398 41.64476 66.63815
#
# Poissons Ratio (x) = 0.23028 0.45045
# Poissons Ratio (y) = 0.23027 0.45045
# Poissons Ratio (z) = 0.28150 0.28150
#
# Static dielectric constant tensor:
#      x y z
#    x 3.232520 0.000000 0.000000 
#    y 0.000000 3.232530 0.000000 
#    z 0.000000 0.000000 3.398090 
# 
# 
# High freq. dielectric constant tensor:
#      x y z
#    x 1.677330 0.000000 0.000000 
#    y 0.000000 1.677330 0.000000 
#    z 0.000000 0.000000 1.695550 
# 
# From -- ./inp_files/1819.got.cif
#   From: 2010.03.12/outbox.cif.g09.slc.cpg/sg113_cif.got.tgz:1819.got - 2010.04.14 02:06:34.
