data_PCOD8308268
_publ_section_title
;
Structure prediction by ZEFSAII (Michael W. Deem and Ramdas Pophale) SiO2 
 PCOD8308268
Probable space group: P -4 2 M 
;
_chemical_formula_sum "Si O2"
_cell_formula_units_Z 53
_cell_length_a 14.880392
_cell_length_b 14.880392
_cell_length_c 11.012948
_cell_angle_alpha 90.000000
_cell_angle_beta 90.000000
_cell_angle_gamma 90.000000
_cell_volume 2438.553752
_symmetry_space_group_name_H-M "P -4 2 M "
_symmetry_group_IT_number 111
_symmetry_cell_setting 'tetragonal'
loop_
_space_group_symop_operation_xyz
x,y,z
y,-x,-z
-x,-y,z
-y,x,-z
x,-y,-z
-x,y,-z
-y,-x,z
y,x,z
loop_
_atom_site_type_symbol
_atom_site_label
_atom_site_fract_x
_atom_site_fract_y
_atom_site_fract_z
Si Si1 0.558257 0.084237 0.153404
Si Si2 0.710607 0.855079 0.443457
Si Si3 0.968726 0.830076 0.126252
Si Si4 0.310137 0.168744 0.040179
Si Si5 0.572048 0.427953 0.722411
Si Si6 0.777982 0.421944 0.739462
Si Si7 0.500000 0.500000 0.500000
Si Si8 0.717926 0.955361 0.681827
O O1 0.503244 0.156541 0.230349
O O2 0.626262 0.039662 0.245798
O O3 0.500000 0.000000 0.102638
O O4 0.607819 0.138795 0.045916
O O5 0.793562 0.793562 0.406767
O O6 0.620045 0.806867 0.392252
O O7 0.712042 0.870720 0.589882
O O8 0.727719 0.950981 0.385561
O O9 0.901814 0.901814 0.189918
O O10 0.920063 0.738699 0.086201
O O11 0.048350 0.801702 0.220964
O O12 0.000000 0.874743 0.000000
O O13 0.239173 0.239173 0.977389
O O14 0.345968 0.216326 0.159435
O O15 0.500000 0.500000 0.783402
O O16 0.674858 0.454832 0.749269
O O17 0.564160 0.435841 0.577800
#
# Coordination Sequence:
#
# PCOD8308268 Si02
#       8
#     8   8   8   8   4   8   1   8
#     4  12  25  42  70 110 148 181 235 317 376 438
#     4  11  23  43  68  95 138 190 237 281 362 439
#     4  11  22  40  69  98 139 187 236 290 352 435
#     4  11  23  41  69 100 139 190 241 284 370 449
#     4  10  24  48  76 101 142 187 255 301 347 438
#     4  12  23  43  74 101 139 190 235 295 375 436
#     4   8  24  48  72  92 134 188 256 292 340 410
#     4  11  24  41  65 105 138 176 236 304 358 430
#
# _framework density 21.734193000000001
#
# number of rings (size 3 to 8) (size 9 to 14) (size 15 to 20)
#    0.226    0.604    6.038    0.906    0.000    5.585 
#    0.000    0.000    0.000    7.245    0.000    0.000 
#    0.000    0.000    0.000    0.000    0.000    0.000 
#
# Total GULP energy -656659.565238 kJ/mol
# GULP energy per Si atom -12389.803118 kJ/mol
# Density = 2.168473 g / cm^3
# Si number density = 21.734193 Si / 1000 Ang^3
#
#
#
# Elastic Constant Matrix: (Units=GPa)
#
#
# Indices 1 2 3 4 5 6 
#
# 1 112.9296 55.3077 42.1362 0.0000 0.0000 0.0000
# 2 55.3077 112.9288 42.1361 0.0000 0.0000 0.0000
# 3 42.1362 42.1361 116.7448 0.0000 0.0000 0.0000
# 4 0.0000 0.0000 0.0000 30.6953 0.0000 0.0000
# 5 0.0000 0.0000 0.0000 0.0000 30.7012 0.0000
# 6 0.0000 0.0000 0.0000 0.0000 0.0000 46.3005
#
#
#
# Elastic Compliance Matrix: (Units=1/GPa)
#
#
# Indices 1 2 3 4 5 6 
#
# 1 0.012305 -0.005049 -0.002619 0.000000 0.000000 0.000000
# 2 -0.005049 0.012305 -0.002619 0.000000 0.000000 0.000000
# 3 -0.002619 -0.002619 0.010456 0.000000 0.000000 0.000000
# 4 0.000000 0.000000 0.000000 0.032578 0.000000 0.000000
# 5 0.000000 0.000000 0.000000 0.000000 0.032572 0.000000
# 6 0.000000 0.000000 0.000000 0.000000 0.000000 0.021598
#
#
# Mechanical properties :
#
#
# Convention : Reuss Voigt Hill
#
# Bulk Modulus (GPa) = 69.00141 69.08483 69.04312
# Shear Modulus (GPa) = 33.96285 35.07428 34.51856
#
# Velocity S-wave (km/s) = 3.95732 4.02155 3.98956
# Velocity P-wave (km/s) = 7.25929 7.30883 7.28410
#
# Compressibility (1/GPa) = 0.01449246
#
# Stress axis : x y z
#
# Youngs Moduli (GPa) = 81.26660 81.26603 95.63819
#
# Poissons Ratio (x) = 0.41035 0.25046
# Poissons Ratio (y) = 0.41035 0.25046
# Poissons Ratio (z) = 0.21282 0.21282
#
# Static dielectric constant tensor:
#      x y z
#    x 3.297490 0.000000 0.000000 
#    y 0.000000 3.297470 0.000000 
#    z 0.000000 0.000000 4.531060 
# 
# 
# High freq. dielectric constant tensor:
#      x y z
#    x 1.854770 0.000000 0.000000 
#    y 0.000000 1.854770 0.000000 
#    z 0.000000 0.000000 1.850860 
# 
# From -- ./inp_files/2835.got.cif
#   From: 2010.03.12/outbox.cif.g09.slc.cpg/sg111_2_cif.got.tgz:2835.got - 2010.04.14 01:59:48.
