data_PCOD8308131
_publ_section_title
;
Structure prediction by ZEFSAII (Michael W. Deem and Ramdas Pophale) SiO2 
 PCOD8308131
Probable space group: P -4 2 M 
;
_chemical_formula_sum "Si O2"
_cell_formula_units_Z 34
_cell_length_a 11.493699
_cell_length_b 11.493699
_cell_length_c 17.120320
_cell_angle_alpha 90.000000
_cell_angle_beta 90.000000
_cell_angle_gamma 90.000000
_cell_volume 2261.681872
_symmetry_space_group_name_H-M "P -4 2 M "
_symmetry_group_IT_number 111
_symmetry_cell_setting 'tetragonal'
loop_
_space_group_symop_operation_xyz
x,y,z
y,-x,-z
-x,-y,z
-y,x,-z
x,-y,-z
-x,y,-z
-y,-x,z
y,x,z
loop_
_atom_site_type_symbol
_atom_site_label
_atom_site_fract_x
_atom_site_fract_y
_atom_site_fract_z
Si Si1 0.635442 0.999987 0.629660
Si Si2 0.181133 0.366083 0.498044
Si Si3 0.500000 0.000000 0.000000
Si Si4 0.000119 0.810921 0.230041
Si Si5 0.914953 0.727033 0.064936
O O1 0.666787 0.116503 0.582299
O O2 0.709539 0.989789 0.707311
O O3 0.500000 0.000000 0.652700
O O4 0.668246 0.893722 0.573405
O O5 0.210849 0.500000 0.500000
O O6 0.302474 0.302474 0.501453
O O7 0.414347 0.915002 0.948738
O O8 0.900216 0.900216 0.256256
O O9 0.969784 0.751528 0.148587
O O10 0.122859 0.877142 0.222596
O O11 0.786295 0.786295 0.057986
O O12 0.000000 0.784806 0.000000
#
# Coordination Sequence:
#
# PCOD8308131 Si02
#       5
#     8   8   2   8   8
#     4   9  18  29  45  63  88 118 148 183 222 272
#     4   9  17  30  44  62  85 115 150 186 226 263
#     4   8  20  32  50  74  96 130 160 182 242 280
#     4  10  19  29  45  70  94 118 147 184 233 279
#     4   9  18  32  49  72  99 123 156 193 231 279
#
# _framework density 15.033060000000001
#
# number of rings (size 3 to 8) (size 9 to 14) (size 15 to 20)
#    0.706    2.118    0.000    3.529    1.647    1.412 
#    0.000    0.000    0.000    6.000    0.000    0.000 
#    0.000    0.000    0.000    0.000    0.000    0.000 
#
# Total GULP energy -421305.107427 kJ/mol
# GULP energy per Si atom -12391.326689 kJ/mol
# Density = 1.499884 g / cm^3
# Si number density = 15.033060 Si / 1000 Ang^3
#
#
#
# Elastic Constant Matrix: (Units=GPa)
#
#
# Indices 1 2 3 4 5 6 
#
# 1 89.0272 55.9749 50.6934 0.0000 0.0000 0.0000
# 2 55.9749 89.0278 50.6933 0.0000 0.0000 0.0000
# 3 50.6934 50.6933 100.9413 0.0000 0.0000 0.0000
# 4 0.0000 0.0000 0.0000 19.2450 0.0000 0.0000
# 5 0.0000 0.0000 0.0000 0.0000 19.2439 0.0000
# 6 0.0000 0.0000 0.0000 0.0000 0.0000 19.0671
#
#
#
# Elastic Compliance Matrix: (Units=1/GPa)
#
#
# Indices 1 2 3 4 5 6 
#
# 1 0.020442 -0.009813 -0.005338 0.000000 0.000000 0.000000
# 2 -0.009813 0.020442 -0.005338 0.000000 0.000000 0.000000
# 3 -0.005338 -0.005338 0.015268 0.000000 0.000000 0.000000
# 4 0.000000 0.000000 0.000000 0.051962 0.000000 0.000000
# 5 0.000000 0.000000 0.000000 0.000000 0.051965 0.000000
# 6 0.000000 0.000000 0.000000 0.000000 0.000000 0.052446
#
#
# Mechanical properties :
#
#
# Convention : Reuss Voigt Hill
#
# Bulk Modulus (GPa) = 65.90100 65.96883 65.93491
# Shear Modulus (GPa) = 19.33791 19.62017 19.47904
#
# Velocity S-wave (km/s) = 3.59048 3.61658 3.60355
# Velocity P-wave (km/s) = 7.81801 7.83692 7.82747
#
# Compressibility (1/GPa) = 0.01517428
#
# Stress axis : x y z
#
# Youngs Moduli (GPa) = 48.91922 48.91984 65.49613
#
# Poissons Ratio (x) = 0.48005 0.34961
# Poissons Ratio (y) = 0.48005 0.34960
# Poissons Ratio (z) = 0.26112 0.26112
#
# Static dielectric constant tensor:
#      x y z
#    x 2.790830 0.000000 0.000000 
#    y 0.000000 2.790830 0.000000 
#    z 0.000000 0.000000 2.851740 
# 
# 
# High freq. dielectric constant tensor:
#      x y z
#    x 1.566720 0.000000 0.000000 
#    y 0.000000 1.566720 0.000000 
#    z 0.000000 0.000000 1.581430 
# 
# From -- ./inp_files/3136.got.cif
#   From: 2010.03.12/outbox.cif.g09.slc.cpg/sg111_2_cif.got.tgz:3136.got - 2010.04.14 01:59:48.
