data_PCOD8308068
_publ_section_title
;
Structure prediction by ZEFSAII (Michael W. Deem and Ramdas Pophale) SiO2 
 PCOD8308068
Probable space group: I 41 C D
;
_chemical_formula_sum "Si O2"
_cell_formula_units_Z 112
_cell_length_a 13.850210
_cell_length_b 13.850210
_cell_length_c 27.458180
_cell_angle_alpha 90.000000
_cell_angle_beta 90.000000
_cell_angle_gamma 90.000000
_cell_volume 5267.256458
_symmetry_space_group_name_H-M "I 41 C D"
_symmetry_group_IT_number 110
_symmetry_cell_setting 'tetragonal'
loop_
_space_group_symop_operation_xyz
x,y,z
-y,1/2+x,1/4+z
-x,-y,z
y,1/2-x,1/4+z
-x,y,1/2+z
x,-y,1/2+z
1/2-y,-x,1/4+z
1/2+y,x,1/4+z
1/2+x,1/2+y,1/2+z
1/2-y,x,3/4+z
1/2-x,1/2-y,1/2+z
1/2+y,-x,3/4+z
1/2-x,1/2+y,z
1/2+x,1/2-y,z
-y,1/2-x,3/4+z
y,1/2+x,3/4+z
loop_
_atom_site_type_symbol
_atom_site_label
_atom_site_fract_x
_atom_site_fract_y
_atom_site_fract_z
Si Si1 0.390750 0.302841 0.747390
Si Si2 0.750000 0.250000 0.074161
Si Si3 0.393857 0.893857 0.199161
Si Si4 0.609250 0.197159 0.400933
Si Si5 0.802842 0.390751 0.497390
Si Si6 0.606143 0.893857 0.199161
Si Si7 0.697158 0.609249 0.150933
O O1 0.317442 0.322044 0.791814
O O2 0.381831 0.187553 0.740001
O O3 0.360450 0.360451 0.699161
O O4 0.500000 0.332972 0.761279
O O5 0.677956 0.317442 0.106508
O O6 0.822044 0.182558 0.106508
O O7 0.677956 0.182558 0.041814
O O8 0.500000 0.883117 0.174496
O O9 0.312446 0.881831 0.158322
O O10 0.383117 0.000000 0.223827
O O11 0.618170 0.312447 0.408322
O O12 0.500000 0.167028 0.387043
O O13 0.687554 0.381831 0.490001
O O14 0.860451 0.360451 0.449161
#
# Coordination Sequence:
#
# PCOD8308068 Si02
#       7
#    16  16  16  16  16  16  16
#     4  11  22  40  62  88 127 166 206 256 312 370
#     4  12  20  40  62 100 120 162 212 260 306 364
#     4   9  17  34  60  84 113 161 210 250 300 361
#     4  11  22  40  62  88 127 166 206 256 312 370
#     4  11  22  40  62  88 127 166 206 256 312 370
#     4   9  17  34  60  84 113 161 210 250 300 361
#     4  11  22  40  62  88 127 166 206 256 312 370
#
# _framework density 21.263442000000001
#
# number of rings (size 3 to 8) (size 9 to 14) (size 15 to 20)
#    0.000    1.429    5.714    0.857    0.000    0.571 
#    0.000    5.714    0.000    6.857    0.000    0.000 
#    0.000    0.000    0.000    0.000    0.000    0.000 
#
# Total GULP energy -694007.973652 kJ/mol
# GULP energy per Si atom -12392.999530 kJ/mol
# Density = 2.121504 g / cm^3
# Si number density = 21.263442 Si / 1000 Ang^3
#
#
#
# Elastic Constant Matrix: (Units=GPa)
#
#
# Indices 1 2 3 4 5 6 
#
# 1 132.3451 35.9374 48.9484 0.0000 0.0000 0.0000
# 2 35.9374 132.3451 48.9484 0.0000 0.0000 0.0000
# 3 48.9484 48.9484 119.2217 0.0000 0.0000 0.0000
# 4 0.0000 0.0000 0.0000 13.3033 0.0000 0.0000
# 5 0.0000 0.0000 0.0000 0.0000 13.3033 0.0000
# 6 0.0000 0.0000 0.0000 0.0000 0.0000 23.8091
#
#
#
# Elastic Compliance Matrix: (Units=1/GPa)
#
#
# Indices 1 2 3 4 5 6 
#
# 1 0.009090 -0.001283 -0.003205 0.000000 0.000000 0.000000
# 2 -0.001283 0.009090 -0.003205 0.000000 0.000000 0.000000
# 3 -0.003205 -0.003205 0.011020 0.000000 0.000000 0.000000
# 4 0.000000 0.000000 0.000000 0.075169 0.000000 0.000000
# 5 0.000000 0.000000 0.000000 0.000000 0.075169 0.000000
# 6 0.000000 0.000000 0.000000 0.000000 0.000000 0.042001
#
#
# Mechanical properties :
#
#
# Convention : Reuss Voigt Hill
#
# Bulk Modulus (GPa) = 72.39780 72.39781 72.39781
# Shear Modulus (GPa) = 20.70143 26.75501 23.72822
#
# Velocity S-wave (km/s) = 3.12359 3.55105 3.34416
# Velocity P-wave (km/s) = 6.86520 7.13689 7.00237
#
# Compressibility (1/GPa) = 0.01381257
#
# Stress axis : x y z
#
# Youngs Moduli (GPa) = 110.01304 110.01304 90.74640
#
# Poissons Ratio (x) = 0.14112 0.29087
# Poissons Ratio (y) = 0.14112 0.29087
# Poissons Ratio (z) = 0.35263 0.35263
#
# Static dielectric constant tensor:
#      x y z
#    x 4.051780 0.000000 0.000000 
#    y 0.000000 4.051780 0.000000 
#    z 0.000000 0.000000 3.574640 
# 
# 
# High freq. dielectric constant tensor:
#      x y z
#    x 1.834570 0.000000 0.000000 
#    y 0.000000 1.834570 0.000000 
#    z 0.000000 0.000000 1.800290 
# 
# From -- ./inp_files/2643.got.cif
#   From: 2010.03.12/outbox.cif.g09.slc.cpg/sg110_2_cif.got.tgz:2643.got - 2010.04.14 01:58:01.
