data_PCOD8308772
_publ_section_title
;
Structure prediction by ZEFSAII (Michael W. Deem and Ramdas Pophale) SiO2 
 PCOD8308772
Probable space group: P -4 21 M 
;
_chemical_formula_sum "Si O2"
_cell_formula_units_Z 40
_cell_length_a 10.943810
_cell_length_b 10.943810
_cell_length_c 16.225033
_cell_angle_alpha 90.000000
_cell_angle_beta 90.000000
_cell_angle_gamma 90.000000
_cell_volume 1943.223159
_symmetry_space_group_name_H-M "P -4 21 M "
_symmetry_group_IT_number 113
_symmetry_cell_setting 'tetragonal'
loop_
_space_group_symop_operation_xyz
x,y,z
y,-x,-z
-x,-y,z
-y,x,-z
1/2+x,1/2-y,-z
1/2-x,1/2+y,-z
1/2-y,1/2-x,z
1/2+y,1/2+x,z
loop_
_atom_site_type_symbol
_atom_site_label
_atom_site_fract_x
_atom_site_fract_y
_atom_site_fract_z
Si Si1 0.233820 0.458565 0.921308
Si Si2 0.357061 0.343441 0.378905
Si Si3 0.259721 0.570895 0.091137
Si Si4 0.500888 0.199952 0.505204
Si Si5 0.152571 0.849816 0.802817
O O1 0.116552 0.383449 0.888071
O O2 0.347537 0.371636 0.939382
O O3 0.266854 0.559267 0.853872
O O4 0.200031 0.513364 0.009842
O O5 0.274945 0.225056 0.370058
O O6 0.471754 0.299849 0.434430
O O7 0.280255 0.456400 0.416673
O O8 0.403383 0.379886 0.287539
O O9 0.154458 0.654458 0.133905
O O10 0.315838 0.477072 0.155196
O O11 0.381756 0.118245 0.529248
O O12 0.611316 0.111316 0.475526
O O13 0.279890 0.779890 0.794066
#
# Coordination Sequence:
#
# PCOD8308772 Si02
#       5
#     8   8   8   8   8
#     4  11  23  40  61  86 121 164 205 249 300 356
#     4   9  20  38  60  88 118 153 200 243 292 358
#     4  11  23  40  61  86 121 164 205 249 300 356
#     4   9  18  37  62  86 120 159 194 243 298 352
#     4  11  23  39  61  91 124 157 200 255 304 356
#
# _framework density 20.584356
#
# number of rings (size 3 to 8) (size 9 to 14) (size 15 to 20)
#    0.000    1.800    2.000    1.800    0.000    4.800 
#    7.200    4.000    0.000    0.000    0.000    0.000 
#    0.000    0.000    0.000    0.000    0.000    0.000 
#
# Total GULP energy -495896.440726 kJ/mol
# GULP energy per Si atom -12397.411018 kJ/mol
# Density = 2.053750 g / cm^3
# Si number density = 20.584356 Si / 1000 Ang^3
#
#
#
# Elastic Constant Matrix: (Units=GPa)
#
#
# Indices 1 2 3 4 5 6 
#
# 1 83.9726 36.2868 35.8364 0.0000 0.0000 0.0000
# 2 36.2868 83.9724 35.8366 0.0000 0.0000 0.0000
# 3 35.8364 35.8366 136.2872 0.0000 0.0000 0.0000
# 4 0.0000 0.0000 0.0000 24.7880 0.0000 0.0000
# 5 0.0000 0.0000 0.0000 0.0000 24.7877 0.0000
# 6 0.0000 0.0000 0.0000 0.0000 0.0000 36.8345
#
#
#
# Elastic Compliance Matrix: (Units=1/GPa)
#
#
# Indices 1 2 3 4 5 6 
#
# 1 0.015416 -0.005555 -0.002593 0.000000 0.000000 0.000000
# 2 -0.005555 0.015416 -0.002593 0.000000 0.000000 0.000000
# 3 -0.002593 -0.002593 0.008701 0.000000 0.000000 0.000000
# 4 0.000000 0.000000 0.000000 0.040342 0.000000 0.000000
# 5 0.000000 0.000000 0.000000 0.000000 0.040343 0.000000
# 6 0.000000 0.000000 0.000000 0.000000 0.000000 0.027148
#
#
# Mechanical properties :
#
#
# Convention : Reuss Voigt Hill
#
# Bulk Modulus (GPa) = 55.39872 57.79465 56.59668
# Shear Modulus (GPa) = 28.59368 30.36688 29.48028
#
# Velocity S-wave (km/s) = 3.73110 3.84505 3.78851
# Velocity P-wave (km/s) = 6.74781 6.91741 6.83313
#
# Compressibility (1/GPa) = 0.01805096
#
# Stress axis : x y z
#
# Youngs Moduli (GPa) = 64.86924 64.86899 114.92919
#
# Poissons Ratio (x) = 0.36035 0.29799
# Poissons Ratio (y) = 0.36035 0.29800
# Poissons Ratio (z) = 0.16819 0.16820
#
# Static dielectric constant tensor:
#      x y z
#    x 3.879190 0.000000 0.000000 
#    y 0.000000 3.879200 0.000000 
#    z 0.000000 0.000000 3.827430 
# 
# 
# High freq. dielectric constant tensor:
#      x y z
#    x 1.812460 0.000000 0.000000 
#    y 0.000000 1.812460 0.000000 
#    z 0.000000 0.000000 1.786720 
# 
# From -- ./inp_files/2152.got.cif
#   From: 2010.03.12/outbox.cif.g09.slc.cpg/sg113_cif.got.tgz:2152.got - 2010.04.14 02:06:34.
