data_PCOD8308917
_publ_section_title
;
Structure prediction by ZEFSAII (Michael W. Deem and Ramdas Pophale) SiO2 
 PCOD8308917
Probable space group: P -4 21 C
;
_chemical_formula_sum "Si O2"
_cell_formula_units_Z 50
_cell_length_a 20.906289
_cell_length_b 20.906289
_cell_length_c 5.292045
_cell_angle_alpha 90.000000
_cell_angle_beta 90.000000
_cell_angle_gamma 90.000000
_cell_volume 2313.009560
_symmetry_space_group_name_H-M "P -4 21 C"
_symmetry_group_IT_number 114
_symmetry_cell_setting 'tetragonal'
loop_
_space_group_symop_operation_xyz
x,y,z
y,-x,-z
-x,-y,z
-y,x,-z
1/2+x,1/2-y,1/2-z
1/2-x,1/2+y,1/2-z
1/2-y,1/2-x,1/2+z
1/2+y,1/2+x,1/2+z
loop_
_atom_site_type_symbol
_atom_site_label
_atom_site_fract_x
_atom_site_fract_y
_atom_site_fract_z
Si Si1 0.430452 0.031471 0.428429
Si Si2 0.492924 0.797606 0.824479
Si Si3 0.992455 0.907534 0.106005
Si Si4 0.743915 0.701682 0.719104
Si Si5 0.361381 0.192329 0.713281
Si Si6 0.000000 0.000000 0.500000
Si Si7 0.444936 0.733037 0.334411
O O1 0.419398 0.070498 0.690059
O O2 0.373291 0.980842 0.386123
O O3 0.500000 0.000000 0.460774
O O4 0.566544 0.785242 0.758893
O O5 0.452269 0.779735 0.576091
O O6 0.474827 0.759114 0.075487
O O7 0.022242 0.934065 0.364352
O O8 0.979667 0.832778 0.093866
O O9 0.048050 0.927604 0.907622
O O10 0.787857 0.716292 0.476106
O O11 0.680523 0.743844 0.718786
O O12 0.720607 0.629184 0.711381
O O13 0.354644 0.158440 0.441798
#
# Coordination Sequence:
#
# PCOD8308917 Si02
#       7
#     8   8   8   8   8   2   8
#     4  10  21  42  67  93 126 169 212 264 350 395
#     4  12  25  42  63 108 131 164 229 285 325 408
#     4   9  22  42  67  99 139 184 229 280 338 403
#     4  10  23  47  64  89 129 184 219 267 341 400
#     4  10  21  41  72  92 128 170 222 280 331 393
#     4   8  18  40  68  94 136 180 230 268 346 392
#     4  12  27  41  66 102 139 178 226 280 334 405
#
# _framework density 21.616859000000002
#
# number of rings (size 3 to 8) (size 9 to 14) (size 15 to 20)
#    0.000    1.760    0.000    3.840    6.720    0.000 
#   17.280    0.000    0.000    0.000    0.000    0.000 
#    0.000    0.000    0.000    0.000    0.000    0.000 
#
# Total GULP energy -619579.929641 kJ/mol
# GULP energy per Si atom -12391.598593 kJ/mol
# Density = 2.156766 g / cm^3
# Si number density = 21.616859 Si / 1000 Ang^3
#
#
#
# Elastic Constant Matrix: (Units=GPa)
#
#
# Indices 1 2 3 4 5 6 
#
# 1 92.0287 25.9107 34.9194 0.0000 0.0000 0.0000
# 2 25.9107 92.0287 34.9194 0.0000 0.0000 0.0000
# 3 34.9194 34.9194 170.3230 0.0000 0.0000 0.0000
# 4 0.0000 0.0000 0.0000 22.5184 0.0000 0.0000
# 5 0.0000 0.0000 0.0000 0.0000 22.5184 0.0000
# 6 0.0000 0.0000 0.0000 0.0000 0.0000 22.7837
#
#
#
# Elastic Compliance Matrix: (Units=1/GPa)
#
#
# Indices 1 2 3 4 5 6 
#
# 1 0.012388 -0.002737 -0.001979 0.000000 0.000000 0.000000
# 2 -0.002737 0.012388 -0.001979 0.000000 0.000000 0.000000
# 3 -0.001979 -0.001979 0.006682 0.000000 0.000000 0.000000
# 4 0.000000 0.000000 0.000000 0.044408 0.000000 0.000000
# 5 0.000000 0.000000 0.000000 0.000000 0.044408 0.000000
# 6 0.000000 0.000000 0.000000 0.000000 0.000000 0.043891
#
#
# Mechanical properties :
#
#
# Convention : Reuss Voigt Hill
#
# Bulk Modulus (GPa) = 55.34220 60.65326 57.99773
# Shear Modulus (GPa) = 27.23671 30.80619 29.02145
#
# Velocity S-wave (km/s) = 3.55346 3.77915 3.66804
# Velocity P-wave (km/s) = 6.51868 6.86745 6.69533
#
# Compressibility (1/GPa) = 0.01806939
#
# Stress axis : x y z
#
# Youngs Moduli (GPa) = 80.72653 80.72653 149.64524
#
# Poissons Ratio (x) = 0.22095 0.29608
# Poissons Ratio (y) = 0.22095 0.29608
# Poissons Ratio (z) = 0.15972 0.15972
#
# Static dielectric constant tensor:
#      x y z
#    x 3.835830 0.000000 0.000000 
#    y 0.000000 3.835830 0.000000 
#    z 0.000000 0.000000 4.762050 
# 
# 
# High freq. dielectric constant tensor:
#      x y z
#    x 1.842350 0.000000 0.000000 
#    y 0.000000 1.842350 0.000000 
#    z 0.000000 0.000000 1.880970 
# 
# From -- ./inp_files/243.got.cif
#   From: 2010.03.12/outbox.cif.g09.slc.cpg/sg114_1_cif.got.tgz:243.got - 2010.04.14 02:08:34.
