data_PCOD8308251
_publ_section_title
;
Structure prediction by ZEFSAII (Michael W. Deem and Ramdas Pophale) SiO2 
 PCOD8308251
Probable space group: P -4 2 M 
;
_chemical_formula_sum "Si O2"
_cell_formula_units_Z 48
_cell_length_a 13.183078
_cell_length_b 13.183078
_cell_length_c 15.643776
_cell_angle_alpha 90.000000
_cell_angle_beta 90.000000
_cell_angle_gamma 90.000000
_cell_volume 2718.787297
_symmetry_space_group_name_H-M "P -4 2 M "
_symmetry_group_IT_number 111
_symmetry_cell_setting 'tetragonal'
loop_
_space_group_symop_operation_xyz
x,y,z
y,-x,-z
-x,-y,z
-y,x,-z
x,-y,-z
-x,y,-z
-y,-x,z
y,x,z
loop_
_atom_site_type_symbol
_atom_site_label
_atom_site_fract_x
_atom_site_fract_y
_atom_site_fract_z
Si Si1 0.618601 0.785486 0.185466
Si Si2 0.214514 0.381400 0.814533
Si Si3 0.883317 0.283110 0.341386
Si Si4 0.776172 0.614396 1.000000
Si Si5 0.883318 0.716892 0.341385
Si Si6 0.382623 0.783564 0.500001
O O1 0.680184 0.680184 0.197894
O O2 0.500000 0.762574 0.200991
O O3 0.658425 0.868176 0.252123
O O4 0.638108 0.833920 0.089817
O O5 0.319816 0.319816 0.802105
O O6 0.131825 0.341577 0.747875
O O7 0.166081 0.361892 0.910182
O O8 0.821409 0.178592 0.344649
O O9 0.849505 0.357465 0.416871
O O10 1.000000 0.253945 0.352193
O O11 0.670856 0.670856 1.000000
O O12 0.741210 0.500000 0.000000
O O13 0.821410 0.821410 0.344648
O O14 0.849502 0.642536 0.416869
O O15 0.500000 0.754620 0.500000
O O16 0.321410 0.678591 0.499999
#
# Coordination Sequence:
#
# PCOD8308251 Si02
#       6
#     8   8   8   8   8   8
#     4   9  17  29  46  70  99 130 163 197 236 285
#     4   9  17  29  46  70  99 130 163 197 236 285
#     4  10  21  36  53  73  96 124 161 204 248 291
#     4   8  14  25  41  63  94 128 160 196 235 278
#     4  10  21  36  53  73  96 124 161 204 248 291
#     4  10  21  36  54  78 106 134 163 192 226 274
#
# _framework density 17.654931000000001
#
# number of rings (size 3 to 8) (size 9 to 14) (size 15 to 20)
#    0.000    2.667    0.000    1.500    0.000    4.333 
#    0.000    4.167    0.000   12.000    0.000    0.000 
#    0.000    6.667    0.000    0.000    0.000    0.000 
#
# Total GULP energy -594808.179606 kJ/mol
# GULP energy per Si atom -12391.837075 kJ/mol
# Density = 1.761475 g / cm^3
# Si number density = 17.654931 Si / 1000 Ang^3
#
#
#
# Elastic Constant Matrix: (Units=GPa)
#
#
# Indices 1 2 3 4 5 6 
#
# 1 99.7428 38.6737 49.0458 0.0000 0.0000 0.0000
# 2 38.6737 99.7392 49.0451 0.0000 0.0000 0.0000
# 3 49.0458 49.0451 151.2660 0.0000 0.0000 0.0000
# 4 0.0000 0.0000 0.0000 12.6168 0.0000 0.0000
# 5 0.0000 0.0000 0.0000 0.0000 12.6169 0.0000
# 6 0.0000 0.0000 0.0000 0.0000 0.0000 8.6880
#
#
#
# Elastic Compliance Matrix: (Units=1/GPa)
#
#
# Indices 1 2 3 4 5 6 
#
# 1 0.012877 -0.003498 -0.003041 0.000000 0.000000 0.000000
# 2 -0.003498 0.012878 -0.003041 0.000000 0.000000 0.000000
# 3 -0.003041 -0.003041 0.008583 0.000000 0.000000 0.000000
# 4 0.000000 0.000000 0.000000 0.079259 0.000000 0.000000
# 5 0.000000 0.000000 0.000000 0.000000 0.079259 0.000000
# 6 0.000000 0.000000 0.000000 0.000000 0.000000 0.115101
#
#
# Mechanical properties :
#
#
# Convention : Reuss Voigt Hill
#
# Bulk Modulus (GPa) = 65.88578 69.36414 67.62496
# Shear Modulus (GPa) = 15.05221 21.04990 18.05106
#
# Velocity S-wave (km/s) = 2.92306 3.45671 3.20103
# Velocity P-wave (km/s) = 6.98513 7.43679 7.21450
#
# Compressibility (1/GPa) = 0.01517778
#
# Stress axis : x y z
#
# Youngs Moduli (GPa) = 77.65526 77.65235 116.50878
#
# Poissons Ratio (x) = 0.27161 0.35433
# Poissons Ratio (y) = 0.27162 0.35434
# Poissons Ratio (z) = 0.23617 0.23617
#
# Static dielectric constant tensor:
#      x y z
#    x 3.005750 0.000000 0.000000 
#    y 0.000000 3.005750 0.000000 
#    z 0.000000 0.000000 3.924330 
# 
# 
# High freq. dielectric constant tensor:
#      x y z
#    x 1.661220 0.000000 0.000000 
#    y 0.000000 1.661220 0.000000 
#    z 0.000000 0.000000 1.715160 
# 
# From -- ./inp_files/3609.got.cif
#   From: 2010.03.12/outbox.cif.g09.slc.cpg/sg111_2_cif.got.tgz:3609.got - 2010.04.14 01:59:48.
