data_PCOD8308832
_publ_section_title
;
Structure prediction by ZEFSAII (Michael W. Deem and Ramdas Pophale) SiO2 
 PCOD8308832
Probable space group: P -4 21 C
;
_chemical_formula_sum "Si O2"
_cell_formula_units_Z 52
_cell_length_a 15.498030
_cell_length_b 15.498030
_cell_length_c 9.846084
_cell_angle_alpha 90.000000
_cell_angle_beta 90.000000
_cell_angle_gamma 90.000000
_cell_volume 2364.920419
_symmetry_space_group_name_H-M "P -4 21 C"
_symmetry_group_IT_number 114
_symmetry_cell_setting 'tetragonal'
loop_
_space_group_symop_operation_xyz
x,y,z
y,-x,-z
-x,-y,z
-y,x,-z
1/2+x,1/2-y,1/2-z
1/2-x,1/2+y,1/2-z
1/2-y,1/2-x,1/2+z
1/2+y,1/2+x,1/2+z
loop_
_atom_site_type_symbol
_atom_site_label
_atom_site_fract_x
_atom_site_fract_y
_atom_site_fract_z
Si Si1 0.852276 0.116322 0.833719
Si Si2 0.621640 0.363177 0.887099
Si Si3 0.389389 0.830472 0.213664
Si Si4 0.500000 0.500000 0.223077
Si Si5 0.378124 0.245795 0.882255
Si Si6 0.690718 0.303382 0.616448
Si Si7 0.550623 0.172684 0.932417
O O1 0.763873 0.082627 0.765995
O O2 0.875995 0.207185 0.763327
O O3 0.926708 0.044751 0.816494
O O4 0.838630 0.133686 0.992618
O O5 0.540250 0.426743 0.874126
O O6 0.671732 0.364082 0.744205
O O7 0.594055 0.267179 0.928386
O O8 0.683830 0.399795 0.002683
O O9 0.294212 0.833981 0.149719
O O10 0.394712 0.896963 0.338846
O O11 0.451232 0.858532 0.089415
O O12 0.291921 0.193037 0.918062
O O13 0.453698 0.175489 0.876913
#
# Coordination Sequence:
#
# PCOD8308832 Si02
#       7
#     8   8   8   4   8   8   8
#     4  11  21  37  59  88 134 178 209 263 324 406
#     4  11  23  37  57  93 138 177 205 266 334 404
#     4  10  19  38  59  86 126 176 226 263 323 393
#     4  12  26  38  58 102 148 166 204 268 356 388
#     4  11  21  38  63  92 121 171 227 272 313 385
#     4  10  21  39  59  81 127 184 227 251 319 401
#     4  11  20  37  62  92 124 171 229 270 321 395
#
# _framework density 21.988054999999999
#
# number of rings (size 3 to 8) (size 9 to 14) (size 15 to 20)
#    0.000    1.231    6.154    2.769    0.000    2.462 
#    0.000    0.000    0.000    0.000    0.000   22.615 
#    0.000    0.000    0.000    0.000    0.000    0.000 
#
# Total GULP energy -644906.393398 kJ/mol
# GULP energy per Si atom -12402.046027 kJ/mol
# Density = 2.193801 g / cm^3
# Si number density = 21.988055 Si / 1000 Ang^3
#
#
#
# Elastic Constant Matrix: (Units=GPa)
#
#
# Indices 1 2 3 4 5 6 
#
# 1 55.2564 0.8448 16.0348 0.0000 0.0000 0.0000
# 2 0.8448 55.2564 16.0348 0.0000 0.0000 0.0000
# 3 16.0348 16.0348 114.2030 0.0000 0.0000 0.0000
# 4 0.0000 0.0000 0.0000 20.3223 0.0000 0.0000
# 5 0.0000 0.0000 0.0000 0.0000 20.3223 0.0000
# 6 0.0000 0.0000 0.0000 0.0000 0.0000 41.6333
#
#
#
# Elastic Compliance Matrix: (Units=1/GPa)
#
#
# Indices 1 2 3 4 5 6 
#
# 1 0.018879 0.000501 -0.002721 0.000000 0.000000 0.000000
# 2 0.000501 0.018879 -0.002721 0.000000 0.000000 0.000000
# 3 -0.002721 -0.002721 0.009520 0.000000 0.000000 0.000000
# 4 0.000000 0.000000 0.000000 0.049207 0.000000 0.000000
# 5 0.000000 0.000000 0.000000 0.000000 0.049207 0.000000
# 6 0.000000 0.000000 0.000000 0.000000 0.000000 0.024019
#
#
# Mechanical properties :
#
#
# Convention : Reuss Voigt Hill
#
# Bulk Modulus (GPa) = 26.74025 32.28272 29.51148
# Shear Modulus (GPa) = 26.03343 29.24234 27.63788
#
# Velocity S-wave (km/s) = 3.44463 3.65076 3.54920
# Velocity P-wave (km/s) = 5.29229 5.69952 5.49968
#
# Compressibility (1/GPa) = 0.03739681
#
# Stress axis : x y z
#
# Youngs Moduli (GPa) = 52.96769 52.96769 105.03687
#
# Poissons Ratio (x) = -0.02654 0.28582
# Poissons Ratio (y) = -0.02654 0.28582
# Poissons Ratio (z) = 0.14413 0.14413
#
# Static dielectric constant tensor:
#      x y z
#    x 3.839140 0.000000 0.000000 
#    y 0.000000 3.839140 0.000000 
#    z 0.000000 0.000000 4.095280 
# 
# 
# High freq. dielectric constant tensor:
#      x y z
#    x 1.842380 0.000000 0.000000 
#    y 0.000000 1.842380 0.000000 
#    z 0.000000 0.000000 1.877670 
# 
# From -- ./inp_files/958.got.cif
#   From: 2010.03.12/outbox.cif.g09.slc.cpg/sg114_1_cif.got.tgz:958.got - 2010.04.14 02:08:34.
