data_PCOD8308425
_publ_section_title
;
Structure prediction by ZEFSAII (Michael W. Deem and Ramdas Pophale) SiO2 
 PCOD8308425
Probable space group: P -4 2 C
;
_chemical_formula_sum "Si O2"
_cell_formula_units_Z 58
_cell_length_a 17.274461
_cell_length_b 17.274461
_cell_length_c 9.119545
_cell_angle_alpha 90.000000
_cell_angle_beta 90.000000
_cell_angle_gamma 90.000000
_cell_volume 2721.336091
_symmetry_space_group_name_H-M "P -4 2 C"
_symmetry_group_IT_number 112
_symmetry_cell_setting 'tetragonal'
loop_
_space_group_symop_operation_xyz
x,y,z
y,-x,-z
-x,-y,z
-y,x,-z
x,-y,1/2-z
-x,y,1/2-z
-y,-x,1/2+z
y,x,1/2+z
loop_
_atom_site_type_symbol
_atom_site_label
_atom_site_fract_x
_atom_site_fract_y
_atom_site_fract_z
Si Si1 0.391797 0.816248 0.133705
Si Si2 0.372390 0.934449 0.652359
Si Si3 0.966797 0.290605 0.586491
Si Si4 0.437851 0.809799 0.459436
Si Si5 0.252692 0.823985 0.757330
Si Si6 0.057706 0.845755 0.376753
Si Si7 0.000000 0.000000 0.500000
Si Si8 0.724813 0.289789 0.008019
O O1 0.340741 0.887341 0.072896
O O2 0.406284 0.837795 0.302339
O O3 0.471083 0.796405 0.048876
O O4 0.348191 0.734726 0.107155
O O5 0.432814 0.873526 0.587320
O O6 0.313886 0.894500 0.769914
O O7 0.415206 0.000000 0.750000
O O8 0.329704 0.967794 0.510776
O O9 0.951511 0.203977 0.525533
O O10 0.000000 0.285007 0.750000
O O11 0.383694 0.735125 0.501239
O O12 0.169253 0.855610 0.811819
O O13 0.280056 0.748684 0.848079
O O14 0.252107 0.800376 0.586640
O O15 0.000000 0.816615 0.250000
O O16 0.046540 0.937030 0.404307
#
# Coordination Sequence:
#
# PCOD8308425 Si02
#       8
#     8   8   8   8   8   8   2   8
#     4  11  22  42  66 102 136 176 219 270 335 413
#     4  11  20  42  62  95 135 169 216 277 331 392
#     4  12  23  40  68  95 127 176 221 265 341 412
#     4  10  24  40  65 101 139 172 220 272 331 412
#     4  11  22  39  69  90 120 164 230 267 318 396
#     4  12  26  48  62  87 126 167 226 293 337 386
#     4  12  34  44  60  90 126 180 228 294 358 372
#     4  11  22  41  69 100 123 174 217 268 326 395
#
# _framework density 21.31306
#
# number of rings (size 3 to 8) (size 9 to 14) (size 15 to 20)
#    0.000    0.828    6.897    0.207    1.931    2.759 
#    0.000    8.966    0.000    0.414    0.000    1.931 
#    0.000    0.000    0.000    0.000    0.000    0.000 
#
# Total GULP energy -718688.886197 kJ/mol
# GULP energy per Si atom -12391.187693 kJ/mol
# Density = 2.126455 g / cm^3
# Si number density = 21.313060 Si / 1000 Ang^3
#
#
#
# Elastic Constant Matrix: (Units=GPa)
#
#
# Indices 1 2 3 4 5 6 
#
# 1 116.2407 48.3873 32.7266 0.0000 0.0000 0.0000
# 2 48.3873 116.2407 32.7266 0.0000 0.0000 0.0000
# 3 32.7266 32.7266 93.8210 0.0000 0.0000 0.0000
# 4 0.0000 0.0000 0.0000 28.1326 0.0000 0.0000
# 5 0.0000 0.0000 0.0000 0.0000 28.1326 0.0000
# 6 0.0000 0.0000 0.0000 0.0000 0.0000 20.5274
#
#
#
# Elastic Compliance Matrix: (Units=1/GPa)
#
#
# Indices 1 2 3 4 5 6 
#
# 1 0.010895 -0.003843 -0.002460 0.000000 0.000000 0.000000
# 2 -0.003843 0.010895 -0.002460 0.000000 0.000000 0.000000
# 3 -0.002460 -0.002460 0.012375 0.000000 0.000000 0.000000
# 4 0.000000 0.000000 0.000000 0.035546 0.000000 0.000000
# 5 0.000000 0.000000 0.000000 0.000000 0.035546 0.000000
# 6 0.000000 0.000000 0.000000 0.000000 0.000000 0.048715
#
#
# Mechanical properties :
#
#
# Convention : Reuss Voigt Hill
#
# Bulk Modulus (GPa) = 60.09795 61.55369 60.82582
# Shear Modulus (GPa) = 28.24157 29.52263 28.88210
#
# Velocity S-wave (km/s) = 3.64412 3.72585 3.68521
# Velocity P-wave (km/s) = 6.77975 6.88859 6.83439
#
# Compressibility (1/GPa) = 0.01663950
#
# Stress axis : x y z
#
# Youngs Moduli (GPa) = 91.78512 91.78512 80.80947
#
# Poissons Ratio (x) = 0.35270 0.19879
# Poissons Ratio (y) = 0.35270 0.19879
# Poissons Ratio (z) = 0.22579 0.22579
#
# Static dielectric constant tensor:
#      x y z
#    x 3.758850 0.000000 0.000000 
#    y 0.000000 3.758850 0.000000 
#    z 0.000000 0.000000 4.052190 
# 
# 
# High freq. dielectric constant tensor:
#      x y z
#    x 1.812560 0.000000 0.000000 
#    y 0.000000 1.812560 0.000000 
#    z 0.000000 0.000000 1.860840 
# 
# From -- ./inp_files/1545.got.cif
#   From: 2010.03.12/outbox.cif.g09.slc.cpg/sg112_1_cif.got.tgz:1545.got - 2010.04.14 02:02:48.
