data_PCOD8308487
_publ_section_title
;
Structure prediction by ZEFSAII (Michael W. Deem and Ramdas Pophale) SiO2 
 PCOD8308487
Probable space group: P -4 2 C
;
_chemical_formula_sum "Si O2"
_cell_formula_units_Z 24
_cell_length_a 8.067933
_cell_length_b 8.067933
_cell_length_c 14.232781
_cell_angle_alpha 90.000000
_cell_angle_beta 90.000000
_cell_angle_gamma 90.000000
_cell_volume 926.433675
_symmetry_space_group_name_H-M "P -4 2 C"
_symmetry_group_IT_number 112
_symmetry_cell_setting 'tetragonal'
loop_
_space_group_symop_operation_xyz
x,y,z
y,-x,-z
-x,-y,z
-y,x,-z
x,-y,1/2-z
-x,y,1/2-z
-y,-x,1/2+z
y,x,1/2+z
loop_
_atom_site_type_symbol
_atom_site_label
_atom_site_fract_x
_atom_site_fract_y
_atom_site_fract_z
Si Si1 0.779674 0.863345 0.530489
Si Si2 0.682968 0.427833 0.615048
Si Si3 0.267425 0.184993 0.216933
O O1 0.637568 0.745222 0.486115
O O2 0.755147 0.875699 0.643835
O O3 0.956035 0.773715 0.513575
O O4 0.500000 0.500000 0.606689
O O5 0.692540 0.279617 0.692914
O O6 0.810234 0.565190 0.653848
O O7 0.228418 0.000000 0.250000
#
# Coordination Sequence:
#
# PCOD8308487 Si02
#       3
#     8   8   8
#     4  11  26  46  74 116 147 201 255 310 378 462
#     4  11  25  45  73 110 148 197 253 313 381 452
#     4  11  23  46  73 105 156 204 242 310 391 446
#
# _framework density 25.905792999999999
#
# number of rings (size 3 to 8) (size 9 to 14) (size 15 to 20)
#    0.000    1.000    3.333    4.000    4.667    2.667 
#    0.000    0.000    0.000    8.000    0.000    0.000 
#    0.000    0.000    0.000    0.000    0.000    0.000 
#
# Total GULP energy -297548.800319 kJ/mol
# GULP energy per Si atom -12397.866680 kJ/mol
# Density = 2.584683 g / cm^3
# Si number density = 25.905793 Si / 1000 Ang^3
#
#
#
# Elastic Constant Matrix: (Units=GPa)
#
#
# Indices 1 2 3 4 5 6 
#
# 1 69.4570 20.0545 8.9386 0.0000 0.0000 0.0000
# 2 20.0545 69.4570 8.9386 0.0000 0.0000 0.0000
# 3 8.9386 8.9386 137.6717 0.0000 0.0000 0.0000
# 4 0.0000 0.0000 0.0000 46.1598 0.0000 0.0000
# 5 0.0000 0.0000 0.0000 0.0000 46.1598 0.0000
# 6 0.0000 0.0000 0.0000 0.0000 0.0000 21.0469
#
#
#
# Elastic Compliance Matrix: (Units=1/GPa)
#
#
# Indices 1 2 3 4 5 6 
#
# 1 0.015780 -0.004462 -0.000735 0.000000 0.000000 0.000000
# 2 -0.004462 0.015780 -0.000735 0.000000 0.000000 0.000000
# 3 -0.000735 -0.000735 0.007359 0.000000 0.000000 0.000000
# 4 0.000000 0.000000 0.000000 0.021664 0.000000 0.000000
# 5 0.000000 0.000000 0.000000 0.000000 0.021664 0.000000
# 6 0.000000 0.000000 0.000000 0.000000 0.000000 0.047513
#
#
# Mechanical properties :
#
#
# Convention : Reuss Voigt Hill
#
# Bulk Modulus (GPa) = 36.95956 39.16102 38.06029
# Shear Modulus (GPa) = 33.19132 38.58359 35.88746
#
# Velocity S-wave (km/s) = 3.58331 3.86344 3.72601
# Velocity P-wave (km/s) = 5.60518 5.92039 5.76494
#
# Compressibility (1/GPa) = 0.02705660
#
# Stress axis : x y z
#
# Youngs Moduli (GPa) = 63.37058 63.37058 135.88644
#
# Poissons Ratio (x) = 0.28274 0.09986
# Poissons Ratio (y) = 0.28274 0.09986
# Poissons Ratio (z) = 0.04657 0.04657
#
# Static dielectric constant tensor:
#      x y z
#    x 4.473940 0.000000 0.000000 
#    y 0.000000 4.473940 0.000000 
#    z 0.000000 0.000000 5.658650 
# 
# 
# High freq. dielectric constant tensor:
#      x y z
#    x 2.015450 0.000000 0.000000 
#    y 0.000000 2.015450 0.000000 
#    z 0.000000 0.000000 2.068630 
# 
# From -- ./inp_files/2869.got.cif
#   From: 2010.03.12/outbox.cif.g09.slc.cpg/sg112_2_cif.got.tgz:2869.got - 2010.04.14 02:02:48.
