data_PCOD8308608
_publ_section_title
;
Structure prediction by ZEFSAII (Michael W. Deem and Ramdas Pophale) SiO2 
 PCOD8308608
Probable space group: P -4 21 M 
;
_chemical_formula_sum "Si O2"
_cell_formula_units_Z 64
_cell_length_a 12.043094
_cell_length_b 12.043094
_cell_length_c 22.748011
_cell_angle_alpha 90.000000
_cell_angle_beta 90.000000
_cell_angle_gamma 90.000000
_cell_volume 3299.283096
_symmetry_space_group_name_H-M "P -4 21 M "
_symmetry_group_IT_number 113
_symmetry_cell_setting 'tetragonal'
loop_
_space_group_symop_operation_xyz
x,y,z
y,-x,-z
-x,-y,z
-y,x,-z
1/2+x,1/2-y,-z
1/2-x,1/2+y,-z
1/2-y,1/2-x,z
1/2+y,1/2+x,z
loop_
_atom_site_type_symbol
_atom_site_label
_atom_site_fract_x
_atom_site_fract_y
_atom_site_fract_z
Si Si1 0.143227 0.829276 0.244119
Si Si2 0.951961 0.725007 0.058871
Si Si3 0.125969 0.967972 0.359958
Si Si4 0.772003 0.900093 0.043470
Si Si5 0.078814 0.238741 0.191430
Si Si6 0.825769 0.145819 0.574134
Si Si7 0.286276 0.606246 0.447056
Si Si8 0.629367 0.493365 0.849995
O O1 0.235602 0.735602 0.254727
O O2 0.144894 0.921877 0.294908
O O3 0.021257 0.771725 0.238898
O O4 0.169295 0.899505 0.185875
O O5 0.889438 0.610563 0.045069
O O6 0.883536 0.830162 0.035840
O O7 0.976884 0.732537 0.128306
O O8 0.062394 0.728760 0.020236
O O9 0.169103 0.874714 0.405327
O O10 0.182460 0.087215 0.374200
O O11 0.000000 0.000000 0.373295
O O12 0.678609 0.821392 0.071985
O O13 0.796732 0.996918 0.090766
O O14 0.164304 0.335697 0.211082
O O15 0.145985 0.122466 0.185947
O O16 0.717543 0.217543 0.583660
O O17 0.888184 0.170362 0.513271
O O18 0.779673 0.020119 0.575335
O O19 0.166903 0.666903 0.440469
O O20 0.500000 0.500000 0.866526
#
# Coordination Sequence:
#
# PCOD8308608 Si02
#       8
#     8   8   8   8   8   8   8   8
#     4  11  23  38  58  88 118 151 192 239 291 349
#     4   9  20  34  52  80 111 143 183 235 293 350
#     4  10  20  37  62  85 116 155 199 239 284 343
#     4  10  21  34  52  79 109 143 186 235 285 342
#     4   9  19  39  62  83 110 147 192 244 298 350
#     4  10  20  35  59  89 120 160 200 240 292 340
#     4  10  19  34  58  89 125 158 195 245 290 337
#     4   9  19  36  56  80 108 150 196 236 279 337
#
# _framework density 19.398154000000002
#
# number of rings (size 3 to 8) (size 9 to 14) (size 15 to 20)
#    0.000    2.250    1.250    2.625    5.250    1.750 
#    0.000    7.500    0.000    7.125    0.000    0.000 
#    0.000    0.000    0.000    0.000    0.000    0.000 
#
# Total GULP energy -793130.307782 kJ/mol
# GULP energy per Si atom -12392.661059 kJ/mol
# Density = 1.935400 g / cm^3
# Si number density = 19.398154 Si / 1000 Ang^3
#
#
#
# Elastic Constant Matrix: (Units=GPa)
#
#
# Indices 1 2 3 4 5 6 
#
# 1 85.8493 47.7904 30.3351 0.0000 0.0000 0.0000
# 2 47.7904 85.8497 30.3364 0.0000 0.0000 0.0000
# 3 30.3351 30.3364 61.6028 0.0000 0.0000 0.0000
# 4 0.0000 0.0000 0.0000 25.2608 0.0000 0.0000
# 5 0.0000 0.0000 0.0000 0.0000 25.2606 0.0000
# 6 0.0000 0.0000 0.0000 0.0000 0.0000 21.5977
#
#
#
# Elastic Compliance Matrix: (Units=1/GPa)
#
#
# Indices 1 2 3 4 5 6 
#
# 1 0.017956 -0.008319 -0.004745 0.000000 0.000000 0.000000
# 2 -0.008319 0.017956 -0.004746 0.000000 0.000000 0.000000
# 3 -0.004745 -0.004746 0.020907 0.000000 0.000000 0.000000
# 4 0.000000 0.000000 0.000000 0.039587 0.000000 0.000000
# 5 0.000000 0.000000 0.000000 0.000000 0.039587 0.000000
# 6 0.000000 0.000000 0.000000 0.000000 0.000000 0.046301
#
#
# Mechanical properties :
#
#
# Convention : Reuss Voigt Hill
#
# Bulk Modulus (GPa) = 47.17312 50.02507 48.59909
# Shear Modulus (GPa) = 22.22399 22.74648 22.48524
#
# Velocity S-wave (km/s) = 3.38846 3.42806 3.40831
# Velocity P-wave (km/s) = 6.29921 6.44308 6.37155
#
# Compressibility (1/GPa) = 0.02119851
#
# Stress axis : x y z
#
# Youngs Moduli (GPa) = 55.69167 55.69091 47.83059
#
# Poissons Ratio (x) = 0.46328 0.22698
# Poissons Ratio (y) = 0.46329 0.22701
# Poissons Ratio (z) = 0.26428 0.26432
#
# Static dielectric constant tensor:
#      x y z
#    x 3.532290 0.000000 0.000000 
#    y 0.000000 3.532290 0.000000 
#    z 0.000000 0.000000 3.456130 
# 
# 
# High freq. dielectric constant tensor:
#      x y z
#    x 1.745080 0.000000 0.000000 
#    y 0.000000 1.745080 0.000000 
#    z 0.000000 0.000000 1.747720 
# 
# From -- ./inp_files/2869.got.cif
#   From: 2010.03.12/outbox.cif.g09.slc.cpg/sg113_cif.got.tgz:2869.got - 2010.04.14 02:06:34.
