data_PCOD8308802
_publ_section_title
;
Structure prediction by ZEFSAII (Michael W. Deem and Ramdas Pophale) SiO2 
 PCOD8308802
Probable space group: P -4 21 C
;
_chemical_formula_sum "Si O2"
_cell_formula_units_Z 34
_cell_length_a 8.839520
_cell_length_b 8.839520
_cell_length_c 21.150130
_cell_angle_alpha 90.000000
_cell_angle_beta 90.000000
_cell_angle_gamma 90.000000
_cell_volume 1652.610115
_symmetry_space_group_name_H-M "P -4 21 C"
_symmetry_group_IT_number 114
_symmetry_cell_setting 'tetragonal'
loop_
_space_group_symop_operation_xyz
x,y,z
y,-x,-z
-x,-y,z
-y,x,-z
1/2+x,1/2-y,1/2-z
1/2-x,1/2+y,1/2-z
1/2-y,1/2-x,1/2+z
1/2+y,1/2+x,1/2+z
loop_
_atom_site_type_symbol
_atom_site_label
_atom_site_fract_x
_atom_site_fract_y
_atom_site_fract_z
Si Si1 0.500000 0.500000 0.333398
Si Si2 0.705528 0.250742 0.645518
Si Si3 0.500000 0.000000 0.166741
Si Si4 0.000000 0.000000 0.500000
Si Si5 0.213079 0.749940 0.787181
Si Si6 0.336563 0.468444 0.119795
O O1 0.394449 0.393315 0.377747
O O2 0.599614 0.388303 0.290009
O O3 0.696325 0.251305 0.722038
O O4 0.876742 0.260991 0.621626
O O5 0.615254 0.099249 0.623106
O O6 0.393935 0.102602 0.210878
O O7 0.931987 0.867067 0.545284
O O8 0.332490 0.749060 0.845528
O O9 0.500000 0.500000 0.153358
#
# Coordination Sequence:
#
# PCOD8308802 Si02
#       6
#     4   8   4   2   8   8
#     4  10  24  33  48  87 118 156 184 238 316 372
#     4  11  21  33  55  83 126 155 196 241 309 363
#     4  10  18  32  48  72 112 160 184 228 294 374
#     4   8  20  38  68  92 108 154 232 258 264 324
#     4  11  21  33  55  83 126 155 196 241 309 363
#     4  10  20  38  63  91 109 154 212 257 276 341
#
# _framework density 20.573516999999999
#
# number of rings (size 3 to 8) (size 9 to 14) (size 15 to 20)
#    0.706    0.941    2.353    4.235    3.294    0.941 
#    0.000    0.000    0.000   18.353    0.000    0.000 
#    0.000    0.000    0.000    0.000    0.000    0.000 
#
# Total GULP energy -421274.096018 kJ/mol
# GULP energy per Si atom -12390.414589 kJ/mol
# Density = 2.052669 g / cm^3
# Si number density = 20.573517 Si / 1000 Ang^3
#
#
#
# Elastic Constant Matrix: (Units=GPa)
#
#
# Indices 1 2 3 4 5 6 
#
# 1 126.3471 51.7658 21.0079 0.0000 0.0000 0.0000
# 2 51.7658 126.3471 21.0079 0.0000 0.0000 0.0000
# 3 21.0079 21.0079 84.8502 0.0000 0.0000 0.0000
# 4 0.0000 0.0000 0.0000 18.1169 0.0000 0.0000
# 5 0.0000 0.0000 0.0000 0.0000 18.1169 0.0000
# 6 0.0000 0.0000 0.0000 0.0000 0.0000 40.3411
#
#
#
# Elastic Compliance Matrix: (Units=1/GPa)
#
#
# Indices 1 2 3 4 5 6 
#
# 1 0.009685 -0.003723 -0.001476 0.000000 0.000000 0.000000
# 2 -0.003723 0.009685 -0.001476 0.000000 0.000000 0.000000
# 3 -0.001476 -0.001476 0.012516 0.000000 0.000000 0.000000
# 4 0.000000 0.000000 0.000000 0.055197 0.000000 0.000000
# 5 0.000000 0.000000 0.000000 0.000000 0.055197 0.000000
# 6 0.000000 0.000000 0.000000 0.000000 0.000000 0.024789
#
#
# Mechanical properties :
#
#
# Convention : Reuss Voigt Hill
#
# Bulk Modulus (GPa) = 53.94706 58.34526 56.14616
# Shear Modulus (GPa) = 26.79530 31.56582 29.18056
#
# Velocity S-wave (km/s) = 3.61282 3.92126 3.77019
# Velocity P-wave (km/s) = 6.60922 6.99447 6.80457
#
# Compressibility (1/GPa) = 0.01853669
#
# Stress axis : x y z
#
# Youngs Moduli (GPa) = 103.24787 103.24787 79.89461
#
# Poissons Ratio (x) = 0.38437 0.11795
# Poissons Ratio (y) = 0.38437 0.11795
# Poissons Ratio (z) = 0.15242 0.15242
#
# Static dielectric constant tensor:
#      x y z
#    x 3.976620 0.000000 0.000000 
#    y 0.000000 3.976620 0.000000 
#    z 0.000000 0.000000 3.014870 
# 
# 
# High freq. dielectric constant tensor:
#      x y z
#    x 1.819630 0.000000 0.000000 
#    y 0.000000 1.819630 0.000000 
#    z 0.000000 0.000000 1.723230 
# 
# From -- ./inp_files/3320.got.cif
#   From: 2010.03.12/outbox.cif.g09.slc.cpg/sg114_2_cif.got.tgz:3320.got - 2010.04.14 02:08:34.
