data_PCOD8308132
_publ_section_title
;
Structure prediction by ZEFSAII (Michael W. Deem and Ramdas Pophale) SiO2 
 PCOD8308132
Probable space group: P -4 2 M 
;
_chemical_formula_sum "Si O2"
_cell_formula_units_Z 56
_cell_length_a 20.733019
_cell_length_b 20.733019
_cell_length_c 8.905734
_cell_angle_alpha 90.000000
_cell_angle_beta 90.000000
_cell_angle_gamma 90.000000
_cell_volume 3828.201690
_symmetry_space_group_name_H-M "P -4 2 M "
_symmetry_group_IT_number 111
_symmetry_cell_setting 'tetragonal'
loop_
_space_group_symop_operation_xyz
x,y,z
y,-x,-z
-x,-y,z
-y,x,-z
x,-y,-z
-x,y,-z
-y,-x,z
y,x,z
loop_
_atom_site_type_symbol
_atom_site_label
_atom_site_fract_x
_atom_site_fract_y
_atom_site_fract_z
Si Si1 0.764959 0.436552 0.921300
Si Si2 0.657563 0.559899 0.595579
Si Si3 0.373760 0.525514 0.842013
Si Si4 0.128088 0.585996 0.340263
Si Si5 0.433575 0.132404 0.313371
Si Si6 0.356142 0.749647 0.211483
Si Si7 0.999497 0.576352 0.169743
O O1 0.701956 0.460276 0.835583
O O2 0.811952 0.405707 0.796205
O O3 0.797406 0.500000 0.000000
O O4 0.743858 0.382671 0.042288
O O5 0.685112 0.500000 0.500000
O O6 0.610840 0.610840 0.507254
O O7 0.612037 0.530646 0.724415
O O8 0.716826 0.597119 0.667819
O O9 0.410314 0.589687 0.794690
O O10 0.398588 0.500000 0.000000
O O11 0.135585 0.594632 0.518873
O O12 0.140613 0.510908 0.303892
O O13 0.175498 0.638270 0.260172
O O14 0.057790 0.603360 0.272715
O O15 0.404237 0.066349 0.250452
O O16 0.284858 0.715143 0.217400
O O17 0.000000 0.500000 0.161661
O O18 0.000000 0.605012 0.000000
#
# Coordination Sequence:
#
# PCOD8308132 Si02
#       7
#     8   8   8   8   8   8   8
#     4  11  19  32  47  61  81 106 141 175 227 271
#     4  11  23  35  45  58  75  98 132 182 239 293
#     4  11  21  33  47  60  75  98 137 184 233 284
#     4  10  19  31  46  68  94 113 139 175 221 275
#     4  10  19  29  49  70  90 113 136 174 228 280
#     4  11  22  35  48  61  82 113 149 184 225 278
#     4   9  17  28  47  71  95 115 137 162 209 274
#
# _framework density 14.628278
#
# number of rings (size 3 to 8) (size 9 to 14) (size 15 to 20)
#    0.000    1.571    4.286    2.571    6.000    3.429 
#    0.000    0.714    0.000    0.000    0.000    0.000 
#    0.000    0.000    0.000    0.000    0.000    0.000 
#
# Total GULP energy -693815.357340 kJ/mol
# GULP energy per Si atom -12389.559953 kJ/mol
# Density = 1.459498 g / cm^3
# Si number density = 14.628278 Si / 1000 Ang^3
#
#
#
# Elastic Constant Matrix: (Units=GPa)
#
#
# Indices 1 2 3 4 5 6 
#
# 1 55.4150 32.2484 17.0144 0.0000 0.0000 0.0000
# 2 32.2484 55.4158 17.0239 0.0000 0.0000 0.0000
# 3 17.0144 17.0239 44.9910 0.0000 0.0000 0.0000
# 4 0.0000 0.0000 0.0000 17.4649 0.0000 0.0000
# 5 0.0000 0.0000 0.0000 0.0000 17.4641 0.0000
# 6 0.0000 0.0000 0.0000 0.0000 0.0000 9.9690
#
#
#
# Elastic Compliance Matrix: (Units=1/GPa)
#
#
# Indices 1 2 3 4 5 6 
#
# 1 0.028266 -0.014897 -0.005053 0.000000 0.000000 0.000000
# 2 -0.014897 0.028270 -0.005063 0.000000 0.000000 0.000000
# 3 -0.005053 -0.005063 0.026053 0.000000 0.000000 0.000000
# 4 0.000000 0.000000 0.000000 0.057258 0.000000 0.000000
# 5 0.000000 0.000000 0.000000 0.000000 0.057260 0.000000
# 6 0.000000 0.000000 0.000000 0.000000 0.000000 0.100311
#
#
# Mechanical properties :
#
#
# Convention : Reuss Voigt Hill
#
# Bulk Modulus (GPa) = 30.70918 32.04393 31.37656
# Shear Modulus (GPa) = 13.95485 14.94861 14.45173
#
# Velocity S-wave (km/s) = 3.09198 3.20018 3.14655
# Velocity P-wave (km/s) = 5.81255 5.96724 5.89040
#
# Compressibility (1/GPa) = 0.03256355
#
# Stress axis : x y z
#
# Youngs Moduli (GPa) = 35.37793 35.37335 38.38273
#
# Poissons Ratio (x) = 0.52695 0.19394
# Poissons Ratio (y) = 0.52702 0.19434
# Poissons Ratio (z) = 0.17876 0.17910
#
# Static dielectric constant tensor:
#      x y z
#    x 2.639430 0.000000 0.000000 
#    y 0.000000 2.639440 0.000000 
#    z 0.000000 0.000000 3.059550 
# 
# 
# High freq. dielectric constant tensor:
#      x y z
#    x 1.518960 0.000000 0.000000 
#    y 0.000000 1.518960 0.000000 
#    z 0.000000 0.000000 1.582680 
# 
# From -- ./inp_files/1957.got.cif
#   From: 2010.03.12/outbox.cif.g09.slc.cpg/sg111_1_cif.got.tgz:1957.got - 2010.04.14 01:59:48.
