data_PCOD8308740
_publ_section_title
;
Structure prediction by ZEFSAII (Michael W. Deem and Ramdas Pophale) SiO2 
 PCOD8308740
Probable space group: P -4 21 M 
;
_chemical_formula_sum "Si O2"
_cell_formula_units_Z 26
_cell_length_a 12.012799
_cell_length_b 12.012799
_cell_length_c 7.621301
_cell_angle_alpha 90.000000
_cell_angle_beta 90.000000
_cell_angle_gamma 90.000000
_cell_volume 1099.809673
_symmetry_space_group_name_H-M "P -4 21 M "
_symmetry_group_IT_number 113
_symmetry_cell_setting 'tetragonal'
loop_
_space_group_symop_operation_xyz
x,y,z
y,-x,-z
-x,-y,z
-y,x,-z
1/2+x,1/2-y,-z
1/2-x,1/2+y,-z
1/2-y,1/2-x,z
1/2+y,1/2+x,z
loop_
_atom_site_type_symbol
_atom_site_label
_atom_site_fract_x
_atom_site_fract_y
_atom_site_fract_z
Si Si1 0.675352 0.003127 0.809234
Si Si2 0.500000 0.500000 0.000000
Si Si3 0.324767 0.493468 0.508129
Si Si4 0.213872 0.894828 0.138882
O O1 0.611557 0.111557 0.736577
O O2 0.593590 0.906411 0.864549
O O3 0.750649 0.959913 0.650047
O O4 0.735670 0.029754 0.989038
O O5 0.578274 0.587016 0.884994
O O6 0.397125 0.597766 0.575220
O O7 0.253924 0.446426 0.671956
O O8 0.267673 0.767673 0.127657
#
# Coordination Sequence:
#
# PCOD8308740 Si02
#       4
#     8   2   8   8
#     4  10  23  42  63  93 133 175 225 283 340 407
#     4  12  24  44  70 100 136 174 232 292 334 408
#     4  11  23  40  64  95 129 166 215 276 339 407
#     4  11  24  43  68  97 133 179 226 280 347 408
#
# _framework density 23.640454999999999
#
# number of rings (size 3 to 8) (size 9 to 14) (size 15 to 20)
#    0.000    1.231    0.000    6.462    0.000    7.385 
#    0.000    3.077    0.000    0.000    0.000    0.000 
#    0.000    0.000    0.000    0.000    0.000    0.000 
#
# Total GULP energy -322094.421978 kJ/mol
# GULP energy per Si atom -12388.246999 kJ/mol
# Density = 2.358665 g / cm^3
# Si number density = 23.640455 Si / 1000 Ang^3
#
#
#
# Elastic Constant Matrix: (Units=GPa)
#
#
# Indices 1 2 3 4 5 6 
#
# 1 88.7682 43.9534 42.2218 0.0000 0.0000 0.0000
# 2 43.9534 88.7633 42.2221 0.0000 0.0000 0.0000
# 3 42.2218 42.2221 128.3281 0.0000 0.0000 0.0000
# 4 0.0000 0.0000 0.0000 19.0598 0.0000 0.0000
# 5 0.0000 0.0000 0.0000 0.0000 19.0617 0.0000
# 6 0.0000 0.0000 0.0000 0.0000 0.0000 42.8853
#
#
#
# Elastic Compliance Matrix: (Units=1/GPa)
#
#
# Indices 1 2 3 4 5 6 
#
# 1 0.015922 -0.006393 -0.003135 0.000000 0.000000 0.000000
# 2 -0.006393 0.015923 -0.003136 0.000000 0.000000 0.000000
# 3 -0.003135 -0.003136 0.009856 0.000000 0.000000 0.000000
# 4 0.000000 0.000000 0.000000 0.052467 0.000000 0.000000
# 5 0.000000 0.000000 0.000000 0.000000 0.052461 0.000000
# 6 0.000000 0.000000 0.000000 0.000000 0.000000 0.023318
#
#
# Mechanical properties :
#
#
# Convention : Reuss Voigt Hill
#
# Bulk Modulus (GPa) = 61.07467 62.51711 61.79589
# Shear Modulus (GPa) = 24.90891 28.03219 26.47055
#
# Velocity S-wave (km/s) = 3.24953 3.44724 3.34984
# Velocity P-wave (km/s) = 6.32219 6.50746 6.41549
#
# Compressibility (1/GPa) = 0.01637340
#
# Stress axis : x y z
#
# Youngs Moduli (GPa) = 62.80655 62.80226 101.46399
#
# Poissons Ratio (x) = 0.40148 0.31811
# Poissons Ratio (y) = 0.40151 0.31815
# Poissons Ratio (z) = 0.19691 0.19692
#
# Static dielectric constant tensor:
#      x y z
#    x 4.450680 0.000000 0.000000 
#    y 0.000000 4.450680 0.000000 
#    z 0.000000 0.000000 4.235970 
# 
# 
# High freq. dielectric constant tensor:
#      x y z
#    x 1.936960 0.000000 0.000000 
#    y 0.000000 1.936960 0.000000 
#    z 0.000000 0.000000 1.942750 
# 
# From -- ./inp_files/723.got.cif
#   From: 2010.03.12/outbox.cif.g09.slc.cpg/sg113_cif.got.tgz:723.got - 2010.04.14 02:06:34.
