data_PCOD8308961
_publ_section_title
;
Structure prediction by ZEFSAII (Michael W. Deem and Ramdas Pophale) SiO2 
 PCOD8308961
Probable space group: P -4 21 C
;
_chemical_formula_sum "Si O2"
_cell_formula_units_Z 58
_cell_length_a 17.076729
_cell_length_b 17.076729
_cell_length_c 9.672168
_cell_angle_alpha 90.000000
_cell_angle_beta 90.000000
_cell_angle_gamma 90.000000
_cell_volume 2820.546112
_symmetry_space_group_name_H-M "P -4 21 C"
_symmetry_group_IT_number 114
_symmetry_cell_setting 'tetragonal'
loop_
_space_group_symop_operation_xyz
x,y,z
y,-x,-z
-x,-y,z
-y,x,-z
1/2+x,1/2-y,1/2-z
1/2-x,1/2+y,1/2-z
1/2-y,1/2-x,1/2+z
1/2+y,1/2+x,1/2+z
loop_
_atom_site_type_symbol
_atom_site_label
_atom_site_fract_x
_atom_site_fract_y
_atom_site_fract_z
Si Si1 0.354912 0.698184 0.860264
Si Si2 0.181232 0.725345 0.786297
Si Si3 0.857475 0.613401 0.270234
Si Si4 0.032222 0.417569 0.035517
Si Si5 0.454887 0.357174 0.309411
Si Si6 0.599777 0.800373 0.441306
Si Si7 0.390137 0.708856 0.177417
Si Si8 0.000000 0.000000 0.000000
O O1 0.262421 0.712864 0.866701
O O2 0.391719 0.765301 0.762545
O O3 0.376384 0.613405 0.800084
O O4 0.389888 0.705038 0.012441
O O5 0.178014 0.676508 0.645763
O O6 0.166286 0.815275 0.744928
O O7 0.115583 0.697222 0.894337
O O8 0.867850 0.573725 0.417305
O O9 0.890607 0.701493 0.273082
O O10 0.905506 0.565121 0.155939
O O11 0.000000 0.500000 0.978407
O O12 0.962874 0.365785 0.098090
O O13 0.429882 0.285700 0.405826
O O14 0.533411 0.336378 0.227512
O O15 0.466031 0.432074 0.404440
#
# Coordination Sequence:
#
# PCOD8308961 Si02
#       8
#     8   8   8   8   8   8   8   2
#     4  10  23  43  71  99 128 184 230 276 345 415
#     4  10  22  42  70  98 134 176 229 280 337 412
#     4  11  24  45  69  94 140 187 220 278 347 417
#     4  12  27  42  65 102 140 178 227 277 336 415
#     4  11  26  43  70  99 137 172 242 286 343 412
#     4  11  24  43  66 100 136 180 224 280 341 410
#     4  11  21  45  71  98 135 176 229 285 345 413
#     4  12  28  48  66 100 132 180 232 306 344 416
#
# _framework density 20.563393000000001
#
# number of rings (size 3 to 8) (size 9 to 14) (size 15 to 20)
#    0.000    1.103    4.138    1.241    5.793    1.103 
#    2.483    0.000    0.000    0.000    0.000    0.000 
#    0.000    0.000    0.000    0.000    0.000    0.000 
#
# Total GULP energy -719524.204984 kJ/mol
# GULP energy per Si atom -12405.589741 kJ/mol
# Density = 2.051659 g / cm^3
# Si number density = 20.563393 Si / 1000 Ang^3
#
#
#
# Elastic Constant Matrix: (Units=GPa)
#
#
# Indices 1 2 3 4 5 6 
#
# 1 98.6939 34.5554 31.8359 0.0000 0.0000 0.0000
# 2 34.5554 98.6939 31.8359 0.0000 0.0000 0.0000
# 3 31.8359 31.8359 102.7984 0.0000 0.0000 0.0000
# 4 0.0000 0.0000 0.0000 20.8776 0.0000 0.0000
# 5 0.0000 0.0000 0.0000 0.0000 20.8776 0.0000
# 6 0.0000 0.0000 0.0000 0.0000 0.0000 21.8351
#
#
#
# Elastic Compliance Matrix: (Units=1/GPa)
#
#
# Indices 1 2 3 4 5 6 
#
# 1 0.012200 -0.003392 -0.002728 0.000000 0.000000 0.000000
# 2 -0.003392 0.012200 -0.002728 0.000000 0.000000 0.000000
# 3 -0.002728 -0.002728 0.011417 0.000000 0.000000 0.000000
# 4 0.000000 0.000000 0.000000 0.047898 0.000000 0.000000
# 5 0.000000 0.000000 0.000000 0.000000 0.047898 0.000000
# 6 0.000000 0.000000 0.000000 0.000000 0.000000 0.045798
#
#
# Mechanical properties :
#
#
# Convention : Reuss Voigt Hill
#
# Bulk Modulus (GPa) = 55.18026 55.18227 55.18126
# Shear Modulus (GPa) = 24.85757 26.18203 25.51980
#
# Velocity S-wave (km/s) = 3.48059 3.57211 3.52665
# Velocity P-wave (km/s) = 6.56088 6.62622 6.59363
#
# Compressibility (1/GPa) = 0.01812242
#
# Stress axis : x y z
#
# Youngs Moduli (GPa) = 81.96912 81.96912 87.58597
#
# Poissons Ratio (x) = 0.27800 0.23892
# Poissons Ratio (y) = 0.27800 0.23892
# Poissons Ratio (z) = 0.22360 0.22360
#
# Static dielectric constant tensor:
#      x y z
#    x 3.761210 0.000000 0.000000 
#    y 0.000000 3.761210 0.000000 
#    z 0.000000 0.000000 3.630600 
# 
# 
# High freq. dielectric constant tensor:
#      x y z
#    x 1.806050 0.000000 0.000000 
#    y 0.000000 1.806050 0.000000 
#    z 0.000000 0.000000 1.814140 
# 
# From -- ./inp_files/1014.got.cif
#   From: 2010.03.12/outbox.cif.g09.slc.cpg/sg114_1_cif.got.tgz:1014.got - 2010.04.14 02:08:34.
