data_PCOD8308510
_publ_section_title
;
Structure prediction by ZEFSAII (Michael W. Deem and Ramdas Pophale) SiO2 
 PCOD8308510
Probable space group: P -4 2 C
;
_chemical_formula_sum "Si O2"
_cell_formula_units_Z 26
_cell_length_a 7.171071
_cell_length_b 7.171071
_cell_length_c 22.060508
_cell_angle_alpha 90.000000
_cell_angle_beta 90.000000
_cell_angle_gamma 90.000000
_cell_volume 1134.445283
_symmetry_space_group_name_H-M "P -4 2 C"
_symmetry_group_IT_number 112
_symmetry_cell_setting 'tetragonal'
loop_
_space_group_symop_operation_xyz
x,y,z
y,-x,-z
-x,-y,z
-y,x,-z
x,-y,1/2-z
-x,y,1/2-z
-y,-x,1/2+z
y,x,1/2+z
loop_
_atom_site_type_symbol
_atom_site_label
_atom_site_fract_x
_atom_site_fract_y
_atom_site_fract_z
Si Si1 0.852269 0.738816 0.934041
Si Si2 0.500000 0.000000 0.750000
Si Si3 0.564565 0.695401 0.839932
Si Si4 0.829659 0.743923 0.067581
O O1 0.738591 0.634834 0.881444
O O2 0.071651 0.703403 0.922484
O O3 0.803256 0.956247 0.929577
O O4 0.793040 0.660441 0.000241
O O5 0.622158 0.854932 0.790680
O O6 0.500000 0.500000 0.809283
O O7 0.404472 0.785261 0.881293
#
# Coordination Sequence:
#
# PCOD8308510 Si02
#       4
#     8   2   8   8
#     4   9  19  38  64  96 133 167 207 268 336 391
#     4  12  26  52  62  86 140 186 230 266 318 390
#     4  12  25  41  67  94 127 177 223 268 327 393
#     4   9  19  38  64  96 133 167 207 268 336 391
#
# _framework density 22.918686999999998
#
# number of rings (size 3 to 8) (size 9 to 14) (size 15 to 20)
#    0.000    1.846    3.077    2.308    4.308    1.231 
#    0.000    3.077    0.000    3.692    0.000    0.000 
#    0.000    0.000    0.000    0.000    0.000    0.000 
#
# Total GULP energy -322202.666189 kJ/mol
# GULP energy per Si atom -12392.410238 kJ/mol
# Density = 2.286652 g / cm^3
# Si number density = 22.918687 Si / 1000 Ang^3
#
#
#
# Elastic Constant Matrix: (Units=GPa)
#
#
# Indices 1 2 3 4 5 6 
#
# 1 79.7437 7.4887 39.6369 0.0000 0.0000 0.0000
# 2 7.4887 79.7437 39.6369 0.0000 0.0000 0.0000
# 3 39.6369 39.6369 115.9745 0.0000 0.0000 0.0000
# 4 0.0000 0.0000 0.0000 4.0074 0.0000 0.0000
# 5 0.0000 0.0000 0.0000 0.0000 4.0074 0.0000
# 6 0.0000 0.0000 0.0000 0.0000 0.0000 29.4584
#
#
#
# Elastic Compliance Matrix: (Units=1/GPa)
#
#
# Indices 1 2 3 4 5 6 
#
# 1 0.015234 0.001394 -0.005683 0.000000 0.000000 0.000000
# 2 0.001394 0.015234 -0.005683 0.000000 0.000000 0.000000
# 3 -0.005683 -0.005683 0.012507 0.000000 0.000000 0.000000
# 4 0.000000 0.000000 0.000000 0.249536 0.000000 0.000000
# 5 0.000000 0.000000 0.000000 0.000000 0.249536 0.000000
# 6 0.000000 0.000000 0.000000 0.000000 0.000000 0.033946
#
#
# Mechanical properties :
#
#
# Convention : Reuss Voigt Hill
#
# Bulk Modulus (GPa) = 43.41906 49.88744 46.65325
# Shear Modulus (GPa) = 8.28344 20.07463 14.17904
#
# Velocity S-wave (km/s) = 1.90319 2.96278 2.49000
# Velocity P-wave (km/s) = 4.88011 5.78952 5.35416
#
# Compressibility (1/GPa) = 0.02303136
#
# Stress axis : x y z
#
# Youngs Moduli (GPa) = 65.64252 65.64252 79.95385
#
# Poissons Ratio (x) = -0.09152 0.45438
# Poissons Ratio (y) = -0.09152 0.45438
# Poissons Ratio (z) = 0.37305 0.37305
#
# Static dielectric constant tensor:
#      x y z
#    x 4.423680 0.000000 0.000000 
#    y 0.000000 4.423680 0.000000 
#    z 0.000000 0.000000 4.220910 
# 
# 
# High freq. dielectric constant tensor:
#      x y z
#    x 1.900950 0.000000 0.000000 
#    y 0.000000 1.900950 0.000000 
#    z 0.000000 0.000000 1.889790 
# 
# From -- ./inp_files/3845.got.cif
#   From: 2010.03.12/outbox.cif.g09.slc.cpg/sg112_2_cif.got.tgz:3845.got - 2010.04.14 02:02:48.
