data_PCOD8308219
_publ_section_title
;
Structure prediction by ZEFSAII (Michael W. Deem and Ramdas Pophale) SiO2 
 PCOD8308219
Probable space group: P -4 2 M 
;
_chemical_formula_sum "Si O2"
_cell_formula_units_Z 48
_cell_length_a 12.851680
_cell_length_b 12.851680
_cell_length_c 15.352457
_cell_angle_alpha 90.000000
_cell_angle_beta 90.000000
_cell_angle_gamma 90.000000
_cell_volume 2535.698982
_symmetry_space_group_name_H-M "P -4 2 M "
_symmetry_group_IT_number 111
_symmetry_cell_setting 'tetragonal'
loop_
_space_group_symop_operation_xyz
x,y,z
y,-x,-z
-x,-y,z
-y,x,-z
x,-y,-z
-x,y,-z
-y,-x,z
y,x,z
loop_
_atom_site_type_symbol
_atom_site_label
_atom_site_fract_x
_atom_site_fract_y
_atom_site_fract_z
Si Si1 0.270748 0.556008 0.590975
Si Si2 0.250777 0.419095 0.758927
Si Si3 0.229252 0.056007 0.090976
Si Si4 0.750777 0.080905 0.258928
Si Si5 0.873313 0.710609 0.341101
Si Si6 0.789392 0.373313 0.841099
O O1 0.285102 0.500000 0.500000
O O2 0.364473 0.635528 0.608268
O O3 0.276465 0.470904 0.666696
O O4 0.161152 0.620477 0.590486
O O5 0.347067 0.347067 0.788144
O O6 0.146389 0.353611 0.750000
O O7 0.229352 0.503199 0.835421
O O8 0.135528 0.135528 0.108267
O O9 0.338848 0.120476 0.090488
O O10 0.223534 0.970903 0.166697
O O11 0.214900 0.000000 0.000000
O O12 0.847068 0.152933 0.288146
O O13 0.729353 0.996802 0.335422
O O14 0.820290 0.820290 0.366259
O O15 0.829567 0.670433 0.250001
O O16 0.679712 0.320289 0.866258
#
# Coordination Sequence:
#
# PCOD8308219 Si02
#       6
#     8   8   8   8   8   8
#     4  10  20  34  55  83 109 132 167 223 284 330
#     4  10  20  33  50  75 108 144 183 221 255 306
#     4  10  20  34  55  83 109 132 167 223 284 330
#     4  10  20  33  50  75 108 144 183 221 255 306
#     4   8  16  31  49  72 104 138 171 208 255 315
#     4   8  16  31  49  72 104 138 171 208 255 315
#
# _framework density 18.929690999999998
#
# number of rings (size 3 to 8) (size 9 to 14) (size 15 to 20)
#    0.000    2.667    0.000    4.000    0.000   10.333 
#    0.000    3.333    0.000    0.000    0.000    2.333 
#    0.000   21.333    0.000    0.000    0.000    0.000 
#
# Total GULP energy -594955.149008 kJ/mol
# GULP energy per Si atom -12394.898938 kJ/mol
# Density = 1.888661 g / cm^3
# Si number density = 18.929691 Si / 1000 Ang^3
#
#
#
# Elastic Constant Matrix: (Units=GPa)
#
#
# Indices 1 2 3 4 5 6 
#
# 1 127.5252 57.3938 14.8604 0.0000 0.0000 0.0000
# 2 57.3938 127.5211 14.8582 0.0000 0.0000 0.0000
# 3 14.8604 14.8582 39.2762 0.0000 0.0000 0.0000
# 4 0.0000 0.0000 0.0000 28.5962 0.0000 0.0000
# 5 0.0000 0.0000 0.0000 0.0000 28.5966 0.0000
# 6 0.0000 0.0000 0.0000 0.0000 0.0000 22.9669
#
#
#
# Elastic Compliance Matrix: (Units=1/GPa)
#
#
# Indices 1 2 3 4 5 6 
#
# 1 0.010009 -0.004251 -0.002179 0.000000 0.000000 0.000000
# 2 -0.004251 0.010009 -0.002178 0.000000 0.000000 0.000000
# 3 -0.002179 -0.002178 0.027109 0.000000 0.000000 0.000000
# 4 0.000000 0.000000 0.000000 0.034970 0.000000 0.000000
# 5 0.000000 0.000000 0.000000 0.000000 0.034969 0.000000
# 6 0.000000 0.000000 0.000000 0.000000 0.000000 0.043541
#
#
# Mechanical properties :
#
#
# Convention : Reuss Voigt Hill
#
# Bulk Modulus (GPa) = 33.43215 52.06080 42.74648
# Shear Modulus (GPa) = 26.62527 29.84595 28.23561
#
# Velocity S-wave (km/s) = 3.75445 3.97504 3.86632
# Velocity P-wave (km/s) = 6.04103 6.97351 6.52395
#
# Compressibility (1/GPa) = 0.02991133
#
# Stress axis : x y z
#
# Youngs Moduli (GPa) = 99.91459 99.91263 36.88811
#
# Poissons Ratio (x) = 0.42470 0.08037
# Poissons Ratio (y) = 0.42471 0.08034
# Poissons Ratio (z) = 0.21769 0.21761
#
# Static dielectric constant tensor:
#      x y z
#    x 3.739800 0.000000 0.000000 
#    y 0.000000 3.739810 0.000000 
#    z 0.000000 0.000000 3.293340 
# 
# 
# High freq. dielectric constant tensor:
#      x y z
#    x 1.743950 0.000000 0.000000 
#    y 0.000000 1.743950 0.000000 
#    z 0.000000 0.000000 1.695540 
# 
# From -- ./inp_files/3659.got.cif
#   From: 2010.03.12/outbox.cif.g09.slc.cpg/sg111_2_cif.got.tgz:3659.got - 2010.04.14 01:59:48.
