data_PCOD8308260
_publ_section_title
;
Structure prediction by ZEFSAII (Michael W. Deem and Ramdas Pophale) SiO2 
 PCOD8308260
Probable space group: P -4 2 M 
;
_chemical_formula_sum "Si O2"
_cell_formula_units_Z 54
_cell_length_a 14.881555
_cell_length_b 14.881555
_cell_length_c 11.435430
_cell_angle_alpha 90.000000
_cell_angle_beta 90.000000
_cell_angle_gamma 90.000000
_cell_volume 2532.498095
_symmetry_space_group_name_H-M "P -4 2 M "
_symmetry_group_IT_number 111
_symmetry_cell_setting 'tetragonal'
loop_
_space_group_symop_operation_xyz
x,y,z
y,-x,-z
-x,-y,z
-y,x,-z
x,-y,-z
-x,y,-z
-y,-x,z
y,x,z
loop_
_atom_site_type_symbol
_atom_site_label
_atom_site_fract_x
_atom_site_fract_y
_atom_site_fract_z
Si Si1 0.810107 0.960742 0.748161
Si Si2 0.263709 0.408275 0.754121
Si Si3 0.243463 0.611454 0.721095
Si Si4 0.500000 0.000000 0.000000
Si Si5 0.110442 0.349242 0.895733
Si Si6 0.255150 0.000000 0.500000
Si Si7 0.265535 0.874325 0.862139
Si Si8 0.334489 0.810986 0.478452
O O1 0.895590 0.895590 0.779283
O O2 0.715109 0.918260 0.788336
O O3 0.809405 0.980884 0.610323
O O4 0.809910 0.057375 0.811512
O O5 0.361346 0.361346 0.741553
O O6 0.271624 0.514592 0.769416
O O7 0.214809 0.370806 0.870710
O O8 0.201210 0.388431 0.641663
O O9 0.324793 0.675208 0.757695
O O10 0.150045 0.651147 0.775792
O O11 0.233501 0.606944 0.581175
O O12 0.442758 0.942566 0.094194
O O13 0.087400 0.301920 0.017454
O O14 0.319582 0.914242 0.513623
O O15 0.217447 0.782554 0.893075
O O16 0.237040 0.762961 0.468112
#
# Coordination Sequence:
#
# PCOD8308260 Si02
#       8
#     8   8   8   2   8   4   8   8
#     4  12  25  43  68  99 135 179 227 278 339 409
#     4  11  23  40  66  96 132 175 223 275 343 416
#     4  10  22  41  65  94 132 175 224 281 346 409
#     4  12  24  40  72 102 130 174 236 292 330 412
#     4  12  24  42  66  99 134 172 221 280 336 404
#     4  12  22  38  67  97 132 176 218 270 340 412
#     4  11  23  43  67  94 134 182 225 278 339 399
#     4  10  21  40  62  90 130 177 219 272 341 407
#
# _framework density 21.322821000000001
#
# number of rings (size 3 to 8) (size 9 to 14) (size 15 to 20)
#    0.000    0.889    4.444    3.111    0.000    1.185 
#    0.000    0.741    0.000    6.444    0.000    2.074 
#    0.000    0.000    0.000    0.000    0.000    0.000 
#
# Total GULP energy -669243.431317 kJ/mol
# GULP energy per Si atom -12393.396876 kJ/mol
# Density = 2.127429 g / cm^3
# Si number density = 21.322821 Si / 1000 Ang^3
#
#
#
# Elastic Constant Matrix: (Units=GPa)
#
#
# Indices 1 2 3 4 5 6 
#
# 1 113.6480 55.9285 34.9743 0.0000 0.0000 0.0000
# 2 55.9285 113.6506 34.9740 0.0000 0.0000 0.0000
# 3 34.9743 34.9740 108.9686 0.0000 0.0000 0.0000
# 4 0.0000 0.0000 0.0000 26.6642 0.0000 0.0000
# 5 0.0000 0.0000 0.0000 0.0000 26.6642 0.0000
# 6 0.0000 0.0000 0.0000 0.0000 0.0000 28.4442
#
#
#
# Elastic Compliance Matrix: (Units=1/GPa)
#
#
# Indices 1 2 3 4 5 6 
#
# 1 0.012061 -0.005264 -0.002182 0.000000 0.000000 0.000000
# 2 -0.005264 0.012061 -0.002181 0.000000 0.000000 0.000000
# 3 -0.002182 -0.002181 0.010577 0.000000 0.000000 0.000000
# 4 0.000000 0.000000 0.000000 0.037503 0.000000 0.000000
# 5 0.000000 0.000000 0.000000 0.000000 0.037504 0.000000
# 6 0.000000 0.000000 0.000000 0.000000 0.000000 0.035157
#
#
# Mechanical properties :
#
#
# Convention : Reuss Voigt Hill
#
# Bulk Modulus (GPa) = 64.74588 65.33564 65.04076
# Shear Modulus (GPa) = 29.53955 30.38055 29.96005
#
# Velocity S-wave (km/s) = 3.72607 3.77873 3.75249
# Velocity P-wave (km/s) = 6.99585 7.05309 7.02453
#
# Compressibility (1/GPa) = 0.01544500
#
# Stress axis : x y z
#
# Youngs Moduli (GPa) = 82.91216 82.91443 94.54229
#
# Poissons Ratio (x) = 0.43646 0.20625
# Poissons Ratio (y) = 0.43645 0.20624
# Poissons Ratio (z) = 0.18088 0.18087
#
# Static dielectric constant tensor:
#      x y z
#    x 3.829830 0.000000 0.000000 
#    y 0.000000 3.829840 0.000000 
#    z 0.000000 0.000000 3.879580 
# 
# 
# High freq. dielectric constant tensor:
#      x y z
#    x 1.829850 0.000000 0.000000 
#    y 0.000000 1.829850 0.000000 
#    z 0.000000 0.000000 1.841040 
# 
# From -- ./inp_files/2836.got.cif
#   From: 2010.03.12/outbox.cif.g09.slc.cpg/sg111_2_cif.got.tgz:2836.got - 2010.04.14 01:59:48.
