data_PCOD8308909
_publ_section_title
;
Structure prediction by ZEFSAII (Michael W. Deem and Ramdas Pophale) SiO2 
 PCOD8308909
Probable space group: P -4 21 C
;
_chemical_formula_sum "Si O2"
_cell_formula_units_Z 40
_cell_length_a 13.759227
_cell_length_b 13.759227
_cell_length_c 8.757137
_cell_angle_alpha 90.000000
_cell_angle_beta 90.000000
_cell_angle_gamma 90.000000
_cell_volume 1657.869017
_symmetry_space_group_name_H-M "P -4 21 C"
_symmetry_group_IT_number 114
_symmetry_cell_setting 'tetragonal'
loop_
_space_group_symop_operation_xyz
x,y,z
y,-x,-z
-x,-y,z
-y,x,-z
1/2+x,1/2-y,1/2-z
1/2-x,1/2+y,1/2-z
1/2-y,1/2-x,1/2+z
1/2+y,1/2+x,1/2+z
loop_
_atom_site_type_symbol
_atom_site_label
_atom_site_fract_x
_atom_site_fract_y
_atom_site_fract_z
Si Si1 0.800995 0.383139 0.242039
Si Si2 0.644162 0.551187 0.972974
Si Si3 0.815880 0.514784 0.755615
Si Si4 0.925201 0.684567 0.904072
Si Si5 0.734930 0.740169 0.020383
O O1 0.773199 0.492902 0.289382
O O2 0.780585 0.362489 0.064179
O O3 0.735489 0.305669 0.335906
O O4 0.909516 0.357705 0.288226
O O5 0.704629 0.523761 0.819735
O O6 0.713133 0.627146 0.068135
O O7 0.611879 0.455634 0.069216
O O8 0.893469 0.579455 0.845306
O O9 0.819072 0.534692 0.575881
O O10 0.827218 0.749484 0.905758
#
# Coordination Sequence:
#
# PCOD8308909 Si02
#       5
#     8   8   8   8   8
#     4  12  24  44  71 102 147 186 248 302 368 436
#     4  10  21  40  68 101 141 190 243 293 357 442
#     4  11  24  44  72 108 145 193 247 299 376 436
#     4  11  26  45  70 105 146 187 244 309 365 441
#     4  11  24  43  69 103 139 193 240 296 369 435
#
# _framework density 24.127358000000001
#
# number of rings (size 3 to 8) (size 9 to 14) (size 15 to 20)
#    0.000    1.000    4.000    3.000    2.800    3.200 
#    0.000    0.000    0.000    0.600    0.000    0.000 
#    0.000    0.000    0.000    0.000    0.000    0.000 
#
# Total GULP energy -495555.008804 kJ/mol
# GULP energy per Si atom -12388.875220 kJ/mol
# Density = 2.407244 g / cm^3
# Si number density = 24.127358 Si / 1000 Ang^3
#
#
#
# Elastic Constant Matrix: (Units=GPa)
#
#
# Indices 1 2 3 4 5 6 
#
# 1 80.3077 11.7674 8.6093 0.0000 0.0000 0.0000
# 2 11.7674 80.3077 8.6093 0.0000 0.0000 0.0000
# 3 8.6093 8.6093 74.5771 0.0000 0.0000 0.0000
# 4 0.0000 0.0000 0.0000 39.5262 0.0000 0.0000
# 5 0.0000 0.0000 0.0000 0.0000 39.5262 0.0000
# 6 0.0000 0.0000 0.0000 0.0000 0.0000 31.7224
#
#
#
# Elastic Compliance Matrix: (Units=1/GPa)
#
#
# Indices 1 2 3 4 5 6 
#
# 1 0.012845 -0.001745 -0.001281 0.000000 0.000000 0.000000
# 2 -0.001745 0.012845 -0.001281 0.000000 0.000000 0.000000
# 3 -0.001281 -0.001281 0.013705 0.000000 0.000000 0.000000
# 4 0.000000 0.000000 0.000000 0.025300 0.000000 0.000000
# 5 0.000000 0.000000 0.000000 0.000000 0.025300 0.000000
# 6 0.000000 0.000000 0.000000 0.000000 0.000000 0.031523
#
#
# Mechanical properties :
#
#
# Convention : Reuss Voigt Hill
#
# Bulk Modulus (GPa) = 32.48894 32.57385 32.53139
# Shear Modulus (GPa) = 35.61428 35.90208 35.75818
#
# Velocity S-wave (km/s) = 3.84617 3.86168 3.85393
# Velocity P-wave (km/s) = 5.76358 5.78044 5.77202
#
# Compressibility (1/GPa) = 0.03077970
#
# Stress axis : x y z
#
# Youngs Moduli (GPa) = 77.85040 77.85040 72.96713
#
# Poissons Ratio (x) = 0.13583 0.09350
# Poissons Ratio (y) = 0.13583 0.09350
# Poissons Ratio (z) = 0.09976 0.09976
#
# Static dielectric constant tensor:
#      x y z
#    x 4.649870 0.000000 0.000000 
#    y 0.000000 4.649870 0.000000 
#    z 0.000000 0.000000 4.073790 
# 
# 
# High freq. dielectric constant tensor:
#      x y z
#    x 1.966270 0.000000 0.000000 
#    y 0.000000 1.966270 0.000000 
#    z 0.000000 0.000000 1.943460 
# 
# From -- ./inp_files/785.got.cif
#   From: 2010.03.12/outbox.cif.g09.slc.cpg/sg114_1_cif.got.tgz:785.got - 2010.04.14 02:08:34.
