data_PCOD8308957
_publ_section_title
;
Structure prediction by ZEFSAII (Michael W. Deem and Ramdas Pophale) SiO2 
 PCOD8308957
Probable space group: P -4 21 C
;
_chemical_formula_sum "Si O2"
_cell_formula_units_Z 40
_cell_length_a 10.382820
_cell_length_b 10.382820
_cell_length_c 18.238575
_cell_angle_alpha 90.000000
_cell_angle_beta 90.000000
_cell_angle_gamma 90.000000
_cell_volume 1966.172210
_symmetry_space_group_name_H-M "P -4 21 C"
_symmetry_group_IT_number 114
_symmetry_cell_setting 'tetragonal'
loop_
_space_group_symop_operation_xyz
x,y,z
y,-x,-z
-x,-y,z
-y,x,-z
1/2+x,1/2-y,1/2-z
1/2-x,1/2+y,1/2-z
1/2-y,1/2-x,1/2+z
1/2+y,1/2+x,1/2+z
loop_
_atom_site_type_symbol
_atom_site_label
_atom_site_fract_x
_atom_site_fract_y
_atom_site_fract_z
Si Si1 0.578175 0.680925 0.623545
Si Si2 0.797957 0.278159 0.016277
Si Si3 0.939389 0.370942 0.292916
Si Si4 0.531565 0.150644 0.053330
Si Si5 0.569678 0.702469 0.345569
O O1 0.598115 0.710068 0.537430
O O2 0.591418 0.806479 0.670969
O O3 0.690965 0.583423 0.646322
O O4 0.437187 0.629172 0.640404
O O5 0.764382 0.420571 0.986002
O O6 0.668831 0.192484 0.021236
O O7 0.866562 0.296681 0.094841
O O8 0.909069 0.259222 0.235109
O O9 0.000000 0.500000 0.255720
O O10 0.032488 0.321530 0.358827
O O11 0.500000 0.000000 0.038684
#
# Coordination Sequence:
#
# PCOD8308957 Si02
#       5
#     8   8   8   8   8
#     4  10  23  40  61  95 124 164 224 267 316 389
#     4  11  22  41  68  92 130 171 224 272 332 393
#     4  10  23  40  62  89 134 170 205 269 336 383
#     4  10  22  42  65  96 134 175 217 280 331 397
#     4  11  22  38  66  92 123 169 217 269 319 391
#
# _framework density 20.344097000000001
#
# number of rings (size 3 to 8) (size 9 to 14) (size 15 to 20)
#    0.000    1.600    0.000    6.000    5.600    4.400 
#    3.600    0.000    0.000    0.000    0.000    0.000 
#    0.000    0.000    0.000    0.000    0.000    0.000 
#
# Total GULP energy -495847.366523 kJ/mol
# GULP energy per Si atom -12396.184163 kJ/mol
# Density = 2.029779 g / cm^3
# Si number density = 20.344097 Si / 1000 Ang^3
#
#
#
# Elastic Constant Matrix: (Units=GPa)
#
#
# Indices 1 2 3 4 5 6 
#
# 1 92.4672 44.0140 55.6680 0.0000 0.0000 0.0000
# 2 44.0140 92.4672 55.6680 0.0000 0.0000 0.0000
# 3 55.6680 55.6680 126.2239 0.0000 0.0000 0.0000
# 4 0.0000 0.0000 0.0000 24.7927 0.0000 0.0000
# 5 0.0000 0.0000 0.0000 0.0000 24.7927 0.0000
# 6 0.0000 0.0000 0.0000 0.0000 0.0000 18.4895
#
#
#
# Elastic Compliance Matrix: (Units=1/GPa)
#
#
# Indices 1 2 3 4 5 6 
#
# 1 0.016041 -0.004597 -0.005047 0.000000 0.000000 0.000000
# 2 -0.004597 0.016041 -0.005047 0.000000 0.000000 0.000000
# 3 -0.005047 -0.005047 0.012374 0.000000 0.000000 0.000000
# 4 0.000000 0.000000 0.000000 0.040334 0.000000 0.000000
# 5 0.000000 0.000000 0.000000 0.000000 0.040334 0.000000
# 6 0.000000 0.000000 0.000000 0.000000 0.000000 0.054085
#
#
# Mechanical properties :
#
#
# Convention : Reuss Voigt Hill
#
# Bulk Modulus (GPa) = 66.33909 69.09538 67.71723
# Shear Modulus (GPa) = 23.40618 24.00220 23.70419
#
# Velocity S-wave (km/s) = 3.39560 3.43856 3.41715
# Velocity P-wave (km/s) = 6.93201 7.05706 6.99481
#
# Compressibility (1/GPa) = 0.01507407
#
# Stress axis : x y z
#
# Youngs Moduli (GPa) = 62.33861 62.33861 80.81213
#
# Poissons Ratio (x) = 0.28657 0.40788
# Poissons Ratio (y) = 0.28657 0.40788
# Poissons Ratio (z) = 0.31464 0.31464
#
# Static dielectric constant tensor:
#      x y z
#    x 3.843950 0.000000 0.000000 
#    y 0.000000 3.843950 0.000000 
#    z 0.000000 0.000000 3.957800 
# 
# 
# High freq. dielectric constant tensor:
#      x y z
#    x 1.795960 0.000000 0.000000 
#    y 0.000000 1.795960 0.000000 
#    z 0.000000 0.000000 1.791810 
# 
# From -- ./inp_files/2116.got.cif
#   From: 2010.03.12/outbox.cif.g09.slc.cpg/sg114_2_cif.got.tgz:2116.got - 2010.04.14 02:08:34.
