data_PCOD8308363
_publ_section_title
;
Structure prediction by ZEFSAII (Michael W. Deem and Ramdas Pophale) SiO2 
 PCOD8308363
Probable space group: P -4 2 C
;
_chemical_formula_sum "Si O2"
_cell_formula_units_Z 40
_cell_length_a 12.477986
_cell_length_b 12.477986
_cell_length_c 14.268788
_cell_angle_alpha 90.000000
_cell_angle_beta 90.000000
_cell_angle_gamma 90.000000
_cell_volume 2221.652212
_symmetry_space_group_name_H-M "P -4 2 C"
_symmetry_group_IT_number 112
_symmetry_cell_setting 'tetragonal'
loop_
_space_group_symop_operation_xyz
x,y,z
y,-x,-z
-x,-y,z
-y,x,-z
x,-y,1/2-z
-x,y,1/2-z
-y,-x,1/2+z
y,x,1/2+z
loop_
_atom_site_type_symbol
_atom_site_label
_atom_site_fract_x
_atom_site_fract_y
_atom_site_fract_z
Si Si1 0.223015 0.284813 0.396759
Si Si2 0.223015 0.284813 0.103241
Si Si3 0.379518 0.627661 0.250000
Si Si4 0.873126 0.875882 0.250000
Si Si5 0.500000 0.876841 0.646773
O O1 0.245612 0.245612 0.500000
O O2 0.329701 0.321326 0.343510
O O3 0.166163 0.187321 0.342123
O O4 0.150599 0.391136 0.407508
O O5 0.329701 0.321326 0.156490
O O6 0.166163 0.187321 0.157877
O O7 0.150599 0.391136 0.092492
O O8 0.371350 0.500000 0.250000
O O9 0.500000 0.667520 0.250000
O O10 0.000000 0.875277 0.250000
O O11 0.831260 0.000000 0.250000
O O12 0.500000 0.818529 0.750000
O O13 0.500000 0.000000 0.665811
#
# Coordination Sequence:
#
# PCOD8308363 Si02
#       5
#     8   8   8   8   8
#     4  11  22  37  59  90 121 151 196 241 293 350
#     4  11  22  37  59  90 121 151 196 241 293 350
#     4  10  20  36  57  83 120 155 188 235 289 345
#     4  10  22  41  62  84 115 155 197 245 295 345
#     4  11  20  38  64  87 112 153 201 248 290 339
#
# _framework density 18.004619000000002
#
# number of rings (size 3 to 8) (size 9 to 14) (size 15 to 20)
#    0.000    1.400    6.000    1.200    2.800    3.200 
#    0.000    4.000    0.000    2.400    0.000    0.000 
#    0.000    0.000    0.000    0.000    0.000    0.000 
#
# Total GULP energy -495838.956836 kJ/mol
# GULP energy per Si atom -12395.973921 kJ/mol
# Density = 1.796364 g / cm^3
# Si number density = 18.004619 Si / 1000 Ang^3
#
#
#
# Elastic Constant Matrix: (Units=GPa)
#
#
# Indices 1 2 3 4 5 6 
#
# 1 131.8806 48.3927 54.9970 0.0000 0.0000 0.0000
# 2 48.3927 131.8806 54.9970 0.0000 0.0000 0.0000
# 3 54.9970 54.9970 158.1148 0.0000 0.0000 0.0000
# 4 0.0000 0.0000 0.0000 19.7688 0.0000 0.0000
# 5 0.0000 0.0000 0.0000 0.0000 19.7688 0.0000
# 6 0.0000 0.0000 0.0000 0.0000 0.0000 28.1978
#
#
#
# Elastic Compliance Matrix: (Units=1/GPa)
#
#
# Indices 1 2 3 4 5 6 
#
# 1 0.009510 -0.002468 -0.002449 0.000000 0.000000 0.000000
# 2 -0.002468 0.009510 -0.002449 0.000000 0.000000 0.000000
# 3 -0.002449 -0.002449 0.008028 0.000000 0.000000 0.000000
# 4 0.000000 0.000000 0.000000 0.050585 0.000000 0.000000
# 5 0.000000 0.000000 0.000000 0.000000 0.050585 0.000000
# 6 0.000000 0.000000 0.000000 0.000000 0.000000 0.035464
#
#
# Mechanical properties :
#
#
# Convention : Reuss Voigt Hill
#
# Bulk Modulus (GPa) = 81.20552 82.07216 81.63884
# Shear Modulus (GPa) = 27.39443 31.11306 29.25374
#
# Velocity S-wave (km/s) = 3.90490 4.16150 4.03524
# Velocity P-wave (km/s) = 8.09515 8.29299 8.19467
#
# Compressibility (1/GPa) = 0.01231443
#
# Stress axis : x y z
#
# Youngs Moduli (GPa) = 105.15621 105.15621 124.55834
#
# Poissons Ratio (x) = 0.25954 0.30508
# Poissons Ratio (y) = 0.25954 0.30508
# Poissons Ratio (z) = 0.25755 0.25755
#
# Static dielectric constant tensor:
#      x y z
#    x 3.679560 0.000000 0.000000 
#    y 0.000000 3.679560 0.000000 
#    z 0.000000 0.000000 3.212790 
# 
# 
# High freq. dielectric constant tensor:
#      x y z
#    x 1.708630 0.000000 0.000000 
#    y 0.000000 1.708630 0.000000 
#    z 0.000000 0.000000 1.682820 
# 
# From -- ./inp_files/3278.got.cif
#   From: 2010.03.12/outbox.cif.g09.slc.cpg/sg112_2_cif.got.tgz:3278.got - 2010.04.14 02:02:48.
