data_PCOD8308744
_publ_section_title
;
Structure prediction by ZEFSAII (Michael W. Deem and Ramdas Pophale) SiO2 
 PCOD8308744
Probable space group: P -4 21 M 
;
_chemical_formula_sum "Si O2"
_cell_formula_units_Z 32
_cell_length_a 10.216461
_cell_length_b 10.216461
_cell_length_c 14.021150
_cell_angle_alpha 90.000000
_cell_angle_beta 90.000000
_cell_angle_gamma 90.000000
_cell_volume 1463.472609
_symmetry_space_group_name_H-M "P -4 21 M "
_symmetry_group_IT_number 113
_symmetry_cell_setting 'tetragonal'
loop_
_space_group_symop_operation_xyz
x,y,z
y,-x,-z
-x,-y,z
-y,x,-z
1/2+x,1/2-y,-z
1/2-x,1/2+y,-z
1/2-y,1/2-x,z
1/2+y,1/2+x,z
loop_
_atom_site_type_symbol
_atom_site_label
_atom_site_fract_x
_atom_site_fract_y
_atom_site_fract_z
Si Si1 0.881633 0.159198 0.540206
Si Si2 0.880822 0.162528 0.757365
Si Si3 0.788262 0.490547 0.131048
Si Si4 0.211429 0.491814 0.922893
O O1 0.774936 0.274936 0.520810
O O2 0.930556 0.156208 0.649524
O O3 0.016654 0.182428 0.482064
O O4 0.774641 0.274641 0.767691
O O5 0.815857 0.024347 0.786772
O O6 0.995889 0.189120 0.833832
O O7 0.900093 0.599908 0.122517
O O8 0.852208 0.352208 0.159410
O O9 0.719830 0.484104 0.026108
O O10 0.154822 0.345179 0.916519
O O11 0.095198 0.595198 0.912511
#
# Coordination Sequence:
#
# PCOD8308744 Si02
#       4
#     8   8   8   8
#     4  10  23  43  64  88 120 156 200 257 311 358
#     4   9  17  31  53  79 108 145 187 231 284 345
#     4   8  14  26  46  75 111 145 177 219 272 335
#     4   8  14  26  46  75 111 145 177 219 272 335
#
# _framework density 21.8658
#
# number of rings (size 3 to 8) (size 9 to 14) (size 15 to 20)
#    0.000    3.250    0.000    1.500    0.000    2.500 
#    0.000   10.000    0.000    3.000    0.000    0.000 
#    0.000    0.000    0.000    0.000    0.000    0.000 
#
# Total GULP energy -396420.888793 kJ/mol
# GULP energy per Si atom -12388.152775 kJ/mol
# Density = 2.181603 g / cm^3
# Si number density = 21.865800 Si / 1000 Ang^3
#
#
#
# Elastic Constant Matrix: (Units=GPa)
#
#
# Indices 1 2 3 4 5 6 
#
# 1 35.6380 9.5571 -0.1330 0.0000 0.0000 0.0000
# 2 9.5571 35.6384 -0.1329 0.0000 0.0000 0.0000
# 3 -0.1330 -0.1329 84.1918 0.0000 0.0000 0.0000
# 4 0.0000 0.0000 0.0000 16.7739 0.0000 0.0000
# 5 0.0000 0.0000 0.0000 0.0000 16.7751 0.0000
# 6 0.0000 0.0000 0.0000 0.0000 0.0000 34.8383
#
#
#
# Elastic Compliance Matrix: (Units=1/GPa)
#
#
# Indices 1 2 3 4 5 6 
#
# 1 0.030234 -0.008108 0.000035 0.000000 0.000000 0.000000
# 2 -0.008108 0.030234 0.000035 0.000000 0.000000 0.000000
# 3 0.000035 0.000035 0.011878 0.000000 0.000000 0.000000
# 4 0.000000 0.000000 0.000000 0.059616 0.000000 0.000000
# 5 0.000000 0.000000 0.000000 0.000000 0.059612 0.000000
# 6 0.000000 0.000000 0.000000 0.000000 0.000000 0.028704
#
#
# Mechanical properties :
#
#
# Convention : Reuss Voigt Hill
#
# Bulk Modulus (GPa) = 17.77135 19.33894 18.55514
# Shear Modulus (GPa) = 19.59929 23.42260 21.51095
#
# Velocity S-wave (km/s) = 2.99715 3.27647 3.13992
# Velocity P-wave (km/s) = 4.48579 4.81427 4.65293
#
# Compressibility (1/GPa) = 0.05627035
#
# Stress axis : x y z
#
# Youngs Moduli (GPa) = 33.07499 33.07532 84.19101
#
# Poissons Ratio (x) = 0.26817 -0.00294
# Poissons Ratio (y) = 0.26816 -0.00294
# Poissons Ratio (z) = -0.00116 -0.00116
#
# Static dielectric constant tensor:
#      x y z
#    x 3.901770 0.000000 0.000000 
#    y 0.000000 3.901770 0.000000 
#    z 0.000000 0.000000 4.180640 
# 
# 
# High freq. dielectric constant tensor:
#      x y z
#    x 1.846730 0.000000 0.000000 
#    y 0.000000 1.846730 0.000000 
#    z 0.000000 0.000000 1.854640 
# 
# From -- ./inp_files/1532.got.cif
#   From: 2010.03.12/outbox.cif.g09.slc.cpg/sg113_cif.got.tgz:1532.got - 2010.04.14 02:06:34.
