data_PCOD8308691
_publ_section_title
;
Structure prediction by ZEFSAII (Michael W. Deem and Ramdas Pophale) SiO2 
 PCOD8308691
Probable space group: P -4 21 M 
;
_chemical_formula_sum "Si O2"
_cell_formula_units_Z 56
_cell_length_a 12.429438
_cell_length_b 12.429438
_cell_length_c 20.256556
_cell_angle_alpha 90.000000
_cell_angle_beta 90.000000
_cell_angle_gamma 90.000000
_cell_volume 3129.454155
_symmetry_space_group_name_H-M "P -4 21 M "
_symmetry_group_IT_number 113
_symmetry_cell_setting 'tetragonal'
loop_
_space_group_symop_operation_xyz
x,y,z
y,-x,-z
-x,-y,z
-y,x,-z
1/2+x,1/2-y,-z
1/2-x,1/2+y,-z
1/2-y,1/2-x,z
1/2+y,1/2+x,z
loop_
_atom_site_type_symbol
_atom_site_label
_atom_site_fract_x
_atom_site_fract_y
_atom_site_fract_z
Si Si1 0.217844 0.888591 0.045103
Si Si2 0.397022 0.574892 0.784714
Si Si3 0.002105 0.323135 0.838422
Si Si4 0.828131 0.503543 0.583469
Si Si5 0.339252 0.459715 0.479521
Si Si6 0.993140 0.874150 0.084248
Si Si7 0.828253 0.849885 0.351037
O O1 0.287939 0.787939 0.025841
O O2 0.118645 0.841482 0.088850
O O3 0.284701 0.977083 0.086598
O O4 0.184954 0.938559 0.975996
O O5 0.500000 0.500000 0.773380
O O6 0.284226 0.510574 0.794103
O O7 0.424901 0.648584 0.848873
O O8 0.384379 0.647428 0.720088
O O9 0.892690 0.392690 0.835657
O O10 0.103566 0.396435 0.813887
O O11 0.904973 0.404973 0.564293
O O12 0.775520 0.544961 0.515512
O O13 0.736934 0.461240 0.634383
O O14 0.898474 0.601527 0.614826
O O15 0.382984 0.581254 0.478750
O O16 0.330447 0.421140 0.404459
O O17 0.000000 0.000000 0.069029
O O18 0.750180 0.749821 0.353438
#
# Coordination Sequence:
#
# PCOD8308691 Si02
#       7
#     8   8   8   8   8   8   8
#     4  11  20  33  58  82 107 142 183 237 285 327
#     4  11  22  35  56  76 111 154 189 225 265 338
#     4  10  21  37  57  85 117 146 183 237 293 332
#     4   9  18  33  54  80 109 139 173 219 276 328
#     4   9  18  32  54  79 106 139 176 226 270 317
#     4  11  19  37  52  78 110 140 184 226 273 332
#     4  10  21  34  53  80 109 141 181 222 267 322
#
# _framework density 17.894494000000002
#
# number of rings (size 3 to 8) (size 9 to 14) (size 15 to 20)
#    0.000    1.857    4.286    0.857    4.000    4.000 
#    0.000    1.429    0.000    0.857    0.000    0.000 
#    0.000    1.714    0.000    0.000    0.000    0.000 
#
# Total GULP energy -694025.507219 kJ/mol
# GULP energy per Si atom -12393.312629 kJ/mol
# Density = 1.785377 g / cm^3
# Si number density = 17.894494 Si / 1000 Ang^3
#
#
#
# Elastic Constant Matrix: (Units=GPa)
#
#
# Indices 1 2 3 4 5 6 
#
# 1 85.8713 31.3235 37.5156 0.0000 0.0000 0.0000
# 2 31.3235 85.8703 37.5151 0.0000 0.0000 0.0000
# 3 37.5156 37.5151 101.5041 0.0000 0.0000 0.0000
# 4 0.0000 0.0000 0.0000 21.2393 0.0000 0.0000
# 5 0.0000 0.0000 0.0000 0.0000 21.2394 0.0000
# 6 0.0000 0.0000 0.0000 0.0000 0.0000 22.0319
#
#
#
# Elastic Compliance Matrix: (Units=1/GPa)
#
#
# Indices 1 2 3 4 5 6 
#
# 1 0.014755 -0.003577 -0.004131 0.000000 0.000000 0.000000
# 2 -0.003577 0.014755 -0.004131 0.000000 0.000000 0.000000
# 3 -0.004131 -0.004131 0.012906 0.000000 0.000000 0.000000
# 4 0.000000 0.000000 0.000000 0.047083 0.000000 0.000000
# 5 0.000000 0.000000 0.000000 0.000000 0.047082 0.000000
# 6 0.000000 0.000000 0.000000 0.000000 0.000000 0.045389
#
#
# Mechanical properties :
#
#
# Convention : Reuss Voigt Hill
#
# Bulk Modulus (GPa) = 53.37274 53.99488 53.68381
# Shear Modulus (GPa) = 23.59661 24.02823 23.81242
#
# Velocity S-wave (km/s) = 3.63526 3.66836 3.65185
# Velocity P-wave (km/s) = 6.89284 6.94133 6.91713
#
# Compressibility (1/GPa) = 0.01873616
#
# Stress axis : x y z
#
# Youngs Moduli (GPa) = 67.77294 67.77225 77.48585
#
# Poissons Ratio (x) = 0.24245 0.32011
# Poissons Ratio (y) = 0.24246 0.32011
# Poissons Ratio (z) = 0.27999 0.27998
#
# Static dielectric constant tensor:
#      x y z
#    x 3.033200 0.000000 0.000000 
#    y 0.000000 3.033240 0.000000 
#    z 0.000000 0.000000 3.364500 
# 
# 
# High freq. dielectric constant tensor:
#      x y z
#    x 1.688070 0.000000 0.000000 
#    y 0.000000 1.688070 0.000000 
#    z 0.000000 0.000000 1.684530 
# 
# From -- ./inp_files/2723.got.cif
#   From: 2010.03.12/outbox.cif.g09.slc.cpg/sg113_cif.got.tgz:2723.got - 2010.04.14 02:06:34.
