data_PCOD8308838
_publ_section_title
;
Structure prediction by ZEFSAII (Michael W. Deem and Ramdas Pophale) SiO2 
 PCOD8308838
Probable space group: P -4 21 C
;
_chemical_formula_sum "Si O2"
_cell_formula_units_Z 40
_cell_length_a 21.026659
_cell_length_b 21.026659
_cell_length_c 5.273799
_cell_angle_alpha 90.000000
_cell_angle_beta 90.000000
_cell_angle_gamma 90.000000
_cell_volume 2331.654064
_symmetry_space_group_name_H-M "P -4 21 C"
_symmetry_group_IT_number 114
_symmetry_cell_setting 'tetragonal'
loop_
_space_group_symop_operation_xyz
x,y,z
y,-x,-z
-x,-y,z
-y,x,-z
1/2+x,1/2-y,1/2-z
1/2-x,1/2+y,1/2-z
1/2-y,1/2-x,1/2+z
1/2+y,1/2+x,1/2+z
loop_
_atom_site_type_symbol
_atom_site_label
_atom_site_fract_x
_atom_site_fract_y
_atom_site_fract_z
Si Si1 0.101937 1.000000 0.499999
Si Si2 0.224354 0.033242 0.253335
Si Si3 0.221306 0.327855 0.748840
Si Si4 0.466761 0.724355 0.246661
Si Si5 0.172148 0.721309 0.751162
O O1 0.147513 0.024277 0.271278
O O2 0.147514 0.975723 0.728717
O O3 0.058074 0.058073 0.597775
O O4 0.256777 0.000001 0.499997
O O5 0.240917 0.106760 0.247645
O O6 0.250357 0.000002 0.999997
O O7 0.177207 0.322639 0.499090
O O8 0.259079 0.393244 0.747643
O O9 0.271981 0.271984 0.749258
O O10 0.177211 0.677363 0.500914
#
# Coordination Sequence:
#
# PCOD8308838 Si02
#       5
#     8   8   8   8   8
#     4   9  20  34  50  74 108 152 189 216 250 306
#     4  10  21  35  53  76 109 143 184 221 271 313
#     4  10  20  34  54  78 106 142 185 231 279 325
#     4  10  21  35  53  76 109 143 184 221 271 313
#     4  10  20  34  54  78 106 142 185 231 279 325
#
# _framework density 17.155204000000001
#
# number of rings (size 3 to 8) (size 9 to 14) (size 15 to 20)
#    1.200    1.000    0.000    3.600    0.000    3.200 
#    0.000    2.000    0.000    0.000    0.000    0.000 
#    0.000   56.000    0.000    0.000    0.000    0.000 
#
# Total GULP energy -495682.081562 kJ/mol
# GULP energy per Si atom -12392.052039 kJ/mol
# Density = 1.711616 g / cm^3
# Si number density = 17.155204 Si / 1000 Ang^3
#
#
#
# Elastic Constant Matrix: (Units=GPa)
#
#
# Indices 1 2 3 4 5 6 
#
# 1 74.9842 24.0335 39.4944 0.0000 0.0000 0.0000
# 2 24.0335 74.9842 39.4944 0.0000 0.0000 0.0000
# 3 39.4944 39.4944 155.2064 0.0000 0.0000 0.0000
# 4 0.0000 0.0000 0.0000 16.1693 0.0000 0.0000
# 5 0.0000 0.0000 0.0000 0.0000 16.1693 0.0000
# 6 0.0000 0.0000 0.0000 0.0000 0.0000 34.6772
#
#
#
# Elastic Compliance Matrix: (Units=1/GPa)
#
#
# Indices 1 2 3 4 5 6 
#
# 1 0.016149 -0.003478 -0.003224 0.000000 0.000000 0.000000
# 2 -0.003478 0.016149 -0.003224 0.000000 0.000000 0.000000
# 3 -0.003224 -0.003224 0.008084 0.000000 0.000000 0.000000
# 4 0.000000 0.000000 0.000000 0.061846 0.000000 0.000000
# 5 0.000000 0.000000 0.000000 0.000000 0.061846 0.000000
# 6 0.000000 0.000000 0.000000 0.000000 0.000000 0.028837
#
#
# Mechanical properties :
#
#
# Convention : Reuss Voigt Hill
#
# Bulk Modulus (GPa) = 48.71116 56.80216 52.75666
# Shear Modulus (GPa) = 22.76792 26.87997 24.82394
#
# Velocity S-wave (km/s) = 3.64699 3.96266 3.80810
# Velocity P-wave (km/s) = 6.79633 7.35660 7.08201
#
# Compressibility (1/GPa) = 0.02052918
#
# Stress axis : x y z
#
# Youngs Moduli (GPa) = 61.92295 61.92295 123.70069
#
# Poissons Ratio (x) = 0.21535 0.39886
# Poissons Ratio (y) = 0.21535 0.39886
# Poissons Ratio (z) = 0.19967 0.19967
#
# Static dielectric constant tensor:
#      x y z
#    x 2.977600 0.000000 0.000000 
#    y 0.000000 2.977600 0.000000 
#    z 0.000000 0.000000 3.571480 
# 
# 
# High freq. dielectric constant tensor:
#      x y z
#    x 1.639740 0.000000 0.000000 
#    y 0.000000 1.639740 0.000000 
#    z 0.000000 0.000000 1.672690 
# 
# From -- ./inp_files/191.got.cif
#   From: 2010.03.12/outbox.cif.g09.slc.cpg/sg114_1_cif.got.tgz:191.got - 2010.04.14 02:08:34.
