data_PCOD8308777
_publ_section_title
;
Structure prediction by ZEFSAII (Michael W. Deem and Ramdas Pophale) SiO2 
 PCOD8308777
Probable space group: P -4 21 M 
;
_chemical_formula_sum "Si O2"
_cell_formula_units_Z 24
_cell_length_a 11.451968
_cell_length_b 11.451968
_cell_length_c 7.551667
_cell_angle_alpha 90.000000
_cell_angle_beta 90.000000
_cell_angle_gamma 90.000000
_cell_volume 990.382785
_symmetry_space_group_name_H-M "P -4 21 M "
_symmetry_group_IT_number 113
_symmetry_cell_setting 'tetragonal'
loop_
_space_group_symop_operation_xyz
x,y,z
y,-x,-z
-x,-y,z
-y,x,-z
1/2+x,1/2-y,-z
1/2-x,1/2+y,-z
1/2-y,1/2-x,z
1/2+y,1/2+x,z
loop_
_atom_site_type_symbol
_atom_site_label
_atom_site_fract_x
_atom_site_fract_y
_atom_site_fract_z
Si Si1 0.407544 0.092457 0.858140
Si Si2 0.850486 0.987379 0.395704
Si Si3 0.449326 0.356530 0.903838
Si Si4 0.407474 0.092527 0.440865
O O1 0.440328 0.219479 0.927216
O O2 0.409690 0.090311 0.649580
O O3 0.500000 0.000000 0.937019
O O4 0.870782 0.089344 0.251361
O O5 0.877324 0.057135 0.587247
O O6 0.719974 0.942507 0.374363
O O7 0.398577 0.413537 0.092599
O O8 0.500000 0.000000 0.362880
#
# Coordination Sequence:
#
# PCOD8308777 Si02
#       4
#     4   8   8   4
#     4  11  26  49  75 115 148 192 249 314 371 437
#     4  11  23  45  74 104 145 196 249 304 367 436
#     4  11  25  46  73 109 149 200 244 298 375 451
#     4  11  26  43  77 113 146 186 249 320 367 419
#
# _framework density 24.233053000000002
#
# number of rings (size 3 to 8) (size 9 to 14) (size 15 to 20)
#    0.000    1.000    3.333    4.000    7.000    1.333 
#    0.000    1.667    0.000    0.000    0.000    0.000 
#    0.000    0.000    0.000    0.000    0.000    0.000 
#
# Total GULP energy -297316.838934 kJ/mol
# GULP energy per Si atom -12388.201622 kJ/mol
# Density = 2.417790 g / cm^3
# Si number density = 24.233053 Si / 1000 Ang^3
#
#
#
# Elastic Constant Matrix: (Units=GPa)
#
#
# Indices 1 2 3 4 5 6 
#
# 1 225.6964 125.5008 15.6601 0.0000 0.0000 0.0000
# 2 125.5008 225.6998 15.6602 0.0000 0.0000 0.0000
# 3 15.6601 15.6602 47.7813 0.0000 0.0000 0.0000
# 4 0.0000 0.0000 0.0000 27.3014 0.0000 0.0000
# 5 0.0000 0.0000 0.0000 0.0000 27.3016 0.0000
# 6 0.0000 0.0000 0.0000 0.0000 0.0000 34.5068
#
#
#
# Elastic Compliance Matrix: (Units=1/GPa)
#
#
# Indices 1 2 3 4 5 6 
#
# 1 0.006457 -0.003524 -0.000961 0.000000 0.000000 0.000000
# 2 -0.003524 0.006457 -0.000961 0.000000 0.000000 0.000000
# 3 -0.000961 -0.000961 0.021559 0.000000 0.000000 0.000000
# 4 0.000000 0.000000 0.000000 0.036628 0.000000 0.000000
# 5 0.000000 0.000000 0.000000 0.000000 0.036628 0.000000
# 6 0.000000 0.000000 0.000000 0.000000 0.000000 0.028980
#
#
# Mechanical properties :
#
#
# Convention : Reuss Voigt Hill
#
# Bulk Modulus (GPa) = 42.40922 90.31332 66.36127
# Shear Modulus (GPa) = 32.16250 40.64571 36.40410
#
# Velocity S-wave (km/s) = 3.64705 4.09991 3.88009
# Velocity P-wave (km/s) = 5.93912 7.73058 6.89330
#
# Compressibility (1/GPa) = 0.02357978
#
# Stress axis : x y z
#
# Youngs Moduli (GPa) = 154.87634 154.87868 46.38472
#
# Poissons Ratio (x) = 0.54573 0.04459
# Poissons Ratio (y) = 0.54572 0.04459
# Poissons Ratio (z) = 0.14889 0.14889
#
# Static dielectric constant tensor:
#      x y z
#    x 4.519430 0.000000 0.000000 
#    y 0.000000 4.519430 0.000000 
#    z 0.000000 0.000000 5.179930 
# 
# 
# High freq. dielectric constant tensor:
#      x y z
#    x 1.953670 0.000000 0.000000 
#    y 0.000000 1.953670 0.000000 
#    z 0.000000 0.000000 1.993300 
# 
# From -- ./inp_files/718.got.cif
#   From: 2010.03.12/outbox.cif.g09.slc.cpg/sg113_cif.got.tgz:718.got - 2010.04.14 02:06:34.
