data_PCOD8308750
_publ_section_title
;
Structure prediction by ZEFSAII (Michael W. Deem and Ramdas Pophale) SiO2 
 PCOD8308750
Probable space group: P -4 21 M 
;
_chemical_formula_sum "Si O2"
_cell_formula_units_Z 40
_cell_length_a 12.642479
_cell_length_b 12.642479
_cell_length_c 12.456143
_cell_angle_alpha 90.000000
_cell_angle_beta 90.000000
_cell_angle_gamma 90.000000
_cell_volume 1990.893677
_symmetry_space_group_name_H-M "P -4 21 M "
_symmetry_group_IT_number 113
_symmetry_cell_setting 'tetragonal'
loop_
_space_group_symop_operation_xyz
x,y,z
y,-x,-z
-x,-y,z
-y,x,-z
1/2+x,1/2-y,-z
1/2-x,1/2+y,-z
1/2-y,1/2-x,z
1/2+y,1/2+x,z
loop_
_atom_site_type_symbol
_atom_site_label
_atom_site_fract_x
_atom_site_fract_y
_atom_site_fract_z
Si Si1 0.626360 0.527463 0.737623
Si Si2 0.727980 0.394971 0.918878
Si Si3 0.223945 0.444387 0.094485
Si Si4 0.022673 0.830382 0.515885
Si Si5 0.758439 0.430588 0.299767
O O1 0.500000 0.500000 0.729977
O O2 0.685283 0.488144 0.843249
O O3 0.696583 0.471753 0.642570
O O4 0.635808 0.653657 0.730199
O O5 0.824828 0.324828 0.870138
O O6 0.630170 0.318930 0.944237
O O7 0.769100 0.446841 0.028896
O O8 0.111734 0.388267 0.072806
O O9 0.235197 0.467765 0.221756
O O10 0.117432 0.908970 0.493456
O O11 0.032385 0.738809 0.425711
O O12 0.859729 0.359729 0.277713
#
# Coordination Sequence:
#
# PCOD8308750 Si02
#       5
#     8   8   8   8   8
#     4  11  19  38  65  85 121 159 201 253 309 354
#     4  11  24  38  60  91 119 159 212 256 304 368
#     4  11  24  42  62  88 125 165 207 257 309 368
#     4   9  15  32  58  83 110 152 195 243 296 351
#     4  11  22  36  60  94 122 159 208 250 304 374
#
# _framework density 20.091480000000001
#
# number of rings (size 3 to 8) (size 9 to 14) (size 15 to 20)
#    0.000    1.400    6.000    1.800    0.000    4.800 
#    0.000    6.000    0.000    0.000    0.000    2.800 
#    0.000    0.000    0.000    0.000    0.000    0.000 
#
# Total GULP energy -495620.992264 kJ/mol
# GULP energy per Si atom -12390.524807 kJ/mol
# Density = 2.004575 g / cm^3
# Si number density = 20.091480 Si / 1000 Ang^3
#
#
#
# Elastic Constant Matrix: (Units=GPa)
#
#
# Indices 1 2 3 4 5 6 
#
# 1 65.3122 39.5802 34.7785 0.0000 0.0000 0.0000
# 2 39.5802 65.3112 34.7782 0.0000 0.0000 0.0000
# 3 34.7785 34.7782 110.1037 0.0000 0.0000 0.0000
# 4 0.0000 0.0000 0.0000 23.1119 0.0000 0.0000
# 5 0.0000 0.0000 0.0000 0.0000 23.1128 0.0000
# 6 0.0000 0.0000 0.0000 0.0000 0.0000 34.1684
#
#
#
# Elastic Compliance Matrix: (Units=1/GPa)
#
#
# Indices 1 2 3 4 5 6 
#
# 1 0.025461 -0.013402 -0.003809 0.000000 0.000000 0.000000
# 2 -0.013402 0.025462 -0.003809 0.000000 0.000000 0.000000
# 3 -0.003809 -0.003809 0.011489 0.000000 0.000000 0.000000
# 4 0.000000 0.000000 0.000000 0.043268 0.000000 0.000000
# 5 0.000000 0.000000 0.000000 0.000000 0.043266 0.000000
# 6 0.000000 0.000000 0.000000 0.000000 0.000000 0.029267
#
#
# Mechanical properties :
#
#
# Convention : Reuss Voigt Hill
#
# Bulk Modulus (GPa) = 49.08932 51.00011 50.04471
# Shear Modulus (GPa) = 22.02228 24.85130 23.43679
#
# Velocity S-wave (km/s) = 3.31433 3.52079 3.41912
# Velocity P-wave (km/s) = 6.25559 6.47819 6.36786
#
# Compressibility (1/GPa) = 0.02037103
#
# Stress axis : x y z
#
# Youngs Moduli (GPa) = 39.27559 39.27495 87.04121
#
# Poissons Ratio (x) = 0.52635 0.33156
# Poissons Ratio (y) = 0.52636 0.33157
# Poissons Ratio (z) = 0.14961 0.14961
#
# Static dielectric constant tensor:
#      x y z
#    x 3.445770 0.000000 0.000000 
#    y 0.000000 3.445780 0.000000 
#    z 0.000000 0.000000 3.872990 
# 
# 
# High freq. dielectric constant tensor:
#      x y z
#    x 1.761260 0.000000 0.000000 
#    y 0.000000 1.761260 0.000000 
#    z 0.000000 0.000000 1.798660 
# 
# From -- ./inp_files/2192.got.cif
#   From: 2010.03.12/outbox.cif.g09.slc.cpg/sg113_cif.got.tgz:2192.got - 2010.04.14 02:06:34.
