data_PCOD8308712
_publ_section_title
;
Structure prediction by ZEFSAII (Michael W. Deem and Ramdas Pophale) SiO2 
 PCOD8308712
Probable space group: P -4 21 M 
;
_chemical_formula_sum "Si O2"
_cell_formula_units_Z 48
_cell_length_a 11.380203
_cell_length_b 11.380203
_cell_length_c 17.909489
_cell_angle_alpha 90.000000
_cell_angle_beta 90.000000
_cell_angle_gamma 90.000000
_cell_volume 2319.440375
_symmetry_space_group_name_H-M "P -4 21 M "
_symmetry_group_IT_number 113
_symmetry_cell_setting 'tetragonal'
loop_
_space_group_symop_operation_xyz
x,y,z
y,-x,-z
-x,-y,z
-y,x,-z
1/2+x,1/2-y,-z
1/2-x,1/2+y,-z
1/2-y,1/2-x,z
1/2+y,1/2+x,z
loop_
_atom_site_type_symbol
_atom_site_label
_atom_site_fract_x
_atom_site_fract_y
_atom_site_fract_z
Si Si1 0.662461 0.653647 0.927033
Si Si2 0.392591 0.293736 0.091214
Si Si3 0.725149 0.039730 0.664614
Si Si4 0.206265 0.107409 0.408786
Si Si5 0.225149 0.460270 0.164614
Si Si6 0.337540 0.346353 0.572966
O O1 0.788722 0.711279 0.923149
O O2 0.688463 0.528711 0.888203
O O3 0.570325 0.739059 0.885753
O O4 0.626468 0.638579 0.013105
O O5 0.341256 0.158745 0.086142
O O6 0.323931 0.360624 0.156362
O O7 0.598916 0.098916 0.641171
O O8 0.823929 0.139378 0.656362
O O9 0.719223 0.997835 0.750000
O O10 0.760942 0.929676 0.614246
O O11 0.341258 0.158743 0.413858
O O12 0.138580 0.126469 0.486895
O O13 0.188462 0.971289 0.388204
O O14 0.098918 0.401083 0.141172
O O15 0.211279 0.288721 0.576852
#
# Coordination Sequence:
#
# PCOD8308712 Si02
#       6
#     8   8   8   8   8   8
#     4  11  22  36  59  88 120 161 203 246 305 368
#     4  10  21  37  58  87 121 158 203 250 300 365
#     4  10  22  40  62  89 120 157 202 252 305 361
#     4  10  21  37  58  87 121 158 203 250 300 365
#     4  10  22  40  62  89 120 157 202 252 305 361
#     4  11  22  36  59  88 120 161 203 246 305 368
#
# _framework density 20.694648000000001
#
# number of rings (size 3 to 8) (size 9 to 14) (size 15 to 20)
#    0.000    1.667    3.333    1.000    0.000    4.667 
#    0.000    5.000    0.000    0.000    0.000    7.000 
#    0.000    0.000    0.000    0.000    0.000    0.000 
#
# Total GULP energy -594679.217830 kJ/mol
# GULP energy per Si atom -12389.150371 kJ/mol
# Density = 2.064755 g / cm^3
# Si number density = 20.694648 Si / 1000 Ang^3
#
#
#
# Elastic Constant Matrix: (Units=GPa)
#
#
# Indices 1 2 3 4 5 6 
#
# 1 54.7596 65.4135 8.6006 0.0000 0.0000 0.0000
# 2 65.4135 54.7626 8.6021 0.0000 0.0000 0.0000
# 3 8.6006 8.6021 50.4268 0.0000 0.0000 0.0000
# 4 0.0000 0.0000 0.0000 11.0792 0.0000 0.0000
# 5 0.0000 0.0000 0.0000 0.0000 11.0797 0.0000
# 6 0.0000 0.0000 0.0000 0.0000 0.0000 33.0000
#
#
#
# Elastic Compliance Matrix: (Units=1/GPa)
#
#
# Indices 1 2 3 4 5 6 
#
# 1 -0.042674 0.051203 -0.001456 0.000000 0.000000 0.000000
# 2 0.051203 -0.042672 -0.001454 0.000000 0.000000 0.000000
# 3 -0.001456 -0.001454 0.020327 0.000000 0.000000 0.000000
# 4 0.000000 0.000000 0.000000 0.090259 0.000000 0.000000
# 5 0.000000 0.000000 0.000000 0.000000 0.090255 0.000000
# 6 0.000000 0.000000 0.000000 0.000000 0.000000 0.030303
#
#
# Mechanical properties :
#
#
# Convention : Reuss Voigt Hill
#
# Bulk Modulus (GPa) = 31.67916 36.13126 33.90521
# Shear Modulus (GPa) = 83.70245 16.18729 49.94487
#
# Velocity S-wave (km/s) = 6.36665 2.79981 4.91799
# Velocity P-wave (km/s) = 8.32987 5.28669 6.97624
#
# Compressibility (1/GPa) = 0.03156650
#
# Stress axis : x y z
#
# Youngs Moduli (GPa) = -23.43347 -23.43454 49.19550
#
# Poissons Ratio (x) = 1.19991 0.07164
# Poissons Ratio (y) = 1.19985 0.07151
# Poissons Ratio (z) = -0.03412 -0.03407
#
# Static dielectric constant tensor:
#      x y z
#    x 3.780640 0.000000 0.000000 
#    y 0.000000 3.780630 0.000000 
#    z 0.000000 0.000000 3.489300 
# 
# 
# High freq. dielectric constant tensor:
#      x y z
#    x 1.811400 0.000000 0.000000 
#    y 0.000000 1.811400 0.000000 
#    z 0.000000 0.000000 1.788000 
# 
# From -- ./inp_files/2500.got.cif
#   From: 2010.03.12/outbox.cif.g09.slc.cpg/sg113_cif.got.tgz:2500.got - 2010.04.14 02:06:34.
