data_PCOD8308189
_publ_section_title
;
Structure prediction by ZEFSAII (Michael W. Deem and Ramdas Pophale) SiO2 
 PCOD8308189
Probable space group: P -4 2 M 
;
_chemical_formula_sum "Si O2"
_cell_formula_units_Z 40
_cell_length_a 20.229370
_cell_length_b 20.229370
_cell_length_c 4.947187
_cell_angle_alpha 90.000000
_cell_angle_beta 90.000000
_cell_angle_gamma 90.000000
_cell_volume 2024.524526
_symmetry_space_group_name_H-M "P -4 2 M "
_symmetry_group_IT_number 111
_symmetry_cell_setting 'tetragonal'
loop_
_space_group_symop_operation_xyz
x,y,z
y,-x,-z
-x,-y,z
-y,x,-z
x,-y,-z
-x,y,-z
-y,-x,z
y,x,z
loop_
_atom_site_type_symbol
_atom_site_label
_atom_site_fract_x
_atom_site_fract_y
_atom_site_fract_z
Si Si1 0.285702 0.107851 0.478842
Si Si2 0.847499 0.955114 0.257216
Si Si3 0.346806 0.758220 0.569559
Si Si4 0.205432 0.426587 0.917406
Si Si5 0.634188 0.927834 0.973049
O O1 0.214566 0.085457 0.374261
O O2 0.291151 0.187175 0.512184
O O3 0.303319 0.072553 0.764348
O O4 0.342239 0.088361 0.271618
O O5 0.903889 0.903889 0.165082
O O6 0.875344 0.000000 0.500000
O O7 0.827836 0.000000 0.000000
O O8 0.313321 0.686680 0.551390
O O9 0.409361 0.761011 0.368192
O O10 0.372726 0.768513 0.871521
O O11 0.125769 0.420607 0.883513
O O12 0.225851 0.500000 0.000000
O O13 0.601322 0.000000 0.000000
#
# Coordination Sequence:
#
# PCOD8308189 Si02
#       5
#     8   8   8   8   8
#     4  10  20  35  55  78 102 130 173 227 273 311
#     4  12  25  39  55  72  95 129 172 226 286 345
#     4  10  20  36  58  82 110 142 180 222 265 312
#     4  10  21  35  53  81 117 150 179 219 262 310
#     4  10  19  32  53  78 108 145 179 212 255 312
#
# _framework density 19.757725000000001
#
# number of rings (size 3 to 8) (size 9 to 14) (size 15 to 20)
#    0.000    1.600    0.000    6.000    0.000    1.600 
#    0.000    6.000    0.000    7.200    0.000    0.000 
#    0.000   28.000    0.000    0.000    0.000    0.000 
#
# Total GULP energy -496000.811230 kJ/mol
# GULP energy per Si atom -12400.020281 kJ/mol
# Density = 1.971276 g / cm^3
# Si number density = 19.757725 Si / 1000 Ang^3
#
#
#
# Elastic Constant Matrix: (Units=GPa)
#
#
# Indices 1 2 3 4 5 6 
#
# 1 70.5636 35.6914 11.0058 0.0000 0.0000 0.0000
# 2 35.6914 70.5671 11.0076 0.0000 0.0000 0.0000
# 3 11.0058 11.0076 86.1687 0.0000 0.0000 0.0000
# 4 0.0000 0.0000 0.0000 24.1046 0.0000 0.0000
# 5 0.0000 0.0000 0.0000 0.0000 24.1046 0.0000
# 6 0.0000 0.0000 0.0000 0.0000 0.0000 13.9631
#
#
#
# Elastic Compliance Matrix: (Units=1/GPa)
#
#
# Indices 1 2 3 4 5 6 
#
# 1 0.019171 -0.009504 -0.001235 0.000000 0.000000 0.000000
# 2 -0.009504 0.019170 -0.001235 0.000000 0.000000 0.000000
# 3 -0.001235 -0.001235 0.011921 0.000000 0.000000 0.000000
# 4 0.000000 0.000000 0.000000 0.041486 0.000000 0.000000
# 5 0.000000 0.000000 0.000000 0.000000 0.041486 0.000000
# 6 0.000000 0.000000 0.000000 0.000000 0.000000 0.071618
#
#
# Mechanical properties :
#
#
# Convention : Reuss Voigt Hill
#
# Bulk Modulus (GPa) = 38.00063 38.07876 38.03970
# Shear Modulus (GPa) = 21.04639 23.74074 22.39357
#
# Velocity S-wave (km/s) = 3.26732 3.47016 3.37027
# Velocity P-wave (km/s) = 5.78868 5.94733 5.86854
#
# Compressibility (1/GPa) = 0.02631535
#
# Stress axis : x y z
#
# Youngs Moduli (GPa) = 52.16141 52.16372 83.88844
#
# Poissons Ratio (x) = 0.49576 0.10357
# Poissons Ratio (y) = 0.49573 0.10361
# Poissons Ratio (z) = 0.06440 0.06442
#
# Static dielectric constant tensor:
#      x y z
#    x 3.333160 0.000000 0.000000 
#    y 0.000000 3.333160 0.000000 
#    z 0.000000 0.000000 3.771990 
# 
# 
# High freq. dielectric constant tensor:
#      x y z
#    x 1.743990 0.000000 0.000000 
#    y 0.000000 1.743990 0.000000 
#    z 0.000000 0.000000 1.791980 
# 
# From -- ./inp_files/482.got.cif
#   From: 2010.03.12/outbox.cif.g09.slc.cpg/sg111_1_cif.got.tgz:482.got - 2010.04.14 01:59:48.
