data_PCOD8308342
_publ_section_title
;
Structure prediction by ZEFSAII (Michael W. Deem and Ramdas Pophale) SiO2 
 PCOD8308342
Probable space group: P -4 2 C
;
_chemical_formula_sum "Si O2"
_cell_formula_units_Z 34
_cell_length_a 12.004651
_cell_length_b 12.004651
_cell_length_c 14.174191
_cell_angle_alpha 90.000000
_cell_angle_beta 90.000000
_cell_angle_gamma 90.000000
_cell_volume 2042.665991
_symmetry_space_group_name_H-M "P -4 2 C"
_symmetry_group_IT_number 112
_symmetry_cell_setting 'tetragonal'
loop_
_space_group_symop_operation_xyz
x,y,z
y,-x,-z
-x,-y,z
-y,x,-z
x,-y,1/2-z
-x,y,1/2-z
-y,-x,1/2+z
y,x,1/2+z
loop_
_atom_site_type_symbol
_atom_site_label
_atom_site_fract_x
_atom_site_fract_y
_atom_site_fract_z
Si Si1 0.174905 0.612824 0.868479
Si Si2 0.364730 0.206482 0.343568
Si Si3 0.362304 0.608748 0.013512
Si Si4 0.000000 0.000000 0.000000
Si Si5 0.012478 0.792556 0.640792
O O1 0.228132 0.637552 0.767293
O O2 0.146323 0.480721 0.875277
O O3 0.067510 0.689058 0.882751
O O4 0.264244 0.648919 0.945835
O O5 0.352611 0.328173 0.387752
O O6 0.258221 0.134619 0.375560
O O7 0.478121 0.641940 0.963015
O O8 0.892960 0.991986 0.068139
O O9 0.000000 0.832933 0.750000
#
# Coordination Sequence:
#
# PCOD8308342 Si02
#       5
#     8   8   8   2   8
#     4   9  17  30  48  67  88 116 149 184 217 251
#     4   9  17  30  48  67  88 116 149 184 217 251
#     4   9  17  28  43  67  96 120 144 175 215 264
#     4  12  22  32  48  66  92 120 138 176 232 274
#     4  10  20  33  48  67  88 113 149 185 219 262
#
# _framework density 16.644915000000001
#
# number of rings (size 3 to 8) (size 9 to 14) (size 15 to 20)
#    0.000    2.588    0.000    2.471    0.000    3.765 
#    0.000    4.706    0.000    0.000    0.000    0.000 
#    0.000   33.882    0.000    0.000    0.000    0.000 
#
# Total GULP energy -421424.967869 kJ/mol
# GULP energy per Si atom -12394.851996 kJ/mol
# Density = 1.660703 g / cm^3
# Si number density = 16.644915 Si / 1000 Ang^3
#
#
#
# Elastic Constant Matrix: (Units=GPa)
#
#
# Indices 1 2 3 4 5 6 
#
# 1 43.6757 3.8365 23.2443 0.0000 0.0000 0.0000
# 2 3.8365 43.6757 23.2443 0.0000 0.0000 0.0000
# 3 23.2443 23.2443 60.8096 0.0000 0.0000 0.0000
# 4 0.0000 0.0000 0.0000 26.2467 0.0000 0.0000
# 5 0.0000 0.0000 0.0000 0.0000 26.2467 0.0000
# 6 0.0000 0.0000 0.0000 0.0000 0.0000 18.7762
#
#
#
# Elastic Compliance Matrix: (Units=1/GPa)
#
#
# Indices 1 2 3 4 5 6 
#
# 1 0.029362 0.004261 -0.012852 0.000000 0.000000 0.000000
# 2 0.004261 0.029362 -0.012852 0.000000 0.000000 0.000000
# 3 -0.012852 -0.012852 0.026270 0.000000 0.000000 0.000000
# 4 0.000000 0.000000 0.000000 0.038100 0.000000 0.000000
# 5 0.000000 0.000000 0.000000 0.000000 0.038100 0.000000
# 6 0.000000 0.000000 0.000000 0.000000 0.000000 0.053259
#
#
# Mechanical properties :
#
#
# Convention : Reuss Voigt Hill
#
# Bulk Modulus (GPa) = 23.74923 27.64569 25.69746
# Shear Modulus (GPa) = 18.42473 20.77632 19.60053
#
# Velocity S-wave (km/s) = 3.33066 3.53683 3.43529
# Velocity P-wave (km/s) = 5.39354 5.77270 5.58633
#
# Compressibility (1/GPa) = 0.04210662
#
# Stress axis : x y z
#
# Youngs Moduli (GPa) = 34.05809 34.05809 38.06615
#
# Poissons Ratio (x) = -0.14511 0.48923
# Poissons Ratio (y) = -0.14511 0.48923
# Poissons Ratio (z) = 0.43772 0.43772
#
# Static dielectric constant tensor:
#      x y z
#    x 3.129150 0.000000 0.000000 
#    y 0.000000 3.129150 0.000000 
#    z 0.000000 0.000000 3.059010 
# 
# 
# High freq. dielectric constant tensor:
#      x y z
#    x 1.639750 0.000000 0.000000 
#    y 0.000000 1.639750 0.000000 
#    z 0.000000 0.000000 1.634030 
# 
# From -- ./inp_files/2280.got.cif
#   From: 2010.03.12/outbox.cif.g09.slc.cpg/sg112_2_cif.got.tgz:2280.got - 2010.04.14 02:02:48.
