data_PCOD8308158
_publ_section_title
;
Structure prediction by ZEFSAII (Michael W. Deem and Ramdas Pophale) SiO2 
 PCOD8308158
Probable space group: P -4 2 M 
;
_chemical_formula_sum "Si O2"
_cell_formula_units_Z 48
_cell_length_a 12.849771
_cell_length_b 12.849771
_cell_length_c 16.222594
_cell_angle_alpha 90.000000
_cell_angle_beta 90.000000
_cell_angle_gamma 90.000000
_cell_volume 2678.619804
_symmetry_space_group_name_H-M "P -4 2 M "
_symmetry_group_IT_number 111
_symmetry_cell_setting 'tetragonal'
loop_
_space_group_symop_operation_xyz
x,y,z
y,-x,-z
-x,-y,z
-y,x,-z
x,-y,-z
-x,y,-z
-y,-x,z
y,x,z
loop_
_atom_site_type_symbol
_atom_site_label
_atom_site_fract_x
_atom_site_fract_y
_atom_site_fract_z
Si Si1 0.015174 0.378580 0.093923
Si Si2 0.732391 0.433937 0.272151
Si Si3 0.276416 0.113837 0.331923
Si Si4 0.098473 0.730651 0.243906
Si Si5 0.579001 0.752433 0.426465
Si Si6 0.379681 0.219042 0.175185
O O1 0.137446 0.358893 0.103397
O O2 0.000000 0.500000 0.113451
O O3 0.945455 0.308066 0.155360
O O4 0.000000 0.345821 0.000000
O O5 0.624133 0.375868 0.257852
O O6 0.825408 0.352720 0.285286
O O7 0.718959 0.510123 0.348835
O O8 0.757855 0.498771 0.189544
O O9 0.162642 0.162642 0.348792
O O10 0.353868 0.141661 0.408494
O O11 0.330114 0.171611 0.256728
O O12 0.259578 0.992553 0.312214
O O13 0.159291 0.840709 0.231365
O O14 0.500000 0.775980 0.500000
O O15 0.657536 0.657536 0.447717
O O16 0.326220 0.326220 0.149047
#
# Coordination Sequence:
#
# PCOD8308158 Si02
#       6
#     8   8   8   8   8   8
#     4  10  19  33  53  74 100 136 178 228 284 325
#     4  10  19  31  48  74 107 140 176 217 260 316
#     4   8  17  33  52  75 105 137 174 220 269 323
#     4  10  20  34  54  78 106 141 186 230 269 323
#     4  10  20  33  52  79 109 140 174 219 276 332
#     4   9  17  30  49  73  99 133 172 211 260 327
#
# _framework density 17.919675999999999
#
# number of rings (size 3 to 8) (size 9 to 14) (size 15 to 20)
#    0.000    2.500    1.667    2.000    0.000    3.167 
#    0.000    1.667    0.000    0.000    0.000    2.333 
#    0.000    5.333    0.000    0.000    0.000    0.000 
#
# Total GULP energy -594782.527765 kJ/mol
# GULP energy per Si atom -12391.302662 kJ/mol
# Density = 1.787889 g / cm^3
# Si number density = 17.919676 Si / 1000 Ang^3
#
#
#
# Elastic Constant Matrix: (Units=GPa)
#
#
# Indices 1 2 3 4 5 6 
#
# 1 118.6968 64.3702 40.3019 0.0000 0.0000 0.0000
# 2 64.3702 118.6940 40.3017 0.0000 0.0000 0.0000
# 3 40.3019 40.3017 78.5288 0.0000 0.0000 0.0000
# 4 0.0000 0.0000 0.0000 21.5994 0.0000 0.0000
# 5 0.0000 0.0000 0.0000 0.0000 21.5998 0.0000
# 6 0.0000 0.0000 0.0000 0.0000 0.0000 25.9788
#
#
#
# Elastic Compliance Matrix: (Units=1/GPa)
#
#
# Indices 1 2 3 4 5 6 
#
# 1 0.012732 -0.005675 -0.003622 0.000000 0.000000 0.000000
# 2 -0.005675 0.012733 -0.003622 0.000000 0.000000 0.000000
# 3 -0.003622 -0.003622 0.016452 0.000000 0.000000 0.000000
# 4 0.000000 0.000000 0.000000 0.046298 0.000000 0.000000
# 5 0.000000 0.000000 0.000000 0.000000 0.046297 0.000000
# 6 0.000000 0.000000 0.000000 0.000000 0.000000 0.038493
#
#
# Mechanical properties :
#
#
# Convention : Reuss Voigt Hill
#
# Bulk Modulus (GPa) = 62.19373 67.31858 64.75616
# Shear Modulus (GPa) = 24.48564 25.23198 24.85881
#
# Velocity S-wave (km/s) = 3.70051 3.75648 3.72860
# Velocity P-wave (km/s) = 7.28290 7.51421 7.39946
#
# Compressibility (1/GPa) = 0.01607879
#
# Stress axis : x y z
#
# Youngs Moduli (GPa) = 78.54054 78.53851 60.78399
#
# Poissons Ratio (x) = 0.44572 0.22015
# Poissons Ratio (y) = 0.44574 0.22015
# Poissons Ratio (z) = 0.28446 0.28446
#
# Static dielectric constant tensor:
#      x y z
#    x 3.566600 0.000000 0.000000 
#    y 0.000000 3.566600 0.000000 
#    z 0.000000 0.000000 3.203430 
# 
# 
# High freq. dielectric constant tensor:
#      x y z
#    x 1.695910 0.000000 0.000000 
#    y 0.000000 1.695910 0.000000 
#    z 0.000000 0.000000 1.666090 
# 
# From -- ./inp_files/3611.got.cif
#   From: 2010.03.12/outbox.cif.g09.slc.cpg/sg111_2_cif.got.tgz:3611.got - 2010.04.14 01:59:48.
