data_PCOD8308221
_publ_section_title
;
Structure prediction by ZEFSAII (Michael W. Deem and Ramdas Pophale) SiO2 
 PCOD8308221
Probable space group: P -4 2 M 
;
_chemical_formula_sum "Si O2"
_cell_formula_units_Z 56
_cell_length_a 11.687799
_cell_length_b 11.687799
_cell_length_c 22.971269
_cell_angle_alpha 90.000000
_cell_angle_beta 90.000000
_cell_angle_gamma 90.000000
_cell_volume 3137.982058
_symmetry_space_group_name_H-M "P -4 2 M "
_symmetry_group_IT_number 111
_symmetry_cell_setting 'tetragonal'
loop_
_space_group_symop_operation_xyz
x,y,z
y,-x,-z
-x,-y,z
-y,x,-z
x,-y,-z
-x,y,-z
-y,-x,z
y,x,z
loop_
_atom_site_type_symbol
_atom_site_label
_atom_site_fract_x
_atom_site_fract_y
_atom_site_fract_z
Si Si1 0.867412 0.500103 0.095361
Si Si2 0.668223 0.846613 0.379944
Si Si3 0.811160 0.632064 0.508471
Si Si4 0.500379 0.313784 0.194491
Si Si5 0.132126 0.682691 0.000165
Si Si6 0.266908 0.449386 0.675520
Si Si7 0.900127 0.718510 0.626038
O O1 0.796758 0.501216 0.154357
O O2 0.836526 0.388552 0.057768
O O3 0.000000 0.500000 0.112662
O O4 0.836494 0.610785 0.057173
O O5 0.763754 0.763754 0.353890
O O6 0.682463 0.863509 0.449185
O O7 0.546724 0.784105 0.367224
O O8 0.698685 0.969979 0.352000
O O9 0.790702 0.500000 0.500000
O O10 0.688411 0.688411 0.522566
O O11 0.894069 0.660001 0.562250
O O12 0.615194 0.384807 0.182113
O O13 0.389673 0.389673 0.180919
O O14 0.496221 0.272700 0.260908
O O15 0.200369 0.799632 0.000019
O O16 0.000000 0.715469 0.000000
O O17 0.392463 0.392463 0.658483
O O18 0.175851 0.347266 0.673544
O O19 0.850647 0.850647 0.623371
#
# Coordination Sequence:
#
# PCOD8308221 Si02
#       7
#     8   8   8   8   8   8   8
#     4   9  18  31  49  74 101 132 170 206 243 289
#     4  11  22  34  54  78 100 132 167 205 256 305
#     4  10  20  33  51  77 103 131 166 204 250 306
#     4  10  20  34  52  74 101 131 163 204 252 299
#     4   9  17  30  48  72 103 135 168 207 245 286
#     4  10  21  36  53  75 102 131 165 208 254 304
#     4  10  21  37  54  74 101 132 168 209 251 301
#
# _framework density 17.845863999999999
#
# number of rings (size 3 to 8) (size 9 to 14) (size 15 to 20)
#    0.000    2.143    1.429    3.000    0.000    3.143 
#    0.000    1.429    0.000    6.000    0.000    0.000 
#    0.000    6.857    0.000    0.000    0.000    0.000 
#
# Total GULP energy -693949.555924 kJ/mol
# GULP energy per Si atom -12391.956356 kJ/mol
# Density = 1.780525 g / cm^3
# Si number density = 17.845864 Si / 1000 Ang^3
#
#
#
# Elastic Constant Matrix: (Units=GPa)
#
#
# Indices 1 2 3 4 5 6 
#
# 1 91.7948 55.4650 21.6831 0.0000 0.0000 0.0000
# 2 55.4650 91.7927 21.6835 0.0000 0.0000 0.0000
# 3 21.6831 21.6835 65.1305 0.0000 0.0000 0.0000
# 4 0.0000 0.0000 0.0000 22.1307 0.0000 0.0000
# 5 0.0000 0.0000 0.0000 0.0000 22.1299 0.0000
# 6 0.0000 0.0000 0.0000 0.0000 0.0000 25.9080
#
#
#
# Elastic Compliance Matrix: (Units=1/GPa)
#
#
# Indices 1 2 3 4 5 6 
#
# 1 0.017527 -0.009999 -0.002506 0.000000 0.000000 0.000000
# 2 -0.009999 0.017528 -0.002507 0.000000 0.000000 0.000000
# 3 -0.002506 -0.002507 0.017023 0.000000 0.000000 0.000000
# 4 0.000000 0.000000 0.000000 0.045186 0.000000 0.000000
# 5 0.000000 0.000000 0.000000 0.000000 0.045188 0.000000
# 6 0.000000 0.000000 0.000000 0.000000 0.000000 0.038598
#
#
# Mechanical properties :
#
#
# Convention : Reuss Voigt Hill
#
# Bulk Modulus (GPa) = 45.34235 49.59793 47.47014
# Shear Modulus (GPa) = 22.89116 24.02616 23.45866
#
# Velocity S-wave (km/s) = 3.58539 3.67320 3.62956
# Velocity P-wave (km/s) = 6.52709 6.77071 6.65002
#
# Compressibility (1/GPa) = 0.02205444
#
# Stress axis : x y z
#
# Youngs Moduli (GPa) = 57.05348 57.05185 58.74493
#
# Poissons Ratio (x) = 0.57045 0.14724
# Poissons Ratio (y) = 0.57046 0.14726
# Poissons Ratio (z) = 0.14300 0.14301
#
# Static dielectric constant tensor:
#      x y z
#    x 3.283300 0.000000 0.000000 
#    y 0.000000 3.283300 0.000000 
#    z 0.000000 0.000000 3.163160 
# 
# 
# High freq. dielectric constant tensor:
#      x y z
#    x 1.689250 0.000000 0.000000 
#    y 0.000000 1.689250 0.000000 
#    z 0.000000 0.000000 1.673760 
# 
# From -- ./inp_files/3957.got.cif
#   From: 2010.03.12/outbox.cif.g09.slc.cpg/sg111_2_cif.got.tgz:3957.got - 2010.04.14 01:59:48.
