data_PCOD8308491
_publ_section_title
;
Structure prediction by ZEFSAII (Michael W. Deem and Ramdas Pophale) SiO2 
 PCOD8308491
Probable space group: P -4 2 C
;
_chemical_formula_sum "Si O2"
_cell_formula_units_Z 24
_cell_length_a 9.877751
_cell_length_b 9.877751
_cell_length_c 10.305249
_cell_angle_alpha 90.000000
_cell_angle_beta 90.000000
_cell_angle_gamma 90.000000
_cell_volume 1005.482782
_symmetry_space_group_name_H-M "P -4 2 C"
_symmetry_group_IT_number 112
_symmetry_cell_setting 'tetragonal'
loop_
_space_group_symop_operation_xyz
x,y,z
y,-x,-z
-x,-y,z
-y,x,-z
x,-y,1/2-z
-x,y,1/2-z
-y,-x,1/2+z
y,x,1/2+z
loop_
_atom_site_type_symbol
_atom_site_label
_atom_site_fract_x
_atom_site_fract_y
_atom_site_fract_z
Si Si1 0.190338 0.590672 0.127162
Si Si2 0.213052 0.000000 1.000000
Si Si3 0.809663 0.590672 0.872838
O O1 0.156988 0.500000 0.250000
O O2 0.329490 0.670511 0.150818
O O3 0.206547 0.500001 0.999999
O O4 0.064119 0.693372 0.111629
O O5 0.306629 0.935882 0.111627
O O6 0.118449 0.881551 0.937783
O O7 0.843013 0.500000 0.750000
#
# Coordination Sequence:
#
# PCOD8308491 Si02
#       3
#     8   8   8
#     4  11  24  43  69 101 138 180 225 277 336 401
#     4   9  21  44  72 102 135 175 226 282 340 399
#     4  11  24  43  69 101 138 180 225 277 336 401
#
# _framework density 23.869129999999998
#
# number of rings (size 3 to 8) (size 9 to 14) (size 15 to 20)
#    0.000    1.667    0.000    3.000    0.000    9.333 
#    0.000   10.000    0.000   28.000    0.000    0.000 
#    0.000    0.000    0.000    0.000    0.000    0.000 
#
# Total GULP energy -297625.907624 kJ/mol
# GULP energy per Si atom -12401.079484 kJ/mol
# Density = 2.381480 g / cm^3
# Si number density = 23.869130 Si / 1000 Ang^3
#
#
#
# Elastic Constant Matrix: (Units=GPa)
#
#
# Indices 1 2 3 4 5 6 
#
# 1 182.9689 102.1603 84.7509 0.0000 0.0000 0.0000
# 2 102.1603 182.9689 84.7509 0.0000 0.0000 0.0000
# 3 84.7509 84.7509 165.9922 0.0000 0.0000 0.0000
# 4 0.0000 0.0000 0.0000 30.6062 0.0000 0.0000
# 5 0.0000 0.0000 0.0000 0.0000 30.6062 0.0000
# 6 0.0000 0.0000 0.0000 0.0000 0.0000 69.6252
#
#
#
# Elastic Compliance Matrix: (Units=1/GPa)
#
#
# Indices 1 2 3 4 5 6 
#
# 1 0.008705 -0.003670 -0.002571 0.000000 0.000000 0.000000
# 2 -0.003670 0.008705 -0.002571 0.000000 0.000000 0.000000
# 3 -0.002571 -0.002571 0.008650 0.000000 0.000000 0.000000
# 4 0.000000 0.000000 0.000000 0.032673 0.000000 0.000000
# 5 0.000000 0.000000 0.000000 0.000000 0.032673 0.000000
# 6 0.000000 0.000000 0.000000 0.000000 0.000000 0.014363
#
#
# Mechanical properties :
#
#
# Convention : Reuss Voigt Hill
#
# Bulk Modulus (GPa) = 118.52787 119.47267 119.00027
# Shear Modulus (GPa) = 39.61816 43.51874 41.56845
#
# Velocity S-wave (km/s) = 4.07849 4.27455 4.17767
# Velocity P-wave (km/s) = 8.48198 8.63274 8.55769
#
# Compressibility (1/GPa) = 0.00843683
#
# Stress axis : x y z
#
# Youngs Moduli (GPa) = 114.87316 114.87316 115.61000
#
# Poissons Ratio (x) = 0.42155 0.29724
# Poissons Ratio (y) = 0.42155 0.29724
# Poissons Ratio (z) = 0.29534 0.29534
#
# Static dielectric constant tensor:
#      x y z
#    x 4.810480 0.000000 0.000000 
#    y 0.000000 4.810480 0.000000 
#    z 0.000000 0.000000 2.470140 
# 
# 
# High freq. dielectric constant tensor:
#      x y z
#    x 1.971760 0.000000 0.000000 
#    y 0.000000 1.971760 0.000000 
#    z 0.000000 0.000000 1.917930 
# 
# From -- ./inp_files/786.got.cif
#   From: 2010.03.12/outbox.cif.g09.slc.cpg/sg112_1_cif.got.tgz:786.got - 2010.04.14 02:02:48.
