data_PCOD8308556
_publ_section_title
;
Structure prediction by ZEFSAII (Michael W. Deem and Ramdas Pophale) SiO2 
 PCOD8308556
Probable space group: P -4 21 M 
;
_chemical_formula_sum "Si O2"
_cell_formula_units_Z 48
_cell_length_a 15.797215
_cell_length_b 15.797215
_cell_length_c 11.286948
_cell_angle_alpha 90.000000
_cell_angle_beta 90.000000
_cell_angle_gamma 90.000000
_cell_volume 2816.680467
_symmetry_space_group_name_H-M "P -4 21 M "
_symmetry_group_IT_number 113
_symmetry_cell_setting 'tetragonal'
loop_
_space_group_symop_operation_xyz
x,y,z
y,-x,-z
-x,-y,z
-y,x,-z
1/2+x,1/2-y,-z
1/2-x,1/2+y,-z
1/2-y,1/2-x,z
1/2+y,1/2+x,z
loop_
_atom_site_type_symbol
_atom_site_label
_atom_site_fract_x
_atom_site_fract_y
_atom_site_fract_z
Si Si1 0.132602 0.966974 0.016733
Si Si2 0.261094 0.896635 0.568961
Si Si3 0.776879 0.140669 0.828056
Si Si4 0.000219 0.638118 0.607411
Si Si5 0.089661 0.079826 0.457178
Si Si6 0.795326 0.952611 0.242103
O O1 0.179644 0.981129 0.140714
O O2 0.201515 0.928691 0.926768
O O3 0.055297 0.901948 0.036057
O O4 0.313208 0.813208 0.543564
O O5 0.247948 0.911468 0.709210
O O6 0.171127 0.873081 0.508169
O O7 0.306935 0.977490 0.509644
O O8 0.698356 0.198356 0.870424
O O9 0.856273 0.203056 0.804624
O O10 0.081099 0.581099 0.574714
O O11 0.023688 0.701456 0.713769
O O12 0.921238 0.578763 0.646237
O O13 0.133877 0.038541 0.343597
O O14 0.988040 0.096755 0.434967
#
# Coordination Sequence:
#
# PCOD8308556 Si02
#       6
#     8   8   8   8   8   8
#     4   9  19  34  50  75 102 138 174 220 261 311
#     4   9  18  34  51  75 104 133 172 215 255 310
#     4   9  18  33  55  75 100 138 177 215 263 315
#     4  10  20  35  54  76 105 140 176 215 263 314
#     4  10  19  30  47  76 104 138 165 205 257 315
#     4  10  19  33  52  76 106 138 173 216 261 317
#
# _framework density 17.041336000000001
#
# number of rings (size 3 to 8) (size 9 to 14) (size 15 to 20)
#    0.000    2.500    1.667    0.500    0.000    9.333 
#    0.000    0.000    0.000    5.000    0.000    2.333 
#    0.000    0.000    0.000    0.000    0.000    0.000 
#
# Total GULP energy -594783.436757 kJ/mol
# GULP energy per Si atom -12391.321599 kJ/mol
# Density = 1.700255 g / cm^3
# Si number density = 17.041336 Si / 1000 Ang^3
#
#
#
# Elastic Constant Matrix: (Units=GPa)
#
#
# Indices 1 2 3 4 5 6 
#
# 1 93.3939 38.8481 55.4417 0.0000 0.0000 0.0000
# 2 38.8481 93.3932 55.4417 0.0000 0.0000 0.0000
# 3 55.4417 55.4417 80.8706 0.0000 0.0000 0.0000
# 4 0.0000 0.0000 0.0000 29.4462 0.0000 0.0000
# 5 0.0000 0.0000 0.0000 0.0000 29.4460 0.0000
# 6 0.0000 0.0000 0.0000 0.0000 0.0000 22.2627
#
#
#
# Elastic Compliance Matrix: (Units=1/GPa)
#
#
# Indices 1 2 3 4 5 6 
#
# 1 0.018060 -0.000274 -0.012193 0.000000 0.000000 0.000000
# 2 -0.000274 0.018060 -0.012193 0.000000 0.000000 0.000000
# 3 -0.012193 -0.012193 0.029084 0.000000 0.000000 0.000000
# 4 0.000000 0.000000 0.000000 0.033960 0.000000 0.000000
# 5 0.000000 0.000000 0.000000 0.000000 0.033960 0.000000
# 6 0.000000 0.000000 0.000000 0.000000 0.000000 0.044918
#
#
# Mechanical properties :
#
#
# Convention : Reuss Voigt Hill
#
# Bulk Modulus (GPa) = 62.96244 63.01343 62.98794
# Shear Modulus (GPa) = 21.49087 24.09273 22.79180
#
# Velocity S-wave (km/s) = 3.55505 3.76411 3.66107
# Velocity P-wave (km/s) = 7.34018 7.47987 7.41036
#
# Compressibility (1/GPa) = 0.01588248
#
# Stress axis : x y z
#
# Youngs Moduli (GPa) = 55.37246 55.37183 34.38322
#
# Poissons Ratio (x) = 0.01516 0.41924
# Poissons Ratio (y) = 0.01516 0.41925
# Poissons Ratio (z) = 0.67517 0.67517
#
# Static dielectric constant tensor:
#      x y z
#    x 3.328880 0.000000 0.000000 
#    y 0.000000 3.328880 0.000000 
#    z 0.000000 0.000000 3.077400 
# 
# 
# High freq. dielectric constant tensor:
#      x y z
#    x 1.660400 0.000000 0.000000 
#    y 0.000000 1.660400 0.000000 
#    z 0.000000 0.000000 1.631910 
# 
# From -- ./inp_files/1180.got.cif
#   From: 2010.03.12/outbox.cif.g09.slc.cpg/sg113_cif.got.tgz:1180.got - 2010.04.14 02:06:34.
