data_PCOD8308630
_publ_section_title
;
Structure prediction by ZEFSAII (Michael W. Deem and Ramdas Pophale) SiO2 
 PCOD8308630
Probable space group: P -4 21 M 
;
_chemical_formula_sum "Si O2"
_cell_formula_units_Z 48
_cell_length_a 13.240033
_cell_length_b 13.240033
_cell_length_c 15.504931
_cell_angle_alpha 90.000000
_cell_angle_beta 90.000000
_cell_angle_gamma 90.000000
_cell_volume 2717.990741
_symmetry_space_group_name_H-M "P -4 21 M "
_symmetry_group_IT_number 113
_symmetry_cell_setting 'tetragonal'
loop_
_space_group_symop_operation_xyz
x,y,z
y,-x,-z
-x,-y,z
-y,x,-z
1/2+x,1/2-y,-z
1/2-x,1/2+y,-z
1/2-y,1/2-x,z
1/2+y,1/2+x,z
loop_
_atom_site_type_symbol
_atom_site_label
_atom_site_fract_x
_atom_site_fract_y
_atom_site_fract_z
Si Si1 0.118659 0.778973 0.735611
Si Si2 0.721030 0.618657 0.735610
Si Si3 0.388149 0.620034 0.906220
Si Si4 0.620032 0.388147 0.093780
Si Si5 0.617332 0.716671 0.580918
Si Si6 0.783328 0.117330 0.580919
O O1 0.173306 0.673306 0.714198
O O2 0.155727 0.815285 0.829751
O O3 0.150908 0.863027 0.666477
O O4 0.000001 0.759831 0.731156
O O5 0.826699 0.673302 0.714199
O O6 0.684718 0.655725 0.829751
O O7 0.636977 0.650907 0.666477
O O8 0.396213 0.500001 0.906642
O O9 0.500002 0.665928 0.890549
O O10 0.345048 0.654955 0.000000
O O11 0.678439 0.821562 0.583111
O O12 0.649277 0.649275 0.500000
O O13 0.500001 0.744123 0.574575
O O14 0.678438 0.178438 0.583112
#
# Coordination Sequence:
#
# PCOD8308630 Si02
#       6
#     8   8   8   8   8   8
#     4  10  20  32  47  69  96 128 166 204 243 287
#     4  10  20  32  47  69  96 128 166 204 243 287
#     4   8  14  26  45  68  92 118 152 197 246 292
#     4   8  14  26  45  68  92 118 152 197 246 292
#     4  10  21  36  54  77 102 128 160 196 236 283
#     4  10  21  36  54  77 102 128 160 196 236 283
#
# _framework density 17.660104
#
# number of rings (size 3 to 8) (size 9 to 14) (size 15 to 20)
#    0.000    2.667    0.000    3.000    0.000    5.000 
#    0.000    0.000    0.000    6.000    0.000    0.000 
#    0.000    8.000    0.000    0.000    0.000    0.000 
#
# Total GULP energy -595063.770195 kJ/mol
# GULP energy per Si atom -12397.161879 kJ/mol
# Density = 1.761991 g / cm^3
# Si number density = 17.660104 Si / 1000 Ang^3
#
#
#
# Elastic Constant Matrix: (Units=GPa)
#
#
# Indices 1 2 3 4 5 6 
#
# 1 89.4481 41.6985 39.1111 0.0000 0.0000 0.0000
# 2 41.6985 89.4485 39.1103 0.0000 0.0000 0.0000
# 3 39.1111 39.1103 136.7682 0.0000 0.0000 0.0000
# 4 0.0000 0.0000 0.0000 23.6321 0.0000 0.0000
# 5 0.0000 0.0000 0.0000 0.0000 23.6329 0.0000
# 6 0.0000 0.0000 0.0000 0.0000 0.0000 13.2080
#
#
#
# Elastic Compliance Matrix: (Units=1/GPa)
#
#
# Indices 1 2 3 4 5 6 
#
# 1 0.015068 -0.005875 -0.002629 0.000000 0.000000 0.000000
# 2 -0.005875 0.015068 -0.002629 0.000000 0.000000 0.000000
# 3 -0.002629 -0.002629 0.008815 0.000000 0.000000 0.000000
# 4 0.000000 0.000000 0.000000 0.042315 0.000000 0.000000
# 5 0.000000 0.000000 0.000000 0.000000 0.042314 0.000000
# 6 0.000000 0.000000 0.000000 0.000000 0.000000 0.075712
#
#
# Mechanical properties :
#
#
# Convention : Reuss Voigt Hill
#
# Bulk Modulus (GPa) = 59.93148 61.72272 60.82710
# Shear Modulus (GPa) = 22.01495 25.14427 23.57961
#
# Velocity S-wave (km/s) = 3.53454 3.77741 3.65799
# Velocity P-wave (km/s) = 7.11808 7.35196 7.23597
#
# Compressibility (1/GPa) = 0.01668572
#
# Stress axis : x y z
#
# Youngs Moduli (GPa) = 66.36652 66.36722 113.44099
#
# Poissons Ratio (x) = 0.38989 0.29823
# Poissons Ratio (y) = 0.38989 0.29821
# Poissons Ratio (z) = 0.17447 0.17446
#
# Static dielectric constant tensor:
#      x y z
#    x 3.007320 0.000000 0.000000 
#    y 0.000000 3.007320 0.000000 
#    z 0.000000 0.000000 3.750370 
# 
# 
# High freq. dielectric constant tensor:
#      x y z
#    x 1.661410 0.000000 0.000000 
#    y 0.000000 1.661410 0.000000 
#    z 0.000000 0.000000 1.708400 
# 
# From -- ./inp_files/2456.got.cif
#   From: 2010.03.12/outbox.cif.g09.slc.cpg/sg113_cif.got.tgz:2456.got - 2010.04.14 02:06:34.
