data_PCOD8308704
_publ_section_title
;
Structure prediction by ZEFSAII (Michael W. Deem and Ramdas Pophale) SiO2 
 PCOD8308704
Probable space group: P -4 21 M 
;
_chemical_formula_sum "Si O2"
_cell_formula_units_Z 56
_cell_length_a 11.445711
_cell_length_b 11.445711
_cell_length_c 21.361318
_cell_angle_alpha 90.000000
_cell_angle_beta 90.000000
_cell_angle_gamma 90.000000
_cell_volume 2798.424518
_symmetry_space_group_name_H-M "P -4 21 M "
_symmetry_group_IT_number 113
_symmetry_cell_setting 'tetragonal'
loop_
_space_group_symop_operation_xyz
x,y,z
y,-x,-z
-x,-y,z
-y,x,-z
1/2+x,1/2-y,-z
1/2-x,1/2+y,-z
1/2-y,1/2-x,z
1/2+y,1/2+x,z
loop_
_atom_site_type_symbol
_atom_site_label
_atom_site_fract_x
_atom_site_fract_y
_atom_site_fract_z
Si Si1 0.812184 0.500100 0.503145
Si Si2 0.650934 0.348401 0.853821
Si Si3 0.849982 0.839576 0.287571
Si Si4 0.026906 0.132273 0.610302
Si Si5 0.047842 0.734218 0.366540
Si Si6 0.994915 0.688975 0.928168
Si Si7 0.689002 0.994953 0.928808
O O1 0.897741 0.602260 0.525669
O O2 0.703897 0.494290 0.549094
O O3 0.772123 0.523002 0.432001
O O4 0.874658 0.374658 0.505914
O O5 0.748350 0.248350 0.858533
O O6 0.618978 0.379580 0.782511
O O7 0.699888 0.468025 0.885560
O O8 0.531473 0.300523 0.886357
O O9 0.729835 0.770166 0.288209
O O10 0.955218 0.758477 0.312148
O O11 0.828394 0.952961 0.329731
O O12 0.162927 0.144178 0.628505
O O13 0.000000 0.000000 0.592596
O O14 0.112788 0.612788 0.351361
O O15 0.865513 0.634488 0.912163
O O16 0.086417 0.586417 0.917296
O O17 0.999789 0.732177 0.999656
O O18 0.586247 0.086247 0.917882
O O19 0.634611 0.865390 0.913058
#
# Coordination Sequence:
#
# PCOD8308704 Si02
#       7
#     8   8   8   8   8   8   8
#     4  10  21  37  58  85 110 132 173 237 288 326
#     4   9  17  30  52  81 112 145 187 232 277 339
#     4  10  21  36  56  82 114 150 185 230 280 335
#     4  10  22  36  56  78 108 147 185 220 270 337
#     4  10  22  37  56  79 108 148 188 228 278 336
#     4   8  14  27  49  76 108 145 185 232 281 331
#     4   8  14  26  48  78 110 144 183 231 283 335
#
# _framework density 20.011258000000002
#
# number of rings (size 3 to 8) (size 9 to 14) (size 15 to 20)
#    0.000    2.714    0.000    2.143    4.000    1.429 
#    0.000    2.857    9.429    3.429    0.000    0.000 
#    0.000    0.000    0.000    0.000    0.000    0.000 
#
# Total GULP energy -694165.381103 kJ/mol
# GULP energy per Si atom -12395.810377 kJ/mol
# Density = 1.996571 g / cm^3
# Si number density = 20.011258 Si / 1000 Ang^3
#
#
#
# Elastic Constant Matrix: (Units=GPa)
#
#
# Indices 1 2 3 4 5 6 
#
# 1 64.4282 33.0096 51.0399 0.0000 0.0000 0.0000
# 2 33.0096 64.4273 51.0391 0.0000 0.0000 0.0000
# 3 51.0399 51.0391 138.8209 0.0000 0.0000 0.0000
# 4 0.0000 0.0000 0.0000 24.4189 0.0000 0.0000
# 5 0.0000 0.0000 0.0000 0.0000 24.4185 0.0000
# 6 0.0000 0.0000 0.0000 0.0000 0.0000 29.2917
#
#
#
# Elastic Compliance Matrix: (Units=1/GPa)
#
#
# Indices 1 2 3 4 5 6 
#
# 1 0.024261 -0.007568 -0.006137 0.000000 0.000000 0.000000
# 2 -0.007568 0.024261 -0.006137 0.000000 0.000000 0.000000
# 3 -0.006137 -0.006137 0.011716 0.000000 0.000000 0.000000
# 4 0.000000 0.000000 0.000000 0.040952 0.000000 0.000000
# 5 0.000000 0.000000 0.000000 0.000000 0.040953 0.000000
# 6 0.000000 0.000000 0.000000 0.000000 0.000000 0.034139
#
#
# Mechanical properties :
#
#
# Convention : Reuss Voigt Hill
#
# Bulk Modulus (GPa) = 48.65561 59.76151 54.20856
# Shear Modulus (GPa) = 22.43985 24.46501 23.45243
#
# Velocity S-wave (km/s) = 3.35231 3.50031 3.42711
# Velocity P-wave (km/s) = 6.27303 6.80184 6.54278
#
# Compressibility (1/GPa) = 0.02055262
#
# Stress axis : x y z
#
# Youngs Moduli (GPa) = 41.21905 41.21873 85.34992
#
# Poissons Ratio (x) = 0.31194 0.52382
# Poissons Ratio (y) = 0.31195 0.52381
# Poissons Ratio (z) = 0.25298 0.25297
#
# Static dielectric constant tensor:
#      x y z
#    x 3.723590 0.000000 0.000000 
#    y 0.000000 3.723600 0.000000 
#    z 0.000000 0.000000 3.598540 
# 
# 
# High freq. dielectric constant tensor:
#      x y z
#    x 1.769330 0.000000 0.000000 
#    y 0.000000 1.769330 0.000000 
#    z 0.000000 0.000000 1.771580 
# 
# From -- ./inp_files/2673.got.cif
#   From: 2010.03.12/outbox.cif.g09.slc.cpg/sg113_cif.got.tgz:2673.got - 2010.04.14 02:06:34.
