data_PCOD8308513
_publ_section_title
;
Structure prediction by ZEFSAII (Michael W. Deem and Ramdas Pophale) SiO2 
 PCOD8308513
Probable space group: P -4 2 C
;
_chemical_formula_sum "Si O2"
_cell_formula_units_Z 20
_cell_length_a 5.298000
_cell_length_b 5.298000
_cell_length_c 27.393721
_cell_angle_alpha 90.000000
_cell_angle_beta 90.000000
_cell_angle_gamma 90.000000
_cell_volume 768.908986
_symmetry_space_group_name_H-M "P -4 2 C"
_symmetry_group_IT_number 112
_symmetry_cell_setting 'tetragonal'
loop_
_space_group_symop_operation_xyz
x,y,z
y,-x,-z
-x,-y,z
-y,x,-z
x,-y,1/2-z
-x,y,1/2-z
-y,-x,1/2+z
y,x,1/2+z
loop_
_atom_site_type_symbol
_atom_site_label
_atom_site_fract_x
_atom_site_fract_y
_atom_site_fract_z
Si Si1 0.000000 0.000000 0.250000
Si Si2 0.500000 0.500000 0.500000
Si Si3 0.751820 0.339463 0.171964
Si Si4 0.146124 0.254251 0.934048
O O1 0.807146 0.165159 0.218326
O O2 0.408097 0.728652 0.535851
O O3 0.500000 0.500000 0.183054
O O4 0.714844 0.174931 0.123890
O O5 0.000000 0.500000 0.161490
O O6 0.000000 0.500000 0.952788
O O7 0.000000 0.000000 0.947988
#
# Coordination Sequence:
#
# PCOD8308513 Si02
#       4
#     2   2   8   8
#     4  12  30  50  84 120 166 226 274 358 436 518
#     4  12  32  48  84 124 170 220 288 344 432 518
#     4  12  28  53  81 119 165 218 285 352 425 515
#     4  12  29  53  84 120 170 223 283 357 432 514
#
# _framework density 26.010878999999999
#
# number of rings (size 3 to 8) (size 9 to 14) (size 15 to 20)
#    0.000    0.000    4.000    3.000    5.600    4.800 
#    0.000    0.000    0.000    0.000    0.000    0.000 
#    0.000    0.000    0.000    0.000    0.000    0.000 
#
# Total GULP energy -248022.214164 kJ/mol
# GULP energy per Si atom -12401.110708 kJ/mol
# Density = 2.595168 g / cm^3
# Si number density = 26.010879 Si / 1000 Ang^3
#
#
#
# Elastic Constant Matrix: (Units=GPa)
#
#
# Indices 1 2 3 4 5 6 
#
# 1 171.4112 78.9770 52.2962 0.0000 0.0000 0.0000
# 2 78.9770 171.4112 52.2962 0.0000 0.0000 0.0000
# 3 52.2962 52.2962 176.6111 0.0000 0.0000 0.0000
# 4 0.0000 0.0000 0.0000 -31.3208 0.0000 0.0000
# 5 0.0000 0.0000 0.0000 0.0000 -31.3208 0.0000
# 6 0.0000 0.0000 0.0000 0.0000 0.0000 63.4910
#
#
#
# Elastic Compliance Matrix: (Units=1/GPa)
#
#
# Indices 1 2 3 4 5 6 
#
# 1 0.007688 -0.003130 -0.001350 0.000000 0.000000 0.000000
# 2 -0.003130 0.007688 -0.001350 0.000000 0.000000 0.000000
# 3 -0.001350 -0.001350 0.006461 0.000000 0.000000 0.000000
# 4 0.000000 0.000000 0.000000 -0.031928 0.000000 0.000000
# 5 0.000000 0.000000 0.000000 0.000000 -0.031928 0.000000
# 6 0.000000 0.000000 0.000000 0.000000 0.000000 0.015750
#
#
# Mechanical properties :
#
#
# Convention : Reuss Voigt Hill
#
# Bulk Modulus (GPa) = 98.24806 98.50803 98.37804
# Shear Modulus (GPa) = -445.79793 22.56083 -211.61855
#
# Velocity S-wave (km/s) = -13.10577 2.94829 -9.02964
# Velocity P-wave (km/s) = 13.82609 7.03875 8.41478
#
# Compressibility (1/GPa) = 0.01017832
#
# Stress axis : x y z
#
# Youngs Moduli (GPa) = 130.07262 130.07262 154.76581
#
# Poissons Ratio (x) = 0.40719 0.20886
# Poissons Ratio (y) = 0.40719 0.20886
# Poissons Ratio (z) = 0.17554 0.17554
#
# Static dielectric constant tensor:
#      x y z
#    x 5.103750 0.000000 0.000000 
#    y 0.000000 5.103750 0.000000 
#    z 0.000000 0.000000 4.836210 
# 
# 
# High freq. dielectric constant tensor:
#      x y z
#    x 2.048720 0.000000 0.000000 
#    y 0.000000 2.048720 0.000000 
#    z 0.000000 0.000000 2.069860 
# 
# From -- ./inp_files/5667.got.cif
#   From: 2010.03.12/outbox.cif.g09.slc.cpg/sg112_3_cif.got.tgz:5667.got - 2010.04.14 02:02:48.
