data_PCOD8308997
_publ_section_title
;
Structure prediction by ZEFSAII (Michael W. Deem and Ramdas Pophale) SiO2 
 PCOD8308997
Probable space group: P -4 21 C
;
_chemical_formula_sum "Si O2"
_cell_formula_units_Z 36
_cell_length_a 8.725550
_cell_length_b 8.725550
_cell_length_c 22.844086
_cell_angle_alpha 90.000000
_cell_angle_beta 90.000000
_cell_angle_gamma 90.000000
_cell_volume 1739.239577
_symmetry_space_group_name_H-M "P -4 21 C"
_symmetry_group_IT_number 114
_symmetry_cell_setting 'tetragonal'
loop_
_space_group_symop_operation_xyz
x,y,z
y,-x,-z
-x,-y,z
-y,x,-z
1/2+x,1/2-y,1/2-z
1/2-x,1/2+y,1/2-z
1/2-y,1/2-x,1/2+z
1/2+y,1/2+x,1/2+z
loop_
_atom_site_type_symbol
_atom_site_label
_atom_site_fract_x
_atom_site_fract_y
_atom_site_fract_z
Si Si1 0.013171 0.247140 0.503387
Si Si2 0.690791 0.827974 0.675538
Si Si3 0.000000 0.500000 0.410816
Si Si4 0.003893 0.326814 0.631737
Si Si5 0.890535 0.857356 0.283225
O O1 0.060403 0.362553 0.451758
O O2 0.970927 0.335640 0.562800
O O3 0.864904 0.153667 0.482573
O O4 0.555420 0.854869 0.628428
O O5 0.838260 0.761596 0.643009
O O6 0.647021 0.703806 0.723563
O O7 0.714303 0.997223 0.704718
O O8 0.000000 0.500000 0.656808
O O9 0.870455 0.228925 0.663144
O O10 0.000000 0.000000 0.277361
#
# Coordination Sequence:
#
# PCOD8308997 Si02
#       5
#     8   8   4   8   8
#     4  11  23  43  66  93 129 174 224 270 328 403
#     4  11  24  42  65  98 132 174 220 281 344 397
#     4  12  24  40  68 100 132 168 224 286 334 394
#     4  11  22  41  67  94 127 172 221 271 332 404
#     4  10  24  41  65  96 127 173 222 271 335 403
#
# _framework density 20.698702000000001
#
# number of rings (size 3 to 8) (size 9 to 14) (size 15 to 20)
#    0.000    1.111    3.333    2.667   14.000    0.000 
#    4.000    0.000    0.000    0.000    0.000    0.000 
#    0.000    0.000    0.000    0.000    0.000    0.000 
#
# Total GULP energy -446341.540233 kJ/mol
# GULP energy per Si atom -12398.376118 kJ/mol
# Density = 2.065159 g / cm^3
# Si number density = 20.698702 Si / 1000 Ang^3
#
#
#
# Elastic Constant Matrix: (Units=GPa)
#
#
# Indices 1 2 3 4 5 6 
#
# 1 95.3632 24.7253 35.4502 0.0000 0.0000 0.0000
# 2 24.7253 95.3632 35.4502 0.0000 0.0000 0.0000
# 3 35.4502 35.4502 129.5404 0.0000 0.0000 0.0000
# 4 0.0000 0.0000 0.0000 30.6638 0.0000 0.0000
# 5 0.0000 0.0000 0.0000 0.0000 30.6638 0.0000
# 6 0.0000 0.0000 0.0000 0.0000 0.0000 13.4355
#
#
#
# Elastic Compliance Matrix: (Units=1/GPa)
#
#
# Indices 1 2 3 4 5 6 
#
# 1 0.012044 -0.002112 -0.002718 0.000000 0.000000 0.000000
# 2 -0.002112 0.012044 -0.002718 0.000000 0.000000 0.000000
# 3 -0.002718 -0.002718 0.009207 0.000000 0.000000 0.000000
# 4 0.000000 0.000000 0.000000 0.032612 0.000000 0.000000
# 5 0.000000 0.000000 0.000000 0.000000 0.032612 0.000000
# 6 0.000000 0.000000 0.000000 0.000000 0.000000 0.074430
#
#
# Mechanical properties :
#
#
# Convention : Reuss Voigt Hill
#
# Bulk Modulus (GPa) = 54.94781 56.83536 55.89159
# Shear Modulus (GPa) = 25.75831 29.92869 27.84350
#
# Velocity S-wave (km/s) = 3.53149 3.80665 3.67165
# Velocity P-wave (km/s) = 6.57516 6.84389 6.71087
#
# Compressibility (1/GPa) = 0.01819909
#
# Stress axis : x y z
#
# Youngs Moduli (GPa) = 83.02679 83.02679 108.61052
#
# Poissons Ratio (x) = 0.17539 0.29520
# Poissons Ratio (y) = 0.17539 0.29520
# Poissons Ratio (z) = 0.22566 0.22566
#
# Static dielectric constant tensor:
#      x y z
#    x 3.877650 0.000000 0.000000 
#    y 0.000000 3.877650 0.000000 
#    z 0.000000 0.000000 3.848130 
# 
# 
# High freq. dielectric constant tensor:
#      x y z
#    x 1.803900 0.000000 0.000000 
#    y 0.000000 1.803900 0.000000 
#    z 0.000000 0.000000 1.826000 
# 
# From -- ./inp_files/2925.got.cif
#   From: 2010.03.12/outbox.cif.g09.slc.cpg/sg114_2_cif.got.tgz:2925.got - 2010.04.14 02:08:34.
