data_PCOD8308676
_publ_section_title
;
Structure prediction by ZEFSAII (Michael W. Deem and Ramdas Pophale) SiO2 
 PCOD8308676
Probable space group: P -4 21 M 
;
_chemical_formula_sum "Si O2"
_cell_formula_units_Z 48
_cell_length_a 14.480268
_cell_length_b 14.480268
_cell_length_c 10.700042
_cell_angle_alpha 90.000000
_cell_angle_beta 90.000000
_cell_angle_gamma 90.000000
_cell_volume 2243.565133
_symmetry_space_group_name_H-M "P -4 21 M "
_symmetry_group_IT_number 113
_symmetry_cell_setting 'tetragonal'
loop_
_space_group_symop_operation_xyz
x,y,z
y,-x,-z
-x,-y,z
-y,x,-z
1/2+x,1/2-y,-z
1/2-x,1/2+y,-z
1/2-y,1/2-x,z
1/2+y,1/2+x,z
loop_
_atom_site_type_symbol
_atom_site_label
_atom_site_fract_x
_atom_site_fract_y
_atom_site_fract_z
Si Si1 0.579002 0.565955 0.169571
Si Si2 0.052113 0.826521 0.383238
Si Si3 0.851118 0.496758 0.807997
Si Si4 0.411100 0.762680 0.964203
Si Si5 0.644204 0.001932 0.725870
Si Si6 0.476502 0.690310 0.349392
O O1 0.500000 0.500000 0.110768
O O2 0.626410 0.518019 0.288436
O O3 0.652016 0.595950 0.061137
O O4 0.531105 0.655500 0.227069
O O5 0.046543 0.715938 0.368079
O O6 0.153349 0.870277 0.355151
O O7 0.026433 0.845718 0.526404
O O8 0.891208 0.391208 0.812925
O O9 0.800408 0.518393 0.674905
O O10 0.937268 0.562733 0.821019
O O11 0.780414 0.520283 0.920525
O O12 0.309801 0.809801 0.986187
O O13 0.457660 0.804789 0.843662
O O14 0.575820 0.924181 0.776879
O O15 0.584742 0.084742 0.659739
#
# Coordination Sequence:
#
# PCOD8308676 Si02
#       6
#     8   8   8   8   8   8
#     4   9  19  36  60  89 120 154 203 254 313 369
#     4  10  20  36  61  87 118 162 204 251 312 369
#     4  10  23  43  64  88 123 167 208 254 318 381
#     4   9  18  38  63  87 119 161 207 254 304 372
#     4   9  18  34  58  88 120 158 206 257 306 362
#     4  11  21  38  62  87 121 161 205 254 311 380
#
# _framework density 21.394521000000001
#
# number of rings (size 3 to 8) (size 9 to 14) (size 15 to 20)
#    0.000    2.333    1.667    0.500    0.000    4.667 
#    9.000    1.667    0.000    0.000    0.000    0.000 
#    0.000    0.000    0.000    0.000    0.000    0.000 
#
# Total GULP energy -594698.314929 kJ/mol
# GULP energy per Si atom -12389.548228 kJ/mol
# Density = 2.134583 g / cm^3
# Si number density = 21.394521 Si / 1000 Ang^3
#
#
#
# Elastic Constant Matrix: (Units=GPa)
#
#
# Indices 1 2 3 4 5 6 
#
# 1 111.8383 47.7472 39.7647 0.0000 0.0000 0.0000
# 2 47.7472 111.8389 39.7656 0.0000 0.0000 0.0000
# 3 39.7647 39.7656 76.9035 0.0000 0.0000 0.0000
# 4 0.0000 0.0000 0.0000 15.5953 0.0000 0.0000
# 5 0.0000 0.0000 0.0000 0.0000 15.5944 0.0000
# 6 0.0000 0.0000 0.0000 0.0000 0.0000 22.2305
#
#
#
# Elastic Compliance Matrix: (Units=1/GPa)
#
#
# Indices 1 2 3 4 5 6 
#
# 1 0.012022 -0.003581 -0.004365 0.000000 0.000000 0.000000
# 2 -0.003581 0.012022 -0.004365 0.000000 0.000000 0.000000
# 3 -0.004365 -0.004365 0.017517 0.000000 0.000000 0.000000
# 4 0.000000 0.000000 0.000000 0.064122 0.000000 0.000000
# 5 0.000000 0.000000 0.000000 0.000000 0.064126 0.000000
# 6 0.000000 0.000000 0.000000 0.000000 0.000000 0.044983
#
#
# Mechanical properties :
#
#
# Convention : Reuss Voigt Hill
#
# Bulk Modulus (GPa) = 59.02967 61.68178 60.35572
# Shear Modulus (GPa) = 20.40316 22.23758 21.32037
#
# Velocity S-wave (km/s) = 3.09149 3.22748 3.16022
# Velocity P-wave (km/s) = 6.35563 6.54080 6.44888
#
# Compressibility (1/GPa) = 0.01694063
#
# Stress axis : x y z
#
# Youngs Moduli (GPa) = 83.18017 83.17988 57.08637
#
# Poissons Ratio (x) = 0.29784 0.24917
# Poissons Ratio (y) = 0.29784 0.24918
# Poissons Ratio (z) = 0.36307 0.36308
#
# Static dielectric constant tensor:
#      x y z
#    x 4.143970 0.000000 0.000000 
#    y 0.000000 4.143970 0.000000 
#    z 0.000000 0.000000 3.698660 
# 
# 
# High freq. dielectric constant tensor:
#      x y z
#    x 1.834840 0.000000 0.000000 
#    y 0.000000 1.834840 0.000000 
#    z 0.000000 0.000000 1.832820 
# 
# From -- ./inp_files/1854.got.cif
#   From: 2010.03.12/outbox.cif.g09.slc.cpg/sg113_cif.got.tgz:1854.got - 2010.04.14 02:06:34.
