data_PCOD8308900
_publ_section_title
;
Structure prediction by ZEFSAII (Michael W. Deem and Ramdas Pophale) SiO2 
 PCOD8308900
Probable space group: P -4 21 C
;
_chemical_formula_sum "Si O2"
_cell_formula_units_Z 34
_cell_length_a 11.094286
_cell_length_b 11.094286
_cell_length_c 13.628334
_cell_angle_alpha 90.000000
_cell_angle_beta 90.000000
_cell_angle_gamma 90.000000
_cell_volume 1677.418712
_symmetry_space_group_name_H-M "P -4 21 C"
_symmetry_group_IT_number 114
_symmetry_cell_setting 'tetragonal'
loop_
_space_group_symop_operation_xyz
x,y,z
y,-x,-z
-x,-y,z
-y,x,-z
1/2+x,1/2-y,1/2-z
1/2-x,1/2+y,1/2-z
1/2-y,1/2-x,1/2+z
1/2+y,1/2+x,1/2+z
loop_
_atom_site_type_symbol
_atom_site_label
_atom_site_fract_x
_atom_site_fract_y
_atom_site_fract_z
Si Si1 0.477393 0.246717 0.079076
Si Si2 0.895939 0.411390 0.260967
Si Si3 0.293006 0.152399 0.934009
Si Si4 0.500000 0.500000 0.000000
Si Si5 0.192746 0.431244 0.436968
O O1 0.448938 0.212040 0.191493
O O2 0.521871 0.384446 0.070381
O O3 0.574318 0.148499 0.042366
O O4 0.356457 0.234309 0.015585
O O5 0.823102 0.367493 0.166096
O O6 0.816057 0.482899 0.341198
O O7 0.000000 0.500000 0.223726
O O8 0.155229 0.193571 0.920969
O O9 0.290493 0.012432 0.965909
#
# Coordination Sequence:
#
# PCOD8308900 Si02
#       5
#     8   8   8   2   8
#     4  10  21  39  60  91 122 157 213 255 314 382
#     4   9  20  40  62  87 121 167 208 247 312 380
#     4  11  21  41  65  86 127 166 203 264 310 373
#     4  12  20  36  64  92 120 158 200 280 316 340
#     4  10  22  40  62  93 122 164 216 249 318 385
#
# _framework density 20.269241000000001
#
# number of rings (size 3 to 8) (size 9 to 14) (size 15 to 20)
#    0.000    1.882    2.353    3.529    0.000    2.353 
#   16.941    0.000    0.000    0.000    0.000    0.000 
#    0.000    0.000    0.000    0.000    0.000    0.000 
#
# Total GULP energy -421491.508498 kJ/mol
# GULP energy per Si atom -12396.809073 kJ/mol
# Density = 2.022311 g / cm^3
# Si number density = 20.269241 Si / 1000 Ang^3
#
#
#
# Elastic Constant Matrix: (Units=GPa)
#
#
# Indices 1 2 3 4 5 6 
#
# 1 105.5022 25.5945 33.9021 0.0000 0.0000 0.0000
# 2 25.5945 105.5022 33.9021 0.0000 0.0000 0.0000
# 3 33.9021 33.9021 81.9050 0.0000 0.0000 0.0000
# 4 0.0000 0.0000 0.0000 19.1085 0.0000 0.0000
# 5 0.0000 0.0000 0.0000 0.0000 19.1085 0.0000
# 6 0.0000 0.0000 0.0000 0.0000 0.0000 34.9896
#
#
#
# Elastic Compliance Matrix: (Units=1/GPa)
#
#
# Indices 1 2 3 4 5 6 
#
# 1 0.011110 -0.001404 -0.004017 0.000000 0.000000 0.000000
# 2 -0.001404 0.011110 -0.004017 0.000000 0.000000 0.000000
# 3 -0.004017 -0.004017 0.015535 0.000000 0.000000 0.000000
# 4 0.000000 0.000000 0.000000 0.052333 0.000000 0.000000
# 5 0.000000 0.000000 0.000000 0.000000 0.052333 0.000000
# 6 0.000000 0.000000 0.000000 0.000000 0.000000 0.028580
#
#
# Mechanical properties :
#
#
# Convention : Reuss Voigt Hill
#
# Bulk Modulus (GPa) = 52.97463 53.30075 53.13769
# Shear Modulus (GPa) = 25.48793 27.94204 26.71499
#
# Velocity S-wave (km/s) = 3.54993 3.71690 3.63437
# Velocity P-wave (km/s) = 6.55705 6.69133 6.62453
#
# Compressibility (1/GPa) = 0.01887696
#
# Stress axis : x y z
#
# Youngs Moduli (GPa) = 90.00806 90.00806 64.37062
#
# Poissons Ratio (x) = 0.12640 0.25860
# Poissons Ratio (y) = 0.12640 0.25860
# Poissons Ratio (z) = 0.36160 0.36160
#
# Static dielectric constant tensor:
#      x y z
#    x 3.681500 0.000000 0.000000 
#    y 0.000000 3.681500 0.000000 
#    z 0.000000 0.000000 3.459840 
# 
# 
# High freq. dielectric constant tensor:
#      x y z
#    x 1.788240 0.000000 0.000000 
#    y 0.000000 1.788240 0.000000 
#    z 0.000000 0.000000 1.777910 
# 
# From -- ./inp_files/1410.got.cif
#   From: 2010.03.12/outbox.cif.g09.slc.cpg/sg114_1_cif.got.tgz:1410.got - 2010.04.14 02:08:34.
