data_PCOD8308460
_publ_section_title
;
Structure prediction by ZEFSAII (Michael W. Deem and Ramdas Pophale) SiO2 
 PCOD8308460
Probable space group: P -4 2 C
;
_chemical_formula_sum "Si O2"
_cell_formula_units_Z 48
_cell_length_a 9.382854
_cell_length_b 9.382854
_cell_length_c 27.892044
_cell_angle_alpha 90.000000
_cell_angle_beta 90.000000
_cell_angle_gamma 90.000000
_cell_volume 2455.558352
_symmetry_space_group_name_H-M "P -4 2 C"
_symmetry_group_IT_number 112
_symmetry_cell_setting 'tetragonal'
loop_
_space_group_symop_operation_xyz
x,y,z
y,-x,-z
-x,-y,z
-y,x,-z
x,-y,1/2-z
-x,y,1/2-z
-y,-x,1/2+z
y,x,1/2+z
loop_
_atom_site_type_symbol
_atom_site_label
_atom_site_fract_x
_atom_site_fract_y
_atom_site_fract_z
Si Si1 0.980997 0.332477 0.694148
Si Si2 0.213429 0.156851 0.640238
Si Si3 0.347860 0.674764 0.054088
Si Si4 0.835312 0.481627 0.301499
Si Si5 0.673994 0.341464 0.444951
Si Si6 0.179264 0.247848 0.359298
O O1 0.825635 0.277110 0.680883
O O2 0.000000 0.500000 0.683297
O O3 0.000000 0.298098 0.750000
O O4 0.072749 0.234396 0.658340
O O5 0.327354 0.205867 0.679503
O O6 0.256938 0.213620 0.587819
O O7 0.196157 0.985164 0.639299
O O8 0.512836 0.710346 0.065494
O O9 0.316006 0.509480 0.063650
O O10 0.247041 0.770433 0.087954
O O11 0.308359 0.715614 0.999795
O O12 0.755310 0.500000 0.250000
O O13 0.797186 0.589674 0.343746
O O14 0.000000 0.500000 0.291115
#
# Coordination Sequence:
#
# PCOD8308460 Si02
#       6
#     8   8   8   8   8   8
#     4  11  25  43  61  85 121 163 205 247 304 369
#     4  11  21  37  61  88 121 157 199 249 303 362
#     4   9  18  35  59  85 117 160 203 246 298 358
#     4   9  18  32  55  87 119 149 187 237 292 353
#     4   9  18  35  59  85 117 160 203 246 298 358
#     4  11  21  37  61  88 121 157 199 249 303 362
#
# _framework density 19.54749
#
# number of rings (size 3 to 8) (size 9 to 14) (size 15 to 20)
#    0.000    2.000    1.667    3.500    0.000    2.667 
#    3.000    0.000    0.000    4.000    0.000    0.000 
#    0.000    0.000    0.000    0.000    0.000    0.000 
#
# Total GULP energy -594902.508466 kJ/mol
# GULP energy per Si atom -12393.802260 kJ/mol
# Density = 1.950300 g / cm^3
# Si number density = 19.547490 Si / 1000 Ang^3
#
#
#
# Elastic Constant Matrix: (Units=GPa)
#
#
# Indices 1 2 3 4 5 6 
#
# 1 69.3931 22.5851 39.4340 0.0000 0.0000 0.0000
# 2 22.5851 69.3931 39.4340 0.0000 0.0000 0.0000
# 3 39.4340 39.4340 140.0642 0.0000 0.0000 0.0000
# 4 0.0000 0.0000 0.0000 46.2225 0.0000 0.0000
# 5 0.0000 0.0000 0.0000 0.0000 46.2225 0.0000
# 6 0.0000 0.0000 0.0000 0.0000 0.0000 25.0502
#
#
#
# Elastic Compliance Matrix: (Units=1/GPa)
#
#
# Indices 1 2 3 4 5 6 
#
# 1 0.017848 -0.003516 -0.004035 0.000000 0.000000 0.000000
# 2 -0.003516 0.017848 -0.004035 0.000000 0.000000 0.000000
# 3 -0.004035 -0.004035 0.009412 0.000000 0.000000 0.000000
# 4 0.000000 0.000000 0.000000 0.021634 0.000000 0.000000
# 5 0.000000 0.000000 0.000000 0.000000 0.021634 0.000000
# 6 0.000000 0.000000 0.000000 0.000000 0.000000 0.039920
#
#
# Mechanical properties :
#
#
# Convention : Reuss Voigt Hill
#
# Bulk Modulus (GPa) = 45.58823 53.52853 49.55838
# Shear Modulus (GPa) = 31.49004 35.32554 33.40779
#
# Velocity S-wave (km/s) = 4.01802 4.25569 4.13856
# Velocity P-wave (km/s) = 6.70063 7.18270 6.94584
#
# Compressibility (1/GPa) = 0.02193549
#
# Stress axis : x y z
#
# Youngs Moduli (GPa) = 56.02879 56.02879 106.25090
#
# Poissons Ratio (x) = 0.19699 0.42873
# Poissons Ratio (y) = 0.19699 0.42873
# Poissons Ratio (z) = 0.22608 0.22608
#
# Static dielectric constant tensor:
#      x y z
#    x 3.175920 0.000000 0.000000 
#    y 0.000000 3.175920 0.000000 
#    z 0.000000 0.000000 3.702250 
# 
# 
# High freq. dielectric constant tensor:
#      x y z
#    x 1.748670 0.000000 0.000000 
#    y 0.000000 1.748670 0.000000 
#    z 0.000000 0.000000 1.776960 
# 
# From -- ./inp_files/6275.got.cif
#   From: 2010.03.12/outbox.cif.g09.slc.cpg/sg112_4_cif.got.tgz:6275.got - 2010.04.14 02:02:48.
