data_PCOD8308757
_publ_section_title
;
Structure prediction by ZEFSAII (Michael W. Deem and Ramdas Pophale) SiO2 
 PCOD8308757
Probable space group: P -4 21 M 
;
_chemical_formula_sum "Si O2"
_cell_formula_units_Z 48
_cell_length_a 11.480451
_cell_length_b 11.480451
_cell_length_c 17.970788
_cell_angle_alpha 90.000000
_cell_angle_beta 90.000000
_cell_angle_gamma 90.000000
_cell_volume 2368.563429
_symmetry_space_group_name_H-M "P -4 21 M "
_symmetry_group_IT_number 113
_symmetry_cell_setting 'tetragonal'
loop_
_space_group_symop_operation_xyz
x,y,z
y,-x,-z
-x,-y,z
-y,x,-z
1/2+x,1/2-y,-z
1/2-x,1/2+y,-z
1/2-y,1/2-x,z
1/2+y,1/2+x,z
loop_
_atom_site_type_symbol
_atom_site_label
_atom_site_fract_x
_atom_site_fract_y
_atom_site_fract_z
Si Si1 0.860054 0.178635 0.974943
Si Si2 0.329356 0.359298 0.751891
Si Si3 0.596348 0.594828 0.591043
Si Si4 0.000018 0.308996 0.498583
Si Si5 0.479045 0.371425 0.878662
Si Si6 0.814372 0.498611 0.861241
O O1 0.757895 0.257895 0.004669
O O2 0.810751 0.096135 0.908402
O O3 0.963780 0.254181 0.938689
O O4 0.899144 0.109446 0.048222
O O5 0.233476 0.266525 0.726602
O O6 0.397286 0.402328 0.679808
O O7 0.419137 0.299569 0.811485
O O8 0.274285 0.470202 0.794746
O O9 0.500000 0.500000 0.566604
O O10 0.554280 0.723276 0.564144
O O11 0.723798 0.553731 0.561719
O O12 0.106450 0.393551 0.469885
O O13 0.894065 0.394065 0.527243
O O14 0.500000 0.500000 0.846231
O O15 0.888632 0.611369 0.882140
O O16 0.893584 0.393584 0.830193
#
# Coordination Sequence:
#
# PCOD8308757 Si02
#       6
#     8   8   8   8   8   8
#     4  11  21  34  56  81 111 152 200 255 305 354
#     4  11  23  38  61  87 123 164 200 246 306 369
#     4  12  24  42  67 101 134 169 209 263 317 385
#     4  11  23  43  71  99 132 172 216 265 316 378
#     4  12  20  37  55  82 112 149 199 250 299 361
#     4   9  19  35  55  84 119 156 201 251 300 350
#
# _framework density 20.265447999999999
#
# number of rings (size 3 to 8) (size 9 to 14) (size 15 to 20)
#    0.000    1.000    5.000    2.500    0.000    2.667 
#    0.000    2.500    0.000    2.500    0.000    0.000 
#    0.000    0.000    0.000    0.000    0.000    0.000 
#
# Total GULP energy -594661.180084 kJ/mol
# GULP energy per Si atom -12388.774585 kJ/mol
# Density = 2.021932 g / cm^3
# Si number density = 20.265448 Si / 1000 Ang^3
#
#
#
# Elastic Constant Matrix: (Units=GPa)
#
#
# Indices 1 2 3 4 5 6 
#
# 1 100.8180 36.9889 29.4588 0.0000 0.0000 0.0000
# 2 36.9889 100.8162 29.4581 0.0000 0.0000 0.0000
# 3 29.4588 29.4581 110.9411 0.0000 0.0000 0.0000
# 4 0.0000 0.0000 0.0000 23.5056 0.0000 0.0000
# 5 0.0000 0.0000 0.0000 0.0000 23.5056 0.0000
# 6 0.0000 0.0000 0.0000 0.0000 0.0000 35.2454
#
#
#
# Elastic Compliance Matrix: (Units=1/GPa)
#
#
# Indices 1 2 3 4 5 6 
#
# 1 0.011926 -0.003741 -0.002174 0.000000 0.000000 0.000000
# 2 -0.003741 0.011927 -0.002174 0.000000 0.000000 0.000000
# 3 -0.002174 -0.002174 0.010168 0.000000 0.000000 0.000000
# 4 0.000000 0.000000 0.000000 0.042543 0.000000 0.000000
# 5 0.000000 0.000000 0.000000 0.000000 0.042543 0.000000
# 6 0.000000 0.000000 0.000000 0.000000 0.000000 0.028372
#
#
# Mechanical properties :
#
#
# Convention : Reuss Voigt Hill
#
# Bulk Modulus (GPa) = 56.03682 56.04300 56.03991
# Shear Modulus (GPa) = 29.48045 30.89593 30.18819
#
# Velocity S-wave (km/s) = 3.81821 3.90880 3.86377
# Velocity P-wave (km/s) = 6.86657 6.93442 6.90057
#
# Compressibility (1/GPa) = 0.01784541
#
# Stress axis : x y z
#
# Youngs Moduli (GPa) = 83.84773 83.84646 98.34650
#
# Poissons Ratio (x) = 0.31364 0.21377
# Poissons Ratio (y) = 0.31364 0.21377
# Poissons Ratio (z) = 0.18226 0.18225
#
# Static dielectric constant tensor:
#      x y z
#    x 3.908570 0.000000 0.000000 
#    y 0.000000 3.908570 0.000000 
#    z 0.000000 0.000000 3.422500 
# 
# 
# High freq. dielectric constant tensor:
#      x y z
#    x 1.797130 0.000000 0.000000 
#    y 0.000000 1.797130 0.000000 
#    z 0.000000 0.000000 1.772740 
# 
# From -- ./inp_files/2495.got.cif
#   From: 2010.03.12/outbox.cif.g09.slc.cpg/sg113_cif.got.tgz:2495.got - 2010.04.14 02:06:34.
