data_PCOD8308508
_publ_section_title
;
Structure prediction by ZEFSAII (Michael W. Deem and Ramdas Pophale) SiO2 
 PCOD8308508
Probable space group: P -4 2 C
;
_chemical_formula_sum "Si O2"
_cell_formula_units_Z 40
_cell_length_a 13.757799
_cell_length_b 13.757799
_cell_length_c 9.670858
_cell_angle_alpha 90.000000
_cell_angle_beta 90.000000
_cell_angle_gamma 90.000000
_cell_volume 1830.471312
_symmetry_space_group_name_H-M "P -4 2 C"
_symmetry_group_IT_number 112
_symmetry_cell_setting 'tetragonal'
loop_
_space_group_symop_operation_xyz
x,y,z
y,-x,-z
-x,-y,z
-y,x,-z
x,-y,1/2-z
-x,y,1/2-z
-y,-x,1/2+z
y,x,1/2+z
loop_
_atom_site_type_symbol
_atom_site_label
_atom_site_fract_x
_atom_site_fract_y
_atom_site_fract_z
Si Si1 0.756068 0.000000 0.250000
Si Si2 0.193922 0.216680 0.259862
Si Si3 0.679069 0.280649 0.488588
Si Si4 0.000000 0.672561 0.250000
Si Si5 0.246040 0.469082 0.909138
Si Si6 0.963099 0.400717 0.537923
O O1 0.817841 0.900687 0.255813
O O2 0.689903 0.010611 0.385205
O O3 0.216926 0.252250 0.413637
O O4 0.090682 0.258551 0.216972
O O5 0.279272 0.261937 0.165047
O O6 0.672050 0.394771 0.533730
O O7 0.567925 0.242708 0.497668
O O8 0.995009 0.602909 0.382563
O O9 0.260938 0.500000 0.750000
O O10 0.152353 0.401529 0.940278
O O11 0.000000 0.500000 0.607094
#
# Coordination Sequence:
#
# PCOD8308508 Si02
#       6
#     4   8   8   4   8   8
#     4  12  23  43  72  96 138 198 236 284 360 440
#     4  12  24  45  67 105 145 188 241 301 356 430
#     4  12  25  45  73 101 145 187 243 302 363 430
#     4  12  25  41  64 104 144 180 228 310 364 404
#     4  12  24  47  71 105 145 194 237 302 372 442
#     4  12  23  40  69 101 134 180 245 295 353 423
#
# _framework density 21.852293
#
# number of rings (size 3 to 8) (size 9 to 14) (size 15 to 20)
#    0.000    0.000    6.000    5.400    0.000    1.600 
#    0.000    1.000    0.000    4.800    0.000    0.000 
#    0.000    0.000    0.000    0.000    0.000    0.000 
#
# Total GULP energy -496013.001672 kJ/mol
# GULP energy per Si atom -12400.325042 kJ/mol
# Density = 2.180256 g / cm^3
# Si number density = 21.852293 Si / 1000 Ang^3
#
#
#
# Elastic Constant Matrix: (Units=GPa)
#
#
# Indices 1 2 3 4 5 6 
#
# 1 102.2061 11.9391 2.8273 0.0000 0.0000 0.0000
# 2 11.9391 102.2061 2.8273 0.0000 0.0000 0.0000
# 3 2.8273 2.8273 87.4295 0.0000 0.0000 0.0000
# 4 0.0000 0.0000 0.0000 30.9687 0.0000 0.0000
# 5 0.0000 0.0000 0.0000 0.0000 30.9687 0.0000
# 6 0.0000 0.0000 0.0000 0.0000 0.0000 35.6597
#
#
#
# Elastic Compliance Matrix: (Units=1/GPa)
#
#
# Indices 1 2 3 4 5 6 
#
# 1 0.009927 -0.001152 -0.000284 0.000000 0.000000 0.000000
# 2 -0.001152 0.009927 -0.000284 0.000000 0.000000 0.000000
# 3 -0.000284 -0.000284 0.011456 0.000000 0.000000 0.000000
# 4 0.000000 0.000000 0.000000 0.032291 0.000000 0.000000
# 5 0.000000 0.000000 0.000000 0.000000 0.032291 0.000000
# 6 0.000000 0.000000 0.000000 0.000000 0.000000 0.028043
#
#
# Mechanical properties :
#
#
# Convention : Reuss Voigt Hill
#
# Bulk Modulus (GPa) = 35.87993 36.33659 36.10826
# Shear Modulus (GPa) = 36.58659 37.80261 37.19460
#
# Velocity S-wave (km/s) = 4.09622 4.16374 4.13012
# Velocity P-wave (km/s) = 6.23113 6.30714 6.26925
#
# Compressibility (1/GPa) = 0.02787073
#
# Stress axis : x y z
#
# Youngs Moduli (GPa) = 100.74002 100.74002 87.28943
#
# Poissons Ratio (x) = 0.11602 0.02477
# Poissons Ratio (y) = 0.11602 0.02477
# Poissons Ratio (z) = 0.02859 0.02859
#
# Static dielectric constant tensor:
#      x y z
#    x 3.976600 0.000000 0.000000 
#    y 0.000000 3.976600 0.000000 
#    z 0.000000 0.000000 3.981520 
# 
# 
# High freq. dielectric constant tensor:
#      x y z
#    x 1.857340 0.000000 0.000000 
#    y 0.000000 1.857340 0.000000 
#    z 0.000000 0.000000 1.867350 
# 
# From -- ./inp_files/1289.got.cif
#   From: 2010.03.12/outbox.cif.g09.slc.cpg/sg112_1_cif.got.tgz:1289.got - 2010.04.14 02:02:48.
