data_PCOD8308605
_publ_section_title
;
Structure prediction by ZEFSAII (Michael W. Deem and Ramdas Pophale) SiO2 
 PCOD8308605
Probable space group: P -4 21 M 
;
_chemical_formula_sum "Si O2"
_cell_formula_units_Z 64
_cell_length_a 12.111381
_cell_length_b 12.111381
_cell_length_c 23.484658
_cell_angle_alpha 90.000000
_cell_angle_beta 90.000000
_cell_angle_gamma 90.000000
_cell_volume 3444.859969
_symmetry_space_group_name_H-M "P -4 21 M "
_symmetry_group_IT_number 113
_symmetry_cell_setting 'tetragonal'
loop_
_space_group_symop_operation_xyz
x,y,z
y,-x,-z
-x,-y,z
-y,x,-z
1/2+x,1/2-y,-z
1/2-x,1/2+y,-z
1/2-y,1/2-x,z
1/2+y,1/2+x,z
loop_
_atom_site_type_symbol
_atom_site_label
_atom_site_fract_x
_atom_site_fract_y
_atom_site_fract_z
Si Si1 0.980064 0.874931 0.662630
Si Si2 0.592462 0.269984 0.443999
Si Si3 0.609555 0.710431 0.053233
Si Si4 0.127916 0.973721 0.862056
Si Si5 0.322099 0.356863 0.929943
Si Si6 0.560584 0.761640 0.674772
Si Si7 0.058433 0.734807 0.455287
Si Si8 0.815671 0.135407 0.743249
O O1 0.992745 0.792471 0.608316
O O2 0.853085 0.871687 0.684656
O O3 0.068084 0.839186 0.711116
O O4 0.000000 0.000000 0.642405
O O5 0.686616 0.186616 0.421355
O O6 0.540953 0.221041 0.500958
O O7 0.644932 0.387186 0.460948
O O8 0.672507 0.827494 0.060501
O O9 0.666936 0.620099 0.093857
O O10 0.482655 0.720869 0.072329
O O11 0.617010 0.667117 0.989167
O O12 0.160418 0.932327 0.800145
O O13 0.180073 0.091578 0.880357
O O14 0.000000 0.000000 0.866853
O O15 0.213295 0.286706 0.921068
O O16 0.639325 0.860676 0.695913
O O17 0.522804 0.781764 0.609792
O O18 0.445394 0.763150 0.707791
O O19 0.143606 0.643606 0.475556
O O20 0.750411 0.250411 0.754026
#
# Coordination Sequence:
#
# PCOD8308605 Si02
#       8
#     8   8   8   8   8   8   8   8
#     4   9  19  36  56  79 104 141 188 234 277 330
#     4  10  21  34  53  81 111 142 182 234 287 340
#     4  10  19  34  57  84 119 155 189 235 283 333
#     4  10  20  36  60  82 113 150 194 234 276 331
#     4  10  20  34  56  86 117 153 195 235 281 333
#     4   9  19  38  58  76 106 149 192 233 278 334
#     4   9  20  34  51  77 107 141 182 227 280 339
#     4  11  23  37  56  86 116 146 185 233 286 340
#
# _framework density 18.578405
#
# number of rings (size 3 to 8) (size 9 to 14) (size 15 to 20)
#    0.000    2.250    1.250    2.625    5.250    2.250 
#    0.000    1.250    0.000    3.000    0.000    0.000 
#    0.000    0.000    0.000    0.000    0.000    0.000 
#
# Total GULP energy -793185.566823 kJ/mol
# GULP energy per Si atom -12393.524482 kJ/mol
# Density = 1.853612 g / cm^3
# Si number density = 18.578405 Si / 1000 Ang^3
#
#
#
# Elastic Constant Matrix: (Units=GPa)
#
#
# Indices 1 2 3 4 5 6 
#
# 1 67.3381 29.9882 28.6184 0.0000 0.0000 0.0000
# 2 29.9882 67.3348 28.6178 0.0000 0.0000 0.0000
# 3 28.6184 28.6178 86.9202 0.0000 0.0000 0.0000
# 4 0.0000 0.0000 0.0000 19.8585 0.0000 0.0000
# 5 0.0000 0.0000 0.0000 0.0000 19.8586 0.0000
# 6 0.0000 0.0000 0.0000 0.0000 0.0000 22.2391
#
#
#
# Elastic Compliance Matrix: (Units=1/GPa)
#
#
# Indices 1 2 3 4 5 6 
#
# 1 0.019758 -0.007016 -0.004195 0.000000 0.000000 0.000000
# 2 -0.007016 0.019759 -0.004195 0.000000 0.000000 0.000000
# 3 -0.004195 -0.004195 0.014267 0.000000 0.000000 0.000000
# 4 0.000000 0.000000 0.000000 0.050356 0.000000 0.000000
# 5 0.000000 0.000000 0.000000 0.000000 0.050356 0.000000
# 6 0.000000 0.000000 0.000000 0.000000 0.000000 0.044966
#
#
# Mechanical properties :
#
#
# Convention : Reuss Voigt Hill
#
# Bulk Modulus (GPa) = 43.53419 44.00466 43.76942
# Shear Modulus (GPa) = 21.01427 21.34915 21.18171
#
# Velocity S-wave (km/s) = 3.36685 3.39357 3.38024
# Velocity P-wave (km/s) = 6.21271 6.25239 6.23259
#
# Compressibility (1/GPa) = 0.02297045
#
# Stress axis : x y z
#
# Youngs Moduli (GPa) = 50.61223 50.60969 70.09003
#
# Poissons Ratio (x) = 0.35510 0.29404
# Poissons Ratio (y) = 0.35512 0.29405
# Poissons Ratio (z) = 0.21233 0.21233
#
# Static dielectric constant tensor:
#      x y z
#    x 3.388010 0.000000 0.000000 
#    y 0.000000 3.388010 0.000000 
#    z 0.000000 0.000000 3.429300 
# 
# 
# High freq. dielectric constant tensor:
#      x y z
#    x 1.712630 0.000000 0.000000 
#    y 0.000000 1.712630 0.000000 
#    z 0.000000 0.000000 1.717780 
# 
# From -- ./inp_files/2881.got.cif
#   From: 2010.03.12/outbox.cif.g09.slc.cpg/sg113_cif.got.tgz:2881.got - 2010.04.14 02:06:34.
