data_PCOD8308277
_publ_section_title
;
Structure prediction by ZEFSAII (Michael W. Deem and Ramdas Pophale) SiO2 
 PCOD8308277
Probable space group: P -4 2 M 
;
_chemical_formula_sum "Si O2"
_cell_formula_units_Z 36
_cell_length_a 11.706852
_cell_length_b 11.706852
_cell_length_c 16.329291
_cell_angle_alpha 90.000000
_cell_angle_beta 90.000000
_cell_angle_gamma 90.000000
_cell_volume 2237.935598
_symmetry_space_group_name_H-M "P -4 2 M "
_symmetry_group_IT_number 111
_symmetry_cell_setting 'tetragonal'
loop_
_space_group_symop_operation_xyz
x,y,z
y,-x,-z
-x,-y,z
-y,x,-z
x,-y,-z
-x,y,-z
-y,-x,z
y,x,z
loop_
_atom_site_type_symbol
_atom_site_label
_atom_site_fract_x
_atom_site_fract_y
_atom_site_fract_z
Si Si1 0.191243 0.000000 0.000000
Si Si2 0.630623 0.815604 0.717724
Si Si3 1.000000 0.628659 0.854963
Si Si4 0.369377 0.815604 0.717723
Si Si5 0.363831 1.000000 0.408259
O O1 0.272901 1.000000 0.921893
O O2 0.112935 0.112935 1.000000
O O3 0.699928 0.699928 0.726448
O O4 0.500000 0.780760 0.703411
O O5 0.677896 0.887671 0.640195
O O6 0.644503 0.887961 0.800161
O O7 0.112038 0.644503 0.800161
O O8 0.000000 0.500000 0.893132
O O9 0.300072 0.699929 0.726448
O O10 0.322104 0.887672 0.640195
O O11 0.500000 0.000000 0.408461
O O12 0.312973 0.000000 0.500000
#
# Coordination Sequence:
#
# PCOD8308277 Si02
#       5
#     4   8   8   8   8
#     4  11  21  30  46  72  95 113 140 186 236 267
#     4   9  17  29  46  67  90 116 146 182 222 262
#     4   9  18  33  49  64  87 121 155 179 208 262
#     4   9  17  29  46  67  90 116 146 182 222 262
#     4   8  15  28  44  61  83 116 153 179 206 254
#
# _framework density 16.086252000000002
#
# number of rings (size 3 to 8) (size 9 to 14) (size 15 to 20)
#    0.000    3.000    0.000    4.333    0.000    1.333 
#    0.000    0.000    0.000    6.000    0.000   12.444 
#    0.000   16.000    0.000    0.000    0.000    0.000 
#
# Total GULP energy -446236.776196 kJ/mol
# GULP energy per Si atom -12395.466005 kJ/mol
# Density = 1.604964 g / cm^3
# Si number density = 16.086252 Si / 1000 Ang^3
#
#
#
# Elastic Constant Matrix: (Units=GPa)
#
#
# Indices 1 2 3 4 5 6 
#
# 1 102.8917 66.2256 48.7214 0.0000 0.0000 0.0000
# 2 66.2256 102.8936 48.7213 0.0000 0.0000 0.0000
# 3 48.7214 48.7213 103.7036 0.0000 0.0000 0.0000
# 4 0.0000 0.0000 0.0000 12.3357 0.0000 0.0000
# 5 0.0000 0.0000 0.0000 0.0000 12.3372 0.0000
# 6 0.0000 0.0000 0.0000 0.0000 0.0000 28.8581
#
#
#
# Elastic Compliance Matrix: (Units=1/GPa)
#
#
# Indices 1 2 3 4 5 6 
#
# 1 0.017690 -0.009582 -0.003809 0.000000 0.000000 0.000000
# 2 -0.009582 0.017690 -0.003809 0.000000 0.000000 0.000000
# 3 -0.003809 -0.003809 0.013222 0.000000 0.000000 0.000000
# 4 0.000000 0.000000 0.000000 0.081065 0.000000 0.000000
# 5 0.000000 0.000000 0.000000 0.000000 0.081056 0.000000
# 6 0.000000 0.000000 0.000000 0.000000 0.000000 0.034652
#
#
# Mechanical properties :
#
#
# Convention : Reuss Voigt Hill
#
# Bulk Modulus (GPa) = 70.41745 70.75838 70.58791
# Shear Modulus (GPa) = 17.57407 20.42760 19.00084
#
# Velocity S-wave (km/s) = 3.30887 3.56740 3.44057
# Velocity P-wave (km/s) = 7.64644 7.81350 7.73043
#
# Compressibility (1/GPa) = 0.01420103
#
# Stress axis : x y z
#
# Youngs Moduli (GPa) = 56.52814 56.52955 75.63131
#
# Poissons Ratio (x) = 0.54168 0.28810
# Poissons Ratio (y) = 0.54167 0.28808
# Poissons Ratio (z) = 0.21533 0.21532
#
# Static dielectric constant tensor:
#      x y z
#    x 2.888160 0.000000 0.000000 
#    y 0.000000 2.888160 0.000000 
#    z 0.000000 0.000000 3.162490 
# 
# 
# High freq. dielectric constant tensor:
#      x y z
#    x 1.608070 0.000000 0.000000 
#    y 0.000000 1.608070 0.000000 
#    z 0.000000 0.000000 1.621280 
# 
# From -- ./inp_files/3185.got.cif
#   From: 2010.03.12/outbox.cif.g09.slc.cpg/sg111_2_cif.got.tgz:3185.got - 2010.04.14 01:59:48.
