data_PCOD8308545
_publ_section_title
;
Structure prediction by ZEFSAII (Michael W. Deem and Ramdas Pophale) SiO2 
 PCOD8308545
Probable space group: P -4 21 M 
;
_chemical_formula_sum "Si O2"
_cell_formula_units_Z 60
_cell_length_a 14.051418
_cell_length_b 14.051418
_cell_length_c 16.226899
_cell_angle_alpha 90.000000
_cell_angle_beta 90.000000
_cell_angle_gamma 90.000000
_cell_volume 3203.877036
_symmetry_space_group_name_H-M "P -4 21 M "
_symmetry_group_IT_number 113
_symmetry_cell_setting 'tetragonal'
loop_
_space_group_symop_operation_xyz
x,y,z
y,-x,-z
-x,-y,z
-y,x,-z
1/2+x,1/2-y,-z
1/2-x,1/2+y,-z
1/2-y,1/2-x,z
1/2+y,1/2+x,z
loop_
_atom_site_type_symbol
_atom_site_label
_atom_site_fract_x
_atom_site_fract_y
_atom_site_fract_z
Si Si1 0.814500 0.073630 0.746023
Si Si2 0.643799 0.295800 0.571187
Si Si3 0.638242 0.430598 0.007760
Si Si4 0.000000 0.000000 0.331376
Si Si5 0.237238 0.415664 0.741099
Si Si6 0.758338 0.894050 0.155374
Si Si7 0.725125 0.380055 0.179570
Si Si8 0.511993 0.313895 0.420318
O O1 0.764915 0.104284 0.660594
O O2 0.822515 0.163066 0.806772
O O3 0.922132 0.041597 0.729515
O O4 0.755834 0.986909 0.786909
O O5 0.721633 0.221633 0.539776
O O6 0.555319 0.294057 0.509388
O O7 0.694504 0.398174 0.575334
O O8 0.717643 0.416449 0.938765
O O9 0.542136 0.379519 0.977271
O O10 0.675326 0.382491 0.090864
O O11 0.080675 0.957403 0.391036
O O12 0.137907 0.362094 0.759569
O O13 0.247985 0.507712 0.796908
O O14 0.325477 0.345258 0.758264
O O15 0.238618 0.447233 0.645590
O O16 0.656950 0.843051 0.158971
O O17 0.826217 0.326217 0.173639
#
# Coordination Sequence:
#
# PCOD8308545 Si02
#       8
#     8   8   8   4   8   8   8   8
#     4  11  20  36  59  89 114 154 201 249 290 359
#     4  11  23  38  59  88 121 155 199 248 299 354
#     4  11  22  36  63  92 121 152 195 254 310 358
#     4  10  18  33  58  87 116 142 190 249 304 342
#     4  11  23  38  60  89 121 157 199 246 302 366
#     4  12  23  39  61  85 118 162 203 246 299 358
#     4  11  22  39  61  90 122 156 192 248 311 362
#     4  11  21  36  58  89 120 155 194 248 305 356
#
# _framework density 18.727309000000002
#
# number of rings (size 3 to 8) (size 9 to 14) (size 15 to 20)
#    0.000    0.933    6.667    2.800    0.000    0.800 
#    0.000    0.000    0.000    3.600    0.000    0.000 
#    0.000    0.000    0.000    0.000    0.000    0.000 
#
# Total GULP energy -744174.765900 kJ/mol
# GULP energy per Si atom -12402.912765 kJ/mol
# Density = 1.868468 g / cm^3
# Si number density = 18.727309 Si / 1000 Ang^3
#
#
#
# Elastic Constant Matrix: (Units=GPa)
#
#
# Indices 1 2 3 4 5 6 
#
# 1 72.2209 47.4475 20.0186 0.0000 0.0000 0.0000
# 2 47.4475 72.2169 20.0184 0.0000 0.0000 0.0000
# 3 20.0186 20.0184 85.4453 0.0000 0.0000 0.0000
# 4 0.0000 0.0000 0.0000 20.7529 0.0000 0.0000
# 5 0.0000 0.0000 0.0000 0.0000 20.7536 0.0000
# 6 0.0000 0.0000 0.0000 0.0000 0.0000 30.3813
#
#
#
# Elastic Compliance Matrix: (Units=1/GPa)
#
#
# Indices 1 2 3 4 5 6 
#
# 1 0.024717 -0.015651 -0.002124 0.000000 0.000000 0.000000
# 2 -0.015651 0.024719 -0.002124 0.000000 0.000000 0.000000
# 3 -0.002124 -0.002124 0.012699 0.000000 0.000000 0.000000
# 4 0.000000 0.000000 0.000000 0.048186 0.000000 0.000000
# 5 0.000000 0.000000 0.000000 0.000000 0.048185 0.000000
# 6 0.000000 0.000000 0.000000 0.000000 0.000000 0.032915
#
#
# Mechanical properties :
#
#
# Convention : Reuss Voigt Hill
#
# Bulk Modulus (GPa) = 44.77058 44.98354 44.87706
# Shear Modulus (GPa) = 20.94985 23.87080 22.41032
#
# Velocity S-wave (km/s) = 3.34829 3.57410 3.46304
# Velocity P-wave (km/s) = 6.23751 6.41129 6.32500
#
# Compressibility (1/GPa) = 0.02233610
#
# Stress axis : x y z
#
# Youngs Moduli (GPa) = 40.45722 40.45485 78.74770
#
# Poissons Ratio (x) = 0.63315 0.16728
# Poissons Ratio (y) = 0.63319 0.16730
# Poissons Ratio (z) = 0.08594 0.08594
#
# Static dielectric constant tensor:
#      x y z
#    x 3.394130 0.000000 0.000000 
#    y 0.000000 3.394130 0.000000 
#    z 0.000000 0.000000 3.524730 
# 
# 
# High freq. dielectric constant tensor:
#      x y z
#    x 1.713120 0.000000 0.000000 
#    y 0.000000 1.713120 0.000000 
#    z 0.000000 0.000000 1.740690 
# 
# From -- ./inp_files/2355.got.cif
#   From: 2010.03.12/outbox.cif.g09.slc.cpg/sg113_cif.got.tgz:2355.got - 2010.04.14 02:06:34.
