data_PCOD8308063
_publ_section_title
;
Structure prediction by ZEFSAII (Michael W. Deem and Ramdas Pophale) SiO2 
 PCOD8308063
Probable space group: I 41 C D
;
_chemical_formula_sum "Si O2"
_cell_formula_units_Z 96
_cell_length_a 22.199527
_cell_length_b 22.199527
_cell_length_c 7.649881
_cell_angle_alpha 90.000000
_cell_angle_beta 90.000000
_cell_angle_gamma 90.000000
_cell_volume 3770.006697
_symmetry_space_group_name_H-M "I 41 C D"
_symmetry_group_IT_number 110
_symmetry_cell_setting 'tetragonal'
loop_
_space_group_symop_operation_xyz
x,y,z
-y,1/2+x,1/4+z
-x,-y,z
y,1/2-x,1/4+z
-x,y,1/2+z
x,-y,1/2+z
1/2-y,-x,1/4+z
1/2+y,x,1/4+z
1/2+x,1/2+y,1/2+z
1/2-y,x,3/4+z
1/2-x,1/2-y,1/2+z
1/2+y,-x,3/4+z
1/2-x,1/2+y,z
1/2+x,1/2-y,z
-y,1/2-x,3/4+z
y,1/2+x,3/4+z
loop_
_atom_site_type_symbol
_atom_site_label
_atom_site_fract_x
_atom_site_fract_y
_atom_site_fract_z
Si Si1 0.636399 0.837621 0.895430
Si Si2 0.552548 0.289113 0.632786
Si Si3 0.456609 0.424188 0.161870
Si Si4 0.267364 0.922672 0.480701
Si Si5 0.959127 0.418495 0.035439
Si Si6 0.758849 0.175333 0.953287
O O1 0.620752 0.792286 0.735178
O O2 0.680538 0.894090 0.853607
O O3 0.570026 0.857516 0.961745
O O4 0.676033 0.807218 0.047892
O O5 0.547806 0.355187 0.718948
O O6 0.489366 0.253483 0.655938
O O7 0.571257 0.291442 0.429726
O O8 0.605773 0.257658 0.742881
O O9 0.526535 0.442533 0.156059
O O10 0.416833 0.467525 0.290481
O O11 0.429418 0.430918 0.971642
O O12 0.702101 0.214744 0.883235
#
# Coordination Sequence:
#
# PCOD8308063 Si02
#       6
#    16  16  16  16  16  16
#     4  11  21  42  68  96 133 188 230 291 355 433
#     4  11  22  44  72  99 140 188 234 300 364 433
#     4  11  20  38  59  95 138 176 224 280 366 417
#     4  11  24  43  74  99 141 186 241 293 372 423
#     4  11  22  35  63  94 133 178 223 282 351 432
#     4  11  23  46  71  98 139 189 241 295 362 432
#
# _framework density 25.464146
#
# number of rings (size 3 to 8) (size 9 to 14) (size 15 to 20)
#    0.000    1.000    6.667    2.000    0.000    4.000 
#    3.000    0.000    0.000    0.000    0.000    0.000 
#    0.000    0.000    0.000    0.000    0.000    0.000 
#
# Total GULP energy -595010.021713 kJ/mol
# GULP energy per Si atom -12396.042119 kJ/mol
# Density = 2.540619 g / cm^3
# Si number density = 25.464146 Si / 1000 Ang^3
#
#
#
# Elastic Constant Matrix: (Units=GPa)
#
#
# Indices 1 2 3 4 5 6 
#
# 1 127.3260 40.3943 20.5419 0.0000 0.0000 0.0000
# 2 40.3943 127.3260 20.5419 0.0000 0.0000 0.0000
# 3 20.5419 20.5419 31.1545 0.0000 0.0000 0.0000
# 4 0.0000 0.0000 0.0000 25.5972 0.0000 0.0000
# 5 0.0000 0.0000 0.0000 0.0000 25.5972 0.0000
# 6 0.0000 0.0000 0.0000 0.0000 0.0000 50.3945
#
#
#
# Elastic Compliance Matrix: (Units=1/GPa)
#
#
# Indices 1 2 3 4 5 6 
#
# 1 0.009307 -0.002196 -0.004689 0.000000 0.000000 0.000000
# 2 -0.002196 0.009307 -0.004689 0.000000 0.000000 0.000000
# 3 -0.004689 -0.004689 0.038281 0.000000 0.000000 0.000000
# 4 0.000000 0.000000 0.000000 0.039067 0.000000 0.000000
# 5 0.000000 0.000000 0.000000 0.000000 0.039067 0.000000
# 6 0.000000 0.000000 0.000000 0.000000 0.000000 0.019843
#
#
# Mechanical properties :
#
#
# Convention : Reuss Voigt Hill
#
# Bulk Modulus (GPa) = 29.63104 49.86248 39.74676
# Shear Modulus (GPa) = 26.41756 33.93967 30.17862
#
# Velocity S-wave (km/s) = 3.22443 3.65477 3.44632
# Velocity P-wave (km/s) = 5.05215 6.11831 5.61061
#
# Compressibility (1/GPa) = 0.03374839
#
# Stress axis : x y z
#
# Youngs Moduli (GPa) = 107.44560 107.44560 26.12265
#
# Poissons Ratio (x) = 0.23598 0.12248
# Poissons Ratio (y) = 0.23598 0.12248
# Poissons Ratio (z) = 0.50376 0.50376
#
# Static dielectric constant tensor:
#      x y z
#    x 5.028050 0.000000 0.000000 
#    y 0.000000 5.028050 0.000000 
#    z 0.000000 0.000000 4.023030 
# 
# 
# High freq. dielectric constant tensor:
#      x y z
#    x 2.023720 0.000000 0.000000 
#    y 0.000000 2.023720 0.000000 
#    z 0.000000 0.000000 1.978010 
# 
# From -- ./inp_files/452.got.cif
#   From: 2010.03.12/outbox.cif.g09.slc.cpg/sg110_1_cif.got.tgz:452.got - 2010.04.14 01:58:01.
