data_PCOD8308387
_publ_section_title
;
Structure prediction by ZEFSAII (Michael W. Deem and Ramdas Pophale) SiO2 
 PCOD8308387
Probable space group: P -4 2 C
;
_chemical_formula_sum "Si O2"
_cell_formula_units_Z 48
_cell_length_a 8.277159
_cell_length_b 8.277159
_cell_length_c 33.547087
_cell_angle_alpha 90.000000
_cell_angle_beta 90.000000
_cell_angle_gamma 90.000000
_cell_volume 2298.356592
_symmetry_space_group_name_H-M "P -4 2 C"
_symmetry_group_IT_number 112
_symmetry_cell_setting 'tetragonal'
loop_
_space_group_symop_operation_xyz
x,y,z
y,-x,-z
-x,-y,z
-y,x,-z
x,-y,1/2-z
-x,y,1/2-z
-y,-x,1/2+z
y,x,1/2+z
loop_
_atom_site_type_symbol
_atom_site_label
_atom_site_fract_x
_atom_site_fract_y
_atom_site_fract_z
Si Si1 0.315753 0.185709 0.839515
Si Si2 0.318293 0.318010 0.576763
Si Si3 0.180726 0.819273 1.000000
Si Si4 1.000000 0.310756 0.794362
Si Si5 0.318010 0.318293 0.423237
Si Si6 0.185710 0.684246 0.339515
O O1 0.168954 0.263445 0.815143
O O2 0.272033 0.204644 0.886177
O O3 0.499999 0.257038 0.831200
O O4 0.318463 1.000000 0.827963
O O5 0.209335 0.293029 0.538050
O O6 0.295315 0.500001 0.592176
O O7 0.500000 0.282853 0.562646
O O8 0.272032 0.204645 0.613823
O O9 0.293029 0.790663 0.038050
O O10 1.000000 0.789363 0.015201
O O11 0.000000 0.500000 0.792040
O O12 0.000000 0.234748 0.750000
O O13 0.831044 0.263445 0.815142
#
# Coordination Sequence:
#
# PCOD8308387 Si02
#       6
#     8   8   8   8   8   8
#     4  10  22  41  66  94 126 165 208 259 318 380
#     4  10  21  38  60  85 115 154 201 251 306 369
#     4  11  24  37  52  80 118 159 202 251 304 360
#     4  11  25  43  65  95 129 167 211 259 315 381
#     4  10  21  38  60  85 115 154 201 251 306 369
#     4  10  22  41  66  94 126 165 208 259 318 380
#
# _framework density 20.884488999999999
#
# number of rings (size 3 to 8) (size 9 to 14) (size 15 to 20)
#    0.000    1.667    0.000    3.500    2.333    9.333 
#    0.000    3.333    0.000    0.000    0.000    0.000 
#    0.000    0.000    0.000    0.000    0.000    0.000 
#
# Total GULP energy -594911.802981 kJ/mol
# GULP energy per Si atom -12393.995895 kJ/mol
# Density = 2.083695 g / cm^3
# Si number density = 20.884489 Si / 1000 Ang^3
#
#
#
# Elastic Constant Matrix: (Units=GPa)
#
#
# Indices 1 2 3 4 5 6 
#
# 1 90.7785 39.1092 47.4731 0.0000 0.0000 0.0000
# 2 39.1092 90.7785 47.4731 0.0000 0.0000 0.0000
# 3 47.4731 47.4731 122.9689 0.0000 0.0000 0.0000
# 4 0.0000 0.0000 0.0000 53.9786 0.0000 0.0000
# 5 0.0000 0.0000 0.0000 0.0000 53.9786 0.0000
# 6 0.0000 0.0000 0.0000 0.0000 0.0000 31.3480
#
#
#
# Elastic Compliance Matrix: (Units=1/GPa)
#
#
# Indices 1 2 3 4 5 6 
#
# 1 0.015040 -0.004314 -0.004141 0.000000 0.000000 0.000000
# 2 -0.004314 0.015040 -0.004141 0.000000 0.000000 0.000000
# 3 -0.004141 -0.004141 0.011329 0.000000 0.000000 0.000000
# 4 0.000000 0.000000 0.000000 0.018526 0.000000 0.000000
# 5 0.000000 0.000000 0.000000 0.000000 0.018526 0.000000
# 6 0.000000 0.000000 0.000000 0.000000 0.000000 0.031900
#
#
# Mechanical properties :
#
#
# Convention : Reuss Voigt Hill
#
# Bulk Modulus (GPa) = 61.66063 63.62627 62.64345
# Shear Modulus (GPa) = 35.47161 39.22572 37.34867
#
# Velocity S-wave (km/s) = 4.12572 4.33855 4.23347
# Velocity P-wave (km/s) = 7.23077 7.45850 7.34552
#
# Compressibility (1/GPa) = 0.01621780
#
# Stress axis : x y z
#
# Youngs Moduli (GPa) = 66.49012 66.49012 88.26669
#
# Poissons Ratio (x) = 0.28684 0.36549
# Poissons Ratio (y) = 0.28684 0.36549
# Poissons Ratio (z) = 0.27532 0.27532
#
# Static dielectric constant tensor:
#      x y z
#    x 3.922440 0.000000 0.000000 
#    y 0.000000 3.922440 0.000000 
#    z 0.000000 0.000000 3.699770 
# 
# 
# High freq. dielectric constant tensor:
#      x y z
#    x 1.823620 0.000000 0.000000 
#    y 0.000000 1.823620 0.000000 
#    z 0.000000 0.000000 1.811140 
# 
# From -- ./inp_files/6283.got.cif
#   From: 2010.03.12/outbox.cif.g09.slc.cpg/sg112_4_cif.got.tgz:6283.got - 2010.04.14 02:02:48.
