data_PCOD8308379
_publ_section_title
;
Structure prediction by ZEFSAII (Michael W. Deem and Ramdas Pophale) SiO2 
 PCOD8308379
Probable space group: P -4 2 C
;
_chemical_formula_sum "Si O2"
_cell_formula_units_Z 56
_cell_length_a 14.159718
_cell_length_b 14.159718
_cell_length_c 12.153060
_cell_angle_alpha 90.000000
_cell_angle_beta 90.000000
_cell_angle_gamma 90.000000
_cell_volume 2436.659531
_symmetry_space_group_name_H-M "P -4 2 C"
_symmetry_group_IT_number 112
_symmetry_cell_setting 'tetragonal'
loop_
_space_group_symop_operation_xyz
x,y,z
y,-x,-z
-x,-y,z
-y,x,-z
x,-y,1/2-z
-x,y,1/2-z
-y,-x,1/2+z
y,x,1/2+z
loop_
_atom_site_type_symbol
_atom_site_label
_atom_site_fract_x
_atom_site_fract_y
_atom_site_fract_z
Si Si1 0.571682 0.199130 0.652599
Si Si2 0.420913 0.632418 0.495971
Si Si3 0.075130 0.116114 0.165654
Si Si4 0.060400 0.211800 0.491075
Si Si5 0.599034 0.248108 0.293711
Si Si6 0.576874 0.077581 0.447908
Si Si7 0.792917 0.227695 0.183410
O O1 0.500000 0.208276 0.750000
O O2 0.594439 0.301727 0.601508
O O3 0.537879 0.127243 0.558694
O O4 0.669034 0.162967 0.705941
O O5 0.532855 0.624914 0.474155
O O6 0.368797 0.677428 0.388800
O O7 0.165605 0.157427 0.227320
O O8 0.000000 0.066522 0.250000
O O9 0.016615 0.197419 0.103959
O O10 0.126947 0.044444 0.080591
O O11 0.039960 0.315603 0.539696
O O12 0.168111 0.201928 0.440312
O O13 0.500000 0.288564 0.250000
O O14 0.576877 0.147680 0.346412
O O15 0.679008 0.232213 0.199452
O O16 0.500000 0.000000 0.417071
#
# Coordination Sequence:
#
# PCOD8308379 Si02
#       7
#     8   8   8   8   8   8   8
#     4  10  21  36  58  90 124 171 227 274 334 404
#     4  10  21  37  57  86 123 167 224 285 337 397
#     4  10  22  43  73  98 132 174 226 282 346 407
#     4  10  22  43  68 100 130 176 224 288 344 410
#     4  11  22  39  63  91 131 176 225 273 349 423
#     4  10  23  40  60  92 134 172 220 273 339 420
#     4  10  21  40  64  95 133 177 224 280 343 407
#
# _framework density 22.982282999999999
#
# number of rings (size 3 to 8) (size 9 to 14) (size 15 to 20)
#    0.000    1.857    1.429    1.714    2.000    2.000 
#    2.571    6.429    0.000    0.000    0.000    0.000 
#    0.000    0.000    0.000    0.000    0.000    0.000 
#
# Total GULP energy -693953.191418 kJ/mol
# GULP energy per Si atom -12392.021275 kJ/mol
# Density = 2.292997 g / cm^3
# Si number density = 22.982283 Si / 1000 Ang^3
#
#
#
# Elastic Constant Matrix: (Units=GPa)
#
#
# Indices 1 2 3 4 5 6 
#
# 1 96.4274 18.4894 27.8772 0.0000 0.0000 0.0000
# 2 18.4894 96.4274 27.8772 0.0000 0.0000 0.0000
# 3 27.8772 27.8772 76.2828 0.0000 0.0000 0.0000
# 4 0.0000 0.0000 0.0000 14.0389 0.0000 0.0000
# 5 0.0000 0.0000 0.0000 0.0000 14.0389 0.0000
# 6 0.0000 0.0000 0.0000 0.0000 0.0000 13.6919
#
#
#
# Elastic Compliance Matrix: (Units=1/GPa)
#
#
# Indices 1 2 3 4 5 6 
#
# 1 0.011704 -0.001127 -0.003865 0.000000 0.000000 0.000000
# 2 -0.001127 0.011704 -0.003865 0.000000 0.000000 0.000000
# 3 -0.003865 -0.003865 0.015934 0.000000 0.000000 0.000000
# 4 0.000000 0.000000 0.000000 0.071231 0.000000 0.000000
# 5 0.000000 0.000000 0.000000 0.000000 0.071231 0.000000
# 6 0.000000 0.000000 0.000000 0.000000 0.000000 0.073036
#
#
# Mechanical properties :
#
#
# Convention : Reuss Voigt Hill
#
# Bulk Modulus (GPa) = 46.23792 46.40278 46.32035
# Shear Modulus (GPa) = 17.87223 21.34687 19.60955
#
# Velocity S-wave (km/s) = 2.79167 3.05099 2.92421
# Velocity P-wave (km/s) = 5.52755 5.71366 5.62138
#
# Compressibility (1/GPa) = 0.02162727
#
# Stress axis : x y z
#
# Youngs Moduli (GPa) = 85.44065 85.44065 62.75760
#
# Poissons Ratio (x) = 0.09626 0.24259
# Poissons Ratio (y) = 0.09626 0.24259
# Poissons Ratio (z) = 0.33027 0.33027
#
# Static dielectric constant tensor:
#      x y z
#    x 4.079130 0.000000 0.000000 
#    y 0.000000 4.079130 0.000000 
#    z 0.000000 0.000000 4.176570 
# 
# 
# High freq. dielectric constant tensor:
#      x y z
#    x 1.904860 0.000000 0.000000 
#    y 0.000000 1.904860 0.000000 
#    z 0.000000 0.000000 1.909790 
# 
# From -- ./inp_files/2652.got.cif
#   From: 2010.03.12/outbox.cif.g09.slc.cpg/sg112_2_cif.got.tgz:2652.got - 2010.04.14 02:02:48.
