data_PCOD8308445
_publ_section_title
;
Structure prediction by ZEFSAII (Michael W. Deem and Ramdas Pophale) SiO2 
 PCOD8308445
Probable space group: P -4 2 C
;
_chemical_formula_sum "Si O2"
_cell_formula_units_Z 20
_cell_length_a 5.016293
_cell_length_b 5.016293
_cell_length_c 31.941548
_cell_angle_alpha 90.000000
_cell_angle_beta 90.000000
_cell_angle_gamma 90.000000
_cell_volume 803.751416
_symmetry_space_group_name_H-M "P -4 2 C"
_symmetry_group_IT_number 112
_symmetry_cell_setting 'tetragonal'
loop_
_space_group_symop_operation_xyz
x,y,z
y,-x,-z
-x,-y,z
-y,x,-z
x,-y,1/2-z
-x,y,1/2-z
-y,-x,1/2+z
y,x,1/2+z
loop_
_atom_site_type_symbol
_atom_site_label
_atom_site_fract_x
_atom_site_fract_y
_atom_site_fract_z
Si Si1 0.500000 0.500000 0.111046
Si Si2 0.500000 0.000000 0.944478
Si Si3 0.744208 0.183898 0.822471
Si Si4 0.000000 0.000000 0.500000
Si Si5 0.500000 0.500000 0.750000
O O1 0.252529 0.594609 0.082854
O O2 0.411270 0.251087 0.141280
O O3 0.249821 0.909371 0.972151
O O4 0.697793 0.319089 0.777475
O O5 0.500000 0.000000 0.835369
O O6 0.000000 0.000000 0.820708
#
# Coordination Sequence:
#
# PCOD8308445 Si02
#       5
#     4   4   8   2   2
#     4  11  26  48  80 115 154 204 258 321 386 462
#     4  12  26  48  78 111 156 196 254 315 384 474
#     4  11  26  47  75 112 152 207 262 326 392 461
#     4  12  28  48  76 116 152 202 248 312 396 460
#     4  10  26  46  76 110 160 210 272 330 396 468
#
# _framework density 24.883312
#
# number of rings (size 3 to 8) (size 9 to 14) (size 15 to 20)
#    0.000    0.800    2.000    3.000    2.800   14.400 
#    0.000    0.000    4.400    0.000    0.000    0.000 
#    0.000    0.000    0.000    0.000    0.000    0.000 
#
# Total GULP energy -248037.122756 kJ/mol
# GULP energy per Si atom -12401.856138 kJ/mol
# Density = 2.482668 g / cm^3
# Si number density = 24.883312 Si / 1000 Ang^3
#
#
#
# Elastic Constant Matrix: (Units=GPa)
#
#
# Indices 1 2 3 4 5 6 
#
# 1 177.4448 67.2553 73.3186 0.0000 0.0000 0.0000
# 2 67.2553 177.4448 73.3186 0.0000 0.0000 0.0000
# 3 73.3186 73.3186 163.8494 0.0000 0.0000 0.0000
# 4 0.0000 0.0000 0.0000 12.0105 0.0000 0.0000
# 5 0.0000 0.0000 0.0000 0.0000 12.0105 0.0000
# 6 0.0000 0.0000 0.0000 0.0000 0.0000 55.0356
#
#
#
# Elastic Compliance Matrix: (Units=1/GPa)
#
#
# Indices 1 2 3 4 5 6 
#
# 1 0.007330 -0.001746 -0.002499 0.000000 0.000000 0.000000
# 2 -0.001746 0.007330 -0.002499 0.000000 0.000000 0.000000
# 3 -0.002499 -0.002499 0.008339 0.000000 0.000000 0.000000
# 4 0.000000 0.000000 0.000000 0.083261 0.000000 0.000000
# 5 0.000000 0.000000 0.000000 0.000000 0.083261 0.000000
# 6 0.000000 0.000000 0.000000 0.000000 0.000000 0.018170
#
#
# Mechanical properties :
#
#
# Convention : Reuss Voigt Hill
#
# Bulk Modulus (GPa) = 105.12415 105.16931 105.14673
# Shear Modulus (GPa) = 22.28693 36.13441 29.21067
#
# Velocity S-wave (km/s) = 2.99600 3.81485 3.42995
# Velocity P-wave (km/s) = 7.36930 7.85881 7.61799
#
# Compressibility (1/GPa) = 0.00951256
#
# Stress axis : x y z
#
# Youngs Moduli (GPa) = 136.43248 136.43248 119.91299
#
# Poissons Ratio (x) = 0.23816 0.29963
# Poissons Ratio (y) = 0.23816 0.29963
# Poissons Ratio (z) = 0.34090 0.34090
#
# Static dielectric constant tensor:
#      x y z
#    x 4.574360 0.000000 0.000000 
#    y 0.000000 4.574360 0.000000 
#    z 0.000000 0.000000 4.805560 
# 
# 
# High freq. dielectric constant tensor:
#      x y z
#    x 1.993960 0.000000 0.000000 
#    y 0.000000 1.993960 0.000000 
#    z 0.000000 0.000000 2.010150 
# 
# From -- ./inp_files/6034.got.cif
#   From: 2010.03.12/outbox.cif.g09.slc.cpg/sg112_4_cif.got.tgz:6034.got - 2010.04.14 02:02:48.
