data_PCOD8308016
_publ_section_title
;
Structure prediction by ZEFSAII (Michael W. Deem and Ramdas Pophale) SiO2 
 PCOD8308016
Probable space group: I 41 C D
;
_chemical_formula_sum "Si O2"
_cell_formula_units_Z 128
_cell_length_a 16.962976
_cell_length_b 16.962976
_cell_length_c 24.171321
_cell_angle_alpha 90.000000
_cell_angle_beta 90.000000
_cell_angle_gamma 90.000000
_cell_volume 6955.117657
_symmetry_space_group_name_H-M "I 41 C D"
_symmetry_group_IT_number 110
_symmetry_cell_setting 'tetragonal'
loop_
_space_group_symop_operation_xyz
x,y,z
-y,1/2+x,1/4+z
-x,-y,z
y,1/2-x,1/4+z
-x,y,1/2+z
x,-y,1/2+z
1/2-y,-x,1/4+z
1/2+y,x,1/4+z
1/2+x,1/2+y,1/2+z
1/2-y,x,3/4+z
1/2-x,1/2-y,1/2+z
1/2+y,-x,3/4+z
1/2-x,1/2+y,z
1/2+x,1/2-y,z
-y,1/2-x,3/4+z
y,1/2+x,3/4+z
loop_
_atom_site_type_symbol
_atom_site_label
_atom_site_fract_x
_atom_site_fract_y
_atom_site_fract_z
Si Si1 0.677942 0.044864 0.202020
Si Si2 0.915607 0.666206 0.777173
Si Si3 0.182351 0.088186 0.001640
Si Si4 0.211380 0.654028 0.604813
Si Si5 0.793147 0.690359 0.577923
Si Si6 0.808193 0.958528 0.879899
Si Si7 0.102827 0.895947 0.909129
Si Si8 0.783179 0.442541 0.298449
O O1 0.629559 0.098691 0.244172
O O2 0.727767 0.098685 0.158927
O O3 0.613689 0.989976 0.170814
O O4 0.731714 0.988726 0.240504
O O5 0.884876 0.749631 0.800770
O O6 0.893423 0.659695 0.712739
O O7 0.872438 0.591254 0.806561
O O8 0.009372 0.665012 0.786892
O O9 0.238894 0.147873 0.033150
O O10 0.219087 0.067379 0.941404
O O11 0.247469 0.741388 0.612009
O O12 0.117506 0.661772 0.595902
O O13 0.821670 0.626144 0.621754
O O14 0.868184 0.725037 0.545623
O O15 0.881679 0.019572 0.880515
O O16 0.734277 0.999888 0.849935
#
# Coordination Sequence:
#
# PCOD8308016 Si02
#       8
#    16  16  16  16  16  16  16  16
#     4  10  20  33  53  76 102 135 179 221 259 315
#     4   9  19  34  53  78 106 137 175 217 262 314
#     4  10  20  34  54  79 106 139 179 218 263 317
#     4  10  20  32  51  79 104 133 175 216 260 313
#     4  10  20  35  54  78 109 140 172 218 270 316
#     4   9  19  33  51  76 104 137 177 220 261 314
#     4   9  19  35  54  75 104 140 173 214 262 310
#     4   9  19  35  52  75 107 140 176 220 267 312
#
# _framework density 18.403714999999998
#
# number of rings (size 3 to 8) (size 9 to 14) (size 15 to 20)
#    0.000    2.500    0.000    1.500    0.000   15.000 
#    0.000    1.250    0.000    0.000    0.000   10.500 
#    0.000    0.000    0.000    0.000    0.000    0.000 
#
# Total GULP energy -793176.826232 kJ/mol
# GULP energy per Si atom -12393.387910 kJ/mol
# Density = 1.836183 g / cm^3
# Si number density = 18.403715 Si / 1000 Ang^3
#
#
#
# Elastic Constant Matrix: (Units=GPa)
#
#
# Indices 1 2 3 4 5 6 
#
# 1 114.8142 52.0378 55.6581 0.0000 0.0000 0.0000
# 2 52.0378 114.8142 55.6581 0.0000 0.0000 0.0000
# 3 55.6581 55.6581 69.7056 0.0000 0.0000 0.0000
# 4 0.0000 0.0000 0.0000 39.4564 0.0000 0.0000
# 5 0.0000 0.0000 0.0000 0.0000 39.4564 0.0000
# 6 0.0000 0.0000 0.0000 0.0000 0.0000 18.1866
#
#
#
# Elastic Compliance Matrix: (Units=1/GPa)
#
#
# Indices 1 2 3 4 5 6 
#
# 1 0.014378 -0.001552 -0.010241 0.000000 0.000000 0.000000
# 2 -0.001552 0.014378 -0.010241 0.000000 0.000000 0.000000
# 3 -0.010241 -0.010241 0.030700 0.000000 0.000000 0.000000
# 4 0.000000 0.000000 0.000000 0.025344 0.000000 0.000000
# 5 0.000000 0.000000 0.000000 0.000000 0.025344 0.000000
# 6 0.000000 0.000000 0.000000 0.000000 0.000000 0.054986
#
#
# Mechanical properties :
#
#
# Convention : Reuss Voigt Hill
#
# Bulk Modulus (GPa) = 64.98649 69.56024 67.27336
# Shear Modulus (GPa) = 23.32885 28.48521 25.90703
#
# Velocity S-wave (km/s) = 3.56422 3.93847 3.75601
# Velocity P-wave (km/s) = 7.23371 7.65252 7.44606
#
# Compressibility (1/GPa) = 0.01538781
#
# Stress axis : x y z
#
# Youngs Moduli (GPa) = 69.55268 69.55268 32.57300
#
# Poissons Ratio (x) = 0.10794 0.33358
# Poissons Ratio (y) = 0.10794 0.33358
# Poissons Ratio (z) = 0.71228 0.71228
#
# Static dielectric constant tensor:
#      x y z
#    x 3.483230 0.000000 0.000000 
#    y 0.000000 3.483230 0.000000 
#    z 0.000000 0.000000 3.353190 
# 
# 
# High freq. dielectric constant tensor:
#      x y z
#    x 1.713720 0.000000 0.000000 
#    y 0.000000 1.713720 0.000000 
#    z 0.000000 0.000000 1.699600 
# 
# From -- ./inp_files/2753.got.cif
#   From: 2010.03.12/outbox.cif.g09.slc.cpg/sg110_2_cif.got.tgz:2753.got - 2010.04.14 01:58:01.
