data_PCOD8308633
_publ_section_title
;
Structure prediction by ZEFSAII (Michael W. Deem and Ramdas Pophale) SiO2 
 PCOD8308633
Probable space group: P -4 21 M 
;
_chemical_formula_sum "Si O2"
_cell_formula_units_Z 34
_cell_length_a 14.179173
_cell_length_b 14.179173
_cell_length_c 9.533271
_cell_angle_alpha 90.000000
_cell_angle_beta 90.000000
_cell_angle_gamma 90.000000
_cell_volume 1916.654096
_symmetry_space_group_name_H-M "P -4 21 M "
_symmetry_group_IT_number 113
_symmetry_cell_setting 'tetragonal'
loop_
_space_group_symop_operation_xyz
x,y,z
y,-x,-z
-x,-y,z
-y,x,-z
1/2+x,1/2-y,-z
1/2-x,1/2+y,-z
1/2-y,1/2-x,z
1/2+y,1/2+x,z
loop_
_atom_site_type_symbol
_atom_site_label
_atom_site_fract_x
_atom_site_fract_y
_atom_site_fract_z
Si Si1 0.256088 0.389674 0.407690
Si Si2 0.107016 0.239823 0.083678
Si Si3 0.000000 0.000000 0.500000
Si Si4 0.737178 0.389723 0.088031
Si Si5 0.586569 0.679815 0.598686
O O1 0.150613 0.349388 0.428427
O O2 0.287681 0.385002 0.246287
O O3 0.327373 0.320425 0.490035
O O4 0.255461 0.499017 0.457401
O O5 0.163838 0.336163 0.049478
O O6 0.997736 0.254092 0.042621
O O7 0.149313 0.152690 0.997075
O O8 0.953730 0.073765 0.392532
O O9 0.832376 0.332376 0.052941
O O10 0.714682 0.377643 0.251999
#
# Coordination Sequence:
#
# PCOD8308633 Si02
#       5
#     8   8   2   8   8
#     4   9  17  31  48  67  96 127 154 190 236 282
#     4   9  20  35  50  71  98 129 162 199 246 290
#     4   8  16  28  44  70 100 124 152 194 244 284
#     4  10  20  33  50  73  98 126 164 203 239 287
#     4   9  17  29  48  72  95 122 159 196 234 280
#
# _framework density 17.739246000000001
#
# number of rings (size 3 to 8) (size 9 to 14) (size 15 to 20)
#    0.000    2.824    0.000    0.706    0.000    8.471 
#    0.000    0.000    0.000    2.118    0.000    3.294 
#    0.000    7.529    0.000    0.000    0.000    0.000 
#
# Total GULP energy -421409.106252 kJ/mol
# GULP energy per Si atom -12394.385478 kJ/mol
# Density = 1.769887 g / cm^3
# Si number density = 17.739246 Si / 1000 Ang^3
#
#
#
# Elastic Constant Matrix: (Units=GPa)
#
#
# Indices 1 2 3 4 5 6 
#
# 1 92.9348 40.5492 27.2323 0.0000 0.0000 0.0000
# 2 40.5492 92.9328 27.2325 0.0000 0.0000 0.0000
# 3 27.2323 27.2325 41.6865 0.0000 0.0000 0.0000
# 4 0.0000 0.0000 0.0000 26.5764 0.0000 0.0000
# 5 0.0000 0.0000 0.0000 0.0000 26.5770 0.0000
# 6 0.0000 0.0000 0.0000 0.0000 0.0000 26.7991
#
#
#
# Elastic Compliance Matrix: (Units=1/GPa)
#
#
# Indices 1 2 3 4 5 6 
#
# 1 0.014652 -0.004438 -0.006672 0.000000 0.000000 0.000000
# 2 -0.004438 0.014652 -0.006673 0.000000 0.000000 0.000000
# 3 -0.006672 -0.006673 0.032707 0.000000 0.000000 0.000000
# 4 0.000000 0.000000 0.000000 0.037627 0.000000 0.000000
# 5 0.000000 0.000000 0.000000 0.000000 0.037627 0.000000
# 6 0.000000 0.000000 0.000000 0.000000 0.000000 0.037315
#
#
# Mechanical properties :
#
#
# Convention : Reuss Voigt Hill
#
# Bulk Modulus (GPa) = 37.81497 46.39802 42.10650
# Shear Modulus (GPa) = 22.83528 24.82652 23.83090
#
# Velocity S-wave (km/s) = 3.59175 3.74508 3.66922
# Velocity P-wave (km/s) = 6.21002 6.70173 6.46055
#
# Compressibility (1/GPa) = 0.02644455
#
# Stress axis : x y z
#
# Youngs Moduli (GPa) = 68.25162 68.24964 30.57493
#
# Poissons Ratio (x) = 0.30287 0.20401
# Poissons Ratio (y) = 0.30288 0.20402
# Poissons Ratio (z) = 0.45540 0.45541
#
# Static dielectric constant tensor:
#      x y z
#    x 3.398330 0.000000 0.000000 
#    y 0.000000 3.398340 0.000000 
#    z 0.000000 0.000000 3.155990 
# 
# 
# High freq. dielectric constant tensor:
#      x y z
#    x 1.685460 0.000000 0.000000 
#    y 0.000000 1.685460 0.000000 
#    z 0.000000 0.000000 1.673120 
# 
# From -- ./inp_files/932.got.cif
#   From: 2010.03.12/outbox.cif.g09.slc.cpg/sg113_cif.got.tgz:932.got - 2010.04.14 02:06:34.
