data_PCOD8308799
_publ_section_title
;
Structure prediction by ZEFSAII (Michael W. Deem and Ramdas Pophale) SiO2 
 PCOD8308799
Probable space group: P -4 21 C
;
_chemical_formula_sum "Si O2"
_cell_formula_units_Z 56
_cell_length_a 12.028411
_cell_length_b 12.028411
_cell_length_c 22.661559
_cell_angle_alpha 90.000000
_cell_angle_beta 90.000000
_cell_angle_gamma 90.000000
_cell_volume 3278.734889
_symmetry_space_group_name_H-M "P -4 21 C"
_symmetry_group_IT_number 114
_symmetry_cell_setting 'tetragonal'
loop_
_space_group_symop_operation_xyz
x,y,z
y,-x,-z
-x,-y,z
-y,x,-z
1/2+x,1/2-y,1/2-z
1/2-x,1/2+y,1/2-z
1/2-y,1/2-x,1/2+z
1/2+y,1/2+x,1/2+z
loop_
_atom_site_type_symbol
_atom_site_label
_atom_site_fract_x
_atom_site_fract_y
_atom_site_fract_z
Si Si1 0.127804 0.511902 0.180362
Si Si2 0.499998 0.318073 0.500001
Si Si3 0.011902 0.372197 0.319637
Si Si4 0.277873 0.096378 0.200758
Si Si5 0.782415 0.598619 0.386318
Si Si6 0.222126 0.403622 0.700757
Si Si7 0.401379 0.217584 0.386320
O O1 0.199386 0.573123 0.230439
O O2 0.163348 0.382938 0.170968
O O3 0.135690 0.587712 0.120895
O O4 0.000000 0.500000 0.201210
O O5 0.395748 0.395750 0.518020
O O6 0.530866 0.236960 0.553634
O O7 0.469129 0.236957 0.446369
O O8 0.087712 0.364313 0.379104
O O9 0.073118 0.300612 0.269560
O O10 0.000000 0.500000 0.298787
O O11 0.882937 0.336655 0.329033
O O12 0.169371 0.169371 0.193937
O O13 0.252618 0.980008 0.168748
O O14 0.706899 0.706898 0.383982
O O15 0.247380 0.519990 0.668745
#
# Coordination Sequence:
#
# PCOD8308799 Si02
#       7
#     8   8   8   8   8   8   8
#     4  10  17  32  47  68  98 133 172 202 244 300
#     4   9  18  32  49  76 110 136 167 213 260 304
#     4  10  17  32  47  68  98 133 172 202 244 300
#     4  11  19  30  49  71 100 133 169 211 253 300
#     4  10  19  33  53  74 100 134 169 209 257 304
#     4  11  19  30  49  71 100 133 169 211 253 300
#     4  10  19  33  53  74 100 134 169 209 257 304
#
# _framework density 17.079758000000002
#
# number of rings (size 3 to 8) (size 9 to 14) (size 15 to 20)
#    0.000    1.857    5.714    1.714    0.000    1.714 
#    0.000    6.429    0.000    2.571    0.000    0.000 
#    0.000    0.000    0.000   42.571    0.000    0.000 
#
# Total GULP energy -693846.398561 kJ/mol
# GULP energy per Si atom -12390.114260 kJ/mol
# Density = 1.704088 g / cm^3
# Si number density = 17.079758 Si / 1000 Ang^3
#
#
#
# Elastic Constant Matrix: (Units=GPa)
#
#
# Indices 1 2 3 4 5 6 
#
# 1 34.2089 -13.6001 3.1915 0.0000 0.0000 0.0000
# 2 -13.6001 34.2089 3.1915 0.0000 0.0000 0.0000
# 3 3.1915 3.1915 69.6929 0.0000 0.0000 0.0000
# 4 0.0000 0.0000 0.0000 27.2488 0.0000 0.0000
# 5 0.0000 0.0000 0.0000 0.0000 27.2488 0.0000
# 6 0.0000 0.0000 0.0000 0.0000 0.0000 18.6399
#
#
#
# Elastic Compliance Matrix: (Units=1/GPa)
#
#
# Indices 1 2 3 4 5 6 
#
# 1 0.035069 0.014152 -0.002254 0.000000 0.000000 0.000000
# 2 0.014152 0.035069 -0.002254 0.000000 0.000000 0.000000
# 3 -0.002254 -0.002254 0.014555 0.000000 0.000000 0.000000
# 4 0.000000 0.000000 0.000000 0.036699 0.000000 0.000000
# 5 0.000000 0.000000 0.000000 0.000000 0.036699 0.000000
# 6 0.000000 0.000000 0.000000 0.000000 0.000000 0.053648
#
#
# Mechanical properties :
#
#
# Convention : Reuss Voigt Hill
#
# Bulk Modulus (GPa) = 9.61713 13.74184 11.67949
# Shear Modulus (GPa) = 22.01570 24.31603 23.16587
#
# Velocity S-wave (km/s) = 3.59415 3.77726 3.68684
# Velocity P-wave (km/s) = 4.78193 5.20449 4.99768
#
# Compressibility (1/GPa) = 0.10398113
#
# Stress axis : x y z
#
# Youngs Moduli (GPa) = 28.51537 28.51537 68.70440
#
# Poissons Ratio (x) = -0.40356 0.15486
# Poissons Ratio (y) = -0.40356 0.15486
# Poissons Ratio (z) = 0.06427 0.06427
#
# Static dielectric constant tensor:
#      x y z
#    x 3.354810 0.000000 0.000000 
#    y 0.000000 3.354810 0.000000 
#    z 0.000000 0.000000 3.063070 
# 
# 
# High freq. dielectric constant tensor:
#      x y z
#    x 1.649910 0.000000 0.000000 
#    y 0.000000 1.649910 0.000000 
#    z 0.000000 0.000000 1.637740 
# 
# From -- ./inp_files/3544.got.cif
#   From: 2010.03.12/outbox.cif.g09.slc.cpg/sg114_2_cif.got.tgz:3544.got - 2010.04.14 02:08:34.
