data_PCOD8308733
_publ_section_title
;
Structure prediction by ZEFSAII (Michael W. Deem and Ramdas Pophale) SiO2 
 PCOD8308733
Probable space group: P -4 21 M 
;
_chemical_formula_sum "Si O2"
_cell_formula_units_Z 26
_cell_length_a 10.321191
_cell_length_b 10.321191
_cell_length_c 12.078553
_cell_angle_alpha 90.000000
_cell_angle_beta 90.000000
_cell_angle_gamma 90.000000
_cell_volume 1286.691818
_symmetry_space_group_name_H-M "P -4 21 M "
_symmetry_group_IT_number 113
_symmetry_cell_setting 'tetragonal'
loop_
_space_group_symop_operation_xyz
x,y,z
y,-x,-z
-x,-y,z
-y,x,-z
1/2+x,1/2-y,-z
1/2-x,1/2+y,-z
1/2-y,1/2-x,z
1/2+y,1/2+x,z
loop_
_atom_site_type_symbol
_atom_site_label
_atom_site_fract_x
_atom_site_fract_y
_atom_site_fract_z
Si Si1 0.194301 0.305700 0.542124
Si Si2 0.682754 0.817247 0.328860
Si Si3 0.000000 0.500000 0.553167
Si Si4 0.143407 0.964749 0.283158
Si Si5 0.648829 0.636581 0.957140
O O1 0.266149 0.233852 0.445632
O O2 0.093537 0.406463 0.481998
O O3 0.294939 0.386316 0.615641
O O4 0.577688 0.922313 0.356356
O O5 0.791454 0.893680 0.259040
O O6 0.150958 0.876591 0.174962
O O7 0.000000 0.000000 0.319586
O O8 0.755789 0.744212 0.993356
O O9 0.682011 0.496368 0.010220
#
# Coordination Sequence:
#
# PCOD8308733 Si02
#       5
#     4   4   2   8   8
#     4  10  22  40  61  90 126 168 215 264 317 383
#     4  10  24  38  65  90 123 169 218 256 324 389
#     4   8  20  40  52  84 118 156 214 252 302 380
#     4  11  23  41  64  92 128 169 213 267 327 385
#     4  11  24  45  68  98 134 171 222 279 333 401
#
# _framework density 20.206858
#
# number of rings (size 3 to 8) (size 9 to 14) (size 15 to 20)
#    0.000    1.538    4.615    0.000   10.769    0.615 
#    0.000    0.000    0.000    0.000    0.000    0.000 
#    0.000    0.000    0.000    0.000    0.000    0.000 
#
# Total GULP energy -322176.429500 kJ/mol
# GULP energy per Si atom -12391.401135 kJ/mol
# Density = 2.016087 g / cm^3
# Si number density = 20.206858 Si / 1000 Ang^3
#
#
#
# Elastic Constant Matrix: (Units=GPa)
#
#
# Indices 1 2 3 4 5 6 
#
# 1 135.8797 84.4382 21.9803 0.0000 0.0000 0.0000
# 2 84.4382 135.8796 21.9792 0.0000 0.0000 0.0000
# 3 21.9803 21.9792 55.7726 0.0000 0.0000 0.0000
# 4 0.0000 0.0000 0.0000 82.6596 0.0000 0.0000
# 5 0.0000 0.0000 0.0000 0.0000 82.6454 0.0000
# 6 0.0000 0.0000 0.0000 0.0000 0.0000 50.9749
#
#
#
# Elastic Compliance Matrix: (Units=1/GPa)
#
#
# Indices 1 2 3 4 5 6 
#
# 1 0.012183 -0.007257 -0.001942 0.000000 0.000000 0.000000
# 2 -0.007257 0.012183 -0.001941 0.000000 0.000000 0.000000
# 3 -0.001942 -0.001941 0.019460 0.000000 0.000000 0.000000
# 4 0.000000 0.000000 0.000000 0.012098 0.000000 0.000000
# 5 0.000000 0.000000 0.000000 0.000000 0.012100 0.000000
# 6 0.000000 0.000000 0.000000 0.000000 0.000000 0.019618
#
#
# Mechanical properties :
#
#
# Convention : Reuss Voigt Hill
#
# Bulk Modulus (GPa) = 46.41012 64.92523 55.66768
# Shear Modulus (GPa) = 42.69760 56.53158 49.61459
#
# Velocity S-wave (km/s) = 4.60175 5.29501 4.96051
# Velocity P-wave (km/s) = 7.15906 8.34164 7.77287
#
# Compressibility (1/GPa) = 0.02154703
#
# Stress axis : x y z
#
# Youngs Moduli (GPa) = 82.08183 82.08229 51.38702
#
# Poissons Ratio (x) = 0.59564 0.09977
# Poissons Ratio (y) = 0.59564 0.09975
# Poissons Ratio (z) = 0.15937 0.15934
#
# Static dielectric constant tensor:
#      x y z
#    x 3.841810 0.000000 0.000000 
#    y 0.000000 3.841870 0.000000 
#    z 0.000000 0.000000 3.364070 
# 
# 
# High freq. dielectric constant tensor:
#      x y z
#    x 1.803040 0.000000 0.000000 
#    y 0.000000 1.803040 0.000000 
#    z 0.000000 0.000000 1.769840 
# 
# From -- ./inp_files/745.got.cif
#   From: 2010.03.12/outbox.cif.g09.slc.cpg/sg113_cif.got.tgz:745.got - 2010.04.14 02:06:34.
