data_PCOD8308045
_publ_section_title
;
Structure prediction by ZEFSAII (Michael W. Deem and Ramdas Pophale) SiO2 
 PCOD8308045
Probable space group: I 41 C D
;
_chemical_formula_sum "Si O2"
_cell_formula_units_Z 48
_cell_length_a 13.411053
_cell_length_b 13.411053
_cell_length_c 13.411052
_cell_angle_alpha 90.000000
_cell_angle_beta 90.000000
_cell_angle_gamma 90.000000
_cell_volume 2412.062763
_symmetry_space_group_name_H-M "I 41 C D"
_symmetry_group_IT_number 110
_symmetry_cell_setting 'tetragonal'
loop_
_space_group_symop_operation_xyz
x,y,z
-y,1/2+x,1/4+z
-x,-y,z
y,1/2-x,1/4+z
-x,y,1/2+z
x,-y,1/2+z
1/2-y,-x,1/4+z
1/2+y,x,1/4+z
1/2+x,1/2+y,1/2+z
1/2-y,x,3/4+z
1/2-x,1/2-y,1/2+z
1/2+y,-x,3/4+z
1/2-x,1/2+y,z
1/2+x,1/2-y,z
-y,1/2-x,3/4+z
y,1/2+x,3/4+z
loop_
_atom_site_type_symbol
_atom_site_label
_atom_site_fract_x
_atom_site_fract_y
_atom_site_fract_z
Si Si1 0.839142 0.339142 0.954810
Si Si2 0.125000 0.089142 0.990668
Si Si3 0.125000 0.410858 0.668952
O O1 0.720863 0.355877 0.945641
O O2 0.894123 0.384169 0.858947
O O3 0.855877 0.220863 0.963979
O O4 0.884169 0.394123 0.050673
O O5 0.029137 0.134169 0.935687
O O6 0.134169 0.970863 0.973933
#
# Coordination Sequence:
#
# PCOD8308045 Si02
#       3
#    16  16  16
#     4  10  22  39  60  87 118 154 196 242 292 345
#     4  10  22  39  60  87 118 154 196 242 292 345
#     4  10  22  39  60  87 118 154 196 242 292 345
#
# _framework density 19.899978999999998
#
# number of rings (size 3 to 8) (size 9 to 14) (size 15 to 20)
#    0.000    2.000    0.000    2.000    0.000   16.000 
#    0.000    0.000    0.000    0.000    0.000    0.000 
#    0.000    0.000    0.000    0.000    0.000    0.000 
#
# Total GULP energy -297705.489369 kJ/mol
# GULP energy per Si atom -12404.395390 kJ/mol
# Density = 1.985469 g / cm^3
# Si number density = 19.899979 Si / 1000 Ang^3
#
#
#
# Elastic Constant Matrix: (Units=GPa)
#
#
# Indices 1 2 3 4 5 6 
#
# 1 174.4527 75.0469 75.0469 0.0000 0.0000 0.0000
# 2 75.0469 174.4528 75.0469 0.0000 0.0000 0.0000
# 3 75.0469 75.0469 174.4527 0.0000 0.0000 0.0000
# 4 0.0000 0.0000 0.0000 34.3975 0.0000 0.0000
# 5 0.0000 0.0000 0.0000 0.0000 34.3974 0.0000
# 6 0.0000 0.0000 0.0000 0.0000 0.0000 34.3975
#
#
#
# Elastic Compliance Matrix: (Units=1/GPa)
#
#
# Indices 1 2 3 4 5 6 
#
# 1 0.007734 -0.002326 -0.002326 0.000000 0.000000 0.000000
# 2 -0.002326 0.007734 -0.002326 0.000000 0.000000 0.000000
# 3 -0.002326 -0.002326 0.007734 0.000000 0.000000 0.000000
# 4 0.000000 0.000000 0.000000 0.029072 0.000000 0.000000
# 5 0.000000 0.000000 0.000000 0.000000 0.029072 0.000000
# 6 0.000000 0.000000 0.000000 0.000000 0.000000 0.029072
#
#
# Mechanical properties :
#
#
# Convention : Reuss Voigt Hill
#
# Bulk Modulus (GPa) = 108.18217 108.18217 108.18217
# Shear Modulus (GPa) = 39.22959 40.51965 39.87462
#
# Velocity S-wave (km/s) = 4.44479 4.51728 4.48118
# Velocity P-wave (km/s) = 8.99014 9.03818 9.01419
#
# Compressibility (1/GPa) = 0.00924367
#
# Stress axis : x y z
#
# Youngs Moduli (GPa) = 129.30610 129.30611 129.30606
#
# Poissons Ratio (x) = 0.30079 0.30079
# Poissons Ratio (y) = 0.30079 0.30079
# Poissons Ratio (z) = 0.30079 0.30079
#
# Static dielectric constant tensor:
#      x y z
#    x 3.653000 0.000000 0.000000 
#    y 0.000000 3.653000 0.000000 
#    z 0.000000 0.000000 3.652990 
# 
# 
# High freq. dielectric constant tensor:
#      x y z
#    x 1.783620 0.000000 0.000000 
#    y 0.000000 1.783620 0.000000 
#    z 0.000000 0.000000 1.783620 
# 
# From -- ./inp_files/664.got.cif
#   From: 2010.03.12/outbox.cif.g09.slc.cpg/sg110_1_cif.got.tgz:664.got - 2010.04.14 01:58:01.
