data_PCOD8308894
_publ_section_title
;
Structure prediction by ZEFSAII (Michael W. Deem and Ramdas Pophale) SiO2 
 PCOD8308894
Probable space group: P -4 21 C
;
_chemical_formula_sum "Si O2"
_cell_formula_units_Z 48
_cell_length_a 9.200122
_cell_length_b 9.200122
_cell_length_c 28.398362
_cell_angle_alpha 90.000000
_cell_angle_beta 90.000000
_cell_angle_gamma 90.000000
_cell_volume 2403.701109
_symmetry_space_group_name_H-M "P -4 21 C"
_symmetry_group_IT_number 114
_symmetry_cell_setting 'tetragonal'
loop_
_space_group_symop_operation_xyz
x,y,z
y,-x,-z
-x,-y,z
-y,x,-z
1/2+x,1/2-y,1/2-z
1/2-x,1/2+y,1/2-z
1/2-y,1/2-x,1/2+z
1/2+y,1/2+x,1/2+z
loop_
_atom_site_type_symbol
_atom_site_label
_atom_site_fract_x
_atom_site_fract_y
_atom_site_fract_z
Si Si1 0.263756 0.149220 0.559603
Si Si2 0.845663 0.572498 0.273577
Si Si3 0.507303 0.162402 0.967099
Si Si4 0.516236 0.171080 0.625116
Si Si5 0.831189 0.136695 0.601242
Si Si6 0.640839 0.409769 0.207672
O O1 0.171778 0.277344 0.535282
O O2 0.382027 0.228649 0.593524
O O3 0.343868 0.051854 0.520261
O O4 0.163942 0.036706 0.589603
O O5 0.761946 0.522732 0.321919
O O6 0.769574 0.507972 0.227820
O O7 0.860127 0.747595 0.270456
O O8 0.000000 0.500000 0.273995
O O9 0.413382 0.273694 0.937718
O O10 0.500000 0.000000 0.945947
O O11 0.668376 0.201457 0.599547
O O12 0.500000 0.000000 0.631076
O O13 0.904069 0.159736 0.651724
O O14 0.500000 0.500000 0.222565
#
# Coordination Sequence:
#
# PCOD8308894 Si02
#       6
#     8   8   8   8   8   8
#     4  11  21  39  63  86 118 156 200 248 299 362
#     4  10  21  38  61  88 119 161 208 252 313 368
#     4  12  24  36  58  90 118 152 199 250 294 348
#     4   8  18  38  63  84 114 158 195 243 301 368
#     4  10  21  39  62  88 117 152 203 247 299 355
#     4  11  22  38  61  90 122 161 205 258 309 377
#
# _framework density 19.969204000000001
#
# number of rings (size 3 to 8) (size 9 to 14) (size 15 to 20)
#    0.000    1.667    1.667    5.000    0.000    2.000 
#    0.000    4.167    0.000    0.000    0.000    0.000 
#    0.000    0.000    0.000    0.000    0.000    0.000 
#
# Total GULP energy -595042.525628 kJ/mol
# GULP energy per Si atom -12396.719284 kJ/mol
# Density = 1.992375 g / cm^3
# Si number density = 19.969204 Si / 1000 Ang^3
#
#
#
# Elastic Constant Matrix: (Units=GPa)
#
#
# Indices 1 2 3 4 5 6 
#
# 1 87.0358 42.4673 38.4416 0.0000 0.0000 0.0000
# 2 42.4673 87.0358 38.4416 0.0000 0.0000 0.0000
# 3 38.4416 38.4416 94.6180 0.0000 0.0000 0.0000
# 4 0.0000 0.0000 0.0000 32.7849 0.0000 0.0000
# 5 0.0000 0.0000 0.0000 0.0000 32.7849 0.0000
# 6 0.0000 0.0000 0.0000 0.0000 0.0000 21.1936
#
#
#
# Elastic Compliance Matrix: (Units=1/GPa)
#
#
# Indices 1 2 3 4 5 6 
#
# 1 0.016307 -0.006130 -0.004134 0.000000 0.000000 0.000000
# 2 -0.006130 0.016307 -0.004134 0.000000 0.000000 0.000000
# 3 -0.004134 -0.004134 0.013928 0.000000 0.000000 0.000000
# 4 0.000000 0.000000 0.000000 0.030502 0.000000 0.000000
# 5 0.000000 0.000000 0.000000 0.000000 0.030502 0.000000
# 6 0.000000 0.000000 0.000000 0.000000 0.000000 0.047184
#
#
# Mechanical properties :
#
#
# Convention : Reuss Voigt Hill
#
# Bulk Modulus (GPa) = 56.35971 56.37675 56.36823
# Shear Modulus (GPa) = 26.39312 27.30859 26.85086
#
# Velocity S-wave (km/s) = 3.63945 3.70203 3.67087
# Velocity P-wave (km/s) = 6.77830 6.82397 6.80117
#
# Compressibility (1/GPa) = 0.01774317
#
# Stress axis : x y z
#
# Youngs Moduli (GPa) = 61.32381 61.32381 71.79599
#
# Poissons Ratio (x) = 0.37595 0.29684
# Poissons Ratio (y) = 0.37595 0.29684
# Poissons Ratio (z) = 0.25354 0.25354
#
# Static dielectric constant tensor:
#      x y z
#    x 3.650050 0.000000 0.000000 
#    y 0.000000 3.650050 0.000000 
#    z 0.000000 0.000000 3.861730 
# 
# 
# High freq. dielectric constant tensor:
#      x y z
#    x 1.766730 0.000000 0.000000 
#    y 0.000000 1.766730 0.000000 
#    z 0.000000 0.000000 1.790270 
# 
# From -- ./inp_files/3923.got.cif
#   From: 2010.03.12/outbox.cif.g09.slc.cpg/sg114_2_cif.got.tgz:3923.got - 2010.04.14 02:08:34.
