data_PCOD8308185
_publ_section_title
;
Structure prediction by ZEFSAII (Michael W. Deem and Ramdas Pophale) SiO2 
 PCOD8308185
Probable space group: P -4 2 M 
;
_chemical_formula_sum "Si O2"
_cell_formula_units_Z 56
_cell_length_a 12.423286
_cell_length_b 12.423286
_cell_length_c 21.411345
_cell_angle_alpha 90.000000
_cell_angle_beta 90.000000
_cell_angle_gamma 90.000000
_cell_volume 3304.584915
_symmetry_space_group_name_H-M "P -4 2 M "
_symmetry_group_IT_number 111
_symmetry_cell_setting 'tetragonal'
loop_
_space_group_symop_operation_xyz
x,y,z
y,-x,-z
-x,-y,z
-y,x,-z
x,-y,-z
-x,y,-z
-y,-x,z
y,x,z
loop_
_atom_site_type_symbol
_atom_site_label
_atom_site_fract_x
_atom_site_fract_y
_atom_site_fract_z
Si Si1 0.299459 0.123559 0.869523
Si Si2 0.123205 0.296849 0.427949
Si Si3 0.374149 0.799627 1.000000
Si Si4 0.876441 0.700541 0.130478
Si Si5 0.500000 0.128091 0.648737
Si Si6 0.876794 0.296849 0.427949
Si Si7 0.500000 0.872046 0.789673
O O1 0.192500 0.192500 0.857655
O O2 0.339865 0.130876 0.940404
O O3 0.393228 0.169638 0.824655
O O4 0.271445 1.000000 0.854058
O O5 0.190046 0.190046 0.412525
O O6 0.170427 0.394146 0.386687
O O7 0.134133 0.331089 0.500000
O O8 1.000000 0.270776 0.410624
O O9 0.315895 0.684106 0.000000
O O10 0.500000 0.776496 0.000000
O O11 0.339864 0.869122 0.940404
O O12 0.807500 0.807500 0.142347
O O13 0.830362 0.606772 0.175345
O O14 0.394147 0.170427 0.613312
O O15 0.499999 0.172853 0.719204
O O16 0.500000 0.000000 0.646995
O O17 0.809954 0.190047 0.412527
O O18 0.500000 0.000000 0.791223
#
# Coordination Sequence:
#
# PCOD8308185 Si02
#       7
#     8   8   8   8   8   8   8
#     4  10  20  33  51  75 101 130 163 200 244 294
#     4   9  17  29  47  72 100 129 161 198 241 289
#     4  10  19  32  52  76 102 133 168 207 250 294
#     4  10  20  33  51  75 101 130 163 200 244 294
#     4   9  17  30  48  69  93 126 166 204 239 279
#     4   9  17  29  47  72 100 129 161 198 241 289
#     4   9  18  32  50  69  92 126 168 206 237 282
#
# _framework density 16.946152000000001
#
# number of rings (size 3 to 8) (size 9 to 14) (size 15 to 20)
#    0.000    2.571    1.429    0.857    0.000    4.143 
#    0.000    1.429    0.000    3.429    0.000   12.000 
#    0.000    0.000    0.000    0.000    0.000    0.000 
#
# Total GULP energy -694446.196099 kJ/mol
# GULP energy per Si atom -12400.824930 kJ/mol
# Density = 1.690758 g / cm^3
# Si number density = 16.946152 Si / 1000 Ang^3
#
#
#
# Elastic Constant Matrix: (Units=GPa)
#
#
# Indices 1 2 3 4 5 6 
#
# 1 98.5171 54.7782 45.8342 0.0000 0.0000 0.0000
# 2 54.7782 98.5181 45.8347 0.0000 0.0000 0.0000
# 3 45.8342 45.8347 111.0539 0.0000 0.0000 0.0000
# 4 0.0000 0.0000 0.0000 16.4940 0.0000 0.0000
# 5 0.0000 0.0000 0.0000 0.0000 16.4939 0.0000
# 6 0.0000 0.0000 0.0000 0.0000 0.0000 8.6232
#
#
#
# Elastic Compliance Matrix: (Units=1/GPa)
#
#
# Indices 1 2 3 4 5 6 
#
# 1 0.015762 -0.007101 -0.003574 0.000000 0.000000 0.000000
# 2 -0.007101 0.015762 -0.003575 0.000000 0.000000 0.000000
# 3 -0.003574 -0.003575 0.011955 0.000000 0.000000 0.000000
# 4 0.000000 0.000000 0.000000 0.060628 0.000000 0.000000
# 5 0.000000 0.000000 0.000000 0.000000 0.060628 0.000000
# 6 0.000000 0.000000 0.000000 0.000000 0.000000 0.115967
#
#
# Mechanical properties :
#
#
# Convention : Reuss Voigt Hill
#
# Bulk Modulus (GPa) = 66.76099 66.77593 66.76846
# Shear Modulus (GPa) = 15.91369 19.09835 17.50602
#
# Velocity S-wave (km/s) = 3.06776 3.36073 3.21758
# Velocity P-wave (km/s) = 7.21316 7.38577 7.29998
#
# Compressibility (1/GPa) = 0.01497881
#
# Stress axis : x y z
#
# Youngs Moduli (GPa) = 63.44443 63.44486 83.64554
#
# Poissons Ratio (x) = 0.45052 0.29899
# Poissons Ratio (y) = 0.45051 0.29900
# Poissons Ratio (z) = 0.22678 0.22679
#
# Static dielectric constant tensor:
#      x y z
#    x 3.033980 0.000000 0.000000 
#    y 0.000000 3.033980 0.000000 
#    z 0.000000 0.000000 3.348390 
# 
# 
# High freq. dielectric constant tensor:
#      x y z
#    x 1.639050 0.000000 0.000000 
#    y 0.000000 1.639050 0.000000 
#    z 0.000000 0.000000 1.659650 
# 
# From -- ./inp_files/3959.got.cif
#   From: 2010.03.12/outbox.cif.g09.slc.cpg/sg111_2_cif.got.tgz:3959.got - 2010.04.14 01:59:48.
