data_PCOD8308635
_publ_section_title
;
Structure prediction by ZEFSAII (Michael W. Deem and Ramdas Pophale) SiO2 
 PCOD8308635
Probable space group: P -4 21 M 
;
_chemical_formula_sum "Si O2"
_cell_formula_units_Z 56
_cell_length_a 13.375075
_cell_length_b 13.375075
_cell_length_c 16.574653
_cell_angle_alpha 90.000000
_cell_angle_beta 90.000000
_cell_angle_gamma 90.000000
_cell_volume 2965.083287
_symmetry_space_group_name_H-M "P -4 21 M "
_symmetry_group_IT_number 113
_symmetry_cell_setting 'tetragonal'
loop_
_space_group_symop_operation_xyz
x,y,z
y,-x,-z
-x,-y,z
-y,x,-z
1/2+x,1/2-y,-z
1/2-x,1/2+y,-z
1/2-y,1/2-x,z
1/2+y,1/2+x,z
loop_
_atom_site_type_symbol
_atom_site_label
_atom_site_fract_x
_atom_site_fract_y
_atom_site_fract_z
Si Si1 0.949728 0.292152 0.619486
Si Si2 0.860578 0.196200 0.081457
Si Si3 0.029620 0.106788 0.182820
Si Si4 0.994040 0.658713 0.785712
Si Si5 0.160827 0.981329 0.515709
Si Si6 0.210169 0.869032 0.669432
Si Si7 0.974745 0.194463 0.925345
O O1 0.900565 0.400565 0.600431
O O2 0.862121 0.215392 0.637415
O O3 0.022092 0.291613 0.697940
O O4 0.014653 0.256038 0.543652
O O5 0.777345 0.277345 0.107769
O O6 0.933558 0.172782 0.156806
O O7 0.811410 0.091912 0.054808
O O8 0.920767 0.238515 0.004262
O O9 0.092268 0.174792 0.243497
O O10 0.089765 0.076146 0.101276
O O11 0.000000 0.000000 0.224582
O O12 0.888977 0.611024 0.815747
O O13 0.074345 0.574345 0.770486
O O14 0.040225 0.733124 0.849989
O O15 0.205093 0.958801 0.604484
O O16 0.087133 0.896032 0.481609
O O17 0.321834 0.821834 0.677738
#
# Coordination Sequence:
#
# PCOD8308635 Si02
#       7
#     8   8   8   8   8   8   8
#     4   9  18  33  52  79 112 146 188 239 292 342
#     4  11  23  38  59  88 119 152 195 245 293 346
#     4  10  22  36  62  83 114 148 194 239 287 340
#     4  10  20  33  52  81 115 149 186 232 291 351
#     4   9  19  32  54  79 110 144 189 235 287 336
#     4  10  20  35  56  85 111 148 197 236 282 347
#     4  11  20  38  59  85 115 150 193 239 290 347
#
# _framework density 18.886483999999999
#
# number of rings (size 3 to 8) (size 9 to 14) (size 15 to 20)
#    0.000    2.000    2.857    0.857    4.000    1.143 
#    0.000    0.714    0.000    3.000    0.000    0.000 
#    0.000    0.000    0.000    0.000    0.000    0.000 
#
# Total GULP energy -694150.372045 kJ/mol
# GULP energy per Si atom -12395.542358 kJ/mol
# Density = 1.884350 g / cm^3
# Si number density = 18.886484 Si / 1000 Ang^3
#
#
#
# Elastic Constant Matrix: (Units=GPa)
#
#
# Indices 1 2 3 4 5 6 
#
# 1 74.9861 44.9128 41.0088 0.0000 0.0000 0.0000
# 2 44.9128 74.9859 41.0091 0.0000 0.0000 0.0000
# 3 41.0088 41.0091 89.7424 0.0000 0.0000 0.0000
# 4 0.0000 0.0000 0.0000 26.5285 0.0000 0.0000
# 5 0.0000 0.0000 0.0000 0.0000 26.5281 0.0000
# 6 0.0000 0.0000 0.0000 0.0000 0.0000 30.6863
#
#
#
# Elastic Compliance Matrix: (Units=1/GPa)
#
#
# Indices 1 2 3 4 5 6 
#
# 1 0.022692 -0.010560 -0.005544 0.000000 0.000000 0.000000
# 2 -0.010560 0.022693 -0.005544 0.000000 0.000000 0.000000
# 3 -0.005544 -0.005544 0.016210 0.000000 0.000000 0.000000
# 4 0.000000 0.000000 0.000000 0.037695 0.000000 0.000000
# 5 0.000000 0.000000 0.000000 0.000000 0.037696 0.000000
# 6 0.000000 0.000000 0.000000 0.000000 0.000000 0.032588
#
#
# Mechanical properties :
#
#
# Convention : Reuss Voigt Hill
#
# Bulk Modulus (GPa) = 54.64838 54.84176 54.74507
# Shear Modulus (GPa) = 22.83413 24.26750 23.55082
#
# Velocity S-wave (km/s) = 3.48087 3.58846 3.53507
# Velocity P-wave (km/s) = 6.71962 6.80220 6.76104
#
# Compressibility (1/GPa) = 0.01829880
#
# Stress axis : x y z
#
# Youngs Moduli (GPa) = 44.06743 44.06703 61.68982
#
# Poissons Ratio (x) = 0.46533 0.34202
# Poissons Ratio (y) = 0.46533 0.34204
# Poissons Ratio (z) = 0.24432 0.24433
#
# Static dielectric constant tensor:
#      x y z
#    x 3.539470 0.000000 0.000000 
#    y 0.000000 3.539470 0.000000 
#    z 0.000000 0.000000 3.413140 
# 
# 
# High freq. dielectric constant tensor:
#      x y z
#    x 1.720640 0.000000 0.000000 
#    y 0.000000 1.720640 0.000000 
#    z 0.000000 0.000000 1.730860 
# 
# From -- ./inp_files/2278.got.cif
#   From: 2010.03.12/outbox.cif.g09.slc.cpg/sg113_cif.got.tgz:2278.got - 2010.04.14 02:06:34.
