data_PCOD8308619
_publ_section_title
;
Structure prediction by ZEFSAII (Michael W. Deem and Ramdas Pophale) SiO2 
 PCOD8308619
Probable space group: P -4 21 M 
;
_chemical_formula_sum "Si O2"
_cell_formula_units_Z 40
_cell_length_a 12.060265
_cell_length_b 12.060265
_cell_length_c 14.311488
_cell_angle_alpha 90.000000
_cell_angle_beta 90.000000
_cell_angle_gamma 90.000000
_cell_volume 2081.605813
_symmetry_space_group_name_H-M "P -4 21 M "
_symmetry_group_IT_number 113
_symmetry_cell_setting 'tetragonal'
loop_
_space_group_symop_operation_xyz
x,y,z
y,-x,-z
-x,-y,z
-y,x,-z
1/2+x,1/2-y,-z
1/2-x,1/2+y,-z
1/2-y,1/2-x,z
1/2+y,1/2+x,z
loop_
_atom_site_type_symbol
_atom_site_label
_atom_site_fract_x
_atom_site_fract_y
_atom_site_fract_z
Si Si1 0.235767 0.090741 0.727635
Si Si2 0.056487 0.259273 0.746430
Si Si3 0.247436 0.075341 0.073393
Si Si4 0.906768 0.406768 0.420435
Si Si5 0.066204 0.251487 0.104474
Si Si6 0.093405 0.593405 0.633220
O O1 0.317724 0.182277 0.775845
O O2 0.117792 0.150041 0.705545
O O3 0.293506 0.050830 0.630608
O O4 0.219912 0.987367 0.796215
O O5 0.137073 0.362928 0.749523
O O6 0.021485 0.230557 0.851755
O O7 0.950619 0.293883 0.682962
O O8 0.351456 0.148545 0.106441
O O9 0.137301 0.148619 0.067865
O O10 0.273778 0.027728 0.971708
O O11 0.877408 0.377408 0.526647
O O12 0.000000 0.500000 0.411187
O O13 0.138298 0.361703 0.118152
O O14 0.000000 0.500000 0.635767
#
# Coordination Sequence:
#
# PCOD8308619 Si02
#       6
#     8   8   8   4   8   4
#     4   9  20  35  58  84 113 148 189 240 289 352
#     4  10  19  36  58  85 111 144 196 237 289 338
#     4  11  23  36  54  82 113 157 196 240 285 355
#     4   9  18  36  59  86 114 149 195 232 303 354
#     4  11  23  37  54  81 119 155 198 238 294 352
#     4   9  18  34  61  83 112 149 187 247 289 356
#
# _framework density 19.215935000000002
#
# number of rings (size 3 to 8) (size 9 to 14) (size 15 to 20)
#    0.600    1.400    1.000    3.000    0.000    8.000 
#    0.000    2.000    0.000    0.000    0.000    0.000 
#    0.000    0.000    0.000    0.000    0.000    0.000 
#
# Total GULP energy -495925.420724 kJ/mol
# GULP energy per Si atom -12398.135518 kJ/mol
# Density = 1.917220 g / cm^3
# Si number density = 19.215935 Si / 1000 Ang^3
#
#
#
# Elastic Constant Matrix: (Units=GPa)
#
#
# Indices 1 2 3 4 5 6 
#
# 1 79.6796 41.3228 34.4344 0.0000 0.0000 0.0000
# 2 41.3228 79.6789 34.4344 0.0000 0.0000 0.0000
# 3 34.4344 34.4344 117.8330 0.0000 0.0000 0.0000
# 4 0.0000 0.0000 0.0000 15.9218 0.0000 0.0000
# 5 0.0000 0.0000 0.0000 0.0000 15.9228 0.0000
# 6 0.0000 0.0000 0.0000 0.0000 0.0000 28.6907
#
#
#
# Elastic Compliance Matrix: (Units=1/GPa)
#
#
# Indices 1 2 3 4 5 6 
#
# 1 0.017992 -0.008079 -0.002897 0.000000 0.000000 0.000000
# 2 -0.008079 0.017992 -0.002897 0.000000 0.000000 0.000000
# 3 -0.002897 -0.002897 0.010180 0.000000 0.000000 0.000000
# 4 0.000000 0.000000 0.000000 0.062807 0.000000 0.000000
# 5 0.000000 0.000000 0.000000 0.000000 0.062803 0.000000
# 6 0.000000 0.000000 0.000000 0.000000 0.000000 0.034854
#
#
# Mechanical properties :
#
#
# Convention : Reuss Voigt Hill
#
# Bulk Modulus (GPa) = 54.29384 55.28606 54.78995
# Shear Modulus (GPa) = 20.78882 23.24039 22.01460
#
# Velocity S-wave (km/s) = 3.29272 3.48146 3.38841
# Velocity P-wave (km/s) = 6.54003 6.70777 6.62443
#
# Compressibility (1/GPa) = 0.01841830
#
# Stress axis : x y z
#
# Youngs Moduli (GPa) = 55.58002 55.57944 98.23455
#
# Poissons Ratio (x) = 0.44903 0.28457
# Poissons Ratio (y) = 0.44903 0.28458
# Poissons Ratio (z) = 0.16101 0.16101
#
# Static dielectric constant tensor:
#      x y z
#    x 3.442580 0.000000 0.000000 
#    y 0.000000 3.442580 0.000000 
#    z 0.000000 0.000000 3.371250 
# 
# 
# High freq. dielectric constant tensor:
#      x y z
#    x 1.740810 0.000000 0.000000 
#    y 0.000000 1.740810 0.000000 
#    z 0.000000 0.000000 1.735650 
# 
# From -- ./inp_files/2202.got.cif
#   From: 2010.03.12/outbox.cif.g09.slc.cpg/sg113_cif.got.tgz:2202.got - 2010.04.14 02:06:34.
