data_PCOD8308535
_publ_section_title
;
Structure prediction by ZEFSAII (Michael W. Deem and Ramdas Pophale) SiO2 
 PCOD8308535
Probable space group: P -4 21 M 
;
_chemical_formula_sum "Si O2"
_cell_formula_units_Z 56
_cell_length_a 12.355191
_cell_length_b 12.355191
_cell_length_c 20.395923
_cell_angle_alpha 90.000000
_cell_angle_beta 90.000000
_cell_angle_gamma 90.000000
_cell_volume 3113.452834
_symmetry_space_group_name_H-M "P -4 21 M "
_symmetry_group_IT_number 113
_symmetry_cell_setting 'tetragonal'
loop_
_space_group_symop_operation_xyz
x,y,z
y,-x,-z
-x,-y,z
-y,x,-z
1/2+x,1/2-y,-z
1/2-x,1/2+y,-z
1/2-y,1/2-x,z
1/2+y,1/2+x,z
loop_
_atom_site_type_symbol
_atom_site_label
_atom_site_fract_x
_atom_site_fract_y
_atom_site_fract_z
Si Si1 0.236203 0.436337 0.481496
Si Si2 0.323320 0.002843 0.654842
Si Si3 0.995761 0.327915 0.079625
Si Si4 0.103236 0.930990 0.718511
Si Si5 0.379981 0.551005 0.580350
Si Si6 0.648570 0.326531 0.853037
Si Si7 0.962409 0.160746 0.977180
O O1 0.137600 0.362401 0.504287
O O2 0.198675 0.518053 0.423347
O O3 0.281541 0.486530 0.548359
O O4 0.330980 0.366207 0.449720
O O5 0.393639 0.106362 0.678584
O O6 0.391714 0.891714 0.666958
O O7 0.209474 0.999325 0.694573
O O8 0.896851 0.396851 0.111177
O O9 0.094860 0.405141 0.061640
O O10 0.035927 0.235918 0.130420
O O11 0.955976 0.277653 0.010927
O O12 0.059443 0.859146 0.657988
O O13 0.134479 0.853944 0.778398
O O14 0.000000 0.000000 0.742508
O O15 0.500000 0.500000 0.565911
O O16 0.749687 0.249687 0.863598
O O17 0.664794 0.427932 0.901341
O O18 0.084379 0.117062 0.980493
#
# Coordination Sequence:
#
# PCOD8308535 Si02
#       7
#     8   8   8   8   8   8   8
#     4  10  18  30  55  80 101 133 172 220 274 319
#     4   9  19  36  56  81 110 138 174 225 283 328
#     4   9  18  32  52  80 109 133 165 215 272 318
#     4  10  22  34  53  74 109 149 182 218 255 322
#     4  10  18  36  50  72 105 137 176 218 260 316
#     4  10  20  34  54  77 103 140 180 211 256 314
#     4   9  18  31  54  79 105 136 171 218 261 309
#
# _framework density 17.986460999999998
#
# number of rings (size 3 to 8) (size 9 to 14) (size 15 to 20)
#    0.000    2.429    1.429    0.857    4.000    2.286 
#    0.000    1.429    0.000    0.857    0.000    0.000 
#    0.000    1.714    0.000    0.000    0.000    0.000 
#
# Total GULP energy -693953.682210 kJ/mol
# GULP energy per Si atom -12392.030039 kJ/mol
# Density = 1.794552 g / cm^3
# Si number density = 17.986461 Si / 1000 Ang^3
#
#
#
# Elastic Constant Matrix: (Units=GPa)
#
#
# Indices 1 2 3 4 5 6 
#
# 1 64.8378 18.2301 24.2101 0.0000 0.0000 0.0000
# 2 18.2301 64.8369 24.2101 0.0000 0.0000 0.0000
# 3 24.2101 24.2101 107.3931 0.0000 0.0000 0.0000
# 4 0.0000 0.0000 0.0000 18.3122 0.0000 0.0000
# 5 0.0000 0.0000 0.0000 0.0000 18.3133 0.0000
# 6 0.0000 0.0000 0.0000 0.0000 0.0000 20.5446
#
#
#
# Elastic Compliance Matrix: (Units=1/GPa)
#
#
# Indices 1 2 3 4 5 6 
#
# 1 0.017658 -0.003798 -0.003124 0.000000 0.000000 0.000000
# 2 -0.003798 0.017658 -0.003124 0.000000 0.000000 0.000000
# 3 -0.003124 -0.003124 0.010720 0.000000 0.000000 0.000000
# 4 0.000000 0.000000 0.000000 0.054608 0.000000 0.000000
# 5 0.000000 0.000000 0.000000 0.000000 0.054605 0.000000
# 6 0.000000 0.000000 0.000000 0.000000 0.000000 0.048675
#
#
# Mechanical properties :
#
#
# Convention : Reuss Voigt Hill
#
# Bulk Modulus (GPa) = 38.54778 41.15205 39.84991
# Shear Modulus (GPa) = 21.49010 22.79518 22.14264
#
# Velocity S-wave (km/s) = 3.46033 3.56385 3.51247
# Velocity P-wave (km/s) = 6.11909 6.31378 6.21720
#
# Compressibility (1/GPa) = 0.02594183
#
# Stress axis : x y z
#
# Youngs Moduli (GPa) = 56.63274 56.63187 93.28095
#
# Poissons Ratio (x) = 0.21509 0.29145
# Poissons Ratio (y) = 0.21510 0.29145
# Poissons Ratio (z) = 0.17694 0.17694
#
# Static dielectric constant tensor:
#      x y z
#    x 3.344280 0.000000 0.000000 
#    y 0.000000 3.344280 0.000000 
#    z 0.000000 0.000000 3.297750 
# 
# 
# High freq. dielectric constant tensor:
#      x y z
#    x 1.685830 0.000000 0.000000 
#    y 0.000000 1.685830 0.000000 
#    z 0.000000 0.000000 1.687120 
# 
# From -- ./inp_files/2674.got.cif
#   From: 2010.03.12/outbox.cif.g09.slc.cpg/sg113_cif.got.tgz:2674.got - 2010.04.14 02:06:34.
