data_PCOD8308410
_publ_section_title
;
Structure prediction by ZEFSAII (Michael W. Deem and Ramdas Pophale) SiO2 
 PCOD8308410
Probable space group: P -4 2 C
;
_chemical_formula_sum "Si O2"
_cell_formula_units_Z 50
_cell_length_a 8.945794
_cell_length_b 8.945794
_cell_length_c 29.587876
_cell_angle_alpha 90.000000
_cell_angle_beta 90.000000
_cell_angle_gamma 90.000000
_cell_volume 2367.835766
_symmetry_space_group_name_H-M "P -4 2 C"
_symmetry_group_IT_number 112
_symmetry_cell_setting 'tetragonal'
loop_
_space_group_symop_operation_xyz
x,y,z
y,-x,-z
-x,-y,z
-y,x,-z
x,-y,1/2-z
-x,y,1/2-z
-y,-x,1/2+z
y,x,1/2+z
loop_
_atom_site_type_symbol
_atom_site_label
_atom_site_fract_x
_atom_site_fract_y
_atom_site_fract_z
Si Si1 0.817838 0.659099 0.871570
Si Si2 0.535132 0.736290 0.992344
Si Si3 0.938599 0.709347 0.558059
Si Si4 0.743420 0.681343 0.640887
Si Si5 0.000000 0.000000 0.500000
Si Si6 0.172850 0.979098 0.302830
Si Si7 0.471696 0.829370 0.607131
O O1 0.754904 0.497731 0.857730
O O2 0.697238 0.783299 0.884119
O O3 0.922408 0.635744 0.915328
O O4 0.904254 0.722640 0.828594
O O5 0.484454 0.802511 0.944762
O O6 0.662939 0.611040 0.984614
O O7 0.589865 0.872300 0.023052
O O8 0.815780 0.752628 0.595531
O O9 0.992042 0.855856 0.531755
O O10 0.815654 0.763934 0.684110
O O11 0.569972 0.724127 0.639694
O O12 0.194132 0.000000 0.250000
O O13 0.000000 0.000000 0.317155
O O14 0.500000 0.000000 0.620466
#
# Coordination Sequence:
#
# PCOD8308410 Si02
#       7
#     8   8   8   8   2   8   8
#     4  11  25  42  68  93 134 171 220 274 337 409
#     4  11  24  41  62  89 127 178 233 284 331 397
#     4  11  24  40  60  89 125 171 224 280 328 379
#     4  11  24  43  65  96 131 175 220 270 336 403
#     4  12  28  36  56  92 122 176 224 292 312 400
#     4  10  22  43  74 105 134 168 212 271 339 415
#     4  12  26  41  65  92 129 179 222 282 339 398
#
# _framework density 21.116326999999998
#
# number of rings (size 3 to 8) (size 9 to 14) (size 15 to 20)
#    0.000    0.960    1.600    5.280   11.200    5.120 
#    0.000    0.800    0.000    4.800    0.000    0.000 
#    0.000    0.000    0.000    0.000    0.000    0.000 
#
# Total GULP energy -620181.753592 kJ/mol
# GULP energy per Si atom -12403.635072 kJ/mol
# Density = 2.106827 g / cm^3
# Si number density = 21.116327 Si / 1000 Ang^3
#
#
#
# Elastic Constant Matrix: (Units=GPa)
#
#
# Indices 1 2 3 4 5 6 
#
# 1 130.4141 53.4673 42.2195 0.0000 0.0000 0.0000
# 2 53.4673 130.4141 42.2195 0.0000 0.0000 0.0000
# 3 42.2195 42.2195 95.8204 0.0000 0.0000 0.0000
# 4 0.0000 0.0000 0.0000 21.6389 0.0000 0.0000
# 5 0.0000 0.0000 0.0000 0.0000 21.6389 0.0000
# 6 0.0000 0.0000 0.0000 0.0000 0.0000 43.7829
#
#
#
# Elastic Compliance Matrix: (Units=1/GPa)
#
#
# Indices 1 2 3 4 5 6 
#
# 1 0.009907 -0.003089 -0.003004 0.000000 0.000000 0.000000
# 2 -0.003089 0.009907 -0.003004 0.000000 0.000000 0.000000
# 3 -0.003004 -0.003004 0.013083 0.000000 0.000000 0.000000
# 4 0.000000 0.000000 0.000000 0.046213 0.000000 0.000000
# 5 0.000000 0.000000 0.000000 0.000000 0.046213 0.000000
# 6 0.000000 0.000000 0.000000 0.000000 0.000000 0.022840
#
#
# Mechanical properties :
#
#
# Convention : Reuss Voigt Hill
#
# Bulk Modulus (GPa) = 68.01359 70.27346 69.14352
# Shear Modulus (GPa) = 29.19565 31.99495 30.59530
#
# Velocity S-wave (km/s) = 3.72238 3.89675 3.81056
# Velocity P-wave (km/s) = 7.12417 7.32104 7.22327
#
# Compressibility (1/GPa) = 0.01470294
#
# Stress axis : x y z
#
# Youngs Moduli (GPa) = 100.94028 100.94028 76.43310
#
# Poissons Ratio (x) = 0.31182 0.22960
# Poissons Ratio (y) = 0.31182 0.22960
# Poissons Ratio (z) = 0.30322 0.30322
#
# Static dielectric constant tensor:
#      x y z
#    x 3.938210 0.000000 0.000000 
#    y 0.000000 3.938210 0.000000 
#    z 0.000000 0.000000 3.637800 
# 
# 
# High freq. dielectric constant tensor:
#      x y z
#    x 1.840840 0.000000 0.000000 
#    y 0.000000 1.840840 0.000000 
#    z 0.000000 0.000000 1.804570 
# 
# From -- ./inp_files/6340.got.cif
#   From: 2010.03.12/outbox.cif.g09.slc.cpg/sg112_4_cif.got.tgz:6340.got - 2010.04.14 02:02:48.
