data_PCOD8308703
_publ_section_title
;
Structure prediction by ZEFSAII (Michael W. Deem and Ramdas Pophale) SiO2 
 PCOD8308703
Probable space group: P -4 21 M 
;
_chemical_formula_sum "Si O2"
_cell_formula_units_Z 48
_cell_length_a 14.830030
_cell_length_b 14.830030
_cell_length_c 11.319263
_cell_angle_alpha 90.000000
_cell_angle_beta 90.000000
_cell_angle_gamma 90.000000
_cell_volume 2489.443132
_symmetry_space_group_name_H-M "P -4 21 M "
_symmetry_group_IT_number 113
_symmetry_cell_setting 'tetragonal'
loop_
_space_group_symop_operation_xyz
x,y,z
y,-x,-z
-x,-y,z
-y,x,-z
1/2+x,1/2-y,-z
1/2-x,1/2+y,-z
1/2-y,1/2-x,z
1/2+y,1/2+x,z
loop_
_atom_site_type_symbol
_atom_site_label
_atom_site_fract_x
_atom_site_fract_y
_atom_site_fract_z
Si Si1 0.761394 0.974548 0.049827
Si Si2 0.243003 0.600902 0.325925
Si Si3 0.374111 0.570574 0.529025
Si Si4 0.820266 0.170921 0.101361
Si Si5 0.842948 0.202040 0.759557
Si Si6 0.061101 0.296091 0.170869
O O1 0.794846 0.066831 0.105820
O O2 0.736230 0.911410 0.161685
O O3 0.687550 0.002877 0.950029
O O4 0.829512 0.911545 0.976123
O O5 0.146001 0.646001 0.341545
O O6 0.289959 0.601210 0.452027
O O7 0.303766 0.656701 0.235021
O O8 0.226101 0.499589 0.283138
O O9 0.462980 0.616472 0.474961
O O10 0.355113 0.602943 0.662345
O O11 0.739800 0.239800 0.055750
O O12 0.770665 0.270665 0.701021
O O13 0.788294 0.130960 0.844086
O O14 0.111793 0.388208 0.199018
#
# Coordination Sequence:
#
# PCOD8308703 Si02
#       6
#     8   8   8   8   8   8
#     4  11  20  35  59  88 120 157 199 246 310 369
#     4  10  21  39  58  83 117 159 207 249 299 359
#     4  11  22  38  60  91 124 155 200 252 310 371
#     4  10  21  36  55  84 119 155 199 249 303 367
#     4  11  22  39  60  86 122 160 201 251 310 370
#     4  10  21  39  61  87 121 161 206 254 304 363
#
# _framework density 19.281420000000001
#
# number of rings (size 3 to 8) (size 9 to 14) (size 15 to 20)
#    0.000    1.500    3.333    2.500    0.000    1.333 
#    0.000    0.000    0.000    7.000    0.000    0.000 
#    0.000    0.000    0.000    0.000    0.000    0.000 
#
# Total GULP energy -594639.523117 kJ/mol
# GULP energy per Si atom -12388.323398 kJ/mol
# Density = 1.923753 g / cm^3
# Si number density = 19.281420 Si / 1000 Ang^3
#
#
#
# Elastic Constant Matrix: (Units=GPa)
#
#
# Indices 1 2 3 4 5 6 
#
# 1 81.2688 56.6581 28.0542 0.0000 0.0000 0.0000
# 2 56.6581 81.2665 28.0531 0.0000 0.0000 0.0000
# 3 28.0542 28.0531 72.4331 0.0000 0.0000 0.0000
# 4 0.0000 0.0000 0.0000 28.8666 0.0000 0.0000
# 5 0.0000 0.0000 0.0000 0.0000 28.8667 0.0000
# 6 0.0000 0.0000 0.0000 0.0000 0.0000 24.0150
#
#
#
# Elastic Compliance Matrix: (Units=1/GPa)
#
#
# Indices 1 2 3 4 5 6 
#
# 1 0.024620 -0.016014 -0.003333 0.000000 0.000000 0.000000
# 2 -0.016014 0.024621 -0.003333 0.000000 0.000000 0.000000
# 3 -0.003333 -0.003333 0.016388 0.000000 0.000000 0.000000
# 4 0.000000 0.000000 0.000000 0.034642 0.000000 0.000000
# 5 0.000000 0.000000 0.000000 0.000000 0.034642 0.000000
# 6 0.000000 0.000000 0.000000 0.000000 0.000000 0.041641
#
#
# Mechanical properties :
#
#
# Convention : Reuss Voigt Hill
#
# Bulk Modulus (GPa) = 49.34052 51.16658 50.25355
# Shear Modulus (GPa) = 21.86551 24.49651 23.18101
#
# Velocity S-wave (km/s) = 3.37117 3.56824 3.47110
# Velocity P-wave (km/s) = 6.38736 6.60081 6.49496
#
# Compressibility (1/GPa) = 0.02026732
#
# Stress axis : x y z
#
# Youngs Moduli (GPa) = 40.61704 40.61623 61.02102
#
# Poissons Ratio (x) = 0.65044 0.20341
# Poissons Ratio (y) = 0.65045 0.20338
# Poissons Ratio (z) = 0.13539 0.13537
#
# Static dielectric constant tensor:
#      x y z
#    x 3.551240 0.000000 0.000000 
#    y 0.000000 3.551240 0.000000 
#    z 0.000000 0.000000 3.464760 
# 
# 
# High freq. dielectric constant tensor:
#      x y z
#    x 1.742960 0.000000 0.000000 
#    y 0.000000 1.742960 0.000000 
#    z 0.000000 0.000000 1.751050 
# 
# From -- ./inp_files/1807.got.cif
#   From: 2010.03.12/outbox.cif.g09.slc.cpg/sg113_cif.got.tgz:1807.got - 2010.04.14 02:06:34.
