data_PCOD8308359
_publ_section_title
;
Structure prediction by ZEFSAII (Michael W. Deem and Ramdas Pophale) SiO2 
 PCOD8308359
Probable space group: P -4 2 C
;
_chemical_formula_sum "Si O2"
_cell_formula_units_Z 48
_cell_length_a 8.935008
_cell_length_b 8.935008
_cell_length_c 28.225220
_cell_angle_alpha 90.000000
_cell_angle_beta 90.000000
_cell_angle_gamma 90.000000
_cell_volume 2253.342599
_symmetry_space_group_name_H-M "P -4 2 C"
_symmetry_group_IT_number 112
_symmetry_cell_setting 'tetragonal'
loop_
_space_group_symop_operation_xyz
x,y,z
y,-x,-z
-x,-y,z
-y,x,-z
x,-y,1/2-z
-x,y,1/2-z
-y,-x,1/2+z
y,x,1/2+z
loop_
_atom_site_type_symbol
_atom_site_label
_atom_site_fract_x
_atom_site_fract_y
_atom_site_fract_z
Si Si1 0.162482 0.071140 0.295537
Si Si2 0.712898 0.675462 0.951995
Si Si3 0.424306 0.161737 0.795089
Si Si4 0.326077 0.768126 0.443512
Si Si5 0.034335 0.175851 0.900574
Si Si6 0.522622 0.177679 0.895433
O O1 0.150795 0.248035 0.288267
O O2 0.234823 0.027216 0.346065
O O3 0.251066 0.000000 0.250000
O O4 0.000000 0.000000 0.295633
O O5 0.747189 0.503816 0.939277
O O6 0.799435 0.794985 0.919218
O O7 0.544315 0.719596 0.937914
O O8 0.738614 0.708528 0.006952
O O9 0.500000 0.247518 0.750000
O O10 0.462513 0.239242 0.845036
O O11 0.500000 0.000000 0.797787
O O12 0.227328 0.695023 0.400742
O O13 0.283243 0.940593 0.435669
O O14 0.000000 0.000000 0.905330
O O15 0.500000 0.000000 0.902778
#
# Coordination Sequence:
#
# PCOD8308359 Si02
#       6
#     8   8   8   8   8   8
#     4  10  20  36  62  94 132 165 210 278 337 387
#     4  12  25  46  63  96 131 177 225 262 335 398
#     4  10  20  35  63  96 128 166 218 275 327 390
#     4  12  27  41  70  90 133 182 215 275 328 402
#     4  11  26  43  67 101 131 166 222 278 333 387
#     4  11  24  41  67  97 129 168 223 271 321 389
#
# _framework density 21.301684999999999
#
# number of rings (size 3 to 8) (size 9 to 14) (size 15 to 20)
#    0.000    1.000    3.333    4.000   14.000    0.000 
#    0.000    0.000    0.000    6.000    0.000    0.000 
#    0.000    0.000    0.000    0.000    0.000    0.000 
#
# Total GULP energy -594849.883094 kJ/mol
# GULP energy per Si atom -12392.705898 kJ/mol
# Density = 2.125320 g / cm^3
# Si number density = 21.301685 Si / 1000 Ang^3
#
#
#
# Elastic Constant Matrix: (Units=GPa)
#
#
# Indices 1 2 3 4 5 6 
#
# 1 87.5067 12.8065 45.1437 0.0000 0.0000 0.0000
# 2 12.8065 87.5067 45.1437 0.0000 0.0000 0.0000
# 3 45.1437 45.1437 153.4457 0.0000 0.0000 0.0000
# 4 0.0000 0.0000 0.0000 25.3934 0.0000 0.0000
# 5 0.0000 0.0000 0.0000 0.0000 25.3934 0.0000
# 6 0.0000 0.0000 0.0000 0.0000 0.0000 34.2776
#
#
#
# Elastic Compliance Matrix: (Units=1/GPa)
#
#
# Indices 1 2 3 4 5 6 
#
# 1 0.013473 0.000086 -0.003989 0.000000 0.000000 0.000000
# 2 0.000086 0.013473 -0.003989 0.000000 0.000000 0.000000
# 3 -0.003989 -0.003989 0.008864 0.000000 0.000000 0.000000
# 4 0.000000 0.000000 0.000000 0.039380 0.000000 0.000000
# 5 0.000000 0.000000 0.000000 0.000000 0.039380 0.000000
# 6 0.000000 0.000000 0.000000 0.000000 0.000000 0.029174
#
#
# Mechanical properties :
#
#
# Convention : Reuss Voigt Hill
#
# Bulk Modulus (GPa) = 49.93485 59.40521 54.67003
# Shear Modulus (GPa) = 30.08356 32.03724 31.06040
#
# Velocity S-wave (km/s) = 3.76208 3.88232 3.82268
# Velocity P-wave (km/s) = 6.50874 6.93143 6.72340
#
# Compressibility (1/GPa) = 0.02002609
#
# Stress axis : x y z
#
# Youngs Moduli (GPa) = 74.22244 74.22244 112.81394
#
# Poissons Ratio (x) = -0.00640 0.45003
# Poissons Ratio (y) = -0.00640 0.45003
# Poissons Ratio (z) = 0.29608 0.29608
#
# Static dielectric constant tensor:
#      x y z
#    x 3.616060 0.000000 0.000000 
#    y 0.000000 3.616060 0.000000 
#    z 0.000000 0.000000 5.011580 
# 
# 
# High freq. dielectric constant tensor:
#      x y z
#    x 1.823420 0.000000 0.000000 
#    y 0.000000 1.823420 0.000000 
#    z 0.000000 0.000000 1.858510 
# 
# From -- ./inp_files/6257.got.cif
#   From: 2010.03.12/outbox.cif.g09.slc.cpg/sg112_4_cif.got.tgz:6257.got - 2010.04.14 02:02:48.
