data_PCOD8308404
_publ_section_title
;
Structure prediction by ZEFSAII (Michael W. Deem and Ramdas Pophale) SiO2 
 PCOD8308404
Probable space group: P -4 2 C
;
_chemical_formula_sum "Si O2"
_cell_formula_units_Z 34
_cell_length_a 9.017131
_cell_length_b 9.017131
_cell_length_c 19.862496
_cell_angle_alpha 90.000000
_cell_angle_beta 90.000000
_cell_angle_gamma 90.000000
_cell_volume 1614.992765
_symmetry_space_group_name_H-M "P -4 2 C"
_symmetry_group_IT_number 112
_symmetry_cell_setting 'tetragonal'
loop_
_space_group_symop_operation_xyz
x,y,z
y,-x,-z
-x,-y,z
-y,x,-z
x,-y,1/2-z
-x,y,1/2-z
-y,-x,1/2+z
y,x,1/2+z
loop_
_atom_site_type_symbol
_atom_site_label
_atom_site_fract_x
_atom_site_fract_y
_atom_site_fract_z
Si Si1 0.342177 0.220144 0.243319
Si Si2 0.686556 0.656026 0.501808
Si Si3 0.147731 0.173275 0.616742
Si Si4 0.811961 0.164374 0.618906
Si Si5 0.500000 0.500000 0.250000
O O1 0.500000 0.134177 0.250000
O O2 0.242996 0.134587 0.190602
O O3 0.255246 0.226435 0.313877
O O4 0.385800 0.385779 0.212796
O O5 0.703221 0.481354 0.513004
O O6 0.745032 0.736690 0.568230
O O7 0.783103 0.699716 0.437864
O O8 0.979236 0.182228 0.590154
O O9 0.213271 0.010244 0.629085
#
# Coordination Sequence:
#
# PCOD8308404 Si02
#       5
#     8   8   8   8   2
#     4  10  22  40  66  90 130 164 204 254 311 365
#     4  11  26  43  64  90 126 165 210 259 312 372
#     4  11  24  42  64  94 128 163 208 260 311 371
#     4  11  24  42  64  94 128 163 208 260 311 371
#     4   8  24  40  60  94 136 160 200 266 304 360
#
# _framework density 21.052726
#
# number of rings (size 3 to 8) (size 9 to 14) (size 15 to 20)
#    0.706    0.706    0.000    4.235    3.294   11.294 
#    0.000    1.176    0.000    0.000    0.000    0.000 
#    0.000    0.000    0.000    0.000    0.000    0.000 
#
# Total GULP energy -421259.245316 kJ/mol
# GULP energy per Si atom -12389.977803 kJ/mol
# Density = 2.100481 g / cm^3
# Si number density = 21.052726 Si / 1000 Ang^3
#
#
#
# Elastic Constant Matrix: (Units=GPa)
#
#
# Indices 1 2 3 4 5 6 
#
# 1 120.4868 39.1573 29.7136 0.0000 0.0000 0.0000
# 2 39.1573 120.4868 29.7136 0.0000 0.0000 0.0000
# 3 29.7136 29.7136 103.9473 0.0000 0.0000 0.0000
# 4 0.0000 0.0000 0.0000 32.5544 0.0000 0.0000
# 5 0.0000 0.0000 0.0000 0.0000 32.5544 0.0000
# 6 0.0000 0.0000 0.0000 0.0000 0.0000 34.7841
#
#
#
# Elastic Compliance Matrix: (Units=1/GPa)
#
#
# Indices 1 2 3 4 5 6 
#
# 1 0.009653 -0.002643 -0.002004 0.000000 0.000000 0.000000
# 2 -0.002643 0.009653 -0.002004 0.000000 0.000000 0.000000
# 3 -0.002004 -0.002004 0.010766 0.000000 0.000000 0.000000
# 4 0.000000 0.000000 0.000000 0.030718 0.000000 0.000000
# 5 0.000000 0.000000 0.000000 0.000000 0.030718 0.000000
# 6 0.000000 0.000000 0.000000 0.000000 0.000000 0.028749
#
#
# Mechanical properties :
#
#
# Convention : Reuss Voigt Hill
#
# Bulk Modulus (GPa) = 59.62891 60.23220 59.93056
# Shear Modulus (GPa) = 35.93327 36.40101 36.16714
#
# Velocity S-wave (km/s) = 4.13585 4.16268 4.14929
# Velocity P-wave (km/s) = 7.15487 7.19557 7.17525
#
# Compressibility (1/GPa) = 0.01677039
#
# Stress axis : x y z
#
# Youngs Moduli (GPa) = 103.59746 103.59746 92.88646
#
# Poissons Ratio (x) = 0.27380 0.18612
# Poissons Ratio (y) = 0.27380 0.18612
# Poissons Ratio (z) = 0.20759 0.20759
#
# Static dielectric constant tensor:
#      x y z
#    x 3.937290 0.000000 0.000000 
#    y 0.000000 3.937290 0.000000 
#    z 0.000000 0.000000 3.639130 
# 
# 
# High freq. dielectric constant tensor:
#      x y z
#    x 1.838210 0.000000 0.000000 
#    y 0.000000 1.838210 0.000000 
#    z 0.000000 0.000000 1.816080 
# 
# From -- ./inp_files/4687.got.cif
#   From: 2010.03.12/outbox.cif.g09.slc.cpg/sg112_3_cif.got.tgz:4687.got - 2010.04.14 02:02:48.
