data_PCOD8308837
_publ_section_title
;
Structure prediction by ZEFSAII (Michael W. Deem and Ramdas Pophale) SiO2 
 PCOD8308837
Probable space group: P -4 21 C
;
_chemical_formula_sum "Si O2"
_cell_formula_units_Z 32
_cell_length_a 8.892742
_cell_length_b 8.892742
_cell_length_c 21.319943
_cell_angle_alpha 90.000000
_cell_angle_beta 90.000000
_cell_angle_gamma 90.000000
_cell_volume 1685.999434
_symmetry_space_group_name_H-M "P -4 21 C"
_symmetry_group_IT_number 114
_symmetry_cell_setting 'tetragonal'
loop_
_space_group_symop_operation_xyz
x,y,z
y,-x,-z
-x,-y,z
-y,x,-z
1/2+x,1/2-y,1/2-z
1/2-x,1/2+y,1/2-z
1/2-y,1/2-x,1/2+z
1/2+y,1/2+x,1/2+z
loop_
_atom_site_type_symbol
_atom_site_label
_atom_site_fract_x
_atom_site_fract_y
_atom_site_fract_z
Si Si1 0.500000 0.748290 0.500000
Si Si2 0.431286 0.194274 0.785850
Si Si3 0.500000 0.000000 0.398565
Si Si4 0.568714 0.194274 0.214150
Si Si5 0.500000 0.000000 0.601435
O O1 0.646967 0.646967 0.489672
O O2 0.474872 0.851376 0.439420
O O3 0.525128 0.851376 0.560580
O O4 0.480204 0.148670 0.855964
O O5 0.359955 0.359955 0.786729
O O6 0.573518 0.191957 0.739225
O O7 0.308043 0.073518 0.760775
O O8 0.519796 0.148670 0.144036
#
# Coordination Sequence:
#
# PCOD8308837 Si02
#       5
#     8   8   4   8   4
#     4  10  20  34  54  76  98 132 174 210 248 296
#     4   9  19  34  52  76 105 134 165 204 249 298
#     4   9  19  34  52  74 105 133 164 210 254 293
#     4   9  19  34  52  76 105 134 165 204 249 298
#     4   9  19  34  52  74 105 133 164 210 254 293
#
# _framework density 18.979838999999998
#
# number of rings (size 3 to 8) (size 9 to 14) (size 15 to 20)
#    0.000    3.250    0.000    1.500    0.000    9.000 
#    0.000    0.000    0.000   24.000    0.000    0.000 
#    0.000    0.000    0.000    0.000    0.000    0.000 
#
# Total GULP energy -396699.382891 kJ/mol
# GULP energy per Si atom -12396.855715 kJ/mol
# Density = 1.893664 g / cm^3
# Si number density = 18.979839 Si / 1000 Ang^3
#
#
#
# Elastic Constant Matrix: (Units=GPa)
#
#
# Indices 1 2 3 4 5 6 
#
# 1 77.6349 42.5670 41.3699 0.0000 0.0000 0.0000
# 2 42.5670 77.6349 41.3699 0.0000 0.0000 0.0000
# 3 41.3699 41.3699 132.4030 0.0000 0.0000 0.0000
# 4 0.0000 0.0000 0.0000 11.6576 0.0000 0.0000
# 5 0.0000 0.0000 0.0000 0.0000 11.6576 0.0000
# 6 0.0000 0.0000 0.0000 0.0000 0.0000 47.6601
#
#
#
# Elastic Compliance Matrix: (Units=1/GPa)
#
#
# Indices 1 2 3 4 5 6 
#
# 1 0.019557 -0.008959 -0.003312 0.000000 0.000000 0.000000
# 2 -0.008959 0.019557 -0.003312 0.000000 0.000000 0.000000
# 3 -0.003312 -0.003312 0.009622 0.000000 0.000000 0.000000
# 4 0.000000 0.000000 0.000000 0.085781 0.000000 0.000000
# 5 0.000000 0.000000 0.000000 0.000000 0.085781 0.000000
# 6 0.000000 0.000000 0.000000 0.000000 0.000000 0.020982
#
#
# Mechanical properties :
#
#
# Convention : Reuss Voigt Hill
#
# Bulk Modulus (GPa) = 56.90454 59.80961 58.35707
# Shear Modulus (GPa) = 17.96609 25.01946 21.49277
#
# Velocity S-wave (km/s) = 3.08000 3.63466 3.36877
# Velocity P-wave (km/s) = 6.53416 7.01391 6.77828
#
# Compressibility (1/GPa) = 0.01757329
#
# Stress axis : x y z
#
# Youngs Moduli (GPa) = 51.13130 51.13130 103.92633
#
# Poissons Ratio (x) = 0.45806 0.34417
# Poissons Ratio (y) = 0.45806 0.34417
# Poissons Ratio (z) = 0.16933 0.16933
#
# Static dielectric constant tensor:
#      x y z
#    x 3.309230 0.000000 0.000000 
#    y 0.000000 3.309230 0.000000 
#    z 0.000000 0.000000 3.549450 
# 
# 
# High freq. dielectric constant tensor:
#      x y z
#    x 1.727010 0.000000 0.000000 
#    y 0.000000 1.727010 0.000000 
#    z 0.000000 0.000000 1.745320 
# 
# From -- ./inp_files/2888.got.cif
#   From: 2010.03.12/outbox.cif.g09.slc.cpg/sg114_2_cif.got.tgz:2888.got - 2010.04.14 02:08:34.
