data_PCOD8308816
_publ_section_title
;
Structure prediction by ZEFSAII (Michael W. Deem and Ramdas Pophale) SiO2 
 PCOD8308816
Probable space group: P -4 21 C
;
_chemical_formula_sum "Si O2"
_cell_formula_units_Z 48
_cell_length_a 8.468972
_cell_length_b 8.468972
_cell_length_c 28.203772
_cell_angle_alpha 90.000000
_cell_angle_beta 90.000000
_cell_angle_gamma 90.000000
_cell_volume 2022.872867
_symmetry_space_group_name_H-M "P -4 21 C"
_symmetry_group_IT_number 114
_symmetry_cell_setting 'tetragonal'
loop_
_space_group_symop_operation_xyz
x,y,z
y,-x,-z
-x,-y,z
-y,x,-z
1/2+x,1/2-y,1/2-z
1/2-x,1/2+y,1/2-z
1/2-y,1/2-x,1/2+z
1/2+y,1/2+x,1/2+z
loop_
_atom_site_type_symbol
_atom_site_label
_atom_site_fract_x
_atom_site_fract_y
_atom_site_fract_z
Si Si1 0.150696 0.817379 0.305877
Si Si2 0.809304 0.832835 0.272413
Si Si3 0.939940 0.667434 0.904815
Si Si4 0.235127 0.313851 0.602836
Si Si5 0.609501 0.263821 0.497443
Si Si6 0.667146 0.414308 0.662163
O O1 0.284504 0.694866 0.284775
O O2 0.169752 0.826059 0.363627
O O3 0.972521 0.762616 0.293441
O O4 0.194548 0.983841 0.283138
O O5 0.647162 0.746000 0.289429
O O6 0.080517 0.794340 0.909090
O O7 0.000000 0.500000 0.885326
O O8 0.862433 0.649292 0.957093
O O9 0.828159 0.748319 0.866593
O O10 0.165637 0.327530 0.549253
O O11 0.213416 0.473729 0.632988
O O12 0.424002 0.297150 0.490277
O O13 0.500000 0.500000 0.672942
#
# Coordination Sequence:
#
# PCOD8308816 Si02
#       6
#     8   8   8   8   8   8
#     4  11  26  45  65  98 129 179 217 276 332 402
#     4  11  26  45  69  93 137 171 226 270 337 397
#     4  10  19  33  58  92 124 167 214 262 330 392
#     4  10  20  37  61  87 128 163 215 267 326 385
#     4   9  16  33  56  86 122 165 212 270 322 388
#     4  10  21  38  64  93 124 170 214 271 324 386
#
# _framework density 23.728629999999999
#
# number of rings (size 3 to 8) (size 9 to 14) (size 15 to 20)
#    0.000    1.833    1.667    2.000    7.000    2.667 
#    3.000    0.000    0.000    0.000    0.000    2.333 
#    0.000    0.000    0.000    0.000    0.000    0.000 
#
# Total GULP energy -594684.100925 kJ/mol
# GULP energy per Si atom -12389.252103 kJ/mol
# Density = 2.367462 g / cm^3
# Si number density = 23.728630 Si / 1000 Ang^3
#
#
#
# Elastic Constant Matrix: (Units=GPa)
#
#
# Indices 1 2 3 4 5 6 
#
# 1 72.4363 4.7073 25.3965 0.0000 0.0000 0.0000
# 2 4.7073 72.4363 25.3965 0.0000 0.0000 0.0000
# 3 25.3965 25.3965 131.1595 0.0000 0.0000 0.0000
# 4 0.0000 0.0000 0.0000 28.6829 0.0000 0.0000
# 5 0.0000 0.0000 0.0000 0.0000 28.6829 0.0000
# 6 0.0000 0.0000 0.0000 0.0000 0.0000 29.4296
#
#
#
# Elastic Compliance Matrix: (Units=1/GPa)
#
#
# Indices 1 2 3 4 5 6 
#
# 1 0.014811 0.000046 -0.002877 0.000000 0.000000 0.000000
# 2 0.000046 0.014811 -0.002877 0.000000 0.000000 0.000000
# 3 -0.002877 -0.002877 0.008738 0.000000 0.000000 0.000000
# 4 0.000000 0.000000 0.000000 0.034864 0.000000 0.000000
# 5 0.000000 0.000000 0.000000 0.000000 0.034864 0.000000
# 6 0.000000 0.000000 0.000000 0.000000 0.000000 0.033979
#
#
# Mechanical properties :
#
#
# Convention : Reuss Voigt Hill
#
# Bulk Modulus (GPa) = 37.11233 43.00365 40.05799
# Shear Modulus (GPa) = 30.77606 32.06120 31.41863
#
# Velocity S-wave (km/s) = 3.60530 3.67980 3.64274
# Velocity P-wave (km/s) = 5.74501 6.01806 5.88312
#
# Compressibility (1/GPa) = 0.02694522
#
# Stress axis : x y z
#
# Youngs Moduli (GPa) = 67.51809 67.51809 114.43787
#
# Poissons Ratio (x) = -0.00311 0.32921
# Poissons Ratio (y) = -0.00311 0.32921
# Poissons Ratio (z) = 0.19423 0.19423
#
# Static dielectric constant tensor:
#      x y z
#    x 3.888640 0.000000 0.000000 
#    y 0.000000 3.888640 0.000000 
#    z 0.000000 0.000000 4.756500 
# 
# 
# High freq. dielectric constant tensor:
#      x y z
#    x 1.908640 0.000000 0.000000 
#    y 0.000000 1.908640 0.000000 
#    z 0.000000 0.000000 1.969370 
# 
# From -- ./inp_files/3941.got.cif
#   From: 2010.03.12/outbox.cif.g09.slc.cpg/sg114_2_cif.got.tgz:3941.got - 2010.04.14 02:08:34.
