data_PCOD8308573
_publ_section_title
;
Structure prediction by ZEFSAII (Michael W. Deem and Ramdas Pophale) SiO2 
 PCOD8308573
Probable space group: P -4 21 M 
;
_chemical_formula_sum "Si O2"
_cell_formula_units_Z 56
_cell_length_a 11.738253
_cell_length_b 11.738253
_cell_length_c 22.836436
_cell_angle_alpha 90.000000
_cell_angle_beta 90.000000
_cell_angle_gamma 90.000000
_cell_volume 3146.554496
_symmetry_space_group_name_H-M "P -4 21 M "
_symmetry_group_IT_number 113
_symmetry_cell_setting 'tetragonal'
loop_
_space_group_symop_operation_xyz
x,y,z
y,-x,-z
-x,-y,z
-y,x,-z
1/2+x,1/2-y,-z
1/2-x,1/2+y,-z
1/2-y,1/2-x,z
1/2+y,1/2+x,z
loop_
_atom_site_type_symbol
_atom_site_label
_atom_site_fract_x
_atom_site_fract_y
_atom_site_fract_z
Si Si1 0.309256 0.000000 0.250000
Si Si2 0.774387 0.905713 0.930550
Si Si3 0.347668 0.666948 0.944296
Si Si4 0.333051 0.652332 0.444296
Si Si5 0.874334 0.975069 0.350507
Si Si6 0.725614 0.594287 0.430550
Si Si7 0.874333 0.024931 0.149493
O O1 0.387429 0.112572 0.247288
O O2 0.227646 0.996872 0.194071
O O3 0.387430 0.887430 0.252713
O O4 0.227647 0.003129 0.305930
O O5 0.650149 0.849852 0.925947
O O6 0.845504 0.869810 0.873016
O O7 0.756226 0.040755 0.933748
O O8 0.841679 0.862895 0.987548
O O9 0.238574 0.738574 0.923407
O O10 0.355352 0.552967 0.907027
O O11 0.261425 0.761425 0.423406
O O12 0.447033 0.644646 0.407027
O O13 0.256226 0.540754 0.433749
O O14 0.362893 0.658323 0.512452
O O15 0.869811 0.845504 0.373016
O O16 0.000000 0.000000 0.322793
O O17 0.849853 0.650148 0.425946
O O18 0.000000 0.000000 0.177207
#
# Coordination Sequence:
#
# PCOD8308573 Si02
#       7
#     8   8   8   8   8   8   8
#     4  11  23  38  54  78 113 145 176 220 268 315
#     4  10  19  32  51  75 104 137 175 218 261 311
#     4  10  19  32  51  75 104 137 175 218 261 311
#     4  10  19  32  51  75 104 137 175 218 261 311
#     4  10  20  35  58  77 103 137 185 218 260 313
#     4  10  19  32  51  75 104 137 175 218 261 311
#     4  10  20  35  58  77 103 137 185 218 260 313
#
# _framework density 17.797246000000001
#
# number of rings (size 3 to 8) (size 9 to 14) (size 15 to 20)
#    0.000    1.857    2.857    2.143    0.000    0.571 
#    0.000    0.000    0.000    0.000    0.000    0.000 
#    0.000   20.571    0.000    0.000    0.000    0.000 
#
# Total GULP energy -694323.509948 kJ/mol
# GULP energy per Si atom -12398.634106 kJ/mol
# Density = 1.775674 g / cm^3
# Si number density = 17.797246 Si / 1000 Ang^3
#
#
#
# Elastic Constant Matrix: (Units=GPa)
#
#
# Indices 1 2 3 4 5 6 
#
# 1 69.8726 14.9353 18.9084 0.0000 0.0000 0.0000
# 2 14.9353 69.8723 18.9084 0.0000 0.0000 0.0000
# 3 18.9084 18.9084 61.9104 0.0000 0.0000 0.0000
# 4 0.0000 0.0000 0.0000 25.1539 0.0000 0.0000
# 5 0.0000 0.0000 0.0000 0.0000 25.1537 0.0000
# 6 0.0000 0.0000 0.0000 0.0000 0.0000 27.8286
#
#
#
# Elastic Compliance Matrix: (Units=1/GPa)
#
#
# Indices 1 2 3 4 5 6 
#
# 1 0.015926 -0.002276 -0.004169 0.000000 0.000000 0.000000
# 2 -0.002276 0.015927 -0.004169 0.000000 0.000000 0.000000
# 3 -0.004169 -0.004169 0.018699 0.000000 0.000000 0.000000
# 4 0.000000 0.000000 0.000000 0.039755 0.000000 0.000000
# 5 0.000000 0.000000 0.000000 0.000000 0.039756 0.000000
# 6 0.000000 0.000000 0.000000 0.000000 0.000000 0.035934
#
#
# Mechanical properties :
#
#
# Convention : Reuss Voigt Hill
#
# Bulk Modulus (GPa) = 34.10225 34.12883 34.11554
# Shear Modulus (GPa) = 25.38071 25.55412 25.46741
#
# Velocity S-wave (km/s) = 3.78047 3.79337 3.78693
# Velocity P-wave (km/s) = 6.18540 6.19712 6.19126
#
# Compressibility (1/GPa) = 0.02932358
#
# Stress axis : x y z
#
# Youngs Moduli (GPa) = 62.78848 62.78825 53.47889
#
# Poissons Ratio (x) = 0.14291 0.22296
# Poissons Ratio (y) = 0.14291 0.22296
# Poissons Ratio (z) = 0.26177 0.26177
#
# Static dielectric constant tensor:
#      x y z
#    x 3.339210 0.000000 0.000000 
#    y 0.000000 3.339210 0.000000 
#    z 0.000000 0.000000 3.110620 
# 
# 
# High freq. dielectric constant tensor:
#      x y z
#    x 1.690790 0.000000 0.000000 
#    y 0.000000 1.690790 0.000000 
#    z 0.000000 0.000000 1.676870 
# 
# From -- ./inp_files/2679.got.cif
#   From: 2010.03.12/outbox.cif.g09.slc.cpg/sg113_cif.got.tgz:2679.got - 2010.04.14 02:06:34.
