data_PCOD8308014
_publ_section_title
;
Structure prediction by ZEFSAII (Michael W. Deem and Ramdas Pophale) SiO2 
 PCOD8308014
Probable space group: I 41 C D
;
_chemical_formula_sum "Si O2"
_cell_formula_units_Z 96
_cell_length_a 16.490786
_cell_length_b 16.490786
_cell_length_c 17.526895
_cell_angle_alpha 90.000000
_cell_angle_beta 90.000000
_cell_angle_gamma 90.000000
_cell_volume 4766.369389
_symmetry_space_group_name_H-M "I 41 C D"
_symmetry_group_IT_number 110
_symmetry_cell_setting 'tetragonal'
loop_
_space_group_symop_operation_xyz
x,y,z
-y,1/2+x,1/4+z
-x,-y,z
y,1/2-x,1/4+z
-x,y,1/2+z
x,-y,1/2+z
1/2-y,-x,1/4+z
1/2+y,x,1/4+z
1/2+x,1/2+y,1/2+z
1/2-y,x,3/4+z
1/2-x,1/2-y,1/2+z
1/2+y,-x,3/4+z
1/2-x,1/2+y,z
1/2+x,1/2-y,z
-y,1/2-x,3/4+z
y,1/2+x,3/4+z
loop_
_atom_site_type_symbol
_atom_site_label
_atom_site_fract_x
_atom_site_fract_y
_atom_site_fract_z
Si Si1 0.422334 0.455283 0.356370
Si Si2 0.399233 0.357924 0.212132
Si Si3 0.679345 0.564485 0.961383
Si Si4 0.689510 0.493546 0.625854
Si Si5 0.414050 0.037164 0.870474
Si Si6 0.985369 0.849319 0.471567
O O1 0.500000 0.500000 0.316170
O O2 0.383355 0.389268 0.298620
O O3 0.349054 0.513141 0.386658
O O4 0.459947 0.415893 0.431052
O O5 0.384676 0.262280 0.197395
O O6 0.342403 0.406083 0.153427
O O7 0.492936 0.379877 0.195108
O O8 0.608258 0.626662 0.981723
O O9 0.701157 0.508170 0.034548
O O10 0.629429 0.568395 0.644558
O O11 0.768840 0.513386 0.672621
O O12 0.500000 0.000000 0.840351
O O13 0.344954 0.025926 0.805358
#
# Coordination Sequence:
#
# PCOD8308014 Si02
#       6
#    16  16  16  16  16  16
#     4  10  20  36  63  90 113 158 211 254 304 380
#     4  11  23  38  61  94 125 154 214 267 311 379
#     4  11  22  40  61  92 126 162 212 269 312 383
#     4  11  22  39  64  90 125 169 211 256 322 387
#     4  10  19  40  64  88 121 167 212 259 309 396
#     4  11  20  39  65  88 122 170 210 257 324 377
#
# _framework density 20.141117000000001
#
# number of rings (size 3 to 8) (size 9 to 14) (size 15 to 20)
#    0.000    1.333    6.667    2.000    2.333    0.000 
#    0.000    3.333    0.000    0.000    0.000    0.000 
#    0.000    0.000    0.000    0.000    0.000    0.000 
#
# Total GULP energy -594860.930370 kJ/mol
# GULP energy per Si atom -12392.936049 kJ/mol
# Density = 2.009527 g / cm^3
# Si number density = 20.141117 Si / 1000 Ang^3
#
#
#
# Elastic Constant Matrix: (Units=GPa)
#
#
# Indices 1 2 3 4 5 6 
#
# 1 91.9403 28.1592 23.4141 0.0000 0.0000 0.0000
# 2 28.1592 91.9403 23.4141 0.0000 0.0000 0.0000
# 3 23.4141 23.4141 77.4766 0.0000 0.0000 0.0000
# 4 0.0000 0.0000 0.0000 26.4364 0.0000 0.0000
# 5 0.0000 0.0000 0.0000 0.0000 26.4364 0.0000
# 6 0.0000 0.0000 0.0000 0.0000 0.0000 15.7403
#
#
#
# Elastic Compliance Matrix: (Units=1/GPa)
#
#
# Indices 1 2 3 4 5 6 
#
# 1 0.012559 -0.003120 -0.002852 0.000000 0.000000 0.000000
# 2 -0.003120 0.012559 -0.002852 0.000000 0.000000 0.000000
# 3 -0.002852 -0.002852 0.014631 0.000000 0.000000 0.000000
# 4 0.000000 0.000000 0.000000 0.037827 0.000000 0.000000
# 5 0.000000 0.000000 0.000000 0.000000 0.037827 0.000000
# 6 0.000000 0.000000 0.000000 0.000000 0.000000 0.063531
#
#
# Mechanical properties :
#
#
# Convention : Reuss Voigt Hill
#
# Bulk Modulus (GPa) = 45.25153 45.70355 45.47754
# Shear Modulus (GPa) = 24.51594 26.14727 25.33160
#
# Velocity S-wave (km/s) = 3.49264 3.60697 3.55026
# Velocity P-wave (km/s) = 6.22741 6.33150 6.27967
#
# Compressibility (1/GPa) = 0.02209870
#
# Stress axis : x y z
#
# Youngs Moduli (GPa) = 79.62658 79.62659 68.34717
#
# Poissons Ratio (x) = 0.24843 0.19496
# Poissons Ratio (y) = 0.24843 0.19496
# Poissons Ratio (z) = 0.22713 0.22713
#
# Static dielectric constant tensor:
#      x y z
#    x 3.591250 0.000000 0.000000 
#    y 0.000000 3.591250 0.000000 
#    z 0.000000 0.000000 3.734660 
# 
# 
# High freq. dielectric constant tensor:
#      x y z
#    x 1.764690 0.000000 0.000000 
#    y 0.000000 1.764690 0.000000 
#    z 0.000000 0.000000 1.799500 
# 
# From -- ./inp_files/1700.got.cif
#   From: 2010.03.12/outbox.cif.g09.slc.cpg/sg110_1_cif.got.tgz:1700.got - 2010.04.14 01:58:01.
