data_PCOD8308439
_publ_section_title
;
Structure prediction by ZEFSAII (Michael W. Deem and Ramdas Pophale) SiO2 
 PCOD8308439
Probable space group: P -4 2 C
;
_chemical_formula_sum "Si O2"
_cell_formula_units_Z 24
_cell_length_a 11.693652
_cell_length_b 11.693652
_cell_length_c 8.677621
_cell_angle_alpha 90.000000
_cell_angle_beta 90.000000
_cell_angle_gamma 90.000000
_cell_volume 1186.590887
_symmetry_space_group_name_H-M "P -4 2 C"
_symmetry_group_IT_number 112
_symmetry_cell_setting 'tetragonal'
loop_
_space_group_symop_operation_xyz
x,y,z
y,-x,-z
-x,-y,z
-y,x,-z
x,-y,1/2-z
-x,y,1/2-z
-y,-x,1/2+z
y,x,1/2+z
loop_
_atom_site_type_symbol
_atom_site_label
_atom_site_fract_x
_atom_site_fract_y
_atom_site_fract_z
Si Si1 0.000000 0.000000 0.000000
Si Si2 0.085427 0.780993 0.138037
Si Si3 0.305506 0.125940 0.192232
Si Si4 0.500000 0.500000 0.000000
Si Si5 0.693627 0.500000 0.750000
O O1 0.001139 0.116634 0.095044
O O2 0.190753 0.837082 0.224922
O O3 0.000000 0.706630 0.250000
O O4 0.124240 0.706053 0.992895
O O5 0.392772 0.223955 0.237231
O O6 0.343958 0.000000 0.250000
O O7 0.513711 0.385890 0.100644
#
# Coordination Sequence:
#
# PCOD8308439 Si02
#       5
#     2   8   8   2   4
#     4  12  18  32  54  88 134 172 202 224 278 360
#     4  12  21  34  60  94 132 175 204 239 293 371
#     4  12  22  38  59  94 131 161 204 252 314 369
#     4  10  24  50  68  86 104 154 232 262 316 382
#     4  11  25  44  70  86 115 159 206 278 320 365
#
# _framework density 20.226012000000001
#
# number of rings (size 3 to 8) (size 9 to 14) (size 15 to 20)
#    0.000    0.333    6.667    3.000    0.000    0.000 
#    0.000    0.000    0.000    6.000    0.000    0.000 
#    0.000    0.000    0.000    0.000    0.000    0.000 
#
# Total GULP energy -297476.423469 kJ/mol
# GULP energy per Si atom -12394.850978 kJ/mol
# Density = 2.017998 g / cm^3
# Si number density = 20.226012 Si / 1000 Ang^3
#
#
#
# Elastic Constant Matrix: (Units=GPa)
#
#
# Indices 1 2 3 4 5 6 
#
# 1 102.7441 73.9197 58.4546 0.0000 0.0000 0.0000
# 2 73.9197 102.7441 58.4546 0.0000 0.0000 0.0000
# 3 58.4546 58.4546 143.4990 0.0000 0.0000 0.0000
# 4 0.0000 0.0000 0.0000 21.3410 0.0000 0.0000
# 5 0.0000 0.0000 0.0000 0.0000 21.3410 0.0000
# 6 0.0000 0.0000 0.0000 0.0000 0.0000 20.8074
#
#
#
# Elastic Compliance Matrix: (Units=1/GPa)
#
#
# Indices 1 2 3 4 5 6 
#
# 1 0.021221 -0.013472 -0.003157 0.000000 0.000000 0.000000
# 2 -0.013472 0.021221 -0.003157 0.000000 0.000000 0.000000
# 3 -0.003157 -0.003157 0.009541 0.000000 0.000000 0.000000
# 4 0.000000 0.000000 0.000000 0.046858 0.000000 0.000000
# 5 0.000000 0.000000 0.000000 0.000000 0.046858 0.000000
# 6 0.000000 0.000000 0.000000 0.000000 0.000000 0.048060
#
#
# Mechanical properties :
#
#
# Convention : Reuss Voigt Hill
#
# Bulk Modulus (GPa) = 80.56438 81.18275 80.87357
# Shear Modulus (GPa) = 21.05556 23.24176 22.14866
#
# Velocity S-wave (km/s) = 3.22998 3.39352 3.31276
# Velocity P-wave (km/s) = 7.33682 7.45517 7.39623
#
# Compressibility (1/GPa) = 0.01241243
#
# Stress axis : x y z
#
# Youngs Moduli (GPa) = 47.12286 47.12286 104.81604
#
# Poissons Ratio (x) = 0.63482 0.33088
# Poissons Ratio (y) = 0.63482 0.33088
# Poissons Ratio (z) = 0.14876 0.14876
#
# Static dielectric constant tensor:
#      x y z
#    x 3.678300 0.000000 0.000000 
#    y 0.000000 3.678300 0.000000 
#    z 0.000000 0.000000 4.524810 
# 
# 
# High freq. dielectric constant tensor:
#      x y z
#    x 1.782270 0.000000 0.000000 
#    y 0.000000 1.782270 0.000000 
#    z 0.000000 0.000000 1.814980 
# 
# From -- ./inp_files/877.got.cif
#   From: 2010.03.12/outbox.cif.g09.slc.cpg/sg112_1_cif.got.tgz:877.got - 2010.04.14 02:02:48.
