data_PCOD8308086
_publ_section_title
;
Structure prediction by ZEFSAII (Michael W. Deem and Ramdas Pophale) SiO2 
 PCOD8308086
Probable space group: I 41 C D
;
_chemical_formula_sum "Si O2"
_cell_formula_units_Z 48
_cell_length_a 16.895856
_cell_length_b 16.895856
_cell_length_c 7.458265
_cell_angle_alpha 90.000000
_cell_angle_beta 90.000000
_cell_angle_gamma 90.000000
_cell_volume 2129.110536
_symmetry_space_group_name_H-M "I 41 C D"
_symmetry_group_IT_number 110
_symmetry_cell_setting 'tetragonal'
loop_
_space_group_symop_operation_xyz
x,y,z
-y,1/2+x,1/4+z
-x,-y,z
y,1/2-x,1/4+z
-x,y,1/2+z
x,-y,1/2+z
1/2-y,-x,1/4+z
1/2+y,x,1/4+z
1/2+x,1/2+y,1/2+z
1/2-y,x,3/4+z
1/2-x,1/2-y,1/2+z
1/2+y,-x,3/4+z
1/2-x,1/2+y,z
1/2+x,1/2-y,z
-y,1/2-x,3/4+z
y,1/2+x,3/4+z
loop_
_atom_site_type_symbol
_atom_site_label
_atom_site_fract_x
_atom_site_fract_y
_atom_site_fract_z
Si Si1 0.839990 0.429137 0.837430
Si Si2 0.839990 0.929137 0.814085
Si Si3 0.914540 0.414540 0.200757
O O1 0.750000 0.458770 0.825758
O O2 0.856558 0.356558 0.700757
O O3 0.901214 0.499012 0.787112
O O4 0.852464 0.400548 0.040970
O O5 0.852464 0.900548 0.610545
O O6 0.901214 0.999012 0.864402
#
# Coordination Sequence:
#
# PCOD8308086 Si02
#       3
#    16  16  16
#     4  12  27  46  72 108 141 189 243 300 364 431
#     4  12  27  46  72 108 141 189 243 300 364 431
#     4  12  25  44  76 100 142 188 244 297 346 438
#
# _framework density 22.544626000000001
#
# number of rings (size 3 to 8) (size 9 to 14) (size 15 to 20)
#    0.000    0.000    6.667    3.000    0.000    0.000 
#    6.000    0.000    0.000    0.000    0.000    0.000 
#    0.000    0.000    0.000    0.000    0.000    0.000 
#
# Total GULP energy -297588.546413 kJ/mol
# GULP energy per Si atom -12399.522767 kJ/mol
# Density = 2.249331 g / cm^3
# Si number density = 22.544626 Si / 1000 Ang^3
#
#
#
# Elastic Constant Matrix: (Units=GPa)
#
#
# Indices 1 2 3 4 5 6 
#
# 1 106.8595 62.2631 49.9557 0.0000 0.0000 0.0000
# 2 62.2631 106.8595 49.9557 0.0000 0.0000 0.0000
# 3 49.9557 49.9557 225.4113 0.0000 0.0000 0.0000
# 4 0.0000 0.0000 0.0000 28.5749 0.0000 0.0000
# 5 0.0000 0.0000 0.0000 0.0000 28.5749 0.0000
# 6 0.0000 0.0000 0.0000 0.0000 0.0000 15.7479
#
#
#
# Elastic Compliance Matrix: (Units=1/GPa)
#
#
# Indices 1 2 3 4 5 6 
#
# 1 0.014613 -0.007810 -0.001508 0.000000 0.000000 0.000000
# 2 -0.007810 0.014613 -0.001508 0.000000 0.000000 0.000000
# 3 -0.001508 -0.001508 0.005105 0.000000 0.000000 0.000000
# 4 0.000000 0.000000 0.000000 0.034996 0.000000 0.000000
# 5 0.000000 0.000000 0.000000 0.000000 0.034996 0.000000
# 6 0.000000 0.000000 0.000000 0.000000 0.000000 0.063500
#
#
# Mechanical properties :
#
#
# Convention : Reuss Voigt Hill
#
# Bulk Modulus (GPa) = 78.86033 84.83101 81.84567
# Shear Modulus (GPa) = 25.81292 33.04327 29.42809
#
# Velocity S-wave (km/s) = 3.38741 3.83258 3.61685
# Velocity P-wave (km/s) = 7.09613 7.56932 7.33654
#
# Compressibility (1/GPa) = 0.01268065
#
# Stress axis : x y z
#
# Youngs Moduli (GPa) = 68.42989 68.42989 195.89937
#
# Poissons Ratio (x) = 0.53443 0.29538
# Poissons Ratio (y) = 0.53443 0.29538
# Poissons Ratio (z) = 0.10318 0.10318
#
# Static dielectric constant tensor:
#      x y z
#    x 3.766720 0.000000 0.000000 
#    y 0.000000 3.766720 0.000000 
#    z 0.000000 0.000000 4.857430 
# 
# 
# High freq. dielectric constant tensor:
#      x y z
#    x 1.867070 0.000000 0.000000 
#    y 0.000000 1.867070 0.000000 
#    z 0.000000 0.000000 1.923350 
# 
# From -- ./inp_files/50.got.cif
#   From: 2010.03.12/outbox.cif.g09.slc.cpg/sg110_1_cif.got.tgz:50.got - 2010.04.14 01:58:01.
