data_PCOD8308153
_publ_section_title
;
Structure prediction by ZEFSAII (Michael W. Deem and Ramdas Pophale) SiO2 
 PCOD8308153
Probable space group: P -4 2 M 
;
_chemical_formula_sum "Si O2"
_cell_formula_units_Z 64
_cell_length_a 20.308660
_cell_length_b 20.308660
_cell_length_c 9.704765
_cell_angle_alpha 90.000000
_cell_angle_beta 90.000000
_cell_angle_gamma 90.000000
_cell_volume 4002.649493
_symmetry_space_group_name_H-M "P -4 2 M "
_symmetry_group_IT_number 111
_symmetry_cell_setting 'tetragonal'
loop_
_space_group_symop_operation_xyz
x,y,z
y,-x,-z
-x,-y,z
-y,x,-z
x,-y,-z
-x,y,-z
-y,-x,z
y,x,z
loop_
_atom_site_type_symbol
_atom_site_label
_atom_site_fract_x
_atom_site_fract_y
_atom_site_fract_z
Si Si1 0.073766 0.356080 0.659647
Si Si2 0.357077 0.922396 0.659967
Si Si3 0.107807 0.502455 0.347589
Si Si4 0.823548 0.716200 0.838726
Si Si5 0.739324 0.499969 0.348359
Si Si6 0.284609 0.607997 0.140733
Si Si7 0.385225 0.283481 0.157084
Si Si8 0.826279 0.723645 0.152727
O O1 0.098962 0.356209 0.500763
O O2 0.079049 0.430976 0.723703
O O3 0.114753 0.299722 0.739810
O O4 0.997957 0.336130 0.673677
O O5 0.431419 0.909070 0.722556
O O6 0.300943 0.883089 0.744053
O O7 0.076370 0.500000 0.500000
O O8 0.184549 0.517151 0.353396
O O9 0.782404 0.782404 0.796155
O O10 0.776917 0.653237 0.820750
O O11 0.851210 0.724714 0.994131
O O12 0.707745 0.500000 0.500000
O O13 0.702702 0.447674 0.253071
O O14 0.730172 0.571911 0.289360
O O15 0.350385 0.649616 0.135260
O O16 0.273982 0.576321 0.988402
O O17 0.357348 0.357348 0.168768
O O18 0.325751 0.233534 0.160670
O O19 0.796313 0.796313 0.192566
#
# Coordination Sequence:
#
# PCOD8308153 Si02
#       8
#     8   8   8   8   8   8   8   8
#     4  10  19  31  47  67  95 130 162 191 225 269
#     4  10  19  31  47  67  95 130 162 191 225 269
#     4   9  17  29  42  63  94 128 158 185 222 265
#     4   9  18  32  48  66  90 120 155 196 235 268
#     4  11  19  28  47  70  91 116 151 191 233 276
#     4   9  18  32  48  65  87 117 151 189 235 281
#     4   9  18  32  48  65  87 117 151 189 235 281
#     4   9  18  32  48  66  90 120 155 196 235 268
#
# _framework density 15.989409
#
# number of rings (size 3 to 8) (size 9 to 14) (size 15 to 20)
#    0.000    2.500    2.500    2.250    0.000    3.000 
#    0.000    3.125    0.000    1.875    0.000    2.625 
#    0.000    0.500    0.000    5.500    0.000    4.000 
#
# Total GULP energy -792944.718907 kJ/mol
# GULP energy per Si atom -12389.761233 kJ/mol
# Density = 1.595302 g / cm^3
# Si number density = 15.989409 Si / 1000 Ang^3
#
#
#
# Elastic Constant Matrix: (Units=GPa)
#
#
# Indices 1 2 3 4 5 6 
#
# 1 -109.1987 192.6667 36.3157 0.0000 0.0000 0.0000
# 2 192.6667 -109.2053 36.3183 0.0000 0.0000 0.0000
# 3 36.3157 36.3183 89.9783 0.0000 0.0000 0.0000
# 4 0.0000 0.0000 0.0000 34.2599 0.0000 0.0000
# 5 0.0000 0.0000 0.0000 0.0000 34.2601 0.0000
# 6 0.0000 0.0000 0.0000 0.0000 0.0000 18.0538
#
#
#
# Elastic Compliance Matrix: (Units=1/GPa)
#
#
# Indices 1 2 3 4 5 6 
#
# 1 0.007578 0.010890 -0.007454 0.000000 0.000000 0.000000
# 2 0.010890 0.007577 -0.007454 0.000000 0.000000 0.000000
# 3 -0.007454 -0.007454 0.017131 0.000000 0.000000 0.000000
# 4 0.000000 0.000000 0.000000 0.029189 0.000000 0.000000
# 5 0.000000 0.000000 0.000000 0.000000 0.029189 0.000000
# 6 0.000000 0.000000 0.000000 0.000000 0.000000 0.055390
#
#
# Mechanical properties :
#
#
# Convention : Reuss Voigt Hill
#
# Bulk Modulus (GPa) = 41.23598 44.68620 42.96109
# Shear Modulus (GPa) = 30.83144 -8.93368 10.94888
#
# Velocity S-wave (km/s) = 4.39594 -2.36630 2.61963
# Velocity P-wave (km/s) = 7.18410 4.53235 6.00639
#
# Compressibility (1/GPa) = 0.02425067
#
# Stress axis : x y z
#
# Youngs Moduli (GPa) = 131.96406 131.97333 58.37394
#
# Poissons Ratio (x) = -1.43722 0.43513
# Poissons Ratio (y) = -1.43712 0.43511
# Poissons Ratio (z) = 0.98368 0.98370
#
# Static dielectric constant tensor:
#      x y z
#    x 2.792350 0.000000 0.000000 
#    y 0.000000 2.792350 0.000000 
#    z 0.000000 0.000000 3.240100 
# 
# 
# High freq. dielectric constant tensor:
#      x y z
#    x 1.592800 0.000000 0.000000 
#    y 0.000000 1.592800 0.000000 
#    z 0.000000 0.000000 1.607700 
# 
# From -- ./inp_files/2032.got.cif
#   From: 2010.03.12/outbox.cif.g09.slc.cpg/sg111_2_cif.got.tgz:2032.got - 2010.04.14 01:59:48.
