data_PCOD8308084
_publ_section_title
;
Structure prediction by ZEFSAII (Michael W. Deem and Ramdas Pophale) SiO2 
 PCOD8308084
Probable space group: I 41 C D
;
_chemical_formula_sum "Si O2"
_cell_formula_units_Z 72
_cell_length_a 20.327347
_cell_length_b 20.327347
_cell_length_c 8.836549
_cell_angle_alpha 90.000000
_cell_angle_beta 90.000000
_cell_angle_gamma 90.000000
_cell_volume 3651.271202
_symmetry_space_group_name_H-M "I 41 C D"
_symmetry_group_IT_number 110
_symmetry_cell_setting 'tetragonal'
loop_
_space_group_symop_operation_xyz
x,y,z
-y,1/2+x,1/4+z
-x,-y,z
y,1/2-x,1/4+z
-x,y,1/2+z
x,-y,1/2+z
1/2-y,-x,1/4+z
1/2+y,x,1/4+z
1/2+x,1/2+y,1/2+z
1/2-y,x,3/4+z
1/2-x,1/2-y,1/2+z
1/2+y,-x,3/4+z
1/2-x,1/2+y,z
1/2+x,1/2-y,z
-y,1/2-x,3/4+z
y,1/2+x,3/4+z
loop_
_atom_site_type_symbol
_atom_site_label
_atom_site_fract_x
_atom_site_fract_y
_atom_site_fract_z
Si Si1 0.377574 0.466281 0.558580
Si Si2 0.000000 0.500000 0.961489
Si Si3 0.323683 0.919405 0.801276
Si Si4 0.622426 0.966281 0.614398
Si Si5 0.080595 0.323683 0.621702
O O1 0.437078 0.515294 0.606871
O O2 0.406102 0.406102 0.461489
O O3 0.349439 0.432053 0.704860
O O4 0.326282 0.511733 0.466400
O O5 0.062922 0.515294 0.066106
O O6 0.250000 0.896209 0.836489
O O7 0.361593 0.861593 0.711489
O O8 0.326282 0.988267 0.706577
O O9 0.349439 0.932053 0.968118
#
# Coordination Sequence:
#
# PCOD8308084 Si02
#       5
#    16   8  16  16  16
#     4  12  21  37  65  96 124 155 197 264 338 390
#     4  12  18  32  66  92 130 140 182 256 342 380
#     4  12  24  41  60  90 126 169 213 260 310 381
#     4  12  21  37  65  96 124 155 197 264 338 390
#     4  12  24  41  60  90 126 169 213 260 310 381
#
# _framework density 19.719161
#
# number of rings (size 3 to 8) (size 9 to 14) (size 15 to 20)
#    0.000    0.000    8.889    2.000    0.000    0.000 
#    0.000    2.222    0.000    0.000    0.000    0.000 
#    0.000    0.000    0.000    0.000    0.000    0.000 
#
# Total GULP energy -446154.243726 kJ/mol
# GULP energy per Si atom -12393.173437 kJ/mol
# Density = 1.967428 g / cm^3
# Si number density = 19.719161 Si / 1000 Ang^3
#
#
#
# Elastic Constant Matrix: (Units=GPa)
#
#
# Indices 1 2 3 4 5 6 
#
# 1 101.2295 65.2127 66.5562 0.0000 0.0000 0.0000
# 2 65.2127 101.2295 66.5562 0.0000 0.0000 0.0000
# 3 66.5562 66.5562 166.9984 0.0000 0.0000 0.0000
# 4 0.0000 0.0000 0.0000 18.6659 0.0000 0.0000
# 5 0.0000 0.0000 0.0000 0.0000 18.6659 0.0000
# 6 0.0000 0.0000 0.0000 0.0000 0.0000 20.6495
#
#
#
# Elastic Compliance Matrix: (Units=1/GPa)
#
#
# Indices 1 2 3 4 5 6 
#
# 1 0.018292 -0.009473 -0.003515 0.000000 0.000000 0.000000
# 2 -0.009473 0.018292 -0.003515 0.000000 0.000000 0.000000
# 3 -0.003515 -0.003515 0.008790 0.000000 0.000000 0.000000
# 4 0.000000 0.000000 0.000000 0.053574 0.000000 0.000000
# 5 0.000000 0.000000 0.000000 0.000000 0.053574 0.000000
# 6 0.000000 0.000000 0.000000 0.000000 0.000000 0.048427
#
#
# Mechanical properties :
#
#
# Convention : Reuss Voigt Hill
#
# Bulk Modulus (GPa) = 80.84963 85.12310 82.98636
# Shear Modulus (GPa) = 21.00173 23.00510 22.00342
#
# Velocity S-wave (km/s) = 3.26704 3.41931 3.34404
# Velocity P-wave (km/s) = 7.43780 7.67140 7.55550
#
# Compressibility (1/GPa) = 0.01236864
#
# Stress axis : x y z
#
# Youngs Moduli (GPa) = 54.66895 54.66895 113.76994
#
# Poissons Ratio (x) = 0.51787 0.39988
# Poissons Ratio (y) = 0.51787 0.39988
# Poissons Ratio (z) = 0.19215 0.19215
#
# Static dielectric constant tensor:
#      x y z
#    x 4.047220 0.000000 0.000000 
#    y 0.000000 4.047220 0.000000 
#    z 0.000000 0.000000 3.982600 
# 
# 
# High freq. dielectric constant tensor:
#      x y z
#    x 1.746250 0.000000 0.000000 
#    y 0.000000 1.746250 0.000000 
#    z 0.000000 0.000000 1.805330 
# 
# From -- ./inp_files/371.got.cif
#   From: 2010.03.12/outbox.cif.g09.slc.cpg/sg110_1_cif.got.tgz:371.got - 2010.04.14 01:58:01.
