data_PCOD8308278
_publ_section_title
;
Structure prediction by ZEFSAII (Michael W. Deem and Ramdas Pophale) SiO2 
 PCOD8308278
Probable space group: P -4 2 M 
;
_chemical_formula_sum "Si O2"
_cell_formula_units_Z 56
_cell_length_a 11.688602
_cell_length_b 11.688602
_cell_length_c 23.450274
_cell_angle_alpha 90.000000
_cell_angle_beta 90.000000
_cell_angle_gamma 90.000000
_cell_volume 3203.856557
_symmetry_space_group_name_H-M "P -4 2 M "
_symmetry_group_IT_number 111
_symmetry_cell_setting 'tetragonal'
loop_
_space_group_symop_operation_xyz
x,y,z
y,-x,-z
-x,-y,z
-y,x,-z
x,-y,-z
-x,y,-z
-y,-x,z
y,x,z
loop_
_atom_site_type_symbol
_atom_site_label
_atom_site_fract_x
_atom_site_fract_y
_atom_site_fract_z
Si Si1 0.478072 0.133120 0.438357
Si Si2 0.165148 0.649388 0.842085
Si Si3 0.317973 0.134162 0.642189
Si Si4 0.946231 0.760114 0.438214
Si Si5 0.988327 0.634365 0.937285
Si Si6 0.201631 0.382685 0.852283
Si Si7 0.368877 0.025200 0.760853
O O1 0.500000 0.194021 0.500000
O O2 0.564985 0.178107 0.389240
O O3 0.343259 0.143145 0.422741
O O4 0.500000 0.000000 0.444620
O O5 0.279900 0.720100 0.842693
O O6 0.088199 0.681808 0.896694
O O7 0.207770 0.518687 0.845127
O O8 0.092700 0.685852 0.785159
O O9 0.247126 0.247126 0.659564
O O10 0.345059 0.052583 0.695389
O O11 0.238359 0.055470 0.602817
O O12 0.879950 0.879950 0.433532
O O13 0.000000 0.740613 0.500000
O O14 0.000000 0.500000 0.942644
O O15 0.864013 0.657569 0.909682
O O16 0.000000 0.691725 0.000000
O O17 0.328645 0.328645 0.853354
O O18 0.133378 0.330063 0.798371
O O19 0.500000 0.000000 0.772520
#
# Coordination Sequence:
#
# PCOD8308278 Si02
#       7
#     8   8   8   8   8   8   8
#     4   9  16  32  51  69  94 124 161 192 228 287
#     4   9  18  31  49  74 103 135 169 210 264 315
#     4  11  21  33  54  79  99 126 164 208 253 298
#     4  11  21  33  49  72 101 130 157 192 238 289
#     4   8  15  29  48  69  96 136 181 216 249 301
#     4   9  17  30  50  75 101 130 169 218 261 298
#     4   9  18  34  52  70  96 132 175 211 240 293
#
# _framework density 17.478935
#
# number of rings (size 3 to 8) (size 9 to 14) (size 15 to 20)
#    0.000    2.571    2.857    3.857    0.000    2.429 
#    0.000    0.000    0.000   10.714    0.000    9.000 
#    0.000    0.000    0.000    0.000    0.000    0.000 
#
# Total GULP energy -693730.878726 kJ/mol
# GULP energy per Si atom -12388.051406 kJ/mol
# Density = 1.743915 g / cm^3
# Si number density = 17.478935 Si / 1000 Ang^3
#
#
#
# Elastic Constant Matrix: (Units=GPa)
#
#
# Indices 1 2 3 4 5 6 
#
# 1 70.7292 40.5362 24.6285 0.0000 0.0000 0.0000
# 2 40.5362 70.7305 24.6287 0.0000 0.0000 0.0000
# 3 24.6285 24.6287 112.7346 0.0000 0.0000 0.0000
# 4 0.0000 0.0000 0.0000 13.0799 0.0000 0.0000
# 5 0.0000 0.0000 0.0000 0.0000 13.0805 0.0000
# 6 0.0000 0.0000 0.0000 0.0000 0.0000 22.0023
#
#
#
# Elastic Compliance Matrix: (Units=1/GPa)
#
#
# Indices 1 2 3 4 5 6 
#
# 1 0.021535 -0.011585 -0.002174 0.000000 0.000000 0.000000
# 2 -0.011585 0.021534 -0.002174 0.000000 0.000000 0.000000
# 3 -0.002174 -0.002174 0.009820 0.000000 0.000000 0.000000
# 4 0.000000 0.000000 0.000000 0.076453 0.000000 0.000000
# 5 0.000000 0.000000 0.000000 0.000000 0.076450 0.000000
# 6 0.000000 0.000000 0.000000 0.000000 0.000000 0.045450
#
#
# Mechanical properties :
#
#
# Convention : Reuss Voigt Hill
#
# Bulk Modulus (GPa) = 47.56259 48.19791 47.88025
# Shear Modulus (GPa) = 17.23453 20.59259 18.91356
#
# Velocity S-wave (km/s) = 3.14350 3.43612 3.29306
# Velocity P-wave (km/s) = 6.35971 6.58615 6.47392
#
# Compressibility (1/GPa) = 0.02102493
#
# Stress axis : x y z
#
# Youngs Moduli (GPa) = 46.43643 46.43726 101.83158
#
# Poissons Ratio (x) = 0.53797 0.22135
# Poissons Ratio (y) = 0.53796 0.22135
# Poissons Ratio (z) = 0.10094 0.10094
#
# Static dielectric constant tensor:
#      x y z
#    x 3.180920 0.000000 0.000000 
#    y 0.000000 3.180920 0.000000 
#    z 0.000000 0.000000 3.936130 
# 
# 
# High freq. dielectric constant tensor:
#      x y z
#    x 1.650760 0.000000 0.000000 
#    y 0.000000 1.650760 0.000000 
#    z 0.000000 0.000000 1.682110 
# 
# From -- ./inp_files/4179.got.cif
#   From: 2010.03.12/outbox.cif.g09.slc.cpg/sg111_3_cif.got.tgz:4179.got - 2010.04.14 01:59:48.
