data_PCOD8308085
_publ_section_title
;
Structure prediction by ZEFSAII (Michael W. Deem and Ramdas Pophale) SiO2 
 PCOD8308085
Probable space group: I 41 C D
;
_chemical_formula_sum "Si O2"
_cell_formula_units_Z 88
_cell_length_a 17.207856
_cell_length_b 17.207856
_cell_length_c 13.507611
_cell_angle_alpha 90.000000
_cell_angle_beta 90.000000
_cell_angle_gamma 90.000000
_cell_volume 3999.742855
_symmetry_space_group_name_H-M "I 41 C D"
_symmetry_group_IT_number 110
_symmetry_cell_setting 'tetragonal'
loop_
_space_group_symop_operation_xyz
x,y,z
-y,1/2+x,1/4+z
-x,-y,z
y,1/2-x,1/4+z
-x,y,1/2+z
x,-y,1/2+z
1/2-y,-x,1/4+z
1/2+y,x,1/4+z
1/2+x,1/2+y,1/2+z
1/2-y,x,3/4+z
1/2-x,1/2-y,1/2+z
1/2+y,-x,3/4+z
1/2-x,1/2+y,z
1/2+x,1/2-y,z
-y,1/2-x,3/4+z
y,1/2+x,3/4+z
loop_
_atom_site_type_symbol
_atom_site_label
_atom_site_fract_x
_atom_site_fract_y
_atom_site_fract_z
Si Si1 0.765939 0.884378 0.207870
Si Si2 0.000000 0.000000 0.928046
Si Si3 0.384378 0.734061 0.148222
Si Si4 0.003072 0.750000 0.303046
Si Si5 0.145482 0.408883 0.201258
Si Si6 0.145482 0.091117 0.404835
O O1 0.801021 0.801021 0.178046
O O2 0.790123 0.905823 0.319005
O O3 0.673938 0.883767 0.193697
O O4 0.797541 0.949256 0.131415
O O5 0.929059 0.040621 0.867146
O O6 0.040621 0.070941 0.988946
O O7 0.449256 0.702459 0.224678
O O8 0.383767 0.826062 0.162395
O O9 0.405823 0.709877 0.037087
O O10 0.054584 0.814889 0.355257
O O11 0.054584 0.685111 0.250836
#
# Coordination Sequence:
#
# PCOD8308085 Si02
#       6
#    16   8  16  16  16  16
#     4  12  24  50  73 104 149 193 246 307 372 449
#     4  12  24  52  70 108 156 186 244 308 386 440
#     4  12  24  50  73 104 149 193 246 307 372 449
#     4  12  26  44  72 106 146 194 246 304 376 440
#     4  12  27  46  76 108 147 197 246 309 374 455
#     4  12  27  46  76 108 147 197 246 309 374 455
#
# _framework density 22.001415999999999
#
# number of rings (size 3 to 8) (size 9 to 14) (size 15 to 20)
#    0.000    0.000    7.273    1.091    5.091    0.000 
#    0.000    6.364    0.000    0.000    0.000    0.000 
#    0.000    0.000    0.000    0.000    0.000    0.000 
#
# Total GULP energy -545401.622497 kJ/mol
# GULP energy per Si atom -12395.491420 kJ/mol
# Density = 2.195134 g / cm^3
# Si number density = 22.001416 Si / 1000 Ang^3
#
#
#
# Elastic Constant Matrix: (Units=GPa)
#
#
# Indices 1 2 3 4 5 6 
#
# 1 139.2658 58.5405 64.2048 0.0000 0.0000 0.0000
# 2 58.5405 139.2658 64.2048 0.0000 0.0000 0.0000
# 3 64.2048 64.2048 140.2632 0.0000 0.0000 0.0000
# 4 0.0000 0.0000 0.0000 25.4174 0.0000 0.0000
# 5 0.0000 0.0000 0.0000 0.0000 25.4174 0.0000
# 6 0.0000 0.0000 0.0000 0.0000 0.0000 34.3379
#
#
#
# Elastic Compliance Matrix: (Units=1/GPa)
#
#
# Indices 1 2 3 4 5 6 
#
# 1 0.009790 -0.002597 -0.003292 0.000000 0.000000 0.000000
# 2 -0.002597 0.009790 -0.003292 0.000000 0.000000 0.000000
# 3 -0.003292 -0.003292 0.010144 0.000000 0.000000 0.000000
# 4 0.000000 0.000000 0.000000 0.039343 0.000000 0.000000
# 5 0.000000 0.000000 0.000000 0.000000 0.039343 0.000000
# 6 0.000000 0.000000 0.000000 0.000000 0.000000 0.029122
#
#
# Mechanical properties :
#
#
# Convention : Reuss Voigt Hill
#
# Bulk Modulus (GPa) = 88.03270 88.07722 88.05496
# Shear Modulus (GPa) = 31.31183 32.49085 31.90134
#
# Velocity S-wave (km/s) = 3.77659 3.84703 3.81198
# Velocity P-wave (km/s) = 7.68869 7.73643 7.71260
#
# Compressibility (1/GPa) = 0.01135942
#
# Stress axis : x y z
#
# Youngs Moduli (GPa) = 102.14235 102.14235 98.58350
#
# Poissons Ratio (x) = 0.26531 0.32458
# Poissons Ratio (y) = 0.26531 0.32458
# Poissons Ratio (z) = 0.33630 0.33630
#
# Static dielectric constant tensor:
#      x y z
#    x 4.250540 0.000000 0.000000 
#    y 0.000000 4.250540 0.000000 
#    z 0.000000 0.000000 4.012380 
# 
# 
# High freq. dielectric constant tensor:
#      x y z
#    x 1.881480 0.000000 0.000000 
#    y 0.000000 1.881480 0.000000 
#    z 0.000000 0.000000 1.849640 
# 
# From -- ./inp_files/1265.got.cif
#   From: 2010.03.12/outbox.cif.g09.slc.cpg/sg110_1_cif.got.tgz:1265.got - 2010.04.14 01:58:01.
