data_PCOD8308910
_publ_section_title
;
Structure prediction by ZEFSAII (Michael W. Deem and Ramdas Pophale) SiO2 
 PCOD8308910
Probable space group: P -4 21 C
;
_chemical_formula_sum "Si O2"
_cell_formula_units_Z 50
_cell_length_a 21.080944
_cell_length_b 21.080944
_cell_length_c 5.103757
_cell_angle_alpha 90.000000
_cell_angle_beta 90.000000
_cell_angle_gamma 90.000000
_cell_volume 2268.141254
_symmetry_space_group_name_H-M "P -4 21 C"
_symmetry_group_IT_number 114
_symmetry_cell_setting 'tetragonal'
loop_
_space_group_symop_operation_xyz
x,y,z
y,-x,-z
-x,-y,z
-y,x,-z
1/2+x,1/2-y,1/2-z
1/2-x,1/2+y,1/2-z
1/2-y,1/2-x,1/2+z
1/2+y,1/2+x,1/2+z
loop_
_atom_site_type_symbol
_atom_site_label
_atom_site_fract_x
_atom_site_fract_y
_atom_site_fract_z
Si Si1 0.356111 0.796667 0.651288
Si Si2 0.000000 0.000000 0.500000
Si Si3 0.359341 0.651635 0.692402
Si Si4 0.230728 0.042803 0.707957
Si Si5 0.430983 0.970530 0.336706
Si Si6 0.624391 0.559868 0.804823
Si Si7 0.505933 0.803170 0.701421
O O1 0.318534 0.839367 0.858940
O O2 0.335999 0.723567 0.676933
O O3 0.430391 0.800193 0.707807
O O4 0.946020 0.030233 0.686105
O O5 0.296347 0.613146 0.766110
O O6 0.386045 0.626671 0.415106
O O7 0.412859 0.642113 0.911831
O O8 0.174924 0.993565 0.771839
O O9 0.256497 0.035572 0.414846
O O10 0.286966 0.033103 0.916796
O O11 0.416510 0.933922 0.609234
O O12 0.376868 0.022646 0.271639
O O13 0.500000 0.000000 0.401245
#
# Coordination Sequence:
#
# PCOD8308910 Si02
#       7
#     8   2   8   8   8   8   8
#     4  12  24  42  70  97 129 170 236 297 331 401
#     4  12  28  38  72 102 140 198 248 286 344 414
#     4  12  26  44  66  94 143 181 228 293 340 398
#     4  12  24  41  67  95 137 184 222 282 343 417
#     4  10  21  40  69 100 136 167 204 281 356 416
#     4  12  24  42  62 100 137 182 238 287 344 395
#     4  12  23  42  68 105 128 173 232 281 353 411
#
# _framework density 22.044484000000001
#
# number of rings (size 3 to 8) (size 9 to 14) (size 15 to 20)
#    0.000    0.320    4.800    4.800    2.240    0.640 
#    0.000    0.000   21.120    0.000    0.000    0.000 
#    0.000    0.000    0.000    0.000    0.000    0.000 
#
# Total GULP energy -620139.898943 kJ/mol
# GULP energy per Si atom -12402.797979 kJ/mol
# Density = 2.199431 g / cm^3
# Si number density = 22.044484 Si / 1000 Ang^3
#
#
#
# Elastic Constant Matrix: (Units=GPa)
#
#
# Indices 1 2 3 4 5 6 
#
# 1 94.2574 3.9617 4.8515 0.0000 0.0000 0.0000
# 2 3.9617 94.2574 4.8515 0.0000 0.0000 0.0000
# 3 4.8515 4.8515 113.5331 0.0000 0.0000 0.0000
# 4 0.0000 0.0000 0.0000 23.7647 0.0000 0.0000
# 5 0.0000 0.0000 0.0000 0.0000 23.7647 0.0000
# 6 0.0000 0.0000 0.0000 0.0000 0.0000 29.2766
#
#
#
# Elastic Compliance Matrix: (Units=1/GPa)
#
#
# Indices 1 2 3 4 5 6 
#
# 1 0.010650 -0.000425 -0.000437 0.000000 0.000000 0.000000
# 2 -0.000425 0.010650 -0.000437 0.000000 0.000000 0.000000
# 3 -0.000437 -0.000437 0.008845 0.000000 0.000000 0.000000
# 4 0.000000 0.000000 0.000000 0.042079 0.000000 0.000000
# 5 0.000000 0.000000 0.000000 0.000000 0.042079 0.000000
# 6 0.000000 0.000000 0.000000 0.000000 0.000000 0.034157
#
#
# Mechanical properties :
#
#
# Convention : Reuss Voigt Hill
#
# Bulk Modulus (GPa) = 36.30203 36.59746 36.44975
# Shear Modulus (GPa) = 31.20318 34.58675 32.89496
#
# Velocity S-wave (km/s) = 3.76635 3.96530 3.86710
# Velocity P-wave (km/s) = 5.95124 6.13208 6.04234
#
# Compressibility (1/GPa) = 0.02754667
#
# Stress axis : x y z
#
# Youngs Moduli (GPa) = 93.90022 93.90022 113.05379
#
# Poissons Ratio (x) = 0.03992 0.04939
# Poissons Ratio (y) = 0.03992 0.04939
# Poissons Ratio (z) = 0.04103 0.04103
#
# Static dielectric constant tensor:
#      x y z
#    x 4.190100 0.000000 0.000000 
#    y 0.000000 4.190100 0.000000 
#    z 0.000000 0.000000 4.321760 
# 
# 
# High freq. dielectric constant tensor:
#      x y z
#    x 1.860930 0.000000 0.000000 
#    y 0.000000 1.860930 0.000000 
#    z 0.000000 0.000000 1.892850 
# 
# From -- ./inp_files/242.got.cif
#   From: 2010.03.12/outbox.cif.g09.slc.cpg/sg114_1_cif.got.tgz:242.got - 2010.04.14 02:08:34.
