data_PCOD8308975
_publ_section_title
;
Structure prediction by ZEFSAII (Michael W. Deem and Ramdas Pophale) SiO2 
 PCOD8308975
Probable space group: P -4 21 C
;
_chemical_formula_sum "Si O2"
_cell_formula_units_Z 36
_cell_length_a 14.064912
_cell_length_b 14.064912
_cell_length_c 9.024595
_cell_angle_alpha 90.000000
_cell_angle_beta 90.000000
_cell_angle_gamma 90.000000
_cell_volume 1785.261172
_symmetry_space_group_name_H-M "P -4 21 C"
_symmetry_group_IT_number 114
_symmetry_cell_setting 'tetragonal'
loop_
_space_group_symop_operation_xyz
x,y,z
y,-x,-z
-x,-y,z
-y,x,-z
1/2+x,1/2-y,1/2-z
1/2-x,1/2+y,1/2-z
1/2-y,1/2-x,1/2+z
1/2+y,1/2+x,1/2+z
loop_
_atom_site_type_symbol
_atom_site_label
_atom_site_fract_x
_atom_site_fract_y
_atom_site_fract_z
Si Si1 0.639115 0.294668 0.188009
Si Si2 0.500000 0.000000 0.408240
Si Si3 0.415953 0.378469 0.551100
Si Si4 0.350951 0.022442 0.655705
Si Si5 0.276992 0.222240 0.070912
O O1 0.616290 0.395119 0.270820
O O2 0.540162 0.243362 0.159932
O O3 0.709239 0.235047 0.298650
O O4 0.693541 0.312024 0.034552
O O5 0.591512 0.011852 0.512040
O O6 0.507291 0.907031 0.307792
O O7 0.371553 0.471684 0.472357
O O8 0.360653 0.285322 0.486351
O O9 0.327116 0.132967 0.645640
#
# Coordination Sequence:
#
# PCOD8308975 Si02
#       5
#     8   4   8   8   8
#     4  10  23  39  64  96 125 171 213 272 325 404
#     4  10  24  36  64  94 132 172 206 286 328 402
#     4   9  22  41  66  89 122 173 220 262 326 397
#     4  11  22  41  62  97 133 169 222 267 344 390
#     4  10  23  40  68  94 131 174 212 279 330 396
#
# _framework density 20.165116000000001
#
# number of rings (size 3 to 8) (size 9 to 14) (size 15 to 20)
#    1.333    0.667    0.000    2.667    6.222    1.778 
#    4.000    0.000    0.000    0.000    0.000    0.000 
#    0.000    0.000    0.000    0.000    0.000    0.000 
#
# Total GULP energy -446112.920208 kJ/mol
# GULP energy per Si atom -12392.025561 kJ/mol
# Density = 2.011922 g / cm^3
# Si number density = 20.165116 Si / 1000 Ang^3
#
#
#
# Elastic Constant Matrix: (Units=GPa)
#
#
# Indices 1 2 3 4 5 6 
#
# 1 107.9444 38.3234 23.0508 0.0000 0.0000 0.0000
# 2 38.3234 107.9444 23.0508 0.0000 0.0000 0.0000
# 3 23.0508 23.0508 84.5680 0.0000 0.0000 0.0000
# 4 0.0000 0.0000 0.0000 13.1963 0.0000 0.0000
# 5 0.0000 0.0000 0.0000 0.0000 13.1963 0.0000
# 6 0.0000 0.0000 0.0000 0.0000 0.0000 29.5286
#
#
#
# Elastic Compliance Matrix: (Units=1/GPa)
#
#
# Indices 1 2 3 4 5 6 
#
# 1 0.010921 -0.003442 -0.002039 0.000000 0.000000 0.000000
# 2 -0.003442 0.010921 -0.002039 0.000000 0.000000 0.000000
# 3 -0.002039 -0.002039 0.012936 0.000000 0.000000 0.000000
# 4 0.000000 0.000000 0.000000 0.075779 0.000000 0.000000
# 5 0.000000 0.000000 0.000000 0.000000 0.075779 0.000000
# 6 0.000000 0.000000 0.000000 0.000000 0.000000 0.033865
#
#
# Mechanical properties :
#
#
# Convention : Reuss Voigt Hill
#
# Bulk Modulus (GPa) = 50.65800 52.14519 51.40159
# Shear Modulus (GPa) = 20.67642 25.58634 23.13138
#
# Velocity S-wave (km/s) = 3.20559 3.56595 3.39056
# Velocity P-wave (km/s) = 6.23516 6.54751 6.39324
#
# Compressibility (1/GPa) = 0.01974022
#
# Stress axis : x y z
#
# Youngs Moduli (GPa) = 91.56329 91.56329 77.30272
#
# Poissons Ratio (x) = 0.31517 0.15759
# Poissons Ratio (y) = 0.31517 0.15759
# Poissons Ratio (z) = 0.18667 0.18667
#
# Static dielectric constant tensor:
#      x y z
#    x 3.516990 0.000000 0.000000 
#    y 0.000000 3.516990 0.000000 
#    z 0.000000 0.000000 3.662550 
# 
# 
# High freq. dielectric constant tensor:
#      x y z
#    x 1.780060 0.000000 0.000000 
#    y 0.000000 1.780060 0.000000 
#    z 0.000000 0.000000 1.787020 
# 
# From -- ./inp_files/710.got.cif
#   From: 2010.03.12/outbox.cif.g09.slc.cpg/sg114_1_cif.got.tgz:710.got - 2010.04.14 02:08:34.
