data_PCOD8308522
_publ_section_title
;
Structure prediction by ZEFSAII (Michael W. Deem and Ramdas Pophale) SiO2 
 PCOD8308522
Probable space group: P -4 21 M 
;
_chemical_formula_sum "Si O2"
_cell_formula_units_Z 48
_cell_length_a 16.724737
_cell_length_b 16.724737
_cell_length_c 10.318210
_cell_angle_alpha 90.000000
_cell_angle_beta 90.000000
_cell_angle_gamma 90.000000
_cell_volume 2886.176969
_symmetry_space_group_name_H-M "P -4 21 M "
_symmetry_group_IT_number 113
_symmetry_cell_setting 'tetragonal'
loop_
_space_group_symop_operation_xyz
x,y,z
y,-x,-z
-x,-y,z
-y,x,-z
1/2+x,1/2-y,-z
1/2-x,1/2+y,-z
1/2-y,1/2-x,z
1/2+y,1/2+x,z
loop_
_atom_site_type_symbol
_atom_site_label
_atom_site_fract_x
_atom_site_fract_y
_atom_site_fract_z
Si Si1 0.621186 0.121186 0.266453
Si Si2 0.717206 0.436014 0.016979
Si Si3 0.950247 0.318341 0.767284
Si Si4 0.169231 0.793501 0.650563
Si Si5 0.181298 0.901259 0.877832
Si Si6 0.298693 0.201308 0.851783
Si Si7 0.319070 0.819070 0.003036
Si Si8 0.738950 0.238950 0.411577
O O1 0.529049 0.142365 0.295994
O O2 0.634411 0.134411 0.114790
O O3 0.676081 0.176081 0.356949
O O4 0.672005 0.504473 0.099200
O O5 0.777949 0.389942 0.112667
O O6 0.767617 0.470936 0.896235
O O7 0.646427 0.378829 0.969852
O O8 0.888284 0.388284 0.803224
O O9 0.913416 0.256434 0.661704
O O10 0.238018 0.738018 0.719635
O O11 0.164454 0.877371 0.727760
O O12 0.194247 0.806863 0.500263
O O13 0.272854 0.882140 0.913900
O O14 0.242730 0.257271 0.936426
O O15 0.285585 0.214416 0.699784
#
# Coordination Sequence:
#
# PCOD8308522 Si02
#       8
#     4   8   8   8   8   4   4   4
#     4  11  19  28  53  79 102 134 174 220 257 310
#     4  10  19  30  53  77 106 135 168 216 276 324
#     4  10  18  32  51  78 108 135 166 214 281 320
#     4   8  17  34  52  68  99 144 180 212 244 305
#     4  10  17  31  50  76 103 134 170 214 266 316
#     4   9  18  32  49  72  97 132 174 213 256 305
#     4   9  15  27  48  71  95 124 166 211 246 308
#     4   9  19  37  52  70  97 140 196 214 229 303
#
# _framework density 16.630997000000001
#
# number of rings (size 3 to 8) (size 9 to 14) (size 15 to 20)
#    0.500    2.000    3.333    0.250    0.000    0.333 
#    3.000    0.000    0.000    0.000    0.000    1.167 
#    0.000    0.000    0.000    0.000    0.000    0.000 
#
# Total GULP energy -594857.765560 kJ/mol
# GULP energy per Si atom -12392.870116 kJ/mol
# Density = 1.659314 g / cm^3
# Si number density = 16.630997 Si / 1000 Ang^3
#
#
#
# Elastic Constant Matrix: (Units=GPa)
#
#
# Indices 1 2 3 4 5 6 
#
# 1 82.8764 28.3806 31.4780 0.0000 0.0000 0.0000
# 2 28.3806 82.8759 31.4777 0.0000 0.0000 0.0000
# 3 31.4780 31.4777 85.7340 0.0000 0.0000 0.0000
# 4 0.0000 0.0000 0.0000 18.8349 0.0000 0.0000
# 5 0.0000 0.0000 0.0000 0.0000 18.8351 0.0000
# 6 0.0000 0.0000 0.0000 0.0000 0.0000 24.6126
#
#
#
# Elastic Compliance Matrix: (Units=1/GPa)
#
#
# Indices 1 2 3 4 5 6 
#
# 1 0.014848 -0.003502 -0.004166 0.000000 0.000000 0.000000
# 2 -0.003502 0.014848 -0.004165 0.000000 0.000000 0.000000
# 3 -0.004166 -0.004165 0.014723 0.000000 0.000000 0.000000
# 4 0.000000 0.000000 0.000000 0.053093 0.000000 0.000000
# 5 0.000000 0.000000 0.000000 0.000000 0.053092 0.000000
# 6 0.000000 0.000000 0.000000 0.000000 0.000000 0.040630
#
#
# Mechanical properties :
#
#
# Convention : Reuss Voigt Hill
#
# Bulk Modulus (GPa) = 48.18962 48.23988 48.21475
# Shear Modulus (GPa) = 22.54112 23.13320 22.83716
#
# Velocity S-wave (km/s) = 3.68553 3.73362 3.70965
# Velocity P-wave (km/s) = 6.86655 6.90330 6.88495
#
# Compressibility (1/GPa) = 0.02075136
#
# Stress axis : x y z
#
# Youngs Moduli (GPa) = 67.35059 67.35030 67.92198
#
# Poissons Ratio (x) = 0.23589 0.28293
# Poissons Ratio (y) = 0.23589 0.28293
# Poissons Ratio (z) = 0.28055 0.28055
#
# Static dielectric constant tensor:
#      x y z
#    x 3.013060 0.000000 0.000000 
#    y 0.000000 3.013060 0.000000 
#    z 0.000000 0.000000 2.892100 
# 
# 
# High freq. dielectric constant tensor:
#      x y z
#    x 1.629940 0.000000 0.000000 
#    y 0.000000 1.629940 0.000000 
#    z 0.000000 0.000000 1.617330 
# 
# From -- ./inp_files/1902.got.cif
#   From: 2010.03.12/outbox.cif.g09.slc.cpg/sg113_cif.got.tgz:1902.got - 2010.04.14 02:06:34.
