data_PCOD8308285
_publ_section_title
;
Structure prediction by ZEFSAII (Michael W. Deem and Ramdas Pophale) SiO2 
 PCOD8308285
Probable space group: P -4 2 M 
;
_chemical_formula_sum "Si O2"
_cell_formula_units_Z 16
_cell_length_a 9.140264
_cell_length_b 9.140264
_cell_length_c 8.151519
_cell_angle_alpha 90.000000
_cell_angle_beta 90.000000
_cell_angle_gamma 90.000000
_cell_volume 681.013976
_symmetry_space_group_name_H-M "P -4 2 M "
_symmetry_group_IT_number 111
_symmetry_cell_setting 'tetragonal'
loop_
_space_group_symop_operation_xyz
x,y,z
y,-x,-z
-x,-y,z
-y,x,-z
x,-y,-z
-x,y,-z
-y,-x,z
y,x,z
loop_
_atom_site_type_symbol
_atom_site_label
_atom_site_fract_x
_atom_site_fract_y
_atom_site_fract_z
Si Si1 0.794925 0.562567 0.818512
Si Si2 0.937433 0.294926 0.681488
O O1 0.644762 0.644762 0.772091
O O2 0.822702 0.430186 0.691463
O O3 0.930185 0.677298 0.808537
O O4 0.784271 0.500000 0.000000
O O5 0.855238 0.144763 0.727909
O O6 0.000000 0.284271 0.500000
#
# Coordination Sequence:
#
# PCOD8308285 Si02
#       2
#     8   8
#     4  11  24  43  68  98 132 171 218 269 322 386
#     4  11  24  43  68  98 132 171 218 269 322 386
#
# _framework density 23.494378000000001
#
# number of rings (size 3 to 8) (size 9 to 14) (size 15 to 20)
#    0.000    1.000    0.000    9.000    0.000    7.000 
#    0.000    5.000    0.000   36.000    0.000    0.000 
#    0.000    0.000    0.000    0.000    0.000    0.000 
#
# Total GULP energy -198364.710439 kJ/mol
# GULP energy per Si atom -12397.794402 kJ/mol
# Density = 2.344090 g / cm^3
# Si number density = 23.494378 Si / 1000 Ang^3
#
#
#
# Elastic Constant Matrix: (Units=GPa)
#
#
# Indices 1 2 3 4 5 6 
#
# 1 85.8739 75.2930 25.4004 0.0000 0.0000 0.0000
# 2 75.2930 85.8779 25.3994 0.0000 0.0000 0.0000
# 3 25.4004 25.3994 29.5983 0.0000 0.0000 0.0000
# 4 0.0000 0.0000 0.0000 30.3087 0.0000 0.0000
# 5 0.0000 0.0000 0.0000 0.0000 30.3069 0.0000
# 6 0.0000 0.0000 0.0000 0.0000 0.0000 84.3157
#
#
#
# Elastic Compliance Matrix: (Units=1/GPa)
#
#
# Indices 1 2 3 4 5 6 
#
# 1 0.051501 -0.042994 -0.007302 0.000000 0.000000 0.000000
# 2 -0.042994 0.051497 -0.007295 0.000000 0.000000 0.000000
# 3 -0.007302 -0.007295 0.046313 0.000000 0.000000 0.000000
# 4 0.000000 0.000000 0.000000 0.032994 0.000000 0.000000
# 5 0.000000 0.000000 0.000000 0.000000 0.032996 0.000000
# 6 0.000000 0.000000 0.000000 0.000000 0.000000 0.011860
#
#
# Mechanical properties :
#
#
# Convention : Reuss Voigt Hill
#
# Bulk Modulus (GPa) = 29.30148 50.39287 39.84717
# Shear Modulus (GPa) = 14.13552 34.00341 24.06946
#
# Velocity S-wave (km/s) = 2.45553 3.80847 3.20422
# Velocity P-wave (km/s) = 4.53192 6.39020 5.53954
#
# Compressibility (1/GPa) = 0.03412797
#
# Stress axis : x y z
#
# Youngs Moduli (GPa) = 19.41700 19.41876 21.59234
#
# Poissons Ratio (x) = 0.83488 0.15768
# Poissons Ratio (y) = 0.83481 0.15752
# Poissons Ratio (z) = 0.14179 0.14166
#
# Static dielectric constant tensor:
#      x y z
#    x 4.766490 0.000000 0.000000 
#    y 0.000000 4.766490 0.000000 
#    z 0.000000 0.000000 3.991230 
# 
# 
# High freq. dielectric constant tensor:
#      x y z
#    x 1.933720 0.000000 0.000000 
#    y 0.000000 1.933720 0.000000 
#    z 0.000000 0.000000 1.916630 
# 
# From -- ./inp_files/890.got.cif
#   From: 2010.03.12/outbox.cif.g09.slc.cpg/sg111_1_cif.got.tgz:890.got - 2010.04.14 01:59:48.
