data_PCOD8308695
_publ_section_title
;
Structure prediction by ZEFSAII (Michael W. Deem and Ramdas Pophale) SiO2 
 PCOD8308695
Probable space group: P -4 21 M 
;
_chemical_formula_sum "Si O2"
_cell_formula_units_Z 48
_cell_length_a 16.183049
_cell_length_b 16.183049
_cell_length_c 9.413026
_cell_angle_alpha 90.000000
_cell_angle_beta 90.000000
_cell_angle_gamma 90.000000
_cell_volume 2465.187498
_symmetry_space_group_name_H-M "P -4 21 M "
_symmetry_group_IT_number 113
_symmetry_cell_setting 'tetragonal'
loop_
_space_group_symop_operation_xyz
x,y,z
y,-x,-z
-x,-y,z
-y,x,-z
1/2+x,1/2-y,-z
1/2-x,1/2+y,-z
1/2-y,1/2-x,z
1/2+y,1/2+x,z
loop_
_atom_site_type_symbol
_atom_site_label
_atom_site_fract_x
_atom_site_fract_y
_atom_site_fract_z
Si Si1 0.634586 0.997634 0.258978
Si Si2 0.770206 0.595251 0.948404
Si Si3 0.192697 0.170669 0.717679
Si Si4 0.572741 0.389264 0.520327
Si Si5 0.130856 0.504260 0.430635
Si Si6 0.980460 0.776426 0.238516
O O1 0.581987 0.918014 0.212695
O O2 0.579587 0.079587 0.264077
O O3 0.703313 0.013645 0.139977
O O4 0.675310 0.983245 0.415268
O O5 0.848187 0.651814 0.994410
O O6 0.707848 0.646863 0.852805
O O7 0.722829 0.561151 0.085194
O O8 0.272252 0.227749 0.678128
O O9 0.132678 0.165050 0.580397
O O10 0.217113 0.079223 0.766126
O O11 0.481001 0.392051 0.452448
O O12 0.564789 0.349011 0.675658
O O13 0.055729 0.444272 0.459542
O O14 0.190096 0.463178 0.316529
O O15 0.092604 0.592604 0.379715
#
# Coordination Sequence:
#
# PCOD8308695 Si02
#       6
#     8   8   8   8   8   8
#     4   8  15  29  49  72 100 137 176 211 258 327
#     4  10  21  35  51  76 112 150 182 217 273 336
#     4  10  22  39  57  80 114 149 178 221 284 339
#     4   9  20  39  61  82 104 139 189 235 275 327
#     4   9  17  30  50  78 110 143 182 228 281 341
#     4  11  21  34  56  82 108 140 190 242 277 313
#
# _framework density 19.471136999999999
#
# number of rings (size 3 to 8) (size 9 to 14) (size 15 to 20)
#    0.000    2.500    0.000    3.000    0.000    5.333 
#    0.000    1.667    0.000    4.000    0.000    0.000 
#    0.000    0.000    0.000    0.000    0.000    0.000 
#
# Total GULP energy -594901.187611 kJ/mol
# GULP energy per Si atom -12393.774742 kJ/mol
# Density = 1.942682 g / cm^3
# Si number density = 19.471137 Si / 1000 Ang^3
#
#
#
# Elastic Constant Matrix: (Units=GPa)
#
#
# Indices 1 2 3 4 5 6 
#
# 1 73.3570 33.1995 43.6129 0.0000 0.0000 0.0000
# 2 33.1995 73.3567 43.6129 0.0000 0.0000 0.0000
# 3 43.6129 43.6129 105.2301 0.0000 0.0000 0.0000
# 4 0.0000 0.0000 0.0000 27.2907 0.0000 0.0000
# 5 0.0000 0.0000 0.0000 0.0000 27.2907 0.0000
# 6 0.0000 0.0000 0.0000 0.0000 0.0000 21.8153
#
#
#
# Elastic Compliance Matrix: (Units=1/GPa)
#
#
# Indices 1 2 3 4 5 6 
#
# 1 0.019553 -0.005349 -0.005887 0.000000 0.000000 0.000000
# 2 -0.005349 0.019553 -0.005887 0.000000 0.000000 0.000000
# 3 -0.005887 -0.005887 0.014382 0.000000 0.000000 0.000000
# 4 0.000000 0.000000 0.000000 0.036642 0.000000 0.000000
# 5 0.000000 0.000000 0.000000 0.000000 0.036643 0.000000
# 6 0.000000 0.000000 0.000000 0.000000 0.000000 0.045839
#
#
# Mechanical properties :
#
#
# Convention : Reuss Voigt Hill
#
# Bulk Modulus (GPa) = 51.96765 54.75494 53.36130
# Shear Modulus (GPa) = 23.44425 24.04724 23.74575
#
# Velocity S-wave (km/s) = 3.47371 3.51810 3.49597
# Velocity P-wave (km/s) = 6.54495 6.68467 6.61518
#
# Compressibility (1/GPa) = 0.01924274
#
# Stress axis : x y z
#
# Youngs Moduli (GPa) = 51.14376 51.14352 69.52908
#
# Poissons Ratio (x) = 0.27358 0.40929
# Poissons Ratio (y) = 0.27358 0.40930
# Poissons Ratio (z) = 0.30107 0.30107
#
# Static dielectric constant tensor:
#      x y z
#    x 3.533730 0.000000 0.000000 
#    y 0.000000 3.533730 0.000000 
#    z 0.000000 0.000000 3.555130 
# 
# 
# High freq. dielectric constant tensor:
#      x y z
#    x 1.754170 0.000000 0.000000 
#    y 0.000000 1.754170 0.000000 
#    z 0.000000 0.000000 1.749600 
# 
# From -- ./inp_files/1161.got.cif
#   From: 2010.03.12/outbox.cif.g09.slc.cpg/sg113_cif.got.tgz:1161.got - 2010.04.14 02:06:34.
