data_PCOD8308836
_publ_section_title
;
Structure prediction by ZEFSAII (Michael W. Deem and Ramdas Pophale) SiO2 
 PCOD8308836
Probable space group: P -4 21 C
;
_chemical_formula_sum "Si O2"
_cell_formula_units_Z 56
_cell_length_a 11.935334
_cell_length_b 11.935334
_cell_length_c 19.750793
_cell_angle_alpha 90.000000
_cell_angle_beta 90.000000
_cell_angle_gamma 90.000000
_cell_volume 2813.543869
_symmetry_space_group_name_H-M "P -4 21 C"
_symmetry_group_IT_number 114
_symmetry_cell_setting 'tetragonal'
loop_
_space_group_symop_operation_xyz
x,y,z
y,-x,-z
-x,-y,z
-y,x,-z
1/2+x,1/2-y,1/2-z
1/2-x,1/2+y,1/2-z
1/2-y,1/2-x,1/2+z
1/2+y,1/2+x,1/2+z
loop_
_atom_site_type_symbol
_atom_site_label
_atom_site_fract_x
_atom_site_fract_y
_atom_site_fract_z
Si Si1 0.965583 0.615246 0.457365
Si Si2 0.940300 0.111554 0.199312
Si Si3 0.615631 0.213009 0.644115
Si Si4 0.160785 0.973412 0.470396
Si Si5 0.179862 0.422185 0.737095
Si Si6 0.362266 0.703342 0.828121
Si Si7 0.116685 0.617917 0.325004
O O1 0.835787 0.621428 0.432236
O O2 0.989683 0.711331 0.510247
O O3 0.000000 0.500000 0.495201
O O4 0.040300 0.621651 0.390891
O O5 0.845426 0.143234 0.143223
O O6 0.876490 0.088332 0.270070
O O7 0.035880 0.205230 0.203723
O O8 0.000000 0.000000 0.174262
O O9 0.703890 0.150624 0.694377
O O10 0.491401 0.194043 0.676134
O O11 0.157643 0.918584 0.396509
O O12 0.096060 0.897109 0.526504
O O13 0.115398 0.336763 0.685196
O O14 0.111692 0.534308 0.759227
O O15 0.227741 0.693180 0.826871
#
# Coordination Sequence:
#
# PCOD8308836 Si02
#       7
#     8   8   8   8   8   8   8
#     4   9  18  36  57  77 102 145 199 228 266 347
#     4  10  20  32  53  84 114 141 177 234 297 344
#     4   9  18  33  56  77 100 147 190 227 284 351
#     4  11  23  37  57  84 114 154 192 235 289 338
#     4   9  18  31  50  79 112 141 182 232 285 340
#     4  10  20  33  52  82 117 150 183 234 282 344
#     4   9  16  33  55  74 105 146 189 224 280 351
#
# _framework density 19.903725000000001
#
# number of rings (size 3 to 8) (size 9 to 14) (size 15 to 20)
#    0.000    2.429    1.429    2.143    2.000    0.000 
#    0.000    8.571    0.000    0.000    0.000    0.000 
#    0.000    0.000    0.000    0.000    0.000    0.000 
#
# Total GULP energy -693888.566552 kJ/mol
# GULP energy per Si atom -12390.867260 kJ/mol
# Density = 1.985842 g / cm^3
# Si number density = 19.903725 Si / 1000 Ang^3
#
#
#
# Elastic Constant Matrix: (Units=GPa)
#
#
# Indices 1 2 3 4 5 6 
#
# 1 80.4094 13.3996 10.1915 0.0000 0.0000 0.0000
# 2 13.3996 80.4094 10.1915 0.0000 0.0000 0.0000
# 3 10.1915 10.1915 41.2042 0.0000 0.0000 0.0000
# 4 0.0000 0.0000 0.0000 45.3382 0.0000 0.0000
# 5 0.0000 0.0000 0.0000 0.0000 45.3382 0.0000
# 6 0.0000 0.0000 0.0000 0.0000 0.0000 26.5695
#
#
#
# Elastic Compliance Matrix: (Units=1/GPa)
#
#
# Indices 1 2 3 4 5 6 
#
# 1 0.013094 -0.001829 -0.002786 0.000000 0.000000 0.000000
# 2 -0.001829 0.013094 -0.002786 0.000000 0.000000 0.000000
# 3 -0.002786 -0.002786 0.025648 0.000000 0.000000 0.000000
# 4 0.000000 0.000000 0.000000 0.022056 0.000000 0.000000
# 5 0.000000 0.000000 0.000000 0.000000 0.022056 0.000000
# 6 0.000000 0.000000 0.000000 0.000000 0.000000 0.037637
#
#
# Mechanical properties :
#
#
# Convention : Reuss Voigt Hill
#
# Bulk Modulus (GPa) = 27.00296 29.95422 28.47859
# Shear Modulus (GPa) = 31.10730 34.66523 32.88626
#
# Velocity S-wave (km/s) = 3.95763 4.17783 4.06922
# Velocity P-wave (km/s) = 5.87197 6.19311 6.03467
#
# Compressibility (1/GPa) = 0.03703298
#
# Stress axis : x y z
#
# Youngs Moduli (GPa) = 76.36922 76.36922 38.98978
#
# Poissons Ratio (x) = 0.13967 0.10864
# Poissons Ratio (y) = 0.13967 0.10864
# Poissons Ratio (z) = 0.21279 0.21279
#
# Static dielectric constant tensor:
#      x y z
#    x 3.254140 0.000000 0.000000 
#    y 0.000000 3.254140 0.000000 
#    z 0.000000 0.000000 3.188140 
# 
# 
# High freq. dielectric constant tensor:
#      x y z
#    x 1.777780 0.000000 0.000000 
#    y 0.000000 1.777780 0.000000 
#    z 0.000000 0.000000 1.729030 
# 
# From -- ./inp_files/3135.got.cif
#   From: 2010.03.12/outbox.cif.g09.slc.cpg/sg114_2_cif.got.tgz:3135.got - 2010.04.14 02:08:34.
