data_PCOD8308629
_publ_section_title
;
Structure prediction by ZEFSAII (Michael W. Deem and Ramdas Pophale) SiO2 
 PCOD8308629
Probable space group: P -4 21 M 
;
_chemical_formula_sum "Si O2"
_cell_formula_units_Z 64
_cell_length_a 13.208228
_cell_length_b 13.208228
_cell_length_c 21.508078
_cell_angle_alpha 90.000000
_cell_angle_beta 90.000000
_cell_angle_gamma 90.000000
_cell_volume 3752.240934
_symmetry_space_group_name_H-M "P -4 21 M "
_symmetry_group_IT_number 113
_symmetry_cell_setting 'tetragonal'
loop_
_space_group_symop_operation_xyz
x,y,z
y,-x,-z
-x,-y,z
-y,x,-z
1/2+x,1/2-y,-z
1/2-x,1/2+y,-z
1/2-y,1/2-x,z
1/2+y,1/2+x,z
loop_
_atom_site_type_symbol
_atom_site_label
_atom_site_fract_x
_atom_site_fract_y
_atom_site_fract_z
Si Si1 0.793507 0.871681 0.628188
Si Si2 0.732069 0.395744 0.899857
Si Si3 0.071091 0.263499 0.138338
Si Si4 0.838970 0.499097 0.459644
Si Si5 0.778378 0.116658 0.132724
Si Si6 0.641959 0.541610 0.526397
Si Si7 0.895843 0.232442 0.233016
Si Si8 0.735175 0.403931 0.042051
O O1 0.737973 0.762028 0.625710
O O2 0.721935 0.957163 0.599018
O O3 0.901167 0.868120 0.592356
O O4 0.813347 0.908509 0.698256
O O5 0.838648 0.338648 0.897267
O O6 0.645333 0.331448 0.867037
O O7 0.743899 0.498442 0.861614
O O8 0.704248 0.421575 0.971078
O O9 0.132531 0.367469 0.145480
O O10 0.003197 0.247191 0.199409
O O11 0.007609 0.270024 0.074581
O O12 0.909552 0.409552 0.488422
O O13 0.760691 0.540855 0.510675
O O14 0.908332 0.591669 0.436513
O O15 0.672955 0.172955 0.119036
O O16 0.826078 0.152717 0.197200
O O17 0.858084 0.137964 0.077340
O O18 0.600980 0.425215 0.526549
O O19 0.841937 0.341937 0.235311
O O20 0.827597 0.327597 0.050142
#
# Coordination Sequence:
#
# PCOD8308629 Si02
#       8
#     8   8   8   8   8   8   8   8
#     4   9  17  31  52  75  99 129 164 200 238 286
#     4  10  20  32  47  69  93 119 155 197 244 294
#     4  10  20  33  48  70 102 131 157 198 247 294
#     4   9  17  29  47  73 103 132 162 199 245 294
#     4   9  18  34  50  65  90 120 154 197 237 279
#     4   9  17  30  48  73 103 132 164 201 243 287
#     4   9  19  34  52  73  95 127 167 198 235 290
#     4   9  18  31  48  70  93 120 155 192 237 294
#
# _framework density 17.056474000000001
#
# number of rings (size 3 to 8) (size 9 to 14) (size 15 to 20)
#    0.000    2.750    0.000    2.250    0.000    5.750 
#    0.000   10.000    0.000    0.750    0.000    1.750 
#    0.000    0.000    0.000    0.000    0.000    0.000 
#
# Total GULP energy -793437.256858 kJ/mol
# GULP energy per Si atom -12397.457138 kJ/mol
# Density = 1.701765 g / cm^3
# Si number density = 17.056474 Si / 1000 Ang^3
#
#
#
# Elastic Constant Matrix: (Units=GPa)
#
#
# Indices 1 2 3 4 5 6 
#
# 1 102.4683 36.1424 49.8352 0.0000 0.0000 0.0000
# 2 36.1424 102.4682 49.8351 0.0000 0.0000 0.0000
# 3 49.8352 49.8351 107.5168 0.0000 0.0000 0.0000
# 4 0.0000 0.0000 0.0000 20.6429 0.0000 0.0000
# 5 0.0000 0.0000 0.0000 0.0000 20.6428 0.0000
# 6 0.0000 0.0000 0.0000 0.0000 0.0000 15.1286
#
#
#
# Elastic Compliance Matrix: (Units=1/GPa)
#
#
# Indices 1 2 3 4 5 6 
#
# 1 0.012949 -0.002128 -0.005016 0.000000 0.000000 0.000000
# 2 -0.002128 0.012949 -0.005016 0.000000 0.000000 0.000000
# 3 -0.005016 -0.005016 0.013951 0.000000 0.000000 0.000000
# 4 0.000000 0.000000 0.000000 0.048443 0.000000 0.000000
# 5 0.000000 0.000000 0.000000 0.000000 0.048443 0.000000
# 6 0.000000 0.000000 0.000000 0.000000 0.000000 0.066100
#
#
# Mechanical properties :
#
#
# Convention : Reuss Voigt Hill
#
# Bulk Modulus (GPa) = 64.39180 64.89764 64.64472
# Shear Modulus (GPa) = 21.52113 23.05889 22.29001
#
# Velocity S-wave (km/s) = 3.55598 3.68083 3.61894
# Velocity P-wave (km/s) = 7.39554 7.49639 7.44614
#
# Compressibility (1/GPa) = 0.01552993
#
# Stress axis : x y z
#
# Youngs Moduli (GPa) = 77.22561 77.22561 71.68200
#
# Poissons Ratio (x) = 0.16434 0.35953
# Poissons Ratio (y) = 0.16434 0.35953
# Poissons Ratio (z) = 0.38734 0.38734
#
# Static dielectric constant tensor:
#      x y z
#    x 3.205870 0.000000 0.000000 
#    y 0.000000 3.205870 0.000000 
#    z 0.000000 0.000000 3.033930 
# 
# 
# High freq. dielectric constant tensor:
#      x y z
#    x 1.658800 0.000000 0.000000 
#    y 0.000000 1.658800 0.000000 
#    z 0.000000 0.000000 1.634650 
# 
# From -- ./inp_files/2913.got.cif
#   From: 2010.03.12/outbox.cif.g09.slc.cpg/sg113_cif.got.tgz:2913.got - 2010.04.14 02:06:34.
