data_PCOD8308380
_publ_section_title
;
Structure prediction by ZEFSAII (Michael W. Deem and Ramdas Pophale) SiO2 
 PCOD8308380
Probable space group: P -4 2 C
;
_chemical_formula_sum "Si O2"
_cell_formula_units_Z 48
_cell_length_a 11.820609
_cell_length_b 11.820609
_cell_length_c 17.081630
_cell_angle_alpha 90.000000
_cell_angle_beta 90.000000
_cell_angle_gamma 90.000000
_cell_volume 2386.761450
_symmetry_space_group_name_H-M "P -4 2 C"
_symmetry_group_IT_number 112
_symmetry_cell_setting 'tetragonal'
loop_
_space_group_symop_operation_xyz
x,y,z
y,-x,-z
-x,-y,z
-y,x,-z
x,-y,1/2-z
-x,y,1/2-z
-y,-x,1/2+z
y,x,1/2+z
loop_
_atom_site_type_symbol
_atom_site_label
_atom_site_fract_x
_atom_site_fract_y
_atom_site_fract_z
Si Si1 0.359988 0.215447 0.498588
Si Si2 0.624876 0.258284 0.720656
Si Si3 0.012380 0.370303 0.570775
Si Si4 0.564074 0.891964 0.913598
Si Si5 0.533818 0.372602 0.119418
Si Si6 0.767570 0.695038 0.636715
O O1 0.322611 0.115539 0.437447
O O2 0.470477 0.191159 0.550569
O O3 0.386538 0.328939 0.450728
O O4 0.258434 0.235562 0.558288
O O5 0.500000 0.228236 0.750000
O O6 0.644701 0.172205 0.648415
O O7 0.629175 0.390096 0.697532
O O8 0.721104 0.238838 0.786891
O O9 0.000000 0.500000 0.595274
O O10 0.067888 0.356552 0.484805
O O11 0.094520 0.313844 0.636388
O O12 0.500000 0.000000 0.874992
O O13 0.500000 0.500000 0.098699
O O14 0.427414 0.291221 0.132112
#
# Coordination Sequence:
#
# PCOD8308380 Si02
#       6
#     8   8   8   8   8   8
#     4  10  21  36  59  84 110 159 216 250 299 358
#     4  12  23  34  47  88 127 158 196 239 310 382
#     4   9  19  40  60  81 113 160 217 254 285 376
#     4   9  18  37  56  77 113 156 202 253 296 362
#     4  12  23  32  51  83 124 160 194 242 296 370
#     4  12  22  35  57  82 120 164 195 247 315 368
#
# _framework density 20.110932999999999
#
# number of rings (size 3 to 8) (size 9 to 14) (size 15 to 20)
#    0.000    1.667    6.667    1.500    2.333    0.333 
#    0.000    0.833    0.000    0.500    0.000    0.000 
#    0.000    0.333    0.000    0.000    0.000    0.000 
#
# Total GULP energy -594881.091889 kJ/mol
# GULP energy per Si atom -12393.356081 kJ/mol
# Density = 2.006516 g / cm^3
# Si number density = 20.110933 Si / 1000 Ang^3
#
#
#
# Elastic Constant Matrix: (Units=GPa)
#
#
# Indices 1 2 3 4 5 6 
#
# 1 89.0556 14.2139 29.2958 0.0000 0.0000 0.0000
# 2 14.2139 89.0556 29.2958 0.0000 0.0000 0.0000
# 3 29.2958 29.2958 66.2969 0.0000 0.0000 0.0000
# 4 0.0000 0.0000 0.0000 32.2146 0.0000 0.0000
# 5 0.0000 0.0000 0.0000 0.0000 32.2146 0.0000
# 6 0.0000 0.0000 0.0000 0.0000 0.0000 17.5993
#
#
#
# Elastic Compliance Matrix: (Units=1/GPa)
#
#
# Indices 1 2 3 4 5 6 
#
# 1 0.013142 -0.000219 -0.005711 0.000000 0.000000 0.000000
# 2 -0.000219 0.013142 -0.005711 0.000000 0.000000 0.000000
# 3 -0.005711 -0.005711 0.020131 0.000000 0.000000 0.000000
# 4 0.000000 0.000000 0.000000 0.031042 0.000000 0.000000
# 5 0.000000 0.000000 0.000000 0.000000 0.031042 0.000000
# 6 0.000000 0.000000 0.000000 0.000000 0.000000 0.056820
#
#
# Mechanical properties :
#
#
# Convention : Reuss Voigt Hill
#
# Bulk Modulus (GPa) = 43.22508 43.33543 43.28026
# Shear Modulus (GPa) = 25.46964 27.84589 26.65776
#
# Velocity S-wave (km/s) = 3.56259 3.72508 3.64474
# Velocity P-wave (km/s) = 6.20183 6.33219 6.26735
#
# Compressibility (1/GPa) = 0.02313472
#
# Stress axis : x y z
#
# Youngs Moduli (GPa) = 76.08905 76.08905 49.67547
#
# Poissons Ratio (x) = 0.01667 0.28368
# Poissons Ratio (y) = 0.01667 0.28368
# Poissons Ratio (z) = 0.43452 0.43452
#
# Static dielectric constant tensor:
#      x y z
#    x 3.686190 0.000000 0.000000 
#    y 0.000000 3.686190 0.000000 
#    z 0.000000 0.000000 3.750290 
# 
# 
# High freq. dielectric constant tensor:
#      x y z
#    x 1.757500 0.000000 0.000000 
#    y 0.000000 1.757500 0.000000 
#    z 0.000000 0.000000 1.781290 
# 
# From -- ./inp_files/4110.got.cif
#   From: 2010.03.12/outbox.cif.g09.slc.cpg/sg112_3_cif.got.tgz:4110.got - 2010.04.14 02:02:48.
