data_PCOD8308614
_publ_section_title
;
Structure prediction by ZEFSAII (Michael W. Deem and Ramdas Pophale) SiO2 
 PCOD8308614
Probable space group: P -4 21 M 
;
_chemical_formula_sum "Si O2"
_cell_formula_units_Z 56
_cell_length_a 11.360872
_cell_length_b 11.360872
_cell_length_c 21.221029
_cell_angle_alpha 90.000000
_cell_angle_beta 90.000000
_cell_angle_gamma 90.000000
_cell_volume 2738.985748
_symmetry_space_group_name_H-M "P -4 21 M "
_symmetry_group_IT_number 113
_symmetry_cell_setting 'tetragonal'
loop_
_space_group_symop_operation_xyz
x,y,z
y,-x,-z
-x,-y,z
-y,x,-z
1/2+x,1/2-y,-z
1/2-x,1/2+y,-z
1/2-y,1/2-x,z
1/2+y,1/2+x,z
loop_
_atom_site_type_symbol
_atom_site_label
_atom_site_fract_x
_atom_site_fract_y
_atom_site_fract_z
Si Si1 0.677121 0.360440 0.067391
Si Si2 0.813355 0.494414 0.383004
Si Si3 0.245130 0.066538 0.066673
Si Si4 0.333352 0.361219 0.298119
Si Si5 0.808050 0.503844 0.640808
Si Si6 0.876401 0.057507 0.837385
Si Si7 0.011043 0.190625 0.508801
O O1 0.799767 0.299767 0.079018
O O2 0.573594 0.263593 0.077196
O O3 0.687067 0.464693 0.117510
O O4 0.670153 0.407433 0.996088
O O5 0.911900 0.588101 0.364882
O O6 0.693125 0.528994 0.345546
O O7 0.792405 0.496457 0.457603
O O8 0.864495 0.364495 0.364476
O O9 0.378135 0.121866 0.063639
O O10 0.180845 0.123975 0.126129
O O11 0.237160 0.262841 0.309441
O O12 0.460335 0.297110 0.311471
O O13 0.317009 0.416174 0.229071
O O14 0.896950 0.396950 0.627863
O O15 0.748094 0.541545 0.575629
O O16 0.882705 0.617296 0.667363
O O17 0.000000 0.000000 0.821766
O O18 0.118378 0.109463 0.486317
#
# Coordination Sequence:
#
# PCOD8308614 Si02
#       7
#     8   8   8   8   8   8   8
#     4  10  20  35  58  88 121 156 199 247 296 356
#     4  10  21  37  58  82 113 156 200 244 303 370
#     4  10  19  35  59  86 119 157 198 244 298 354
#     4  10  21  39  58  84 122 158 203 253 309 374
#     4  10  21  38  61  86 116 158 207 259 313 369
#     4  10  21  36  60  85 115 155 199 245 298 364
#     4  11  22  35  55  86 119 153 201 257 310 365
#
# _framework density 20.445525
#
# number of rings (size 3 to 8) (size 9 to 14) (size 15 to 20)
#    0.000    1.857    2.857    1.286    0.000    4.857 
#    0.000    2.857    0.000    4.714    0.000    0.000 
#    0.000    0.000    0.000    0.000    0.000    0.000 
#
# Total GULP energy -693837.375149 kJ/mol
# GULP energy per Si atom -12389.953128 kJ/mol
# Density = 2.039899 g / cm^3
# Si number density = 20.445525 Si / 1000 Ang^3
#
#
#
# Elastic Constant Matrix: (Units=GPa)
#
#
# Indices 1 2 3 4 5 6 
#
# 1 54.5876 32.7174 20.5126 0.0000 0.0000 0.0000
# 2 32.7174 54.5877 20.5124 0.0000 0.0000 0.0000
# 3 20.5126 20.5124 112.2013 0.0000 0.0000 0.0000
# 4 0.0000 0.0000 0.0000 29.4593 0.0000 0.0000
# 5 0.0000 0.0000 0.0000 0.0000 29.4589 0.0000
# 6 0.0000 0.0000 0.0000 0.0000 0.0000 29.9769
#
#
#
# Elastic Compliance Matrix: (Units=1/GPa)
#
#
# Indices 1 2 3 4 5 6 
#
# 1 0.029127 -0.016597 -0.002291 0.000000 0.000000 0.000000
# 2 -0.016597 0.029127 -0.002291 0.000000 0.000000 0.000000
# 3 -0.002291 -0.002291 0.009750 0.000000 0.000000 0.000000
# 4 0.000000 0.000000 0.000000 0.033945 0.000000 0.000000
# 5 0.000000 0.000000 0.000000 0.000000 0.033946 0.000000
# 6 0.000000 0.000000 0.000000 0.000000 0.000000 0.033359
#
#
# Mechanical properties :
#
#
# Convention : Reuss Voigt Hill
#
# Bulk Modulus (GPa) = 38.98939 40.98459 39.98699
# Shear Modulus (GPa) = 22.71068 27.62132 25.16600
#
# Velocity S-wave (km/s) = 3.33647 3.67954 3.51220
# Velocity P-wave (km/s) = 5.82700 6.17587 6.00397
#
# Compressibility (1/GPa) = 0.02564800
#
# Stress axis : x y z
#
# Youngs Moduli (GPa) = 34.33189 34.33206 102.56237
#
# Poissons Ratio (x) = 0.56980 0.23496
# Poissons Ratio (y) = 0.56980 0.23495
# Poissons Ratio (z) = 0.07865 0.07865
#
# Static dielectric constant tensor:
#      x y z
#    x 3.697260 0.000000 0.000000 
#    y 0.000000 3.697260 0.000000 
#    z 0.000000 0.000000 3.613930 
# 
# 
# High freq. dielectric constant tensor:
#      x y z
#    x 1.792820 0.000000 0.000000 
#    y 0.000000 1.792820 0.000000 
#    z 0.000000 0.000000 1.790680 
# 
# From -- ./inp_files/2682.got.cif
#   From: 2010.03.12/outbox.cif.g09.slc.cpg/sg113_cif.got.tgz:2682.got - 2010.04.14 02:06:34.
