data_PCOD8308217
_publ_section_title
;
Structure prediction by ZEFSAII (Michael W. Deem and Ramdas Pophale) SiO2 
 PCOD8308217
Probable space group: P -4 2 M 
;
_chemical_formula_sum "Si O2"
_cell_formula_units_Z 40
_cell_length_a 13.520474
_cell_length_b 13.520474
_cell_length_c 12.674339
_cell_angle_alpha 90.000000
_cell_angle_beta 90.000000
_cell_angle_gamma 90.000000
_cell_volume 2316.909945
_symmetry_space_group_name_H-M "P -4 2 M "
_symmetry_group_IT_number 111
_symmetry_cell_setting 'tetragonal'
loop_
_space_group_symop_operation_xyz
x,y,z
y,-x,-z
-x,-y,z
-y,x,-z
x,-y,-z
-x,y,-z
-y,-x,z
y,x,z
loop_
_atom_site_type_symbol
_atom_site_label
_atom_site_fract_x
_atom_site_fract_y
_atom_site_fract_z
Si Si1 0.224399 0.615502 0.792523
Si Si2 0.113451 0.726375 0.620923
Si Si3 0.382711 0.110550 1.000000
Si Si4 0.384499 0.224398 0.792522
Si Si5 0.273626 0.113451 0.620922
O O1 0.328513 0.671488 0.782563
O O2 0.155154 0.637551 0.692087
O O3 0.248303 0.500000 0.797438
O O4 0.168186 0.653917 0.896620
O O5 0.172771 0.827230 0.644483
O O6 0.125952 0.692788 0.500001
O O7 1.000000 0.747401 0.649355
O O8 0.346083 0.168185 0.896619
O O9 0.500000 0.103612 0.000000
O O10 0.337174 0.000000 0.000000
O O11 0.328511 0.328511 0.782562
O O12 0.362451 0.155153 0.692086
O O13 0.172772 0.172772 0.644482
#
# Coordination Sequence:
#
# PCOD8308217 Si02
#       5
#     8   8   8   8   8
#     4  10  20  33  49  70  97 129 166 205 242 283
#     4   9  18  32  50  73  99 126 158 197 242 293
#     4   9  17  30  49  71  93 119 153 193 238 285
#     4  10  20  33  49  70  97 129 166 205 242 283
#     4   9  18  32  50  73  99 126 158 197 242 293
#
# _framework density 17.264374
#
# number of rings (size 3 to 8) (size 9 to 14) (size 15 to 20)
#    0.000    2.600    0.000    1.800    0.000    4.000 
#    0.000    4.000    0.000    3.600    0.000    5.600 
#    0.000   14.400    0.000    0.000    0.000    0.000 
#
# Total GULP energy -496065.532821 kJ/mol
# GULP energy per Si atom -12401.638321 kJ/mol
# Density = 1.722508 g / cm^3
# Si number density = 17.264374 Si / 1000 Ang^3
#
#
#
# Elastic Constant Matrix: (Units=GPa)
#
#
# Indices 1 2 3 4 5 6 
#
# 1 95.3696 38.7108 51.0378 0.0000 0.0000 0.0000
# 2 38.7108 95.3710 51.0382 0.0000 0.0000 0.0000
# 3 51.0378 51.0382 109.0254 0.0000 0.0000 0.0000
# 4 0.0000 0.0000 0.0000 27.2196 0.0000 0.0000
# 5 0.0000 0.0000 0.0000 0.0000 27.2193 0.0000
# 6 0.0000 0.0000 0.0000 0.0000 0.0000 11.5716
#
#
#
# Elastic Compliance Matrix: (Units=1/GPa)
#
#
# Indices 1 2 3 4 5 6 
#
# 1 0.014619 -0.003031 -0.005425 0.000000 0.000000 0.000000
# 2 -0.003031 0.014619 -0.005425 0.000000 0.000000 0.000000
# 3 -0.005425 -0.005425 0.014251 0.000000 0.000000 0.000000
# 4 0.000000 0.000000 0.000000 0.036738 0.000000 0.000000
# 5 0.000000 0.000000 0.000000 0.000000 0.036739 0.000000
# 6 0.000000 0.000000 0.000000 0.000000 0.000000 0.086419
#
#
# Mechanical properties :
#
#
# Convention : Reuss Voigt Hill
#
# Bulk Modulus (GPa) = 63.57954 64.59331 64.08643
# Shear Modulus (GPa) = 21.15178 23.80069 22.47623
#
# Velocity S-wave (km/s) = 3.50404 3.71698 3.61208
# Velocity P-wave (km/s) = 7.29918 7.47775 7.38900
#
# Compressibility (1/GPa) = 0.01572833
#
# Stress axis : x y z
#
# Youngs Moduli (GPa) = 68.40535 68.40631 70.17012
#
# Poissons Ratio (x) = 0.20732 0.38065
# Poissons Ratio (y) = 0.20731 0.38065
# Poissons Ratio (z) = 0.37108 0.37108
#
# Static dielectric constant tensor:
#      x y z
#    x 3.086430 0.000000 0.000000 
#    y 0.000000 3.086430 0.000000 
#    z 0.000000 0.000000 3.433430 
# 
# 
# High freq. dielectric constant tensor:
#      x y z
#    x 1.656750 0.000000 0.000000 
#    y 0.000000 1.656750 0.000000 
#    z 0.000000 0.000000 1.681280 
# 
# From -- ./inp_files/3200.got.cif
#   From: 2010.03.12/outbox.cif.g09.slc.cpg/sg111_2_cif.got.tgz:3200.got - 2010.04.14 01:59:48.
