data_PCOD8308477
_publ_section_title
;
Structure prediction by ZEFSAII (Michael W. Deem and Ramdas Pophale) SiO2 
 PCOD8308477
Probable space group: P -4 2 C
;
_chemical_formula_sum "Si O2"
_cell_formula_units_Z 24
_cell_length_a 10.916767
_cell_length_b 10.916767
_cell_length_c 9.733759
_cell_angle_alpha 90.000000
_cell_angle_beta 90.000000
_cell_angle_gamma 90.000000
_cell_volume 1160.028533
_symmetry_space_group_name_H-M "P -4 2 C"
_symmetry_group_IT_number 112
_symmetry_cell_setting 'tetragonal'
loop_
_space_group_symop_operation_xyz
x,y,z
y,-x,-z
-x,-y,z
-y,x,-z
x,-y,1/2-z
-x,y,1/2-z
-y,-x,1/2+z
y,x,1/2+z
loop_
_atom_site_type_symbol
_atom_site_label
_atom_site_fract_x
_atom_site_fract_y
_atom_site_fract_z
Si Si1 0.859428 0.132128 0.718077
Si Si2 0.143900 0.499649 0.086353
Si Si3 0.755415 0.251468 0.968581
O O1 0.843081 0.165111 0.559254
O O2 0.000000 0.124244 0.750000
O O3 0.796235 0.000000 0.750000
O O4 0.795476 0.236070 0.810502
O O5 0.158793 0.500000 0.250000
O O6 0.216144 0.613365 0.021559
O O7 0.000000 0.500000 0.045205
O O8 0.214630 0.386107 0.018260
#
# Coordination Sequence:
#
# PCOD8308477 Si02
#       3
#     8   8   8
#     4  11  22  38  64  99 136 172 224 295 356 405
#     4  11  24  46  71  98 142 187 226 283 344 407
#     4  12  24  42  68 100 134 184 232 277 338 413
#
# _framework density 20.689147999999999
#
# number of rings (size 3 to 8) (size 9 to 14) (size 15 to 20)
#    0.000    0.667    3.333    6.000    0.000    4.667 
#    0.000    5.000    0.000    0.000    0.000    0.000 
#    0.000    0.000    0.000    0.000    0.000    0.000 
#
# Total GULP energy -297656.429174 kJ/mol
# GULP energy per Si atom -12402.351216 kJ/mol
# Density = 2.064206 g / cm^3
# Si number density = 20.689148 Si / 1000 Ang^3
#
#
#
# Elastic Constant Matrix: (Units=GPa)
#
#
# Indices 1 2 3 4 5 6 
#
# 1 148.3386 59.7975 28.2575 0.0000 0.0000 0.0000
# 2 59.7975 148.3386 28.2575 0.0000 0.0000 0.0000
# 3 28.2575 28.2575 60.4219 0.0000 0.0000 0.0000
# 4 0.0000 0.0000 0.0000 36.1289 0.0000 0.0000
# 5 0.0000 0.0000 0.0000 0.0000 36.1289 0.0000
# 6 0.0000 0.0000 0.0000 0.0000 0.0000 36.7284
#
#
#
# Elastic Compliance Matrix: (Units=1/GPa)
#
#
# Indices 1 2 3 4 5 6 
#
# 1 0.008399 -0.002895 -0.002574 0.000000 0.000000 0.000000
# 2 -0.002895 0.008399 -0.002574 0.000000 0.000000 0.000000
# 3 -0.002574 -0.002574 0.018958 0.000000 0.000000 0.000000
# 4 0.000000 0.000000 0.000000 0.027679 0.000000 0.000000
# 5 0.000000 0.000000 0.000000 0.000000 0.027679 0.000000
# 6 0.000000 0.000000 0.000000 0.000000 0.000000 0.027227
#
#
# Mechanical properties :
#
#
# Convention : Reuss Voigt Hill
#
# Bulk Modulus (GPa) = 50.84056 65.52492 58.18274
# Shear Modulus (GPa) = 35.46557 37.84968 36.65762
#
# Velocity S-wave (km/s) = 4.14479 4.28184 4.21388
# Velocity P-wave (km/s) = 6.89439 7.49570 7.20132
#
# Compressibility (1/GPa) = 0.01966934
#
# Stress axis : x y z
#
# Youngs Moduli (GPa) = 119.06473 119.06473 52.74918
#
# Poissons Ratio (x) = 0.34474 0.13576
# Poissons Ratio (y) = 0.34474 0.13576
# Poissons Ratio (z) = 0.30645 0.30645
#
# Static dielectric constant tensor:
#      x y z
#    x 3.865940 0.000000 0.000000 
#    y 0.000000 3.865940 0.000000 
#    z 0.000000 0.000000 3.912010 
# 
# 
# High freq. dielectric constant tensor:
#      x y z
#    x 1.812000 0.000000 0.000000 
#    y 0.000000 1.812000 0.000000 
#    z 0.000000 0.000000 1.815870 
# 
# From -- ./inp_files/791.got.cif
#   From: 2010.03.12/outbox.cif.g09.slc.cpg/sg112_1_cif.got.tgz:791.got - 2010.04.14 02:02:48.
