data_PCOD8308417
_publ_section_title
;
Structure prediction by ZEFSAII (Michael W. Deem and Ramdas Pophale) SiO2 
 PCOD8308417
Probable space group: P -4 2 C
;
_chemical_formula_sum "Si O2"
_cell_formula_units_Z 40
_cell_length_a 13.324310
_cell_length_b 13.324310
_cell_length_c 10.041185
_cell_angle_alpha 90.000000
_cell_angle_beta 90.000000
_cell_angle_gamma 90.000000
_cell_volume 1782.684241
_symmetry_space_group_name_H-M "P -4 2 C"
_symmetry_group_IT_number 112
_symmetry_cell_setting 'tetragonal'
loop_
_space_group_symop_operation_xyz
x,y,z
y,-x,-z
-x,-y,z
-y,x,-z
x,-y,1/2-z
-x,y,1/2-z
-y,-x,1/2+z
y,x,1/2+z
loop_
_atom_site_type_symbol
_atom_site_label
_atom_site_fract_x
_atom_site_fract_y
_atom_site_fract_z
Si Si1 0.221808 0.029258 0.600271
Si Si2 0.639573 0.337233 0.144573
Si Si3 0.500000 0.167824 0.250000
Si Si4 0.316093 0.922368 0.360455
Si Si5 0.500000 0.500000 0.250000
Si Si6 0.000000 0.000000 0.500000
Si Si7 0.244695 0.287332 0.116765
O O1 0.100232 0.032694 0.581430
O O2 0.285111 0.130438 0.567679
O O3 0.244437 0.000000 0.750000
O O4 0.277970 0.950045 0.507009
O O5 0.575004 0.236056 0.164451
O O6 0.566555 0.432814 0.149836
O O7 0.725708 0.357081 0.257199
O O8 0.690466 0.325130 0.000279
O O9 0.563530 0.096503 0.350777
O O10 0.259961 0.821836 0.320693
O O11 0.278258 0.000000 0.250000
#
# Coordination Sequence:
#
# PCOD8308417 Si02
#       7
#     8   8   4   8   2   2   8
#     4  12  25  41  66 102 146 189 244 300 346 417
#     4  10  23  42  70  98 133 176 220 296 353 434
#     4   9  21  43  67  92 124 178 239 269 361 435
#     4  11  23  40  68  92 132 185 237 287 346 434
#     4  10  24  46  74 106 132 174 242 290 364 444
#     4  12  26  40  68 106 150 196 256 282 350 428
#     4  11  23  41  62  96 138 176 226 287 364 402
#
# _framework density 22.438072999999999
#
# number of rings (size 3 to 8) (size 9 to 14) (size 15 to 20)
#    0.000    1.200    2.000    4.200    2.800    5.600 
#    0.000    0.000    0.000    8.400    0.000    0.000 
#    0.000    0.000    0.000    0.000    0.000    0.000 
#
# Total GULP energy -495662.651980 kJ/mol
# GULP energy per Si atom -12391.566299 kJ/mol
# Density = 2.238700 g / cm^3
# Si number density = 22.438073 Si / 1000 Ang^3
#
#
#
# Elastic Constant Matrix: (Units=GPa)
#
#
# Indices 1 2 3 4 5 6 
#
# 1 97.4902 35.3745 30.9783 0.0000 0.0000 0.0000
# 2 35.3745 97.4902 30.9783 0.0000 0.0000 0.0000
# 3 30.9783 30.9783 125.1942 0.0000 0.0000 0.0000
# 4 0.0000 0.0000 0.0000 30.7198 0.0000 0.0000
# 5 0.0000 0.0000 0.0000 0.0000 30.7198 0.0000
# 6 0.0000 0.0000 0.0000 0.0000 0.0000 14.5076
#
#
#
# Elastic Compliance Matrix: (Units=1/GPa)
#
#
# Indices 1 2 3 4 5 6 
#
# 1 0.012304 -0.003795 -0.002105 0.000000 0.000000 0.000000
# 2 -0.003795 0.012304 -0.002105 0.000000 0.000000 0.000000
# 3 -0.002105 -0.002105 0.009029 0.000000 0.000000 0.000000
# 4 0.000000 0.000000 0.000000 0.032552 0.000000 0.000000
# 5 0.000000 0.000000 0.000000 0.000000 0.032552 0.000000
# 6 0.000000 0.000000 0.000000 0.000000 0.000000 0.068929
#
#
# Mechanical properties :
#
#
# Convention : Reuss Voigt Hill
#
# Bulk Modulus (GPa) = 56.73857 57.20407 56.97132
# Shear Modulus (GPa) = 26.37725 30.04568 28.21147
#
# Velocity S-wave (km/s) = 3.43236 3.66327 3.54969
# Velocity P-wave (km/s) = 6.40701 6.59108 6.49969
#
# Compressibility (1/GPa) = 0.01762470
#
# Stress axis : x y z
#
# Youngs Moduli (GPa) = 81.27718 81.27718 110.74857
#
# Poissons Ratio (x) = 0.30848 0.23316
# Poissons Ratio (y) = 0.30848 0.23316
# Poissons Ratio (z) = 0.17111 0.17111
#
# Static dielectric constant tensor:
#      x y z
#    x 4.392850 0.000000 0.000000 
#    y 0.000000 4.392850 0.000000 
#    z 0.000000 0.000000 3.877110 
# 
# 
# High freq. dielectric constant tensor:
#      x y z
#    x 1.888200 0.000000 0.000000 
#    y 0.000000 1.888200 0.000000 
#    z 0.000000 0.000000 1.872930 
# 
# From -- ./inp_files/1319.got.cif
#   From: 2010.03.12/outbox.cif.g09.slc.cpg/sg112_1_cif.got.tgz:1319.got - 2010.04.14 02:02:48.
