data_PCOD8308241
_publ_section_title
;
Structure prediction by ZEFSAII (Michael W. Deem and Ramdas Pophale) SiO2 
 PCOD8308241
Probable space group: P -4 2 M 
;
_chemical_formula_sum "Si O2"
_cell_formula_units_Z 40
_cell_length_a 18.114055
_cell_length_b 18.114055
_cell_length_c 5.778989
_cell_angle_alpha 90.000000
_cell_angle_beta 90.000000
_cell_angle_gamma 90.000000
_cell_volume 1896.196025
_symmetry_space_group_name_H-M "P -4 2 M "
_symmetry_group_IT_number 111
_symmetry_cell_setting 'tetragonal'
loop_
_space_group_symop_operation_xyz
x,y,z
y,-x,-z
-x,-y,z
-y,x,-z
x,-y,-z
-x,y,-z
-y,-x,z
y,x,z
loop_
_atom_site_type_symbol
_atom_site_label
_atom_site_fract_x
_atom_site_fract_y
_atom_site_fract_z
Si Si1 0.697560 0.421188 0.593290
Si Si2 0.202995 0.318803 0.717495
Si Si3 0.040846 0.163146 0.243986
Si Si4 0.423834 0.164261 0.103752
Si Si5 0.923821 0.683090 0.384340
O O1 0.669255 0.500000 0.500000
O O2 0.626603 0.373398 0.674238
O O3 0.742883 0.377826 0.400058
O O4 0.752414 0.435574 0.806452
O O5 0.249882 0.249882 0.811096
O O6 0.139115 0.286517 0.556081
O O7 0.161997 0.357708 0.924723
O O8 0.111726 0.111726 0.261090
O O9 0.063901 0.248853 0.208126
O O10 0.000000 0.155805 0.500000
O O11 0.000000 0.141312 0.000000
O O12 0.395400 0.105596 0.290138
O O13 0.500000 0.134226 0.000000
O O14 0.000000 0.660483 0.500000
#
# Coordination Sequence:
#
# PCOD8308241 Si02
#       5
#     8   8   8   8   8
#     4  10  20  37  60  91 127 165 210 266 329 400
#     4  10  21  39  66  93 123 168 217 266 322 395
#     4  11  25  45  72 104 143 185 230 289 349 419
#     4  11  22  40  68  91 124 169 222 278 333 396
#     4  10  25  43  64  94 134 171 220 276 339 404
#
# _framework density 21.094864999999999
#
# number of rings (size 3 to 8) (size 9 to 14) (size 15 to 20)
#    0.000    1.600    2.000    1.800    5.600    3.800 
#    0.000    3.000    0.000    0.000    0.000    0.000 
#    0.000    0.000    0.000    0.000    0.000    0.000 
#
# Total GULP energy -495643.321589 kJ/mol
# GULP energy per Si atom -12391.083040 kJ/mol
# Density = 2.104685 g / cm^3
# Si number density = 21.094865 Si / 1000 Ang^3
#
#
#
# Elastic Constant Matrix: (Units=GPa)
#
#
# Indices 1 2 3 4 5 6 
#
# 1 127.0396 70.0359 32.8754 0.0000 0.0000 0.0000
# 2 70.0359 127.0397 32.8755 0.0000 0.0000 0.0000
# 3 32.8754 32.8755 87.2514 0.0000 0.0000 0.0000
# 4 0.0000 0.0000 0.0000 20.4763 0.0000 0.0000
# 5 0.0000 0.0000 0.0000 0.0000 20.4763 0.0000
# 6 0.0000 0.0000 0.0000 0.0000 0.0000 27.2767
#
#
#
# Elastic Compliance Matrix: (Units=1/GPa)
#
#
# Indices 1 2 3 4 5 6 
#
# 1 0.011673 -0.005869 -0.002187 0.000000 0.000000 0.000000
# 2 -0.005869 0.011673 -0.002187 0.000000 0.000000 0.000000
# 3 -0.002187 -0.002187 0.013109 0.000000 0.000000 0.000000
# 4 0.000000 0.000000 0.000000 0.048837 0.000000 0.000000
# 5 0.000000 0.000000 0.000000 0.000000 0.048837 0.000000
# 6 0.000000 0.000000 0.000000 0.000000 0.000000 0.036661
#
#
# Mechanical properties :
#
#
# Convention : Reuss Voigt Hill
#
# Bulk Modulus (GPa) = 62.61969 68.10046 65.36008
# Shear Modulus (GPa) = 25.43233 27.34878 26.39056
#
# Velocity S-wave (km/s) = 3.47597 3.60455 3.54084
# Velocity P-wave (km/s) = 6.77193 7.04818 6.91143
#
# Compressibility (1/GPa) = 0.01596942
#
# Stress axis : x y z
#
# Youngs Moduli (GPa) = 85.66595 85.66600 76.28305
#
# Poissons Ratio (x) = 0.50281 0.16682
# Poissons Ratio (y) = 0.50281 0.16682
# Poissons Ratio (z) = 0.18733 0.18734
#
# Static dielectric constant tensor:
#      x y z
#    x 3.158580 0.000000 0.000000 
#    y 0.000000 3.158130 0.000000 
#    z 0.000000 0.000000 3.732890 
# 
# 
# High freq. dielectric constant tensor:
#      x y z
#    x 1.828590 0.000000 0.000000 
#    y 0.000000 1.828590 0.000000 
#    z 0.000000 0.000000 1.823610 
# 
# From -- ./inp_files/458.got.cif
#   From: 2010.03.12/outbox.cif.g09.slc.cpg/sg111_1_cif.got.tgz:458.got - 2010.04.14 01:59:48.
