data_PCOD8308964
_publ_section_title
;
Structure prediction by ZEFSAII (Michael W. Deem and Ramdas Pophale) SiO2 
 PCOD8308964
Probable space group: P -4 21 C
;
_chemical_formula_sum "Si O2"
_cell_formula_units_Z 32
_cell_length_a 9.093142
_cell_length_b 9.093142
_cell_length_c 18.629676
_cell_angle_alpha 90.000000
_cell_angle_beta 90.000000
_cell_angle_gamma 90.000000
_cell_volume 1540.399072
_symmetry_space_group_name_H-M "P -4 21 C"
_symmetry_group_IT_number 114
_symmetry_cell_setting 'tetragonal'
loop_
_space_group_symop_operation_xyz
x,y,z
y,-x,-z
-x,-y,z
-y,x,-z
1/2+x,1/2-y,1/2-z
1/2-x,1/2+y,1/2-z
1/2-y,1/2-x,1/2+z
1/2+y,1/2+x,1/2+z
loop_
_atom_site_type_symbol
_atom_site_label
_atom_site_fract_x
_atom_site_fract_y
_atom_site_fract_z
Si Si1 0.149782 0.330582 0.063192
Si Si2 0.634250 0.391977 0.191425
Si Si3 0.657252 0.822856 0.948773
Si Si4 0.604123 0.136824 0.781194
O O1 0.161632 0.489597 0.025581
O O2 0.207555 0.334295 0.144957
O O3 0.981874 0.275721 0.070163
O O4 0.249347 0.224637 0.016973
O O5 0.500000 0.500000 0.171730
O O6 0.714564 0.336326 0.119296
O O7 0.737953 0.488604 0.245743
O O8 0.590813 0.237924 0.229667
O O9 0.500000 0.000000 0.800435
#
# Coordination Sequence:
#
# PCOD8308964 Si02
#       4
#     8   8   8   8
#     4  10  22  43  64  89 131 165 212 270 318 386
#     4  11  24  40  70  99 128 180 219 272 338 401
#     4  10  23  42  62  93 126 169 215 265 324 388
#     4  11  22  46  63  94 137 167 219 278 329 397
#
# _framework density 20.773837
#
# number of rings (size 3 to 8) (size 9 to 14) (size 15 to 20)
#    0.000    1.500    5.000    1.500    7.000    2.500 
#    4.500    0.000    0.000    0.000    0.000    0.000 
#    0.000    0.000    0.000    0.000    0.000    0.000 
#
# Total GULP energy -396440.741597 kJ/mol
# GULP energy per Si atom -12388.773175 kJ/mol
# Density = 2.072655 g / cm^3
# Si number density = 20.773837 Si / 1000 Ang^3
#
#
#
# Elastic Constant Matrix: (Units=GPa)
#
#
# Indices 1 2 3 4 5 6 
#
# 1 91.7715 41.6166 50.4644 0.0000 0.0000 0.0000
# 2 41.6166 91.7715 50.4644 0.0000 0.0000 0.0000
# 3 50.4644 50.4644 94.5114 0.0000 0.0000 0.0000
# 4 0.0000 0.0000 0.0000 33.3302 0.0000 0.0000
# 5 0.0000 0.0000 0.0000 0.0000 33.3302 0.0000
# 6 0.0000 0.0000 0.0000 0.0000 0.0000 41.1282
#
#
#
# Elastic Compliance Matrix: (Units=1/GPa)
#
#
# Indices 1 2 3 4 5 6 
#
# 1 0.016259 -0.003680 -0.006717 0.000000 0.000000 0.000000
# 2 -0.003680 0.016259 -0.006717 0.000000 0.000000 0.000000
# 3 -0.006717 -0.006717 0.017753 0.000000 0.000000 0.000000
# 4 0.000000 0.000000 0.000000 0.030003 0.000000 0.000000
# 5 0.000000 0.000000 0.000000 0.000000 0.030003 0.000000
# 6 0.000000 0.000000 0.000000 0.000000 0.000000 0.024314
#
#
# Mechanical properties :
#
#
# Convention : Reuss Voigt Hill
#
# Bulk Modulus (GPa) = 62.32419 62.57170 62.44795
# Shear Modulus (GPa) = 28.70849 30.59166 29.65008
#
# Velocity S-wave (km/s) = 3.72150 3.84162 3.78203
# Velocity P-wave (km/s) = 6.96653 7.06139 7.01412
#
# Compressibility (1/GPa) = 0.01604513
#
# Stress axis : x y z
#
# Youngs Moduli (GPa) = 61.50576 61.50576 56.32717
#
# Poissons Ratio (x) = 0.22631 0.37833
# Poissons Ratio (y) = 0.22631 0.37833
# Poissons Ratio (z) = 0.41311 0.41311
#
# Static dielectric constant tensor:
#      x y z
#    x 3.885870 0.000000 0.000000 
#    y 0.000000 3.885870 0.000000 
#    z 0.000000 0.000000 3.412190 
# 
# 
# High freq. dielectric constant tensor:
#      x y z
#    x 1.819540 0.000000 0.000000 
#    y 0.000000 1.819540 0.000000 
#    z 0.000000 0.000000 1.789770 
# 
# From -- ./inp_files/2821.got.cif
#   From: 2010.03.12/outbox.cif.g09.slc.cpg/sg114_2_cif.got.tgz:2821.got - 2010.04.14 02:08:34.
