data_PCOD8308144
_publ_section_title
;
Structure prediction by ZEFSAII (Michael W. Deem and Ramdas Pophale) SiO2 
 PCOD8308144
Probable space group: P -4 2 M 
;
_chemical_formula_sum "Si O2"
_cell_formula_units_Z 60
_cell_length_a 11.671176
_cell_length_b 11.671176
_cell_length_c 25.775494
_cell_angle_alpha 90.000000
_cell_angle_beta 90.000000
_cell_angle_gamma 90.000000
_cell_volume 3511.043692
_symmetry_space_group_name_H-M "P -4 2 M "
_symmetry_group_IT_number 111
_symmetry_cell_setting 'tetragonal'
loop_
_space_group_symop_operation_xyz
x,y,z
y,-x,-z
-x,-y,z
-y,x,-z
x,-y,-z
-x,y,-z
-y,-x,z
y,x,z
loop_
_atom_site_type_symbol
_atom_site_label
_atom_site_fract_x
_atom_site_fract_y
_atom_site_fract_z
Si Si1 0.602819 0.783367 0.598977
Si Si2 0.836732 0.345802 0.613484
Si Si3 0.500000 0.688227 0.000000
Si Si4 0.127390 0.476844 0.201361
Si Si5 0.333585 0.848776 0.285844
Si Si6 0.499325 0.309691 0.887916
Si Si7 0.048645 0.769028 0.443426
Si Si8 0.283984 0.897595 0.723998
O O1 0.650200 0.650200 0.596660
O O2 0.468825 0.805516 0.588373
O O3 0.632934 0.836445 0.654517
O O4 0.669390 0.855581 0.555054
O O5 0.726134 0.273867 0.599105
O O6 0.853486 0.359337 0.675164
O O7 0.946823 0.276266 0.592840
O O8 0.501135 0.755009 0.055302
O O9 0.611756 0.611756 0.998855
O O10 0.155352 0.555164 0.250487
O O11 0.213288 0.499552 0.155073
O O12 0.138243 0.347930 0.222912
O O13 0.000000 0.500000 0.180100
O O14 0.252062 0.747939 0.266578
O O15 0.265835 0.967072 0.278726
O O16 0.609651 0.390349 0.881779
O O17 0.384811 0.384811 0.881466
O O18 0.112673 0.887327 0.423891
O O19 0.000000 0.792333 0.500000
O O20 0.159009 0.840992 0.723556
#
# Coordination Sequence:
#
# PCOD8308144 Si02
#       8
#     8   8   4   8   8   8   8   8
#     4  10  21  38  58  78 105 140 176 209 254 313
#     4  11  22  36  57  80 108 140 169 209 262 312
#     4   7  12  24  43  66  94 130 167 211 260 298
#     4  10  19  30  47  68 100 139 165 206 250 300
#     4  10  19  33  51  71  97 133 170 206 248 300
#     4   9  16  28  47  71  98 129 172 217 255 296
#     4  11  24  41  62  85 108 133 168 216 265 314
#     4  10  20  32  48  72 100 132 167 205 252 304
#
# _framework density 17.088936
#
# number of rings (size 3 to 8) (size 9 to 14) (size 15 to 20)
#    0.000    2.067    2.667    2.400    0.000    2.533 
#    0.000    1.667    0.000    0.000    0.000    1.867 
#    0.000    0.000    0.000    0.000    0.000   80.000 
#
# Total GULP energy -743370.939148 kJ/mol
# GULP energy per Si atom -12389.515652 kJ/mol
# Density = 1.705004 g / cm^3
# Si number density = 17.088936 Si / 1000 Ang^3
#
#
#
# Elastic Constant Matrix: (Units=GPa)
#
#
# Indices 1 2 3 4 5 6 
#
# 1 79.7230 43.3364 35.7900 0.0000 0.0000 0.0000
# 2 43.3364 79.7213 35.7912 0.0000 0.0000 0.0000
# 3 35.7900 35.7912 65.0209 0.0000 0.0000 0.0000
# 4 0.0000 0.0000 0.0000 21.6922 0.0000 0.0000
# 5 0.0000 0.0000 0.0000 0.0000 21.6923 0.0000
# 6 0.0000 0.0000 0.0000 0.0000 0.0000 21.6781
#
#
#
# Elastic Compliance Matrix: (Units=1/GPa)
#
#
# Indices 1 2 3 4 5 6 
#
# 1 0.019718 -0.007765 -0.006579 0.000000 0.000000 0.000000
# 2 -0.007765 0.019719 -0.006580 0.000000 0.000000 0.000000
# 3 -0.006579 -0.006580 0.022623 0.000000 0.000000 0.000000
# 4 0.000000 0.000000 0.000000 0.046100 0.000000 0.000000
# 5 0.000000 0.000000 0.000000 0.000000 0.046099 0.000000
# 6 0.000000 0.000000 0.000000 0.000000 0.000000 0.046129
#
#
# Mechanical properties :
#
#
# Convention : Reuss Voigt Hill
#
# Bulk Modulus (GPa) = 49.47740 50.47782 49.97761
# Shear Modulus (GPa) = 20.08236 20.31569 20.19903
#
# Velocity S-wave (km/s) = 3.43179 3.45167 3.44174
# Velocity P-wave (km/s) = 6.68720 6.74446 6.71589
#
# Compressibility (1/GPa) = 0.02021125
#
# Stress axis : x y z
#
# Youngs Moduli (GPa) = 50.71530 50.71264 44.20210
#
# Poissons Ratio (x) = 0.39378 0.29082
# Poissons Ratio (y) = 0.39380 0.29087
# Poissons Ratio (z) = 0.33367 0.33371
#
# Static dielectric constant tensor:
#      x y z
#    x 3.182150 0.000000 0.000000 
#    y 0.000000 3.182150 0.000000 
#    z 0.000000 0.000000 3.269070 
# 
# 
# High freq. dielectric constant tensor:
#      x y z
#    x 1.652150 0.000000 0.000000 
#    y 0.000000 1.652150 0.000000 
#    z 0.000000 0.000000 1.648150 
# 
# From -- ./inp_files/4261.got.cif
#   From: 2010.03.12/outbox.cif.g09.slc.cpg/sg111_3_cif.got.tgz:4261.got - 2010.04.14 01:59:48.
