data_PCOD8308190
_publ_section_title
;
Structure prediction by ZEFSAII (Michael W. Deem and Ramdas Pophale) SiO2 
 PCOD8308190
Probable space group: P -4 2 M 
;
_chemical_formula_sum "Si O2"
_cell_formula_units_Z 52
_cell_length_a 17.879096
_cell_length_b 17.879096
_cell_length_c 8.848555
_cell_angle_alpha 90.000000
_cell_angle_beta 90.000000
_cell_angle_gamma 90.000000
_cell_volume 2828.547441
_symmetry_space_group_name_H-M "P -4 2 M "
_symmetry_group_IT_number 111
_symmetry_cell_setting 'tetragonal'
loop_
_space_group_symop_operation_xyz
x,y,z
y,-x,-z
-x,-y,z
-y,x,-z
x,-y,-z
-x,y,-z
-y,-x,z
y,x,z
loop_
_atom_site_type_symbol
_atom_site_label
_atom_site_fract_x
_atom_site_fract_y
_atom_site_fract_z
Si Si1 0.800173 0.320335 0.974246
Si Si2 0.000000 0.122487 0.000000
Si Si3 0.185996 0.614957 0.290119
Si Si4 0.420717 0.696431 0.514760
Si Si5 0.445857 0.826396 0.751244
Si Si6 0.654438 0.079243 0.559627
Si Si7 0.216750 0.904070 0.785456
O O1 0.721626 0.278375 0.940183
O O2 0.799371 0.404063 0.903528
O O3 0.868406 0.271630 0.910277
O O4 0.812773 0.327464 0.152514
O O5 0.975941 0.175216 0.859168
O O6 0.070391 0.070391 0.950384
O O7 0.270164 0.605361 0.353578
O O8 0.156650 0.533847 0.230389
O O9 0.135656 0.653004 0.418753
O O10 0.500000 0.653480 0.500000
O O11 0.360230 0.639771 0.580472
O O12 0.432396 0.763983 0.627056
O O13 0.406102 0.900478 0.687780
O O14 0.736702 0.074459 0.635686
O O15 0.629161 0.000000 0.500000
O O16 0.155774 0.844227 0.731253
#
# Coordination Sequence:
#
# PCOD8308190 Si02
#       7
#     8   4   8   8   8   8   8
#     4  10  19  32  53  79 104 134 173 223 266 308
#     4   9  18  36  62  82 103 138 174 212 263 328
#     4  10  20  32  51  76 102 138 178 218 262 319
#     4   9  17  30  48  70  98 132 171 214 260 313
#     4   9  19  35  50  70 103 141 178 212 264 319
#     4  10  21  35  53  75 105 140 174 217 263 314
#     4   9  20  36  55  80 108 135 169 211 263 314
#
# _framework density 18.383994000000001
#
# number of rings (size 3 to 8) (size 9 to 14) (size 15 to 20)
#    0.000    2.538    0.000    2.769    2.154    5.692 
#    0.000    0.769    0.000    1.846    0.000    0.000 
#    0.000   11.077    0.000    0.000    0.000    0.000 
#
# Total GULP energy -644547.032272 kJ/mol
# GULP energy per Si atom -12395.135236 kJ/mol
# Density = 1.834215 g / cm^3
# Si number density = 18.383994 Si / 1000 Ang^3
#
#
#
# Elastic Constant Matrix: (Units=GPa)
#
#
# Indices 1 2 3 4 5 6 
#
# 1 85.8204 42.1560 30.1018 0.0000 0.0000 0.0000
# 2 42.1560 85.8167 30.1005 0.0000 0.0000 0.0000
# 3 30.1018 30.1005 88.8929 0.0000 0.0000 0.0000
# 4 0.0000 0.0000 0.0000 22.8128 0.0000 0.0000
# 5 0.0000 0.0000 0.0000 0.0000 22.8145 0.0000
# 6 0.0000 0.0000 0.0000 0.0000 0.0000 17.2217
#
#
#
# Elastic Compliance Matrix: (Units=1/GPa)
#
#
# Indices 1 2 3 4 5 6 
#
# 1 0.016098 -0.006804 -0.003147 0.000000 0.000000 0.000000
# 2 -0.006804 0.016099 -0.003147 0.000000 0.000000 0.000000
# 3 -0.003147 -0.003147 0.013381 0.000000 0.000000 0.000000
# 4 0.000000 0.000000 0.000000 0.043835 0.000000 0.000000
# 5 0.000000 0.000000 0.000000 0.000000 0.043832 0.000000
# 6 0.000000 0.000000 0.000000 0.000000 0.000000 0.058066
#
#
# Mechanical properties :
#
#
# Convention : Reuss Voigt Hill
#
# Bulk Modulus (GPa) = 51.59735 51.69404 51.64570
# Shear Modulus (GPa) = 22.32441 23.11456 22.71949
#
# Velocity S-wave (km/s) = 3.48852 3.54972 3.51925
# Velocity P-wave (km/s) = 6.65986 6.70677 6.68336
#
# Compressibility (1/GPa) = 0.01938084
#
# Stress axis : x y z
#
# Youngs Moduli (GPa) = 62.11762 62.11533 74.73258
#
# Poissons Ratio (x) = 0.42264 0.23522
# Poissons Ratio (y) = 0.42266 0.23521
# Poissons Ratio (z) = 0.19551 0.19550
#
# Static dielectric constant tensor:
#      x y z
#    x 3.489080 0.000000 0.000000 
#    y 0.000000 3.489070 0.000000 
#    z 0.000000 0.000000 3.362460 
# 
# 
# High freq. dielectric constant tensor:
#      x y z
#    x 1.707790 0.000000 0.000000 
#    y 0.000000 1.707790 0.000000 
#    z 0.000000 0.000000 1.704260 
# 
# From -- ./inp_files/1827.got.cif
#   From: 2010.03.12/outbox.cif.g09.slc.cpg/sg111_1_cif.got.tgz:1827.got - 2010.04.14 01:59:48.
