data_PCOD8308828
_publ_section_title
;
Structure prediction by ZEFSAII (Michael W. Deem and Ramdas Pophale) SiO2 
 PCOD8308828
Probable space group: P -4 21 C
;
_chemical_formula_sum "Si O2"
_cell_formula_units_Z 54
_cell_length_a 11.611442
_cell_length_b 11.611442
_cell_length_c 21.062133
_cell_angle_alpha 90.000000
_cell_angle_beta 90.000000
_cell_angle_gamma 90.000000
_cell_volume 2839.714410
_symmetry_space_group_name_H-M "P -4 21 C"
_symmetry_group_IT_number 114
_symmetry_cell_setting 'tetragonal'
loop_
_space_group_symop_operation_xyz
x,y,z
y,-x,-z
-x,-y,z
-y,x,-z
1/2+x,1/2-y,1/2-z
1/2-x,1/2+y,1/2-z
1/2-y,1/2-x,1/2+z
1/2+y,1/2+x,1/2+z
loop_
_atom_site_type_symbol
_atom_site_label
_atom_site_fract_x
_atom_site_fract_y
_atom_site_fract_z
Si Si1 0.718512 0.888444 0.314048
Si Si2 0.058324 0.879099 0.797797
Si Si3 0.793104 0.696290 0.997000
Si Si4 0.500000 0.500000 0.000000
Si Si5 0.812032 0.155596 0.127791
Si Si6 0.500000 0.000000 0.332032
Si Si7 0.245695 0.444765 0.611993
Si Si8 0.737357 0.453133 0.043195
O O1 0.822667 0.928241 0.270953
O O2 0.715761 0.749467 0.316970
O O3 0.601031 0.947413 0.287193
O O4 0.719117 0.937391 0.385620
O O5 0.184538 0.886916 0.829528
O O6 0.971492 0.808269 0.842624
O O7 0.000000 0.000000 0.783683
O O8 0.865336 0.762516 0.050417
O O9 0.800570 0.558593 0.008140
O O10 0.846031 0.716759 0.927362
O O11 0.663648 0.749570 0.998313
O O12 0.603188 0.482053 0.048994
O O13 0.934438 0.191565 0.096918
O O14 0.457339 0.890506 0.374247
#
# Coordination Sequence:
#
# PCOD8308828 Si02
#       8
#     8   8   8   2   8   4   8   8
#     4  10  20  36  60  80 120 155 190 242 297 353
#     4  10  23  41  59  88 114 153 211 245 294 358
#     4  10  19  36  58  85 122 153 197 246 300 352
#     4   8  16  28  52  80 112 124 192 238 272 340
#     4   9  22  38  56  89 116 152 202 255 290 356
#     4  10  20  38  58  86 110 158 194 222 298 362
#     4  10  21  38  61  82 115 158 195 242 300 351
#     4   9  18  33  54  87 113 152 188 236 292 355
#
# _framework density 19.015996000000001
#
# number of rings (size 3 to 8) (size 9 to 14) (size 15 to 20)
#    0.000    2.370    1.481    0.000    5.185    0.000 
#    0.000    1.481    0.000    0.000    0.000    0.000 
#    0.000    0.000    0.000    0.000    0.000    0.000 
#
# Total GULP energy -669231.119503 kJ/mol
# GULP energy per Si atom -12393.168880 kJ/mol
# Density = 1.897272 g / cm^3
# Si number density = 19.015996 Si / 1000 Ang^3
#
#
#
# Elastic Constant Matrix: (Units=GPa)
#
#
# Indices 1 2 3 4 5 6 
#
# 1 96.7034 36.4772 50.9975 0.0000 0.0000 0.0000
# 2 36.4772 96.7034 50.9975 0.0000 0.0000 0.0000
# 3 50.9975 50.9975 82.0392 0.0000 0.0000 0.0000
# 4 0.0000 0.0000 0.0000 27.0925 0.0000 0.0000
# 5 0.0000 0.0000 0.0000 0.0000 27.0925 0.0000
# 6 0.0000 0.0000 0.0000 0.0000 0.0000 24.2036
#
#
#
# Elastic Compliance Matrix: (Units=1/GPa)
#
#
# Indices 1 2 3 4 5 6 
#
# 1 0.015468 -0.001136 -0.008909 0.000000 0.000000 0.000000
# 2 -0.001136 0.015468 -0.008909 0.000000 0.000000 0.000000
# 3 -0.008909 -0.008909 0.023265 0.000000 0.000000 0.000000
# 4 0.000000 0.000000 0.000000 0.036911 0.000000 0.000000
# 5 0.000000 0.000000 0.000000 0.000000 0.036911 0.000000
# 6 0.000000 0.000000 0.000000 0.000000 0.000000 0.041316
#
#
# Mechanical properties :
#
#
# Convention : Reuss Voigt Hill
#
# Bulk Modulus (GPa) = 61.37668 61.37673 61.37670
# Shear Modulus (GPa) = 23.50999 24.80932 24.15966
#
# Velocity S-wave (km/s) = 3.51996 3.61592 3.56826
# Velocity P-wave (km/s) = 6.99046 7.05547 7.02304
#
# Compressibility (1/GPa) = 0.01629283
#
# Stress axis : x y z
#
# Youngs Moduli (GPa) = 64.65122 64.65122 42.98321
#
# Poissons Ratio (x) = 0.07347 0.38292
# Poissons Ratio (y) = 0.07347 0.38292
# Poissons Ratio (z) = 0.57595 0.57595
#
# Static dielectric constant tensor:
#      x y z
#    x 3.685780 0.000000 0.000000 
#    y 0.000000 3.685780 0.000000 
#    z 0.000000 0.000000 3.109610 
# 
# 
# High freq. dielectric constant tensor:
#      x y z
#    x 1.747390 0.000000 0.000000 
#    y 0.000000 1.747390 0.000000 
#    z 0.000000 0.000000 1.707180 
# 
# From -- ./inp_files/3184.got.cif
#   From: 2010.03.12/outbox.cif.g09.slc.cpg/sg114_2_cif.got.tgz:3184.got - 2010.04.14 02:08:34.
