data_PCOD8308484
_publ_section_title
;
Structure prediction by ZEFSAII (Michael W. Deem and Ramdas Pophale) SiO2 
 PCOD8308484
Probable space group: P -4 2 C
;
_chemical_formula_sum "Si O2"
_cell_formula_units_Z 28
_cell_length_a 10.481049
_cell_length_b 10.481049
_cell_length_c 11.337837
_cell_angle_alpha 90.000000
_cell_angle_beta 90.000000
_cell_angle_gamma 90.000000
_cell_volume 1245.488471
_symmetry_space_group_name_H-M "P -4 2 C"
_symmetry_group_IT_number 112
_symmetry_cell_setting 'tetragonal'
loop_
_space_group_symop_operation_xyz
x,y,z
y,-x,-z
-x,-y,z
-y,x,-z
x,-y,1/2-z
-x,y,1/2-z
-y,-x,1/2+z
y,x,1/2+z
loop_
_atom_site_type_symbol
_atom_site_label
_atom_site_fract_x
_atom_site_fract_y
_atom_site_fract_z
Si Si1 0.000000 0.500000 0.951243
Si Si2 0.000000 0.000000 0.500000
Si Si3 0.000000 0.297564 0.750000
Si Si4 0.500000 0.500000 0.000000
Si Si5 0.459752 0.771735 0.615906
Si Si6 0.884675 0.203543 0.172282
O O1 0.013189 0.622602 0.869107
O O2 0.125597 0.472364 0.030293
O O3 0.943792 0.887544 0.423838
O O4 0.874450 0.210844 0.755638
O O5 0.491143 0.373409 0.920160
O O6 0.500000 0.793475 0.750000
O O7 0.310191 0.801874 0.606487
O O8 0.000000 0.263054 0.250000
#
# Coordination Sequence:
#
# PCOD8308484 Si02
#       6
#     4   2   4   2   8   8
#     4  11  25  46  76 110 151 207 250 312 376 455
#     4  12  22  44  72 122 148 196 238 308 384 450
#     4  11  23  44  72 114 155 195 248 308 378 449
#     4  12  30  52  76 114 152 202 252 320 390 464
#     4  12  28  50  77 109 150 200 257 314 380 460
#     4  12  24  43  73 109 150 188 246 306 373 450
#
# _framework density 22.481141999999998
#
# number of rings (size 3 to 8) (size 9 to 14) (size 15 to 20)
#    0.000    0.286    2.857    6.000    4.000    0.000 
#    0.000    0.000    0.000    0.000    0.000    0.000 
#    0.000    0.000    0.000    0.000    0.000    0.000 
#
# Total GULP energy -347253.279233 kJ/mol
# GULP energy per Si atom -12401.902830 kJ/mol
# Density = 2.242997 g / cm^3
# Si number density = 22.481142 Si / 1000 Ang^3
#
#
#
# Elastic Constant Matrix: (Units=GPa)
#
#
# Indices 1 2 3 4 5 6 
#
# 1 106.7066 2.4084 49.0668 0.0000 0.0000 0.0000
# 2 2.4084 106.7066 49.0668 0.0000 0.0000 0.0000
# 3 49.0668 49.0668 145.5969 0.0000 0.0000 0.0000
# 4 0.0000 0.0000 0.0000 48.1337 0.0000 0.0000
# 5 0.0000 0.0000 0.0000 0.0000 48.1337 0.0000
# 6 0.0000 0.0000 0.0000 0.0000 0.0000 38.8251
#
#
#
# Elastic Compliance Matrix: (Units=1/GPa)
#
#
# Indices 1 2 3 4 5 6 
#
# 1 0.011369 0.001781 -0.004432 0.000000 0.000000 0.000000
# 2 0.001781 0.011369 -0.004432 0.000000 0.000000 0.000000
# 3 -0.004432 -0.004432 0.009855 0.000000 0.000000 0.000000
# 4 0.000000 0.000000 0.000000 0.020775 0.000000 0.000000
# 5 0.000000 0.000000 0.000000 0.000000 0.020775 0.000000
# 6 0.000000 0.000000 0.000000 0.000000 0.000000 0.025757
#
#
# Mechanical properties :
#
#
# Convention : Reuss Voigt Hill
#
# Bulk Modulus (GPa) = 54.26201 62.23266 58.24734
# Shear Modulus (GPa) = 41.59440 44.24971 42.92206
#
# Velocity S-wave (km/s) = 4.30605 4.44137 4.37423
# Velocity P-wave (km/s) = 6.99370 7.35141 7.17479
#
# Compressibility (1/GPa) = 0.01842910
#
# Stress axis : x y z
#
# Youngs Moduli (GPa) = 87.95758 87.95758 101.46827
#
# Poissons Ratio (x) = -0.15667 0.44968
# Poissons Ratio (y) = -0.15667 0.44968
# Poissons Ratio (z) = 0.38980 0.38980
#
# Static dielectric constant tensor:
#      x y z
#    x 4.264000 0.000000 0.000000 
#    y 0.000000 4.264000 0.000000 
#    z 0.000000 0.000000 4.183840 
# 
# 
# High freq. dielectric constant tensor:
#      x y z
#    x 1.897790 0.000000 0.000000 
#    y 0.000000 1.897790 0.000000 
#    z 0.000000 0.000000 1.900150 
# 
# From -- ./inp_files/2185.got.cif
#   From: 2010.03.12/outbox.cif.g09.slc.cpg/sg112_2_cif.got.tgz:2185.got - 2010.04.14 02:02:48.
