data_PCOD8308246
_publ_section_title
;
Structure prediction by ZEFSAII (Michael W. Deem and Ramdas Pophale) SiO2 
 PCOD8308246
Probable space group: P -4 2 M 
;
_chemical_formula_sum "Si O2"
_cell_formula_units_Z 40
_cell_length_a 16.655580
_cell_length_b 16.655580
_cell_length_c 8.834751
_cell_angle_alpha 90.000000
_cell_angle_beta 90.000000
_cell_angle_gamma 90.000000
_cell_volume 2450.833655
_symmetry_space_group_name_H-M "P -4 2 M "
_symmetry_group_IT_number 111
_symmetry_cell_setting 'tetragonal'
loop_
_space_group_symop_operation_xyz
x,y,z
y,-x,-z
-x,-y,z
-y,x,-z
x,-y,-z
-x,y,-z
-y,-x,z
y,x,z
loop_
_atom_site_type_symbol
_atom_site_label
_atom_site_fract_x
_atom_site_fract_y
_atom_site_fract_z
Si Si1 0.599043 0.919900 0.676034
Si Si2 0.644700 0.770233 0.828726
Si Si3 0.410780 0.902430 0.666904
Si Si4 0.386665 0.259229 0.162730
Si Si5 0.341992 0.529508 0.328603
O O1 0.649968 0.864087 0.789367
O O2 0.505882 0.897457 0.682972
O O3 0.623432 0.902421 0.503293
O O4 0.616366 0.010727 0.732206
O O5 0.734439 0.734439 0.838551
O O6 0.595807 0.727031 0.693655
O O7 0.597001 0.756235 0.985312
O O8 0.376772 0.826141 0.754938
O O9 0.301423 0.301423 0.187490
O O10 0.454667 0.320613 0.221830
O O11 0.341375 0.500000 0.500000
O O12 0.428751 0.571250 0.290009
#
# Coordination Sequence:
#
# PCOD8308246 Si02
#       5
#     8   8   8   8   8
#     4   9  17  32  51  72  95 117 156 197 235 284
#     4  10  21  34  49  70  97 124 153 197 242 284
#     4   9  18  31  51  73  92 120 155 198 236 278
#     4  11  22  34  48  69  97 125 158 197 239 282
#     4  11  22  35  49  64  85 120 168 209 241 277
#
# _framework density 16.320978
#
# number of rings (size 3 to 8) (size 9 to 14) (size 15 to 20)
#    0.000    2.000    2.000    3.600    0.000    4.600 
#    0.000    3.000    0.000    7.200    0.000    0.000 
#    0.000    0.800    0.000    8.800    0.000    6.400 
#
# Total GULP energy -495680.279210 kJ/mol
# GULP energy per Si atom -12392.006980 kJ/mol
# Density = 1.628383 g / cm^3
# Si number density = 16.320978 Si / 1000 Ang^3
#
#
#
# Elastic Constant Matrix: (Units=GPa)
#
#
# Indices 1 2 3 4 5 6 
#
# 1 94.8308 52.0366 50.7910 0.0000 0.0000 0.0000
# 2 52.0366 94.8318 50.7905 0.0000 0.0000 0.0000
# 3 50.7910 50.7905 75.9281 0.0000 0.0000 0.0000
# 4 0.0000 0.0000 0.0000 25.0882 0.0000 0.0000
# 5 0.0000 0.0000 0.0000 0.0000 25.0882 0.0000
# 6 0.0000 0.0000 0.0000 0.0000 0.0000 15.1269
#
#
#
# Elastic Compliance Matrix: (Units=1/GPa)
#
#
# Indices 1 2 3 4 5 6 
#
# 1 0.018020 -0.005348 -0.008477 0.000000 0.000000 0.000000
# 2 -0.005348 0.018019 -0.008476 0.000000 0.000000 0.000000
# 3 -0.008477 -0.008476 0.024511 0.000000 0.000000 0.000000
# 4 0.000000 0.000000 0.000000 0.039859 0.000000 0.000000
# 5 0.000000 0.000000 0.000000 0.000000 0.039859 0.000000
# 6 0.000000 0.000000 0.000000 0.000000 0.000000 0.066108
#
#
# Mechanical properties :
#
#
# Convention : Reuss Voigt Hill
#
# Bulk Modulus (GPa) = 62.70333 63.64743 63.17538
# Shear Modulus (GPa) = 19.50889 20.52551 20.01720
#
# Velocity S-wave (km/s) = 3.46110 3.55013 3.50590
# Velocity P-wave (km/s) = 7.38069 7.47573 7.42836
#
# Compressibility (1/GPa) = 0.01594812
#
# Stress axis : x y z
#
# Youngs Moduli (GPa) = 55.49470 55.49623 40.79858
#
# Poissons Ratio (x) = 0.29679 0.34584
# Poissons Ratio (y) = 0.29678 0.34582
# Poissons Ratio (z) = 0.47041 0.47040
#
# Static dielectric constant tensor:
#      x y z
#    x 3.074610 0.000000 0.000000 
#    y 0.000000 3.074600 0.000000 
#    z 0.000000 0.000000 3.137470 
# 
# 
# High freq. dielectric constant tensor:
#      x y z
#    x 1.605250 0.000000 0.000000 
#    y 0.000000 1.605250 0.000000 
#    z 0.000000 0.000000 1.633480 
# 
# From -- ./inp_files/1675.got.cif
#   From: 2010.03.12/outbox.cif.g09.slc.cpg/sg111_1_cif.got.tgz:1675.got - 2010.04.14 01:59:48.
