data_PCOD8308099
_publ_section_title
;
Structure prediction by ZEFSAII (Michael W. Deem and Ramdas Pophale) SiO2 
 PCOD8308099
Probable space group: P -4 2 M 
;
_chemical_formula_sum "Si O2"
_cell_formula_units_Z 48
_cell_length_a 18.994647
_cell_length_b 18.994647
_cell_length_c 10.409933
_cell_angle_alpha 90.000000
_cell_angle_beta 90.000000
_cell_angle_gamma 90.000000
_cell_volume 3755.868585
_symmetry_space_group_name_H-M "P -4 2 M "
_symmetry_group_IT_number 111
_symmetry_cell_setting 'tetragonal'
loop_
_space_group_symop_operation_xyz
x,y,z
y,-x,-z
-x,-y,z
-y,x,-z
x,-y,-z
-x,y,-z
-y,-x,z
y,x,z
loop_
_atom_site_type_symbol
_atom_site_label
_atom_site_fract_x
_atom_site_fract_y
_atom_site_fract_z
Si Si1 0.076893 0.416229 0.645401
Si Si2 0.779391 0.416595 0.748204
Si Si3 0.416595 0.779391 0.251796
Si Si4 0.076893 0.416229 0.354599
Si Si5 0.694214 0.582861 0.500000
Si Si6 0.301901 0.416020 0.000000
O O1 0.140139 0.387501 0.735948
O O2 0.088873 0.389142 0.500000
O O3 0.078780 0.500000 0.644301
O O4 0.000000 0.390322 0.696191
O O5 0.781060 0.500000 0.750769
O O6 0.859861 0.387501 0.735948
O O7 0.736023 0.390795 0.624969
O O8 0.742790 0.389534 0.877672
O O9 0.390795 0.736023 0.375031
O O10 0.389534 0.742790 0.122328
O O11 0.682248 0.500000 0.500000
O O12 0.617456 0.617456 0.500000
O O13 0.377679 0.377679 1.000000
O O14 0.315733 0.500000 0.000000
#
# Coordination Sequence:
#
# PCOD8308099 Si02
#       6
#     8   8   8   8   8   8
#     4   8  12  20  37  58  75  90 107 129 167 223
#     4   9  16  27  39  53  70  88 112 145 186 228
#     4   9  16  27  39  53  70  88 112 145 186 228
#     4   8  12  20  37  58  75  90 107 129 167 223
#     4  10  18  27  39  51  65  87 119 159 200 234
#     4  10  20  31  41  51  67  93 125 163 204 236
#
# _framework density 12.779999999999999
#
# number of rings (size 3 to 8) (size 9 to 14) (size 15 to 20)
#    0.000    3.000    1.667    2.000    0.000    0.333 
#    0.000    0.833    0.000   11.000    0.000    0.000 
#    0.000    0.000    0.000    0.000    0.000    0.000 
#
# Total GULP energy -594690.080890 kJ/mol
# GULP energy per Si atom -12389.376685 kJ/mol
# Density = 1.275091 g / cm^3
# Si number density = 12.780000 Si / 1000 Ang^3
#
#
#
# Elastic Constant Matrix: (Units=GPa)
#
#
# Indices 1 2 3 4 5 6 
#
# 1 58.8729 31.8416 32.9794 0.0000 0.0000 0.0000
# 2 31.8416 58.8729 32.9794 0.0000 0.0000 0.0000
# 3 32.9794 32.9794 97.5099 0.0000 0.0000 0.0000
# 4 0.0000 0.0000 0.0000 11.2591 0.0000 0.0000
# 5 0.0000 0.0000 0.0000 0.0000 11.2591 0.0000
# 6 0.0000 0.0000 0.0000 0.0000 0.0000 1.5909
#
#
#
# Elastic Compliance Matrix: (Units=1/GPa)
#
#
# Indices 1 2 3 4 5 6 
#
# 1 0.025806 -0.011188 -0.004944 0.000000 0.000000 0.000000
# 2 -0.011188 0.025806 -0.004944 0.000000 0.000000 0.000000
# 3 -0.004944 -0.004944 0.013600 0.000000 0.000000 0.000000
# 4 0.000000 0.000000 0.000000 0.088817 0.000000 0.000000
# 5 0.000000 0.000000 0.000000 0.000000 0.088817 0.000000
# 6 0.000000 0.000000 0.000000 0.000000 0.000000 0.628590
#
#
# Mechanical properties :
#
#
# Convention : Reuss Voigt Hill
#
# Bulk Modulus (GPa) = 43.36513 45.65072 44.50792
# Shear Modulus (GPa) = 5.42726 12.65215 9.03970
#
# Velocity S-wave (km/s) = 2.06298 3.14983 2.66246
# Velocity P-wave (km/s) = 6.29922 7.00190 6.65984
#
# Compressibility (1/GPa) = 0.02306000
#
# Stress axis : x y z
#
# Youngs Moduli (GPa) = 38.75012 38.75012 73.53046
#
# Poissons Ratio (x) = 0.43353 0.36355
# Poissons Ratio (y) = 0.43353 0.36355
# Poissons Ratio (z) = 0.19159 0.19159
#
# Static dielectric constant tensor:
#      x y z
#    x 2.502660 0.000000 0.000000 
#    y 0.000000 2.502660 0.000000 
#    z 0.000000 0.000000 2.821480 
# 
# 
# High freq. dielectric constant tensor:
#      x y z
#    x 1.451410 0.000000 0.000000 
#    y 0.000000 1.451410 0.000000 
#    z 0.000000 0.000000 1.487970 
# 
# From -- ./inp_files/1904.got.cif
#   From: 2010.03.12/outbox.cif.g09.slc.cpg/sg111_1_cif.got.tgz:1904.got - 2010.04.14 01:59:48.
