data_PCOD8308286
_publ_section_title
;
Structure prediction by ZEFSAII (Michael W. Deem and Ramdas Pophale) SiO2 
 PCOD8308286
Probable space group: P -4 2 M 
;
_chemical_formula_sum "Si O2"
_cell_formula_units_Z 56
_cell_length_a 11.800175
_cell_length_b 11.800175
_cell_length_c 29.444193
_cell_angle_alpha 90.000000
_cell_angle_beta 90.000000
_cell_angle_gamma 90.000000
_cell_volume 4099.931039
_symmetry_space_group_name_H-M "P -4 2 M "
_symmetry_group_IT_number 111
_symmetry_cell_setting 'tetragonal'
loop_
_space_group_symop_operation_xyz
x,y,z
y,-x,-z
-x,-y,z
-y,x,-z
x,-y,-z
-x,y,-z
-y,-x,z
y,x,z
loop_
_atom_site_type_symbol
_atom_site_label
_atom_site_fract_x
_atom_site_fract_y
_atom_site_fract_z
Si Si1 0.682104 0.868031 0.701528
Si Si2 0.498448 0.131076 0.372527
Si Si3 0.128907 0.685401 0.700947
Si Si4 0.500181 0.684361 0.552351
Si Si5 0.130400 0.498262 0.224389
Si Si6 0.683939 0.493300 0.952339
Si Si7 0.497783 0.687886 0.146464
O O1 0.794330 0.794330 0.701707
O O2 0.607920 0.838423 0.657415
O O3 0.610056 0.842214 0.746597
O O4 0.720639 0.998011 0.700300
O O5 0.386362 0.159543 0.343762
O O6 0.499370 0.202827 0.418189
O O7 0.500000 0.000000 0.386575
O O8 0.200869 0.799132 0.701832
O O9 0.155902 0.611803 0.745408
O O10 0.500000 0.721432 0.500000
O O11 0.389639 0.610362 0.563653
O O12 0.611787 0.611787 0.563621
O O13 0.209158 0.493628 0.180796
O O14 0.000000 0.500000 0.208501
O O15 0.631945 0.368056 0.948821
O O16 0.583765 0.583765 0.957244
O O17 0.745950 0.514015 0.904003
O O18 0.757443 0.500000 0.000000
O O19 0.387076 0.612925 0.157307
O O20 0.608513 0.608513 0.149743
#
# Coordination Sequence:
#
# PCOD8308286 Si02
#       7
#     8   8   8   8   8   8   8
#     4   9  17  28  41  56  74  97 124 152 181 214
#     4   9  17  28  42  59  78 100 122 147 183 221
#     4   9  17  28  41  56  74  97 124 152 181 214
#     4   9  17  28  42  60  80 101 125 152 179 208
#     4   9  17  27  37  51  74 101 123 145 178 219
#     4   7  10  17  29  47  70  91 112 142 179 214
#     4   9  15  22  36  56  73  91 118 152 184 212
#
# _framework density 13.658766
#
# number of rings (size 3 to 8) (size 9 to 14) (size 15 to 20)
#    0.000    3.286    0.000    5.143    0.000    0.571 
#    0.000    0.000    0.000    7.286    0.000    0.000 
#    0.000    0.000    0.000   26.571    0.000    0.000 
#
# Total GULP energy -693853.188954 kJ/mol
# GULP energy per Si atom -12390.235517 kJ/mol
# Density = 1.362768 g / cm^3
# Si number density = 13.658766 Si / 1000 Ang^3
#
#
#
# Elastic Constant Matrix: (Units=GPa)
#
#
# Indices 1 2 3 4 5 6 
#
# 1 73.7781 40.6839 50.8712 0.0000 0.0000 0.0000
# 2 40.6839 73.7760 50.8707 0.0000 0.0000 0.0000
# 3 50.8712 50.8707 118.4422 0.0000 0.0000 0.0000
# 4 0.0000 0.0000 0.0000 18.3538 0.0000 0.0000
# 5 0.0000 0.0000 0.0000 0.0000 18.3479 0.0000
# 6 0.0000 0.0000 0.0000 0.0000 0.0000 18.6061
#
#
#
# Elastic Compliance Matrix: (Units=1/GPa)
#
#
# Indices 1 2 3 4 5 6 
#
# 1 0.022174 -0.008043 -0.006069 0.000000 0.000000 0.000000
# 2 -0.008043 0.022175 -0.006070 0.000000 0.000000 0.000000
# 3 -0.006069 -0.006070 0.013657 0.000000 0.000000 0.000000
# 4 0.000000 0.000000 0.000000 0.054485 0.000000 0.000000
# 5 0.000000 0.000000 0.000000 0.000000 0.054502 0.000000
# 6 0.000000 0.000000 0.000000 0.000000 0.000000 0.053746
#
#
# Mechanical properties :
#
#
# Convention : Reuss Voigt Hill
#
# Bulk Modulus (GPa) = 56.68341 61.20531 58.94436
# Shear Modulus (GPa) = 18.72773 19.29959 19.01366
#
# Velocity S-wave (km/s) = 3.70687 3.76304 3.73506
# Velocity P-wave (km/s) = 7.74022 7.98675 7.86445
#
# Compressibility (1/GPa) = 0.01764185
#
# Stress axis : x y z
#
# Youngs Moduli (GPa) = 45.09707 45.09563 73.22414
#
# Poissons Ratio (x) = 0.36271 0.44443
# Poissons Ratio (y) = 0.36272 0.44445
# Poissons Ratio (z) = 0.27372 0.27372
#
# Static dielectric constant tensor:
#      x y z
#    x 2.479600 0.000000 0.000000 
#    y 0.000000 2.479610 0.000000 
#    z 0.000000 0.000000 2.826980 
# 
# 
# High freq. dielectric constant tensor:
#      x y z
#    x 1.500990 0.000000 0.000000 
#    y 0.000000 1.500990 0.000000 
#    z 0.000000 0.000000 1.528510 
# 
# From -- ./inp_files/4350.got.cif
#   From: 2010.03.12/outbox.cif.g09.slc.cpg/sg111_3_cif.got.tgz:4350.got - 2010.04.14 01:59:48.
