data_PCOD8308604
_publ_section_title
;
Structure prediction by ZEFSAII (Michael W. Deem and Ramdas Pophale) SiO2 
 PCOD8308604
Probable space group: P -4 21 M 
;
_chemical_formula_sum "Si O2"
_cell_formula_units_Z 56
_cell_length_a 11.911437
_cell_length_b 11.911437
_cell_length_c 20.936218
_cell_angle_alpha 90.000000
_cell_angle_beta 90.000000
_cell_angle_gamma 90.000000
_cell_volume 2970.479421
_symmetry_space_group_name_H-M "P -4 21 M "
_symmetry_group_IT_number 113
_symmetry_cell_setting 'tetragonal'
loop_
_space_group_symop_operation_xyz
x,y,z
y,-x,-z
-x,-y,z
-y,x,-z
1/2+x,1/2-y,-z
1/2-x,1/2+y,-z
1/2-y,1/2-x,z
1/2+y,1/2+x,z
loop_
_atom_site_type_symbol
_atom_site_label
_atom_site_fract_x
_atom_site_fract_y
_atom_site_fract_z
Si Si1 0.705118 0.612148 0.561116
Si Si2 0.368369 0.522030 0.340394
Si Si3 0.822374 0.859048 0.423221
Si Si4 0.979617 0.126384 0.879005
Si Si5 0.186991 0.131902 0.791021
Si Si6 0.317583 0.999721 0.017225
Si Si7 0.559119 0.238387 0.874920
O O1 0.823165 0.676836 0.565327
O O2 0.616769 0.668646 0.609189
O O3 0.721362 0.485432 0.584213
O O4 0.656192 0.613094 0.489892
O O5 0.500000 0.500000 0.337294
O O6 0.318305 0.404395 0.366042
O O7 0.320119 0.557554 0.272460
O O8 0.710930 0.789071 0.419791
O O9 0.849757 0.131204 0.856976
O O10 0.062173 0.153371 0.819393
O O11 0.001015 0.215617 0.933925
O O12 0.000000 0.000000 0.905158
O O13 0.249194 0.250807 0.778952
O O14 0.262463 0.059924 0.839566
O O15 0.406332 0.906332 0.039771
O O16 0.378959 0.121042 0.014260
O O17 0.264871 0.967231 0.949767
O O18 0.629842 0.129842 0.853585
#
# Coordination Sequence:
#
# PCOD8308604 Si02
#       7
#     8   8   8   8   8   8   8
#     4  10  19  34  57  84 118 153 191 237 288 339
#     4  10  20  36  60  83 114 150 193 239 281 344
#     4  10  20  34  56  86 117 152 194 238 284 340
#     4  10  22  36  57  83 112 145 190 245 285 340
#     4  11  23  39  59  84 116 151 191 236 290 348
#     4  10  21  37  57  83 114 150 191 240 298 349
#     4  10  22  37  56  81 114 153 193 235 286 345
#
# _framework density 18.852177000000001
#
# number of rings (size 3 to 8) (size 9 to 14) (size 15 to 20)
#    0.000    1.857    1.429    3.000    4.000    1.714 
#    0.000    0.000    0.000    2.143    0.000    0.000 
#    0.000    0.000    0.000    0.000    0.000    0.000 
#
# Total GULP energy -694278.191059 kJ/mol
# GULP energy per Si atom -12397.824840 kJ/mol
# Density = 1.880927 g / cm^3
# Si number density = 18.852177 Si / 1000 Ang^3
#
#
#
# Elastic Constant Matrix: (Units=GPa)
#
#
# Indices 1 2 3 4 5 6 
#
# 1 81.0288 36.7909 31.7111 0.0000 0.0000 0.0000
# 2 36.7909 81.0278 31.7100 0.0000 0.0000 0.0000
# 3 31.7111 31.7100 79.9506 0.0000 0.0000 0.0000
# 4 0.0000 0.0000 0.0000 23.1161 0.0000 0.0000
# 5 0.0000 0.0000 0.0000 0.0000 23.1170 0.0000
# 6 0.0000 0.0000 0.0000 0.0000 0.0000 23.7341
#
#
#
# Elastic Compliance Matrix: (Units=1/GPa)
#
#
# Indices 1 2 3 4 5 6 
#
# 1 0.016698 -0.005907 -0.004280 0.000000 0.000000 0.000000
# 2 -0.005907 0.016698 -0.004280 0.000000 0.000000 0.000000
# 3 -0.004280 -0.004280 0.015903 0.000000 0.000000 0.000000
# 4 0.000000 0.000000 0.000000 0.043260 0.000000 0.000000
# 5 0.000000 0.000000 0.000000 0.000000 0.043258 0.000000
# 6 0.000000 0.000000 0.000000 0.000000 0.000000 0.042134
#
#
# Mechanical properties :
#
#
# Convention : Reuss Voigt Hill
#
# Bulk Modulus (GPa) = 49.10318 49.15904 49.13111
# Shear Modulus (GPa) = 23.40006 23.44645 23.42326
#
# Velocity S-wave (km/s) = 3.52694 3.53044 3.52869
# Velocity P-wave (km/s) = 6.53366 6.53845 6.53606
#
# Compressibility (1/GPa) = 0.02036528
#
# Stress axis : x y z
#
# Youngs Moduli (GPa) = 59.88589 59.88577 62.88109
#
# Poissons Ratio (x) = 0.35374 0.26916
# Poissons Ratio (y) = 0.35374 0.26914
# Poissons Ratio (z) = 0.25634 0.25632
#
# Static dielectric constant tensor:
#      x y z
#    x 3.479680 0.000000 0.000000 
#    y 0.000000 3.479690 0.000000 
#    z 0.000000 0.000000 3.446640 
# 
# 
# High freq. dielectric constant tensor:
#      x y z
#    x 1.732470 0.000000 0.000000 
#    y 0.000000 1.732470 0.000000 
#    z 0.000000 0.000000 1.726140 
# 
# From -- ./inp_files/2705.got.cif
#   From: 2010.03.12/outbox.cif.g09.slc.cpg/sg113_cif.got.tgz:2705.got - 2010.04.14 02:06:34.
