data_PCOD8308569
_publ_section_title
;
Structure prediction by ZEFSAII (Michael W. Deem and Ramdas Pophale) SiO2 
 PCOD8308569
Probable space group: P -4 21 M 
;
_chemical_formula_sum "Si O2"
_cell_formula_units_Z 64
_cell_length_a 11.865529
_cell_length_b 11.865529
_cell_length_c 25.099135
_cell_angle_alpha 90.000000
_cell_angle_beta 90.000000
_cell_angle_gamma 90.000000
_cell_volume 3533.726755
_symmetry_space_group_name_H-M "P -4 21 M "
_symmetry_group_IT_number 113
_symmetry_cell_setting 'tetragonal'
loop_
_space_group_symop_operation_xyz
x,y,z
y,-x,-z
-x,-y,z
-y,x,-z
1/2+x,1/2-y,-z
1/2-x,1/2+y,-z
1/2-y,1/2-x,z
1/2+y,1/2+x,z
loop_
_atom_site_type_symbol
_atom_site_label
_atom_site_fract_x
_atom_site_fract_y
_atom_site_fract_z
Si Si1 0.102916 0.781583 0.936761
Si Si2 0.912298 0.239337 0.616313
Si Si3 0.745867 0.067013 0.660693
Si Si4 0.481755 0.626190 0.864360
Si Si5 0.355259 0.605132 0.502597
Si Si6 0.173232 0.854080 0.051106
Si Si7 0.499111 0.816586 0.778017
Si Si8 0.666427 0.337307 0.388284
O O1 0.159784 0.659784 0.932067
O O2 0.969842 0.760331 0.938649
O O3 0.138822 0.854278 0.885222
O O4 0.143111 0.847300 0.989187
O O5 0.870216 0.370216 0.627251
O O6 0.840739 0.161781 0.655832
O O7 0.880433 0.221546 0.554286
O O8 0.040909 0.203585 0.628176
O O9 0.624508 0.124508 0.642408
O O10 0.736199 0.028134 0.721114
O O11 0.791776 0.961631 0.627080
O O12 0.500000 0.500000 0.841718
O O13 0.560248 0.649599 0.914879
O O14 0.509689 0.714334 0.818633
O O15 0.478842 0.643633 0.520224
O O16 0.317440 0.677923 0.451876
O O17 0.252080 0.752080 0.069736
O O18 0.617468 0.882533 0.775349
O O19 0.400515 0.900515 0.796895
O O20 0.749607 0.249607 0.359637
#
# Coordination Sequence:
#
# PCOD8308569 Si02
#       8
#     8   8   8   8   8   8   8   8
#     4  10  19  32  50  72 104 142 180 220 262 314
#     4  10  20  35  54  76 106 145 185 227 270 327
#     4  10  21  38  59  79 105 144 185 231 279 329
#     4  10  20  33  55  80 107 143 180 219 265 320
#     4   9  16  30  52  76 104 138 181 224 267 324
#     4  10  19  32  50  72 104 142 180 221 263 313
#     4  10  21  38  58  82 112 139 176 232 285 326
#     4  11  21  33  53  80 110 143 179 226 279 334
#
# _framework density 18.111191999999999
#
# number of rings (size 3 to 8) (size 9 to 14) (size 15 to 20)
#    0.000    2.000    2.500    1.875    0.000    2.250 
#    0.000    0.000    0.000    1.500    0.000    0.000 
#    0.000    6.000    0.000    0.000    0.000    0.000 
#
# Total GULP energy -792962.477416 kJ/mol
# GULP energy per Si atom -12390.038710 kJ/mol
# Density = 1.806997 g / cm^3
# Si number density = 18.111192 Si / 1000 Ang^3
#
#
#
# Elastic Constant Matrix: (Units=GPa)
#
#
# Indices 1 2 3 4 5 6 
#
# 1 83.8655 40.4086 22.3523 0.0000 0.0000 0.0000
# 2 40.4086 83.8654 22.3523 0.0000 0.0000 0.0000
# 3 22.3523 22.3523 62.4429 0.0000 0.0000 0.0000
# 4 0.0000 0.0000 0.0000 17.3304 0.0000 0.0000
# 5 0.0000 0.0000 0.0000 0.0000 17.3326 0.0000
# 6 0.0000 0.0000 0.0000 0.0000 0.0000 32.1405
#
#
#
# Elastic Compliance Matrix: (Units=1/GPa)
#
#
# Indices 1 2 3 4 5 6 
#
# 1 0.016124 -0.006888 -0.003306 0.000000 0.000000 0.000000
# 2 -0.006888 0.016124 -0.003306 0.000000 0.000000 0.000000
# 3 -0.003306 -0.003306 0.018382 0.000000 0.000000 0.000000
# 4 0.000000 0.000000 0.000000 0.057702 0.000000 0.000000
# 5 0.000000 0.000000 0.000000 0.000000 0.057695 0.000000
# 6 0.000000 0.000000 0.000000 0.000000 0.000000 0.031113
#
#
# Mechanical properties :
#
#
# Convention : Reuss Voigt Hill
#
# Bulk Modulus (GPa) = 42.32087 44.48893 43.40490
# Shear Modulus (GPa) = 21.55028 23.03141 22.29084
#
# Velocity S-wave (km/s) = 3.45322 3.56991 3.51205
# Velocity P-wave (km/s) = 6.27037 6.45058 6.36112
#
# Compressibility (1/GPa) = 0.02362901
#
# Stress axis : x y z
#
# Youngs Moduli (GPa) = 62.02061 62.02051 54.40219
#
# Poissons Ratio (x) = 0.42717 0.17986
# Poissons Ratio (y) = 0.42718 0.17986
# Poissons Ratio (z) = 0.20505 0.20505
#
# Static dielectric constant tensor:
#      x y z
#    x 3.395120 0.000000 0.000000 
#    y 0.000000 3.395120 0.000000 
#    z 0.000000 0.000000 3.146270 
# 
# 
# High freq. dielectric constant tensor:
#      x y z
#    x 1.703210 0.000000 0.000000 
#    y 0.000000 1.703210 0.000000 
#    z 0.000000 0.000000 1.682670 
# 
# From -- ./inp_files/2921.got.cif
#   From: 2010.03.12/outbox.cif.g09.slc.cpg/sg113_cif.got.tgz:2921.got - 2010.04.14 02:06:34.
