data_PCOD8308264
_publ_section_title
;
Structure prediction by ZEFSAII (Michael W. Deem and Ramdas Pophale) SiO2 
 PCOD8308264
Probable space group: P -4 2 M 
;
_chemical_formula_sum "Si O2"
_cell_formula_units_Z 32
_cell_length_a 13.940003
_cell_length_b 13.940003
_cell_length_c 8.530719
_cell_angle_alpha 90.000000
_cell_angle_beta 90.000000
_cell_angle_gamma 90.000000
_cell_volume 1657.720740
_symmetry_space_group_name_H-M "P -4 2 M "
_symmetry_group_IT_number 111
_symmetry_cell_setting 'tetragonal'
loop_
_space_group_symop_operation_xyz
x,y,z
y,-x,-z
-x,-y,z
-y,x,-z
x,-y,-z
-x,y,-z
-y,-x,z
y,x,z
loop_
_atom_site_type_symbol
_atom_site_label
_atom_site_fract_x
_atom_site_fract_y
_atom_site_fract_z
Si Si1 0.461939 0.309020 0.175314
Si Si2 0.366705 0.785251 0.336243
Si Si3 0.677604 0.830378 0.318420
Si Si4 0.984175 0.609908 0.818077
O O1 0.408900 0.408900 0.220926
O O2 0.548545 0.289042 0.294396
O O3 0.385813 0.222148 0.185482
O O4 0.500000 0.314574 0.000000
O O5 0.265914 0.734087 0.307749
O O6 0.376892 0.815624 0.516952
O O7 0.363621 0.876229 0.223219
O O8 0.785056 0.785056 0.321790
O O9 0.679268 0.943109 0.277764
O O10 0.000000 0.500000 0.768903
O O11 0.000000 0.627553 0.000000
#
# Coordination Sequence:
#
# PCOD8308264 Si02
#       4
#     8   8   8   8
#     4  11  22  36  54  79 114 157 198 236 281 334
#     4  11  23  38  59  86 116 152 194 238 287 341
#     4  10  22  39  60  86 114 149 194 242 288 339
#     4  11  22  37  61  88 114 151 193 236 290 340
#
# _framework density 19.303612000000001
#
# number of rings (size 3 to 8) (size 9 to 14) (size 15 to 20)
#    0.000    1.250    2.500    3.750    0.000    5.750 
#    0.000    1.250    0.000    9.750    0.000    5.250 
#    0.000    0.000    0.000    0.000    0.000    0.000 
#
# Total GULP energy -396851.307001 kJ/mol
# GULP energy per Si atom -12401.603344 kJ/mol
# Density = 1.925968 g / cm^3
# Si number density = 19.303612 Si / 1000 Ang^3
#
#
#
# Elastic Constant Matrix: (Units=GPa)
#
#
# Indices 1 2 3 4 5 6 
#
# 1 103.8527 58.8165 54.3942 0.0000 0.0000 0.0000
# 2 58.8165 103.8498 54.3948 0.0000 0.0000 0.0000
# 3 54.3942 54.3948 88.6237 0.0000 0.0000 0.0000
# 4 0.0000 0.0000 0.0000 30.0531 0.0000 0.0000
# 5 0.0000 0.0000 0.0000 0.0000 30.0534 0.0000
# 6 0.0000 0.0000 0.0000 0.0000 0.0000 24.3971
#
#
#
# Elastic Compliance Matrix: (Units=1/GPa)
#
#
# Indices 1 2 3 4 5 6 
#
# 1 0.016316 -0.005889 -0.006400 0.000000 0.000000 0.000000
# 2 -0.005889 0.016317 -0.006401 0.000000 0.000000 0.000000
# 3 -0.006400 -0.006401 0.019140 0.000000 0.000000 0.000000
# 4 0.000000 0.000000 0.000000 0.033274 0.000000 0.000000
# 5 0.000000 0.000000 0.000000 0.000000 0.033274 0.000000
# 6 0.000000 0.000000 0.000000 0.000000 0.000000 0.040988
#
#
# Mechanical properties :
#
#
# Convention : Reuss Voigt Hill
#
# Bulk Modulus (GPa) = 69.46946 70.17081 69.82013
# Shear Modulus (GPa) = 24.81549 25.48210 25.14880
#
# Velocity S-wave (km/s) = 3.58933 3.63722 3.61335
# Velocity P-wave (km/s) = 7.29682 7.35317 7.32505
#
# Compressibility (1/GPa) = 0.01439482
#
# Stress axis : x y z
#
# Youngs Moduli (GPa) = 61.28917 61.28614 52.24571
#
# Poissons Ratio (x) = 0.36089 0.33437
# Poissons Ratio (y) = 0.36091 0.33441
# Poissons Ratio (z) = 0.39225 0.39227
#
# Static dielectric constant tensor:
#      x y z
#    x 3.536840 0.000000 0.000000 
#    y 0.000000 3.536840 0.000000 
#    z 0.000000 0.000000 3.557630 
# 
# 
# High freq. dielectric constant tensor:
#      x y z
#    x 1.738040 0.000000 0.000000 
#    y 0.000000 1.738040 0.000000 
#    z 0.000000 0.000000 1.763290 
# 
# From -- ./inp_files/1298.got.cif
#   From: 2010.03.12/outbox.cif.g09.slc.cpg/sg111_1_cif.got.tgz:1298.got - 2010.04.14 01:59:48.
