data_PCOD8308308
_publ_section_title
;
Structure prediction by ZEFSAII (Michael W. Deem and Ramdas Pophale) SiO2 
 PCOD8308308
Probable space group: P -4 2 C
;
_chemical_formula_sum "Si O2"
_cell_formula_units_Z 48
_cell_length_a 11.072241
_cell_length_b 11.072241
_cell_length_c 19.603048
_cell_angle_alpha 90.000000
_cell_angle_beta 90.000000
_cell_angle_gamma 90.000000
_cell_volume 2403.226275
_symmetry_space_group_name_H-M "P -4 2 C"
_symmetry_group_IT_number 112
_symmetry_cell_setting 'tetragonal'
loop_
_space_group_symop_operation_xyz
x,y,z
y,-x,-z
-x,-y,z
-y,x,-z
x,-y,1/2-z
-x,y,1/2-z
-y,-x,1/2+z
y,x,1/2+z
loop_
_atom_site_type_symbol
_atom_site_label
_atom_site_fract_x
_atom_site_fract_y
_atom_site_fract_z
Si Si1 0.500000 0.000000 0.250000
Si Si2 0.662507 0.074356 0.020795
Si Si3 0.193172 0.283484 0.515154
Si Si4 0.758522 0.596461 0.376268
Si Si5 0.197992 0.588112 0.653649
Si Si6 0.361366 0.390750 0.612631
Si Si7 0.500000 0.500000 0.500000
Si Si8 0.000000 0.500000 0.099411
O O1 0.588359 0.912735 0.293374
O O2 0.578576 0.136878 0.078475
O O3 0.699490 0.940859 0.042747
O O4 0.786746 0.149727 0.014966
O O5 0.593889 0.071459 0.948654
O O6 0.231583 0.382137 0.457850
O O7 0.277111 0.287194 0.582047
O O8 0.708221 0.717343 0.338701
O O9 0.666823 0.485556 0.358681
O O10 0.896526 0.563613 0.353031
O O11 0.284678 0.470760 0.666578
O O12 0.385857 0.482832 0.549704
#
# Coordination Sequence:
#
# PCOD8308308 Si02
#       8
#     2   8   8   8   8   8   2   4
#     4  12  26  44  54  76 106 148 202 250 280 336
#     4  10  19  32  49  80 115 156 184 212 263 339
#     4  10  19  28  47  75 121 155 181 211 262 336
#     4  10  19  30  51  82 115 148 179 223 283 346
#     4  11  22  36  55  76 109 151 194 234 284 329
#     4  12  17  29  49  84 113 147 175 221 283 353
#     4  12  16  24  48  82 120 140 168 200 268 374
#     4  10  17  30  50  83 125 142 173 216 276 354
#
# _framework density 19.973151000000001
#
# number of rings (size 3 to 8) (size 9 to 14) (size 15 to 20)
#    0.000    1.333    5.000    4.500    0.000    0.333 
#    0.000    1.667    0.000    0.000    0.000    3.500 
#    0.000    0.000    0.000    0.000    0.000    0.000 
#
# Total GULP energy -594657.578189 kJ/mol
# GULP energy per Si atom -12388.699546 kJ/mol
# Density = 1.992769 g / cm^3
# Si number density = 19.973151 Si / 1000 Ang^3
#
#
#
# Elastic Constant Matrix: (Units=GPa)
#
#
# Indices 1 2 3 4 5 6 
#
# 1 129.1890 57.3123 27.0116 0.0000 0.0000 0.0000
# 2 57.3123 129.1890 27.0116 0.0000 0.0000 0.0000
# 3 27.0116 27.0116 27.3806 0.0000 0.0000 0.0000
# 4 0.0000 0.0000 0.0000 15.0109 0.0000 0.0000
# 5 0.0000 0.0000 0.0000 0.0000 15.0109 0.0000
# 6 0.0000 0.0000 0.0000 0.0000 0.0000 27.6757
#
#
#
# Elastic Compliance Matrix: (Units=1/GPa)
#
#
# Indices 1 2 3 4 5 6 
#
# 1 0.010710 -0.003203 -0.007406 0.000000 0.000000 0.000000
# 2 -0.003203 0.010710 -0.007406 0.000000 0.000000 0.000000
# 3 -0.007406 -0.007406 0.051135 0.000000 0.000000 0.000000
# 4 0.000000 0.000000 0.000000 0.066618 0.000000 0.000000
# 5 0.000000 0.000000 0.000000 0.000000 0.066618 0.000000
# 6 0.000000 0.000000 0.000000 0.000000 0.000000 0.036133
#
#
# Mechanical properties :
#
#
# Convention : Reuss Voigt Hill
#
# Bulk Modulus (GPa) = 27.37854 56.49218 41.93536
# Shear Modulus (GPa) = 17.23376 23.16771 20.20073
#
# Velocity S-wave (km/s) = 2.94061 3.40949 3.18369
# Velocity P-wave (km/s) = 5.02663 6.62155 5.87843
#
# Compressibility (1/GPa) = 0.03652495
#
# Stress axis : x y z
#
# Youngs Moduli (GPa) = 93.37127 93.37127 19.55625
#
# Poissons Ratio (x) = 0.29905 0.14483
# Poissons Ratio (y) = 0.29905 0.14483
# Poissons Ratio (z) = 0.69151 0.69151
#
# Static dielectric constant tensor:
#      x y z
#    x 3.791660 0.000000 0.000000 
#    y 0.000000 3.791660 0.000000 
#    z 0.000000 0.000000 3.034350 
# 
# 
# High freq. dielectric constant tensor:
#      x y z
#    x 1.782490 0.000000 0.000000 
#    y 0.000000 1.782490 0.000000 
#    z 0.000000 0.000000 1.709620 
# 
# From -- ./inp_files/4903.got.cif
#   From: 2010.03.12/outbox.cif.g09.slc.cpg/sg112_3_cif.got.tgz:4903.got - 2010.04.14 02:02:48.
