data_PCOD8308332
_publ_section_title
;
Structure prediction by ZEFSAII (Michael W. Deem and Ramdas Pophale) SiO2 
 PCOD8308332
Probable space group: P -4 2 C
;
_chemical_formula_sum "Si O2"
_cell_formula_units_Z 64
_cell_length_a 14.361122
_cell_length_b 14.361122
_cell_length_c 16.739206
_cell_angle_alpha 90.000000
_cell_angle_beta 90.000000
_cell_angle_gamma 90.000000
_cell_volume 3452.324396
_symmetry_space_group_name_H-M "P -4 2 C"
_symmetry_group_IT_number 112
_symmetry_cell_setting 'tetragonal'
loop_
_space_group_symop_operation_xyz
x,y,z
y,-x,-z
-x,-y,z
-y,x,-z
x,-y,1/2-z
-x,y,1/2-z
-y,-x,1/2+z
y,x,1/2+z
loop_
_atom_site_type_symbol
_atom_site_label
_atom_site_fract_x
_atom_site_fract_y
_atom_site_fract_z
Si Si1 0.300370 0.890009 0.747243
Si Si2 0.418717 0.835686 0.889129
Si Si3 0.600725 0.009399 0.015216
Si Si4 0.858670 0.236646 0.802001
Si Si5 0.060883 0.752747 0.640426
Si Si6 0.899803 0.884803 0.987883
Si Si7 0.170540 0.628681 0.080021
Si Si8 0.259019 0.756904 0.447327
O O1 0.389113 0.852711 0.797640
O O2 0.204478 0.854552 0.786480
O O3 0.311104 0.851700 0.657787
O O4 0.299196 0.000000 0.750000
O O5 0.524805 0.799516 0.895011
O O6 0.350906 0.762202 0.931359
O O7 0.412270 0.932945 0.934452
O O8 0.669263 0.057800 0.077216
O O9 0.500000 0.000000 0.057942
O O10 0.638762 0.911349 0.985155
O O11 0.879300 0.284951 0.716030
O O12 0.803062 0.303409 0.865511
O O13 0.959020 0.209235 0.836848
O O14 0.111184 0.842276 0.601165
O O15 0.833863 0.821811 0.043963
O O16 0.007171 0.870776 0.015895
O O17 0.250531 0.677366 0.026572
#
# Coordination Sequence:
#
# PCOD8308332 Si02
#       8
#     8   8   8   8   8   8   8   8
#     4  11  22  36  52  82 116 147 187 235 286 332
#     4  10  22  35  58  86 111 139 189 230 282 348
#     4  10  19  33  58  82 107 141 185 231 282 333
#     4  10  23  34  50  73 107 153 188 229 272 321
#     4  11  20  38  50  70 113 151 195 236 268 320
#     4  11  21  33  52  75 103 152 193 226 271 321
#     4  11  21  37  59  82 110 149 179 234 292 331
#     4  11  21  38  57  80 112 147 186 235 280 335
#
# _framework density 18.538233999999999
#
# number of rings (size 3 to 8) (size 9 to 14) (size 15 to 20)
#    0.000    1.375    5.000    1.125    0.000    2.500 
#    0.000    1.875    0.000    0.375    0.000    0.000 
#    0.000    2.250    0.000    0.000    0.000    0.000 
#
# Total GULP energy -793078.799750 kJ/mol
# GULP energy per Si atom -12391.856246 kJ/mol
# Density = 1.849604 g / cm^3
# Si number density = 18.538234 Si / 1000 Ang^3
#
#
#
# Elastic Constant Matrix: (Units=GPa)
#
#
# Indices 1 2 3 4 5 6 
#
# 1 65.2749 14.8979 29.6185 0.0000 0.0000 0.0000
# 2 14.8979 65.2749 29.6185 0.0000 0.0000 0.0000
# 3 29.6185 29.6185 113.3682 0.0000 0.0000 0.0000
# 4 0.0000 0.0000 0.0000 18.0169 0.0000 0.0000
# 5 0.0000 0.0000 0.0000 0.0000 18.0169 0.0000
# 6 0.0000 0.0000 0.0000 0.0000 0.0000 13.6031
#
#
#
# Elastic Compliance Matrix: (Units=1/GPa)
#
#
# Indices 1 2 3 4 5 6 
#
# 1 0.017654 -0.002197 -0.004038 0.000000 0.000000 0.000000
# 2 -0.002197 0.017654 -0.004038 0.000000 0.000000 0.000000
# 3 -0.004038 -0.004038 0.010931 0.000000 0.000000 0.000000
# 4 0.000000 0.000000 0.000000 0.055504 0.000000 0.000000
# 5 0.000000 0.000000 0.000000 0.000000 0.055504 0.000000
# 6 0.000000 0.000000 0.000000 0.000000 0.000000 0.073513
#
#
# Mechanical properties :
#
#
# Convention : Reuss Voigt Hill
#
# Bulk Modulus (GPa) = 38.92337 43.57641 41.24989
# Shear Modulus (GPa) = 19.24052 21.24623 20.24337
#
# Velocity S-wave (km/s) = 3.22511 3.38905 3.30810
# Velocity P-wave (km/s) = 5.90850 6.23470 6.07379
#
# Compressibility (1/GPa) = 0.02569151
#
# Stress axis : x y z
#
# Youngs Moduli (GPa) = 56.64583 56.64583 91.48404
#
# Poissons Ratio (x) = 0.12444 0.36943
# Poissons Ratio (y) = 0.12444 0.36943
# Poissons Ratio (z) = 0.22875 0.22875
#
# Static dielectric constant tensor:
#      x y z
#    x 3.340250 0.000000 0.000000 
#    y 0.000000 3.340250 0.000000 
#    z 0.000000 0.000000 3.738660 
# 
# 
# High freq. dielectric constant tensor:
#      x y z
#    x 1.691940 0.000000 0.000000 
#    y 0.000000 1.691940 0.000000 
#    z 0.000000 0.000000 1.741720 
# 
# From -- ./inp_files/4229.got.cif
#   From: 2010.03.12/outbox.cif.g09.slc.cpg/sg112_3_cif.got.tgz:4229.got - 2010.04.14 02:02:48.
