data_PCOD8308919
_publ_section_title
;
Structure prediction by ZEFSAII (Michael W. Deem and Ramdas Pophale) SiO2 
 PCOD8308919
Probable space group: P -4 21 C
;
_chemical_formula_sum "Si O2"
_cell_formula_units_Z 34
_cell_length_a 9.149209
_cell_length_b 9.149209
_cell_length_c 19.187671
_cell_angle_alpha 90.000000
_cell_angle_beta 90.000000
_cell_angle_gamma 90.000000
_cell_volume 1606.162050
_symmetry_space_group_name_H-M "P -4 21 C"
_symmetry_group_IT_number 114
_symmetry_cell_setting 'tetragonal'
loop_
_space_group_symop_operation_xyz
x,y,z
y,-x,-z
-x,-y,z
-y,x,-z
1/2+x,1/2-y,1/2-z
1/2-x,1/2+y,1/2-z
1/2-y,1/2-x,1/2+z
1/2+y,1/2+x,1/2+z
loop_
_atom_site_type_symbol
_atom_site_label
_atom_site_fract_x
_atom_site_fract_y
_atom_site_fract_z
Si Si1 0.000000 0.000000 0.500000
Si Si2 0.718394 0.275590 0.062010
Si Si3 0.696501 0.864614 0.291133
Si Si4 0.132677 0.311334 0.184606
Si Si5 0.340455 0.965337 0.961218
O O1 0.080174 0.876310 0.545517
O O2 0.736425 0.270148 0.144931
O O3 0.877108 0.269494 0.023926
O O4 0.644408 0.128298 0.032055
O O5 0.780492 0.819614 0.221247
O O6 0.527334 0.824573 0.281879
O O7 0.720016 0.036767 0.304574
O O8 0.123519 0.266142 0.102638
O O9 0.500000 0.000000 0.929648
#
# Coordination Sequence:
#
# PCOD8308919 Si02
#       5
#     2   8   8   8   8
#     4  12  20  36  68  96 120 172 216 262 312 376
#     4  11  23  39  66  94 124 165 216 258 320 377
#     4  10  22  41  60  92 122 167 207 256 309 370
#     4  10  21  42  64  85 133 162 204 259 312 363
#     4  11  21  44  63  89 131 162 201 274 317 365
#
# _framework density 21.168472000000001
#
# number of rings (size 3 to 8) (size 9 to 14) (size 15 to 20)
#    0.000    1.412    7.059    0.000    0.000    7.059 
#    4.235    4.706    0.000    0.000    0.000    0.000 
#    0.000    0.000    0.000    0.000    0.000    0.000 
#
# Total GULP energy -421545.327068 kJ/mol
# GULP energy per Si atom -12398.391973 kJ/mol
# Density = 2.112029 g / cm^3
# Si number density = 21.168472 Si / 1000 Ang^3
#
#
#
# Elastic Constant Matrix: (Units=GPa)
#
#
# Indices 1 2 3 4 5 6 
#
# 1 79.5484 27.0305 42.6753 0.0000 0.0000 0.0000
# 2 27.0305 79.5484 42.6753 0.0000 0.0000 0.0000
# 3 42.6753 42.6753 95.7253 0.0000 0.0000 0.0000
# 4 0.0000 0.0000 0.0000 33.3216 0.0000 0.0000
# 5 0.0000 0.0000 0.0000 0.0000 33.3216 0.0000
# 6 0.0000 0.0000 0.0000 0.0000 0.0000 32.9925
#
#
#
# Elastic Compliance Matrix: (Units=1/GPa)
#
#
# Indices 1 2 3 4 5 6 
#
# 1 0.016817 -0.002224 -0.006505 0.000000 0.000000 0.000000
# 2 -0.002224 0.016817 -0.006505 0.000000 0.000000 0.000000
# 3 -0.006505 -0.006505 0.016247 0.000000 0.000000 0.000000
# 4 0.000000 0.000000 0.000000 0.030011 0.000000 0.000000
# 5 0.000000 0.000000 0.000000 0.000000 0.030011 0.000000
# 6 0.000000 0.000000 0.000000 0.000000 0.000000 0.030310
#
#
# Mechanical properties :
#
#
# Convention : Reuss Voigt Hill
#
# Bulk Modulus (GPa) = 51.51984 53.28713 52.40349
# Shear Modulus (GPa) = 28.22435 29.42321 28.82378
#
# Velocity S-wave (km/s) = 3.65543 3.73225 3.69404
# Velocity P-wave (km/s) = 6.49669 6.61819 6.55773
#
# Compressibility (1/GPa) = 0.01941000
#
# Stress axis : x y z
#
# Youngs Moduli (GPa) = 59.46445 59.46445 61.55011
#
# Poissons Ratio (x) = 0.13227 0.40041
# Poissons Ratio (y) = 0.13227 0.40041
# Poissons Ratio (z) = 0.38684 0.38684
#
# Static dielectric constant tensor:
#      x y z
#    x 3.806850 0.000000 0.000000 
#    y 0.000000 3.806850 0.000000 
#    z 0.000000 0.000000 3.528290 
# 
# 
# High freq. dielectric constant tensor:
#      x y z
#    x 1.824610 0.000000 0.000000 
#    y 0.000000 1.824610 0.000000 
#    z 0.000000 0.000000 1.820670 
# 
# From -- ./inp_files/2943.got.cif
#   From: 2010.03.12/outbox.cif.g09.slc.cpg/sg114_2_cif.got.tgz:2943.got - 2010.04.14 02:08:34.
