data_PCOD8308360
_publ_section_title
;
Structure prediction by ZEFSAII (Michael W. Deem and Ramdas Pophale) SiO2 
 PCOD8308360
Probable space group: P -4 2 C
;
_chemical_formula_sum "Si O2"
_cell_formula_units_Z 56
_cell_length_a 11.898548
_cell_length_b 11.898548
_cell_length_c 20.878745
_cell_angle_alpha 90.000000
_cell_angle_beta 90.000000
_cell_angle_gamma 90.000000
_cell_volume 2955.917604
_symmetry_space_group_name_H-M "P -4 2 C"
_symmetry_group_IT_number 112
_symmetry_cell_setting 'tetragonal'
loop_
_space_group_symop_operation_xyz
x,y,z
y,-x,-z
-x,-y,z
-y,x,-z
x,-y,1/2-z
-x,y,1/2-z
-y,-x,1/2+z
y,x,1/2+z
loop_
_atom_site_type_symbol
_atom_site_label
_atom_site_fract_x
_atom_site_fract_y
_atom_site_fract_z
Si Si1 0.666092 0.250844 0.735554
Si Si2 0.042048 0.371945 0.348312
Si Si3 0.600055 0.209762 0.405186
Si Si4 0.418802 0.606478 0.124762
Si Si5 0.351933 0.804081 0.871778
Si Si6 0.621080 0.119371 0.275475
Si Si7 0.427882 0.203497 0.949595
O O1 0.663847 0.122240 0.710500
O O2 0.610444 0.341392 0.688188
O O3 0.602037 0.251021 0.804645
O O4 0.793751 0.284907 0.751846
O O5 0.117112 0.347799 0.411755
O O6 0.000000 0.500000 0.338387
O O7 0.927354 0.298260 0.355372
O O8 0.498361 0.286959 0.380670
O O9 0.721676 0.267263 0.407126
O O10 0.611019 0.110562 0.353038
O O11 0.574366 0.168553 0.476376
O O12 0.500000 0.500000 0.126543
O O13 0.334907 0.602844 0.063121
O O14 0.449906 0.821475 0.922198
O O15 0.500000 0.156864 0.250000
O O16 0.660279 0.000000 0.250000
#
# Coordination Sequence:
#
# PCOD8308360 Si02
#       7
#     8   8   8   8   8   8   8
#     4  10  21  37  58  83 113 157 189 245 290 349
#     4   9  20  37  54  84 115 148 195 232 288 351
#     4  11  21  37  56  81 116 153 192 240 292 352
#     4  11  21  33  51  84 124 154 189 228 286 368
#     4  10  20  36  54  78 114 148 194 237 282 351
#     4  10  21  41  57  83 114 148 201 246 294 346
#     4  10  21  35  51  80 114 160 191 227 286 353
#
# _framework density 18.945048
#
# number of rings (size 3 to 8) (size 9 to 14) (size 15 to 20)
#    0.000    1.857    2.857    1.286    0.000    6.857 
#   12.857    0.000    0.000    6.857    0.000    0.000 
#    0.000    0.000    0.000    0.000    0.000    0.000 
#
# Total GULP energy -693863.857525 kJ/mol
# GULP energy per Si atom -12390.426027 kJ/mol
# Density = 1.890193 g / cm^3
# Si number density = 18.945048 Si / 1000 Ang^3
#
#
#
# Elastic Constant Matrix: (Units=GPa)
#
#
# Indices 1 2 3 4 5 6 
#
# 1 83.5070 33.8308 37.8964 0.0000 0.0000 0.0000
# 2 33.8308 83.5070 37.8964 0.0000 0.0000 0.0000
# 3 37.8964 37.8964 156.9218 0.0000 0.0000 0.0000
# 4 0.0000 0.0000 0.0000 21.2870 0.0000 0.0000
# 5 0.0000 0.0000 0.0000 0.0000 21.2870 0.0000
# 6 0.0000 0.0000 0.0000 0.0000 0.0000 15.2004
#
#
#
# Elastic Compliance Matrix: (Units=1/GPa)
#
#
# Indices 1 2 3 4 5 6 
#
# 1 0.015114 -0.005016 -0.002439 0.000000 0.000000 0.000000
# 2 -0.005016 0.015114 -0.002439 0.000000 0.000000 0.000000
# 3 -0.002439 -0.002439 0.007550 0.000000 0.000000 0.000000
# 4 0.000000 0.000000 0.000000 0.046977 0.000000 0.000000
# 5 0.000000 0.000000 0.000000 0.000000 0.046977 0.000000
# 6 0.000000 0.000000 0.000000 0.000000 0.000000 0.065788
#
#
# Mechanical properties :
#
#
# Convention : Reuss Voigt Hill
#
# Bulk Modulus (GPa) = 55.58233 60.35368 57.96800
# Shear Modulus (GPa) = 22.39097 25.84234 24.11666
#
# Velocity S-wave (km/s) = 3.44159 3.69734 3.57175
# Velocity P-wave (km/s) = 6.72273 7.08191 6.90466
#
# Compressibility (1/GPa) = 0.01799133
#
# Stress axis : x y z
#
# Youngs Moduli (GPa) = 66.16395 66.16395 132.44313
#
# Poissons Ratio (x) = 0.33191 0.32297
# Poissons Ratio (y) = 0.33191 0.32297
# Poissons Ratio (z) = 0.16134 0.16134
#
# Static dielectric constant tensor:
#      x y z
#    x 3.608400 0.000000 0.000000 
#    y 0.000000 3.608400 0.000000 
#    z 0.000000 0.000000 3.618280 
# 
# 
# High freq. dielectric constant tensor:
#      x y z
#    x 1.716460 0.000000 0.000000 
#    y 0.000000 1.716460 0.000000 
#    z 0.000000 0.000000 1.747340 
# 
# From -- ./inp_files/4916.got.cif
#   From: 2010.03.12/outbox.cif.g09.slc.cpg/sg112_3_cif.got.tgz:4916.got - 2010.04.14 02:02:48.
