data_PCOD8308382
_publ_section_title
;
Structure prediction by ZEFSAII (Michael W. Deem and Ramdas Pophale) SiO2 
 PCOD8308382
Probable space group: P -4 2 C
;
_chemical_formula_sum "Si O2"
_cell_formula_units_Z 48
_cell_length_a 11.716782
_cell_length_b 11.716782
_cell_length_c 18.604640
_cell_angle_alpha 90.000000
_cell_angle_beta 90.000000
_cell_angle_gamma 90.000000
_cell_volume 2554.100429
_symmetry_space_group_name_H-M "P -4 2 C"
_symmetry_group_IT_number 112
_symmetry_cell_setting 'tetragonal'
loop_
_space_group_symop_operation_xyz
x,y,z
y,-x,-z
-x,-y,z
-y,x,-z
x,-y,1/2-z
-x,y,1/2-z
-y,-x,1/2+z
y,x,1/2+z
loop_
_atom_site_type_symbol
_atom_site_label
_atom_site_fract_x
_atom_site_fract_y
_atom_site_fract_z
Si Si1 0.871207 0.372144 0.489362
Si Si2 0.127431 0.000000 0.166392
Si Si3 0.372144 0.128793 0.989362
Si Si4 0.771467 0.252584 0.619378
Si Si5 0.364628 0.364669 0.750000
Si Si6 0.252584 0.228533 0.119378
O O1 0.847300 0.500000 0.464815
O O2 0.793388 0.347048 0.558440
O O3 0.848856 0.296964 0.418905
O O4 0.000000 0.350767 0.514137
O O5 0.199732 0.111114 0.146834
O O6 0.108172 0.000000 0.250000
O O7 0.199732 0.888886 0.146834
O O8 0.000000 0.000000 0.129974
O O9 0.296964 0.151144 0.918905
O O10 0.347048 0.206612 0.058440
O O11 0.695615 0.309744 0.680952
O O12 0.343320 0.500000 0.750000
O O13 0.500000 0.337022 0.750000
O O14 0.304385 0.309744 0.680952
#
# Coordination Sequence:
#
# PCOD8308382 Si02
#       6
#     8   8   8   8   8   8
#     4  10  21  37  58  86 119 154 195 240 290 351
#     4  11  22  38  60  88 122 153 194 244 297 359
#     4  10  21  37  58  86 119 154 195 240 290 351
#     4  11  21  39  60  87 117 158 194 244 298 353
#     4  11  24  41  61  86 116 153 200 250 299 357
#     4  11  21  39  60  87 117 158 194 244 298 353
#
# _framework density 18.793309000000001
#
# number of rings (size 3 to 8) (size 9 to 14) (size 15 to 20)
#    0.000    1.333    3.333    3.000    0.000    0.000 
#    0.000    0.833    0.000   12.000    0.000    0.000 
#    0.000    0.000    0.000    0.000    0.000    0.000 
#
# Total GULP energy -595059.752021 kJ/mol
# GULP energy per Si atom -12397.078167 kJ/mol
# Density = 1.875053 g / cm^3
# Si number density = 18.793309 Si / 1000 Ang^3
#
#
#
# Elastic Constant Matrix: (Units=GPa)
#
#
# Indices 1 2 3 4 5 6 
#
# 1 122.7789 67.5615 54.1721 0.0000 0.0000 0.0000
# 2 67.5615 122.7789 54.1721 0.0000 0.0000 0.0000
# 3 54.1721 54.1721 121.0589 0.0000 0.0000 0.0000
# 4 0.0000 0.0000 0.0000 25.8990 0.0000 0.0000
# 5 0.0000 0.0000 0.0000 0.0000 25.8990 0.0000
# 6 0.0000 0.0000 0.0000 0.0000 0.0000 33.3321
#
#
#
# Elastic Compliance Matrix: (Units=1/GPa)
#
#
# Indices 1 2 3 4 5 6 
#
# 1 0.012580 -0.005530 -0.003154 0.000000 0.000000 0.000000
# 2 -0.005530 0.012580 -0.003154 0.000000 0.000000 0.000000
# 3 -0.003154 -0.003154 0.011084 0.000000 0.000000 0.000000
# 4 0.000000 0.000000 0.000000 0.038612 0.000000 0.000000
# 5 0.000000 0.000000 0.000000 0.000000 0.038612 0.000000
# 6 0.000000 0.000000 0.000000 0.000000 0.000000 0.030001
#
#
# Mechanical properties :
#
#
# Convention : Reuss Voigt Hill
#
# Bulk Modulus (GPa) = 79.59023 79.82535 79.70779
# Shear Modulus (GPa) = 29.18272 29.74008 29.46140
#
# Velocity S-wave (km/s) = 3.94486 3.98236 3.96366
# Velocity P-wave (km/s) = 7.94931 7.98205 7.96570
#
# Compressibility (1/GPa) = 0.01256436
#
# Stress axis : x y z
#
# Youngs Moduli (GPa) = 79.49266 79.49266 90.22342
#
# Poissons Ratio (x) = 0.43963 0.28461
# Poissons Ratio (y) = 0.43963 0.28461
# Poissons Ratio (z) = 0.25076 0.25076
#
# Static dielectric constant tensor:
#      x y z
#    x 3.580270 0.000000 0.000000 
#    y 0.000000 3.580270 0.000000 
#    z 0.000000 0.000000 3.451790 
# 
# 
# High freq. dielectric constant tensor:
#      x y z
#    x 1.739900 0.000000 0.000000 
#    y 0.000000 1.739900 0.000000 
#    z 0.000000 0.000000 1.736110 
# 
# From -- ./inp_files/4143.got.cif
#   From: 2010.03.12/outbox.cif.g09.slc.cpg/sg112_3_cif.got.tgz:4143.got - 2010.04.14 02:02:48.
