data_PCOD8308946
_publ_section_title
;
Structure prediction by ZEFSAII (Michael W. Deem and Ramdas Pophale) SiO2 
 PCOD8308946
Probable space group: P -4 21 C
;
_chemical_formula_sum "Si O2"
_cell_formula_units_Z 34
_cell_length_a 7.739735
_cell_length_b 7.739735
_cell_length_c 25.122134
_cell_angle_alpha 90.000000
_cell_angle_beta 90.000000
_cell_angle_gamma 90.000000
_cell_volume 1504.903701
_symmetry_space_group_name_H-M "P -4 21 C"
_symmetry_group_IT_number 114
_symmetry_cell_setting 'tetragonal'
loop_
_space_group_symop_operation_xyz
x,y,z
y,-x,-z
-x,-y,z
-y,x,-z
1/2+x,1/2-y,1/2-z
1/2-x,1/2+y,1/2-z
1/2-y,1/2-x,1/2+z
1/2+y,1/2+x,1/2+z
loop_
_atom_site_type_symbol
_atom_site_label
_atom_site_fract_x
_atom_site_fract_y
_atom_site_fract_z
Si Si1 0.500000 0.500000 0.500000
Si Si2 0.333209 0.111253 0.129125
Si Si3 0.620304 0.682582 0.326031
Si Si4 0.689291 0.050882 0.924814
Si Si5 0.314021 0.476648 0.786005
O O1 0.327895 0.528224 0.534546
O O2 0.254770 0.255677 0.087530
O O3 0.387081 0.188981 0.185789
O O4 0.500000 0.000000 0.105887
O O5 0.163140 0.996930 0.142886
O O6 0.550722 0.816138 0.369057
O O7 0.485634 0.670110 0.277729
O O8 0.788855 0.749568 0.298039
O O9 0.500000 0.000000 0.948855
O O10 0.500000 0.500000 0.812875
#
# Coordination Sequence:
#
# PCOD8308946 Si02
#       5
#     2   8   8   8   8
#     4  12  28  52  76 104 140 192 252 324 384 434
#     4  10  22  40  66 100 147 191 233 298 359 440
#     4  11  21  38  62  96 142 187 231 285 359 428
#     4  12  25  47  77 100 134 189 240 305 375 438
#     4  11  21  33  59 101 144 186 231 280 350 444
#
# _framework density 22.592807000000001
#
# number of rings (size 3 to 8) (size 9 to 14) (size 15 to 20)
#    0.000    0.941    2.353    5.647    0.000    3.765 
#    0.000    0.000    0.000    0.000    0.000    0.000 
#    0.000    0.000    0.000    0.000    0.000    0.000 
#
# Total GULP energy -421229.233170 kJ/mol
# GULP energy per Si atom -12389.095093 kJ/mol
# Density = 2.254138 g / cm^3
# Si number density = 22.592807 Si / 1000 Ang^3
#
#
#
# Elastic Constant Matrix: (Units=GPa)
#
#
# Indices 1 2 3 4 5 6 
#
# 1 124.7072 35.0573 37.2043 0.0000 0.0000 0.0000
# 2 35.0573 124.7072 37.2043 0.0000 0.0000 0.0000
# 3 37.2043 37.2043 72.8843 0.0000 0.0000 0.0000
# 4 0.0000 0.0000 0.0000 26.7985 0.0000 0.0000
# 5 0.0000 0.0000 0.0000 0.0000 26.7985 0.0000
# 6 0.0000 0.0000 0.0000 0.0000 0.0000 31.4663
#
#
#
# Elastic Compliance Matrix: (Units=1/GPa)
#
#
# Indices 1 2 3 4 5 6 
#
# 1 0.009683 -0.001472 -0.004192 0.000000 0.000000 0.000000
# 2 -0.001472 0.009683 -0.004192 0.000000 0.000000 0.000000
# 3 -0.004192 -0.004192 0.018000 0.000000 0.000000 0.000000
# 4 0.000000 0.000000 0.000000 0.037315 0.000000 0.000000
# 5 0.000000 0.000000 0.000000 0.000000 0.037315 0.000000
# 6 0.000000 0.000000 0.000000 0.000000 0.000000 0.031780
#
#
# Mechanical properties :
#
#
# Convention : Reuss Voigt Hill
#
# Bulk Modulus (GPa) = 56.63755 60.13674 58.38714
# Shear Modulus (GPa) = 29.52096 31.20153 30.36125
#
# Velocity S-wave (km/s) = 3.61869 3.72026 3.66983
# Velocity P-wave (km/s) = 6.52557 6.71783 6.62240
#
# Compressibility (1/GPa) = 0.01765613
#
# Stress axis : x y z
#
# Youngs Moduli (GPa) = 103.27439 103.27439 55.55675
#
# Poissons Ratio (x) = 0.15197 0.23287
# Poissons Ratio (y) = 0.15197 0.23287
# Poissons Ratio (z) = 0.43288 0.43288
#
# Static dielectric constant tensor:
#      x y z
#    x 4.212560 0.000000 0.000000 
#    y 0.000000 4.212560 0.000000 
#    z 0.000000 0.000000 3.992810 
# 
# 
# High freq. dielectric constant tensor:
#      x y z
#    x 1.900180 0.000000 0.000000 
#    y 0.000000 1.900180 0.000000 
#    z 0.000000 0.000000 1.867120 
# 
# From -- ./inp_files/2976.got.cif
#   From: 2010.03.12/outbox.cif.g09.slc.cpg/sg114_2_cif.got.tgz:2976.got - 2010.04.14 02:08:34.
