data_PCOD8308657
_publ_section_title
;
Structure prediction by ZEFSAII (Michael W. Deem and Ramdas Pophale) SiO2 
 PCOD8308657
Probable space group: P -4 21 M 
;
_chemical_formula_sum "Si O2"
_cell_formula_units_Z 56
_cell_length_a 12.531134
_cell_length_b 12.531134
_cell_length_c 19.971886
_cell_angle_alpha 90.000000
_cell_angle_beta 90.000000
_cell_angle_gamma 90.000000
_cell_volume 3136.171664
_symmetry_space_group_name_H-M "P -4 21 M "
_symmetry_group_IT_number 113
_symmetry_cell_setting 'tetragonal'
loop_
_space_group_symop_operation_xyz
x,y,z
y,-x,-z
-x,-y,z
-y,x,-z
1/2+x,1/2-y,-z
1/2-x,1/2+y,-z
1/2-y,1/2-x,z
1/2+y,1/2+x,z
loop_
_atom_site_type_symbol
_atom_site_label
_atom_site_fract_x
_atom_site_fract_y
_atom_site_fract_z
Si Si1 0.448855 0.777152 0.516171
Si Si2 0.328268 0.002132 0.662202
Si Si3 0.997410 0.330183 0.080902
Si Si4 0.104528 0.929189 0.709669
Si Si5 0.297814 0.623157 0.580900
Si Si6 0.646895 0.323650 0.848425
Si Si7 0.956519 0.158154 0.979183
O O1 0.364131 0.864131 0.491707
O O2 0.510680 0.816509 0.582160
O O3 0.391354 0.664621 0.531799
O O4 0.528557 0.764736 0.454626
O O5 0.394469 0.894469 0.680754
O O6 0.212449 0.997895 0.696685
O O7 0.393397 0.106604 0.686824
O O8 0.095451 0.404550 0.057946
O O9 0.039740 0.244485 0.135054
O O10 0.902297 0.402297 0.112518
O O11 0.952701 0.272736 0.014711
O O12 0.083014 0.845280 0.650690
O O13 0.115891 0.866480 0.778846
O O14 0.000000 0.000000 0.714711
O O15 0.221047 0.721047 0.598245
O O16 0.748888 0.248888 0.843974
O O17 0.667671 0.412898 0.904342
O O18 0.077773 0.115783 0.976643
#
# Coordination Sequence:
#
# PCOD8308657 Si02
#       7
#     8   8   8   8   8   8   8
#     4   9  19  33  56  84 106 136 177 226 282 330
#     4   9  18  36  60  83 108 139 180 233 288 334
#     4   9  18  32  53  83 111 133 169 223 275 317
#     4  11  24  36  53  78 112 151 185 222 267 325
#     4  10  21  36  54  79 110 140 178 228 272 325
#     4  10  20  35  56  77 105 145 182 213 262 320
#     4   9  18  31  55  80 108 138 172 218 261 321
#
# _framework density 17.856166000000002
#
# number of rings (size 3 to 8) (size 9 to 14) (size 15 to 20)
#    0.000    2.429    0.000    3.000    8.000    2.000 
#    0.000    1.429    0.000    0.857    0.000    0.000 
#    0.000    0.000    0.000    0.000    0.000    0.000 
#
# Total GULP energy -694381.063521 kJ/mol
# GULP energy per Si atom -12399.661849 kJ/mol
# Density = 1.781552 g / cm^3
# Si number density = 17.856166 Si / 1000 Ang^3
#
#
#
# Elastic Constant Matrix: (Units=GPa)
#
#
# Indices 1 2 3 4 5 6 
#
# 1 61.3488 45.2854 32.6772 0.0000 0.0000 0.0000
# 2 45.2854 61.3536 32.6775 0.0000 0.0000 0.0000
# 3 32.6772 32.6775 89.9053 0.0000 0.0000 0.0000
# 4 0.0000 0.0000 0.0000 19.5082 0.0000 0.0000
# 5 0.0000 0.0000 0.0000 0.0000 19.5083 0.0000
# 6 0.0000 0.0000 0.0000 0.0000 0.0000 25.1024
#
#
#
# Elastic Compliance Matrix: (Units=1/GPa)
#
#
# Indices 1 2 3 4 5 6 
#
# 1 0.037156 -0.025089 -0.004386 0.000000 0.000000 0.000000
# 2 -0.025089 0.037153 -0.004385 0.000000 0.000000 0.000000
# 3 -0.004386 -0.004385 0.014311 0.000000 0.000000 0.000000
# 4 0.000000 0.000000 0.000000 0.051260 0.000000 0.000000
# 5 0.000000 0.000000 0.000000 0.000000 0.051260 0.000000
# 6 0.000000 0.000000 0.000000 0.000000 0.000000 0.039837
#
#
# Mechanical properties :
#
#
# Convention : Reuss Voigt Hill
#
# Bulk Modulus (GPa) = 47.84694 48.20977 48.02835
# Shear Modulus (GPa) = 16.35783 19.62161 17.98972
#
# Velocity S-wave (km/s) = 3.02998 3.31852 3.17753
# Velocity P-wave (km/s) = 6.25260 6.46073 6.35751
#
# Compressibility (1/GPa) = 0.02089998
#
# Stress axis : x y z
#
# Youngs Moduli (GPa) = 26.91328 26.91581 69.87816
#
# Poissons Ratio (x) = 0.67530 0.30647
# Poissons Ratio (y) = 0.67524 0.30640
# Poissons Ratio (z) = 0.11804 0.11802
#
# Static dielectric constant tensor:
#      x y z
#    x 3.350570 0.000000 0.000000 
#    y 0.000000 3.350570 0.000000 
#    z 0.000000 0.000000 3.147270 
# 
# 
# High freq. dielectric constant tensor:
#      x y z
#    x 1.689940 0.000000 0.000000 
#    y 0.000000 1.689940 0.000000 
#    z 0.000000 0.000000 1.675900 
# 
# From -- ./inp_files/2676.got.cif
#   From: 2010.03.12/outbox.cif.g09.slc.cpg/sg113_cif.got.tgz:2676.got - 2010.04.14 02:06:34.
