data_PCOD8308824
_publ_section_title
;
Structure prediction by ZEFSAII (Michael W. Deem and Ramdas Pophale) SiO2 
 PCOD8308824
Probable space group: P -4 21 C
;
_chemical_formula_sum "Si O2"
_cell_formula_units_Z 48
_cell_length_a 14.883330
_cell_length_b 14.883330
_cell_length_c 11.480799
_cell_angle_alpha 90.000000
_cell_angle_beta 90.000000
_cell_angle_gamma 90.000000
_cell_volume 2543.152106
_symmetry_space_group_name_H-M "P -4 21 C"
_symmetry_group_IT_number 114
_symmetry_cell_setting 'tetragonal'
loop_
_space_group_symop_operation_xyz
x,y,z
y,-x,-z
-x,-y,z
-y,x,-z
1/2+x,1/2-y,1/2-z
1/2-x,1/2+y,1/2-z
1/2-y,1/2-x,1/2+z
1/2+y,1/2+x,1/2+z
loop_
_atom_site_type_symbol
_atom_site_label
_atom_site_fract_x
_atom_site_fract_y
_atom_site_fract_z
Si Si1 0.832184 0.795195 0.312626
Si Si2 0.724333 0.401741 0.579779
Si Si3 0.204108 0.166120 0.685319
Si Si4 0.397363 0.204021 0.960299
Si Si5 0.101381 0.293351 0.537267
Si Si6 0.776497 0.101331 0.925262
O O1 0.748646 0.746311 0.254277
O O2 0.793639 0.881750 0.381650
O O3 0.884060 0.730109 0.401794
O O4 0.898184 0.818478 0.205476
O O5 0.683444 0.404768 0.711509
O O6 0.829938 0.375217 0.579479
O O7 0.713575 0.500741 0.525109
O O8 0.671401 0.329176 0.504440
O O9 0.273581 0.121519 0.595292
O O10 0.117275 0.203542 0.615853
O O11 0.499947 0.171844 0.944045
O O12 0.171351 0.370899 0.575141
#
# Coordination Sequence:
#
# PCOD8308824 Si02
#       6
#     8   8   8   8   8   8
#     4   9  17  37  57  81 113 156 187 229 289 343
#     4  11  22  38  58  83 119 156 191 232 287 348
#     4   9  17  37  57  81 113 156 187 229 289 343
#     4  10  19  35  62  87 111 147 194 244 291 337
#     4  10  19  35  62  87 111 147 194 244 291 337
#     4  11  22  38  58  83 119 156 191 232 287 348
#
# _framework density 18.874213000000001
#
# number of rings (size 3 to 8) (size 9 to 14) (size 15 to 20)
#    0.000    2.000    6.667    1.000    0.000    2.333 
#    0.000    0.000    0.000   20.000    0.000    0.000 
#    0.000    0.000    0.000    0.000    0.000    0.000 
#
# Total GULP energy -594754.032429 kJ/mol
# GULP energy per Si atom -12390.709009 kJ/mol
# Density = 1.883125 g / cm^3
# Si number density = 18.874213 Si / 1000 Ang^3
#
#
#
# Elastic Constant Matrix: (Units=GPa)
#
#
# Indices 1 2 3 4 5 6 
#
# 1 98.6290 40.9498 25.1990 0.0000 0.0000 0.0000
# 2 40.9498 98.6290 25.1990 0.0000 0.0000 0.0000
# 3 25.1990 25.1990 118.7664 0.0000 0.0000 0.0000
# 4 0.0000 0.0000 0.0000 15.7931 0.0000 0.0000
# 5 0.0000 0.0000 0.0000 0.0000 15.7931 0.0000
# 6 0.0000 0.0000 0.0000 0.0000 0.0000 11.4029
#
#
#
# Elastic Compliance Matrix: (Units=1/GPa)
#
#
# Indices 1 2 3 4 5 6 
#
# 1 0.012548 -0.004789 -0.001646 0.000000 0.000000 0.000000
# 2 -0.004789 0.012548 -0.001646 0.000000 0.000000 0.000000
# 3 -0.001646 -0.001646 0.009118 0.000000 0.000000 0.000000
# 4 0.000000 0.000000 0.000000 0.063319 0.000000 0.000000
# 5 0.000000 0.000000 0.000000 0.000000 0.063319 0.000000
# 6 0.000000 0.000000 0.000000 0.000000 0.000000 0.087697
#
#
# Mechanical properties :
#
#
# Convention : Reuss Voigt Hill
#
# Bulk Modulus (GPa) = 55.39787 55.41334 55.40561
# Shear Modulus (GPa) = 18.46866 23.57628 21.02247
#
# Velocity S-wave (km/s) = 3.13151 3.53813 3.34101
# Velocity P-wave (km/s) = 6.51843 6.79074 6.65598
#
# Compressibility (1/GPa) = 0.01805124
#
# Stress axis : x y z
#
# Youngs Moduli (GPa) = 79.69370 79.69370 109.66774
#
# Poissons Ratio (x) = 0.38167 0.18054
# Poissons Ratio (y) = 0.38167 0.18054
# Poissons Ratio (z) = 0.13119 0.13119
#
# Static dielectric constant tensor:
#      x y z
#    x 3.389290 0.000000 0.000000 
#    y 0.000000 3.389290 0.000000 
#    z 0.000000 0.000000 4.253110 
# 
# 
# High freq. dielectric constant tensor:
#      x y z
#    x 1.706020 0.000000 0.000000 
#    y 0.000000 1.706020 0.000000 
#    z 0.000000 0.000000 1.756020 
# 
# From -- ./inp_files/1639.got.cif
#   From: 2010.03.12/outbox.cif.g09.slc.cpg/sg114_1_cif.got.tgz:1639.got - 2010.04.14 02:08:34.
