data_PCOD8308534
_publ_section_title
;
Structure prediction by ZEFSAII (Michael W. Deem and Ramdas Pophale) SiO2 
 PCOD8308534
Probable space group: P -4 21 M 
;
_chemical_formula_sum "Si O2"
_cell_formula_units_Z 64
_cell_length_a 12.495476
_cell_length_b 12.495476
_cell_length_c 22.967306
_cell_angle_alpha 90.000000
_cell_angle_beta 90.000000
_cell_angle_gamma 90.000000
_cell_volume 3586.044430
_symmetry_space_group_name_H-M "P -4 21 M "
_symmetry_group_IT_number 113
_symmetry_cell_setting 'tetragonal'
loop_
_space_group_symop_operation_xyz
x,y,z
y,-x,-z
-x,-y,z
-y,x,-z
1/2+x,1/2-y,-z
1/2-x,1/2+y,-z
1/2-y,1/2-x,z
1/2+y,1/2+x,z
loop_
_atom_site_type_symbol
_atom_site_label
_atom_site_fract_x
_atom_site_fract_y
_atom_site_fract_z
Si Si1 0.119084 0.050952 0.071209
Si Si2 0.002031 0.675416 0.134594
Si Si3 0.492292 0.827090 0.369656
Si Si4 0.106719 0.221750 0.425049
Si Si5 0.318958 0.640134 0.689674
Si Si6 0.065641 0.735564 0.512541
Si Si7 0.893725 0.063792 0.807582
Si Si8 0.761425 0.567263 0.013920
O O1 0.139382 0.065523 0.139900
O O2 0.133377 0.164971 0.041530
O O3 0.000000 0.000000 0.059589
O O4 0.217183 0.984537 0.045214
O O5 0.892199 0.607802 0.146546
O O6 0.003045 0.789095 0.169582
O O7 0.012753 0.697878 0.065058
O O8 0.105181 0.605181 0.153820
O O9 0.380550 0.880550 0.349718
O O10 0.523777 0.733088 0.324306
O O11 0.479956 0.781620 0.435210
O O12 0.586861 0.913140 0.370882
O O13 0.161925 0.338076 0.420529
O O14 0.095274 0.169085 0.360777
O O15 0.174245 0.147590 0.467901
O O16 0.989766 0.230775 0.452415
O O17 0.227255 0.727255 0.685963
O O18 0.369132 0.644193 0.752906
O O19 0.125421 0.625421 0.499022
O O20 0.000000 0.000000 0.787989
O O21 0.855729 0.644271 0.993272
#
# Coordination Sequence:
#
# PCOD8308534 Si02
#       8
#     8   8   8   8   8   8   8   8
#     4  10  18  35  51  71 104 137 172 210 259 324
#     4   9  19  36  58  82 107 141 184 224 266 320
#     4   8  14  27  50  74  94 125 167 209 255 311
#     4   9  18  32  50  74 101 131 169 212 258 314
#     4   9  18  35  53  70 100 138 180 219 258 316
#     4   9  17  30  48  74 105 132 164 211 266 322
#     4  10  21  36  54  75 105 143 183 227 263 310
#     4  10  18  30  53  80 104 133 168 213 268 320
#
# _framework density 17.846962000000001
#
# number of rings (size 3 to 8) (size 9 to 14) (size 15 to 20)
#    0.000    2.750    1.250    2.250    0.000    2.000 
#    4.500    1.875    0.000    0.750    0.000    0.000 
#    0.000    0.000    0.000    0.000    0.000    0.000 
#
# Total GULP energy -792908.508481 kJ/mol
# GULP energy per Si atom -12389.195445 kJ/mol
# Density = 1.780634 g / cm^3
# Si number density = 17.846962 Si / 1000 Ang^3
#
#
#
# Elastic Constant Matrix: (Units=GPa)
#
#
# Indices 1 2 3 4 5 6 
#
# 1 66.8850 25.1215 34.1380 0.0000 0.0000 0.0000
# 2 25.1215 66.8850 34.1376 0.0000 0.0000 0.0000
# 3 34.1380 34.1376 110.6811 0.0000 0.0000 0.0000
# 4 0.0000 0.0000 0.0000 18.9781 0.0000 0.0000
# 5 0.0000 0.0000 0.0000 0.0000 18.9768 0.0000
# 6 0.0000 0.0000 0.0000 0.0000 0.0000 20.5404
#
#
#
# Elastic Compliance Matrix: (Units=1/GPa)
#
#
# Indices 1 2 3 4 5 6 
#
# 1 0.019020 -0.004925 -0.004347 0.000000 0.000000 0.000000
# 2 -0.004925 0.019020 -0.004347 0.000000 0.000000 0.000000
# 3 -0.004347 -0.004347 0.011717 0.000000 0.000000 0.000000
# 4 0.000000 0.000000 0.000000 0.052692 0.000000 0.000000
# 5 0.000000 0.000000 0.000000 0.000000 0.052696 0.000000
# 6 0.000000 0.000000 0.000000 0.000000 0.000000 0.048684
#
#
# Mechanical properties :
#
#
# Convention : Reuss Voigt Hill
#
# Bulk Modulus (GPa) = 44.41079 47.91617 46.16348
# Shear Modulus (GPa) = 20.95793 21.76933 21.36363
#
# Velocity S-wave (km/s) = 3.43054 3.49632 3.46359
# Velocity P-wave (km/s) = 6.37415 6.57310 6.47439
#
# Compressibility (1/GPa) = 0.02251705
#
# Stress axis : x y z
#
# Youngs Moduli (GPa) = 52.57717 52.57746 85.34831
#
# Poissons Ratio (x) = 0.25893 0.37104
# Poissons Ratio (y) = 0.25893 0.37103
# Poissons Ratio (z) = 0.22857 0.22857
#
# Static dielectric constant tensor:
#      x y z
#    x 3.253890 0.000000 0.000000 
#    y 0.000000 3.253890 0.000000 
#    z 0.000000 0.000000 3.291420 
# 
# 
# High freq. dielectric constant tensor:
#      x y z
#    x 1.674990 0.000000 0.000000 
#    y 0.000000 1.674990 0.000000 
#    z 0.000000 0.000000 1.681250 
# 
# From -- ./inp_files/2877.got.cif
#   From: 2010.03.12/outbox.cif.g09.slc.cpg/sg113_cif.got.tgz:2877.got - 2010.04.14 02:06:34.
