data_PCOD8308579
_publ_section_title
;
Structure prediction by ZEFSAII (Michael W. Deem and Ramdas Pophale) SiO2 
 PCOD8308579
Probable space group: P -4 21 M 
;
_chemical_formula_sum "Si O2"
_cell_formula_units_Z 56
_cell_length_a 15.603524
_cell_length_b 15.603524
_cell_length_c 12.766933
_cell_angle_alpha 90.000000
_cell_angle_beta 90.000000
_cell_angle_gamma 90.000000
_cell_volume 3108.364682
_symmetry_space_group_name_H-M "P -4 21 M "
_symmetry_group_IT_number 113
_symmetry_cell_setting 'tetragonal'
loop_
_space_group_symop_operation_xyz
x,y,z
y,-x,-z
-x,-y,z
-y,x,-z
1/2+x,1/2-y,-z
1/2-x,1/2+y,-z
1/2-y,1/2-x,z
1/2+y,1/2+x,z
loop_
_atom_site_type_symbol
_atom_site_label
_atom_site_fract_x
_atom_site_fract_y
_atom_site_fract_z
Si Si1 0.170690 0.189145 0.697321
Si Si2 0.122832 0.929323 0.499514
Si Si3 0.884014 0.752770 0.906360
Si Si4 0.114804 0.243995 0.307785
Si Si5 0.313564 0.050478 0.021502
Si Si6 0.443821 0.193092 0.776767
Si Si7 0.319202 0.678824 0.897182
O O1 0.224729 0.275272 0.672882
O O2 0.110761 0.167733 0.600841
O O3 0.105043 0.200500 0.795113
O O4 0.233478 0.110901 0.721519
O O5 0.185534 0.910517 0.595346
O O6 0.030761 0.886153 0.519047
O O7 0.791053 0.708948 0.899586
O O8 0.956214 0.681462 0.929320
O O9 0.884275 0.819820 0.003477
O O10 0.197980 0.302021 0.334162
O O11 0.130985 0.176675 0.212858
O O12 0.037552 0.307760 0.275079
O O13 0.405910 0.094091 0.036394
O O14 0.242325 0.098004 0.091161
O O15 0.286716 0.050595 0.900194
O O16 0.399466 0.100535 0.758393
O O17 0.267759 0.767759 0.898640
#
# Coordination Sequence:
#
# PCOD8308579 Si02
#       7
#     8   8   8   8   8   8   8
#     4  10  20  38  59  78 106 148 191 226 274 339
#     4  11  24  40  58  83 110 141 188 240 283 325
#     4  10  19  32  54  80 107 143 182 222 267 332
#     4  11  22  38  58  82 116 149 185 232 284 334
#     4  10  19  32  52  81 116 149 180 221 273 328
#     4  10  19  34  58  84 113 147 186 230 274 331
#     4   9  18  32  50  78 109 141 179 218 268 328
#
# _framework density 18.015903999999999
#
# number of rings (size 3 to 8) (size 9 to 14) (size 15 to 20)
#    0.000    1.857    4.286    0.429    2.000    0.571 
#    0.000    1.429    0.000    3.000    0.000    2.000 
#    0.000    0.000    0.000    0.000    0.000    0.000 
#
# Total GULP energy -694224.654420 kJ/mol
# GULP energy per Si atom -12396.868829 kJ/mol
# Density = 1.797490 g / cm^3
# Si number density = 18.015904 Si / 1000 Ang^3
#
#
#
# Elastic Constant Matrix: (Units=GPa)
#
#
# Indices 1 2 3 4 5 6 
#
# 1 62.8456 14.8329 32.5695 0.0000 0.0000 0.0000
# 2 14.8329 62.8474 32.5705 0.0000 0.0000 0.0000
# 3 32.5695 32.5705 108.0558 0.0000 0.0000 0.0000
# 4 0.0000 0.0000 0.0000 27.7024 0.0000 0.0000
# 5 0.0000 0.0000 0.0000 0.0000 27.7025 0.0000
# 6 0.0000 0.0000 0.0000 0.0000 0.0000 21.2945
#
#
#
# Elastic Compliance Matrix: (Units=1/GPa)
#
#
# Indices 1 2 3 4 5 6 
#
# 1 0.019028 -0.001800 -0.005193 0.000000 0.000000 0.000000
# 2 -0.001800 0.019027 -0.005193 0.000000 0.000000 0.000000
# 3 -0.005193 -0.005193 0.012385 0.000000 0.000000 0.000000
# 4 0.000000 0.000000 0.000000 0.036098 0.000000 0.000000
# 5 0.000000 0.000000 0.000000 0.000000 0.036098 0.000000
# 6 0.000000 0.000000 0.000000 0.000000 0.000000 0.046960
#
#
# Mechanical properties :
#
#
# Convention : Reuss Voigt Hill
#
# Bulk Modulus (GPa) = 38.35887 43.74383 41.05135
# Shear Modulus (GPa) = 24.67220 25.59161 25.13190
#
# Velocity S-wave (km/s) = 3.70465 3.77304 3.73900
# Velocity P-wave (km/s) = 6.29580 6.58138 6.44017
#
# Compressibility (1/GPa) = 0.02606959
#
# Stress axis : x y z
#
# Youngs Moduli (GPa) = 52.55432 52.55551 80.74342
#
# Poissons Ratio (x) = 0.09458 0.41928
# Poissons Ratio (y) = 0.09458 0.41929
# Poissons Ratio (z) = 0.27290 0.27291
#
# Static dielectric constant tensor:
#      x y z
#    x 3.210060 0.000000 0.000000 
#    y 0.000000 3.210060 0.000000 
#    z 0.000000 0.000000 3.412490 
# 
# 
# High freq. dielectric constant tensor:
#      x y z
#    x 1.687950 0.000000 0.000000 
#    y 0.000000 1.687950 0.000000 
#    z 0.000000 0.000000 1.701370 
# 
# From -- ./inp_files/1905.got.cif
#   From: 2010.03.12/outbox.cif.g09.slc.cpg/sg113_cif.got.tgz:1905.got - 2010.04.14 02:06:34.
