data_PCOD8308388
_publ_section_title
;
Structure prediction by ZEFSAII (Michael W. Deem and Ramdas Pophale) SiO2 
 PCOD8308388
Probable space group: P -4 2 C
;
_chemical_formula_sum "Si O2"
_cell_formula_units_Z 48
_cell_length_a 8.896490
_cell_length_b 8.896490
_cell_length_c 30.389673
_cell_angle_alpha 90.000000
_cell_angle_beta 90.000000
_cell_angle_gamma 90.000000
_cell_volume 2405.267687
_symmetry_space_group_name_H-M "P -4 2 C"
_symmetry_group_IT_number 112
_symmetry_cell_setting 'tetragonal'
loop_
_space_group_symop_operation_xyz
x,y,z
y,-x,-z
-x,-y,z
-y,x,-z
x,-y,1/2-z
-x,y,1/2-z
-y,-x,1/2+z
y,x,1/2+z
loop_
_atom_site_type_symbol
_atom_site_label
_atom_site_fract_x
_atom_site_fract_y
_atom_site_fract_z
Si Si1 0.330923 0.177688 0.826000
Si Si2 0.341099 0.316256 0.575434
Si Si3 0.163131 0.184284 0.994983
Si Si4 0.823900 0.328149 0.755249
Si Si5 0.336787 0.311560 0.415163
Si Si6 0.166081 0.681713 0.334951
O O1 0.261989 0.231869 0.780727
O O2 0.272946 0.278152 0.866442
O O3 0.509360 0.192015 0.822154
O O4 0.275261 0.007944 0.832275
O O5 0.267034 0.264866 0.530491
O O6 0.290216 0.485368 0.584894
O O7 0.519662 0.295941 0.570306
O O8 0.282431 0.215083 0.615396
O O9 0.194777 0.257865 0.947804
O O10 0.989842 0.207691 0.007051
O O11 0.772836 0.500000 0.750000
O O12 0.782534 0.267140 0.803213
O O13 0.000000 0.308845 0.750000
#
# Coordination Sequence:
#
# PCOD8308388 Si02
#       6
#     8   8   8   8   8   8
#     4  10  21  38  61  87 114 147 188 233 283 338
#     4  10  21  38  61  87 113 145 187 233 281 334
#     4  11  24  39  56  82 116 153 190 229 278 334
#     4  11  24  39  56  82 116 153 192 233 280 334
#     4  10  21  38  61  87 113 145 187 233 281 334
#     4  10  21  38  61  87 114 147 188 233 283 338
#
# _framework density 19.956199000000002
#
# number of rings (size 3 to 8) (size 9 to 14) (size 15 to 20)
#    0.000    1.667    0.000    4.000    0.000   12.000 
#    0.000    0.000    0.000    0.000    0.000    0.000 
#    0.000    0.000    0.000    0.000    0.000    0.000 
#
# Total GULP energy -595525.238104 kJ/mol
# GULP energy per Si atom -12406.775794 kJ/mol
# Density = 1.991078 g / cm^3
# Si number density = 19.956199 Si / 1000 Ang^3
#
#
#
# Elastic Constant Matrix: (Units=GPa)
#
#
# Indices 1 2 3 4 5 6 
#
# 1 61.2517 12.1406 4.5096 0.0000 0.0000 0.0000
# 2 12.1406 61.2517 4.5096 0.0000 0.0000 0.0000
# 3 4.5096 4.5096 64.9702 0.0000 0.0000 0.0000
# 4 0.0000 0.0000 0.0000 33.4635 0.0000 0.0000
# 5 0.0000 0.0000 0.0000 0.0000 33.4635 0.0000
# 6 0.0000 0.0000 0.0000 0.0000 0.0000 26.3476
#
#
#
# Elastic Compliance Matrix: (Units=1/GPa)
#
#
# Indices 1 2 3 4 5 6 
#
# 1 0.017052 -0.003310 -0.000954 0.000000 0.000000 0.000000
# 2 -0.003310 0.017052 -0.000954 0.000000 0.000000 0.000000
# 3 -0.000954 -0.000954 0.015524 0.000000 0.000000 0.000000
# 4 0.000000 0.000000 0.000000 0.029883 0.000000 0.000000
# 5 0.000000 0.000000 0.000000 0.000000 0.029883 0.000000
# 6 0.000000 0.000000 0.000000 0.000000 0.000000 0.037954
#
#
# Mechanical properties :
#
#
# Convention : Reuss Voigt Hill
#
# Bulk Modulus (GPa) = 25.51423 25.53259 25.52341
# Shear Modulus (GPa) = 29.26564 29.74253 29.50409
#
# Velocity S-wave (km/s) = 3.83364 3.86475 3.84922
# Velocity P-wave (km/s) = 5.69285 5.72163 5.70726
#
# Compressibility (1/GPa) = 0.03919381
#
# Stress axis : x y z
#
# Youngs Moduli (GPa) = 58.64312 58.64312 64.41596
#
# Poissons Ratio (x) = 0.19409 0.06145
# Poissons Ratio (y) = 0.19409 0.06145
# Poissons Ratio (z) = 0.05594 0.05594
#
# Static dielectric constant tensor:
#      x y z
#    x 3.674820 0.000000 0.000000 
#    y 0.000000 3.674820 0.000000 
#    z 0.000000 0.000000 3.630420 
# 
# 
# High freq. dielectric constant tensor:
#      x y z
#    x 1.782310 0.000000 0.000000 
#    y 0.000000 1.782310 0.000000 
#    z 0.000000 0.000000 1.792610 
# 
# From -- ./inp_files/6285.got.cif
#   From: 2010.03.12/outbox.cif.g09.slc.cpg/sg112_4_cif.got.tgz:6285.got - 2010.04.14 02:02:48.
