data_PCOD8308689
_publ_section_title
;
Structure prediction by ZEFSAII (Michael W. Deem and Ramdas Pophale) SiO2 
 PCOD8308689
Probable space group: P -4 21 M 
;
_chemical_formula_sum "Si O2"
_cell_formula_units_Z 34
_cell_length_a 9.219262
_cell_length_b 9.219262
_cell_length_c 18.352087
_cell_angle_alpha 90.000000
_cell_angle_beta 90.000000
_cell_angle_gamma 90.000000
_cell_volume 1559.831814
_symmetry_space_group_name_H-M "P -4 21 M "
_symmetry_group_IT_number 113
_symmetry_cell_setting 'tetragonal'
loop_
_space_group_symop_operation_xyz
x,y,z
y,-x,-z
-x,-y,z
-y,x,-z
1/2+x,1/2-y,-z
1/2-x,1/2+y,-z
1/2-y,1/2-x,z
1/2+y,1/2+x,z
loop_
_atom_site_type_symbol
_atom_site_label
_atom_site_fract_x
_atom_site_fract_y
_atom_site_fract_z
Si Si1 0.383502 0.883502 0.990914
Si Si2 0.977795 0.844852 0.123488
Si Si3 0.554906 0.712947 0.520381
Si Si4 0.500000 0.000000 0.220810
Si Si5 0.213565 0.286436 0.857242
Si Si6 0.273083 0.226918 0.230579
Si Si7 0.385022 0.885022 0.639075
O O1 0.269033 0.965623 0.940848
O O2 0.500000 0.000000 0.021111
O O3 0.300584 0.800584 0.055066
O O4 0.844105 0.851822 0.179412
O O5 0.123117 0.814316 0.169763
O O6 0.000000 0.000000 0.085611
O O7 0.660824 0.573276 0.535493
O O8 0.652244 0.847757 0.489389
O O9 0.472528 0.764143 0.593000
O O10 0.399490 0.899490 0.172915
O O11 0.609881 0.890120 0.263213
O O12 0.196189 0.303812 0.297302
O O13 0.500000 0.000000 0.671492
#
# Coordination Sequence:
#
# PCOD8308689 Si02
#       7
#     4   8   8   2   4   4   4
#     4  11  25  39  63  97 129 166 226 284 354 436
#     4  11  25  42  64  93 132 178 217 284 350 408
#     4  10  20  40  69 104 144 178 220 273 337 390
#     4  12  24  48  70  94 134 166 230 308 332 406
#     4  12  25  40  63  94 128 170 225 288 355 411
#     4  11  26  47  70  97 132 181 239 272 338 405
#     4  10  23  44  74 104 137 185 230 279 325 409
#
# _framework density 21.797224
#
# number of rings (size 3 to 8) (size 9 to 14) (size 15 to 20)
#    0.000    1.176    5.294    0.000    4.941    0.000 
#    4.235    1.176    0.000    0.000    0.000    0.000 
#    0.000    0.000    0.000    0.000    0.000    0.000 
#
# Total GULP energy -421240.714175 kJ/mol
# GULP energy per Si atom -12389.432770 kJ/mol
# Density = 2.174761 g / cm^3
# Si number density = 21.797224 Si / 1000 Ang^3
#
#
#
# Elastic Constant Matrix: (Units=GPa)
#
#
# Indices 1 2 3 4 5 6 
#
# 1 144.3575 76.1691 33.9006 0.0000 0.0000 0.0000
# 2 76.1691 144.3551 33.9013 0.0000 0.0000 0.0000
# 3 33.9006 33.9013 58.1365 0.0000 0.0000 0.0000
# 4 0.0000 0.0000 0.0000 154.4982 0.0000 0.0000
# 5 0.0000 0.0000 0.0000 0.0000 154.4797 0.0000
# 6 0.0000 0.0000 0.0000 0.0000 0.0000 63.6970
#
#
#
# Elastic Compliance Matrix: (Units=1/GPa)
#
#
# Indices 1 2 3 4 5 6 
#
# 1 0.010095 -0.004570 -0.003222 0.000000 0.000000 0.000000
# 2 -0.004570 0.010095 -0.003222 0.000000 0.000000 0.000000
# 3 -0.003222 -0.003222 0.020958 0.000000 0.000000 0.000000
# 4 0.000000 0.000000 0.000000 0.006473 0.000000 0.000000
# 5 0.000000 0.000000 0.000000 0.000000 0.006473 0.000000
# 6 0.000000 0.000000 0.000000 0.000000 0.000000 0.015699
#
#
# Mechanical properties :
#
#
# Convention : Reuss Voigt Hill
#
# Bulk Modulus (GPa) = 52.29777 70.53236 61.41507
# Shear Modulus (GPa) = 50.91850 88.06019 69.48935
#
# Velocity S-wave (km/s) = 4.83847 6.36297 5.65235
# Velocity P-wave (km/s) = 7.43366 9.29580 8.41639
#
# Compressibility (1/GPa) = 0.01912127
#
# Stress axis : x y z
#
# Youngs Moduli (GPa) = 99.05659 99.05407 47.71341
#
# Poissons Ratio (x) = 0.45269 0.15372
# Poissons Ratio (y) = 0.45270 0.15374
# Poissons Ratio (z) = 0.31914 0.31916
#
# Static dielectric constant tensor:
#      x y z
#    x 4.455570 0.000000 0.000000 
#    y 0.000000 4.455590 0.000000 
#    z 0.000000 0.000000 3.240040 
# 
# 
# High freq. dielectric constant tensor:
#      x y z
#    x 1.888260 0.000000 0.000000 
#    y 0.000000 1.888260 0.000000 
#    z 0.000000 0.000000 1.784270 
# 
# From -- ./inp_files/2633.got.cif
#   From: 2010.03.12/outbox.cif.g09.slc.cpg/sg113_cif.got.tgz:2633.got - 2010.04.14 02:06:34.
