data_PCOD8308195
_publ_section_title
;
Structure prediction by ZEFSAII (Michael W. Deem and Ramdas Pophale) SiO2 
 PCOD8308195
Probable space group: P -4 2 M 
;
_chemical_formula_sum "Si O2"
_cell_formula_units_Z 36
_cell_length_a 16.060864
_cell_length_b 16.060864
_cell_length_c 7.611785
_cell_angle_alpha 90.000000
_cell_angle_beta 90.000000
_cell_angle_gamma 90.000000
_cell_volume 1963.470235
_symmetry_space_group_name_H-M "P -4 2 M "
_symmetry_group_IT_number 111
_symmetry_cell_setting 'tetragonal'
loop_
_space_group_symop_operation_xyz
x,y,z
y,-x,-z
-x,-y,z
-y,x,-z
x,-y,-z
-x,y,-z
-y,-x,z
y,x,z
loop_
_atom_site_type_symbol
_atom_site_label
_atom_site_fract_x
_atom_site_fract_y
_atom_site_fract_z
Si Si1 0.868671 0.000000 0.500000
Si Si2 0.008781 0.254545 0.802527
Si Si3 0.320036 0.814322 0.163532
Si Si4 0.595640 0.268401 0.475654
Si Si5 0.310082 0.824928 0.767757
O O1 0.817558 0.030018 0.332505
O O2 0.923349 0.076652 0.566681
O O3 0.087348 0.316654 0.794584
O O4 0.923915 0.299807 0.744228
O O5 0.000000 0.218065 0.000000
O O6 0.230838 0.769163 0.200059
O O7 0.390331 0.772759 0.284681
O O8 0.345505 0.802200 0.960237
O O9 0.500000 0.291002 0.500000
O O10 0.646079 0.353922 0.495051
O O11 0.623244 0.203364 0.624664
O O12 0.221348 0.778653 0.735989
#
# Coordination Sequence:
#
# PCOD8308195 Si02
#       5
#     4   8   8   8   8
#     4  11  22  30  40  66 103 140 180 228 271 298
#     4  10  19  33  53  74  99 137 182 218 252 302
#     4   9  18  33  53  76 103 137 175 214 255 298
#     4  10  21  37  57  79 103 131 163 204 256 314
#     4   9  18  33  53  76 103 137 175 214 255 298
#
# _framework density 18.334885
#
# number of rings (size 3 to 8) (size 9 to 14) (size 15 to 20)
#    0.000    2.333    0.000    2.667    0.000    5.556 
#    0.000    3.333    0.000    4.000    0.000    6.222 
#    0.000    0.000    0.000    0.000    0.000    0.000 
#
# Total GULP energy -446378.477652 kJ/mol
# GULP energy per Si atom -12399.402157 kJ/mol
# Density = 1.829315 g / cm^3
# Si number density = 18.334885 Si / 1000 Ang^3
#
#
#
# Elastic Constant Matrix: (Units=GPa)
#
#
# Indices 1 2 3 4 5 6 
#
# 1 90.3927 15.3375 25.5144 0.0000 0.0000 0.0000
# 2 15.3375 90.3923 25.5148 0.0000 0.0000 0.0000
# 3 25.5144 25.5148 82.9674 0.0000 0.0000 0.0000
# 4 0.0000 0.0000 0.0000 20.0181 0.0000 0.0000
# 5 0.0000 0.0000 0.0000 0.0000 20.0200 0.0000
# 6 0.0000 0.0000 0.0000 0.0000 0.0000 10.9475
#
#
#
# Elastic Compliance Matrix: (Units=1/GPa)
#
#
# Indices 1 2 3 4 5 6 
#
# 1 0.012215 -0.001109 -0.003415 0.000000 0.000000 0.000000
# 2 -0.001109 0.012215 -0.003416 0.000000 0.000000 0.000000
# 3 -0.003415 -0.003416 0.014154 0.000000 0.000000 0.000000
# 4 0.000000 0.000000 0.000000 0.049955 0.000000 0.000000
# 5 0.000000 0.000000 0.000000 0.000000 0.049950 0.000000
# 6 0.000000 0.000000 0.000000 0.000000 0.000000 0.091345
#
#
# Mechanical properties :
#
#
# Convention : Reuss Voigt Hill
#
# Bulk Modulus (GPa) = 44.04408 44.05400 44.04904
# Shear Modulus (GPa) = 19.74091 23.35616 21.54853
#
# Velocity S-wave (km/s) = 3.28485 3.57300 3.43195
# Velocity P-wave (km/s) = 6.20170 6.41103 6.30724
#
# Compressibility (1/GPa) = 0.02270453
#
# Stress axis : x y z
#
# Youngs Moduli (GPa) = 81.86661 81.86599 70.65311
#
# Poissons Ratio (x) = 0.09075 0.24132
# Poissons Ratio (y) = 0.09075 0.24132
# Poissons Ratio (z) = 0.27962 0.27962
#
# Static dielectric constant tensor:
#      x y z
#    x 3.137380 0.000000 0.000000 
#    y 0.000000 3.137380 0.000000 
#    z 0.000000 0.000000 3.661170 
# 
# 
# High freq. dielectric constant tensor:
#      x y z
#    x 1.688050 0.000000 0.000000 
#    y 0.000000 1.688050 0.000000 
#    z 0.000000 0.000000 1.732390 
# 
# From -- ./inp_files/1391.got.cif
#   From: 2010.03.12/outbox.cif.g09.slc.cpg/sg111_1_cif.got.tgz:1391.got - 2010.04.14 01:59:48.
