data_PCOD8308820
_publ_section_title
;
Structure prediction by ZEFSAII (Michael W. Deem and Ramdas Pophale) SiO2 
 PCOD8308820
Probable space group: P -4 21 C
;
_chemical_formula_sum "Si O2"
_cell_formula_units_Z 50
_cell_length_a 13.344455
_cell_length_b 13.344455
_cell_length_c 14.632800
_cell_angle_alpha 90.000000
_cell_angle_beta 90.000000
_cell_angle_gamma 90.000000
_cell_volume 2605.728240
_symmetry_space_group_name_H-M "P -4 21 C"
_symmetry_group_IT_number 114
_symmetry_cell_setting 'tetragonal'
loop_
_space_group_symop_operation_xyz
x,y,z
y,-x,-z
-x,-y,z
-y,x,-z
1/2+x,1/2-y,1/2-z
1/2-x,1/2+y,1/2-z
1/2-y,1/2-x,1/2+z
1/2+y,1/2+x,1/2+z
loop_
_atom_site_type_symbol
_atom_site_label
_atom_site_fract_x
_atom_site_fract_y
_atom_site_fract_z
Si Si1 0.000000 0.000000 0.500000
Si Si2 0.335423 0.326088 0.165578
Si Si3 0.335181 0.443939 0.880725
Si Si4 0.180506 0.672542 0.498426
Si Si5 0.532188 0.204092 0.946517
Si Si6 0.536417 0.109446 0.553371
Si Si7 0.725810 0.204130 0.149612
O O1 0.937042 0.079090 0.561193
O O2 0.453476 0.352901 0.174669
O O3 0.272849 0.422739 0.132756
O O4 0.301092 0.301108 0.266550
O O5 0.320554 0.236081 0.094853
O O6 0.297513 0.348948 0.822529
O O7 0.246272 0.453764 0.952281
O O8 0.182883 0.556283 0.470129
O O9 0.275075 0.708354 0.558243
O O10 0.086394 0.690982 0.566707
O O11 0.590185 0.097537 0.958059
O O12 0.600806 0.165185 0.632548
O O13 0.500000 0.000000 0.591112
#
# Coordination Sequence:
#
# PCOD8308820 Si02
#       7
#     2   8   8   8   8   8   8
#     4  12  16  32  68  84 116 158 196 272 316 360
#     4  11  21  35  60  89 122 155 204 250 305 363
#     4  10  19  34  57  87 116 150 195 258 312 348
#     4  10  20  38  60  85 121 159 196 255 306 355
#     4   9  17  36  59  85 112 156 199 242 302 352
#     4   9  19  38  62  82 121 164 203 247 303 361
#     4  11  23  38  59  92 124 162 206 245 310 377
#
# _framework density 19.188493000000001
#
# number of rings (size 3 to 8) (size 9 to 14) (size 15 to 20)
#    0.000    1.920    4.800    1.920    0.000    2.560 
#    0.000    2.400    0.000    0.480    0.000    0.000 
#    0.000    0.000    0.000    0.000    0.000    0.000 
#
# Total GULP energy -619515.364195 kJ/mol
# GULP energy per Si atom -12390.307284 kJ/mol
# Density = 1.914482 g / cm^3
# Si number density = 19.188493 Si / 1000 Ang^3
#
#
#
# Elastic Constant Matrix: (Units=GPa)
#
#
# Indices 1 2 3 4 5 6 
#
# 1 83.8807 29.5453 28.2922 0.0000 0.0000 0.0000
# 2 29.5453 83.8807 28.2922 0.0000 0.0000 0.0000
# 3 28.2922 28.2922 69.9849 0.0000 0.0000 0.0000
# 4 0.0000 0.0000 0.0000 20.5406 0.0000 0.0000
# 5 0.0000 0.0000 0.0000 0.0000 20.5406 0.0000
# 6 0.0000 0.0000 0.0000 0.0000 0.0000 34.7440
#
#
#
# Elastic Compliance Matrix: (Units=1/GPa)
#
#
# Indices 1 2 3 4 5 6 
#
# 1 0.014724 -0.003680 -0.004464 0.000000 0.000000 0.000000
# 2 -0.003680 0.014724 -0.004464 0.000000 0.000000 0.000000
# 3 -0.004464 -0.004464 0.017898 0.000000 0.000000 0.000000
# 4 0.000000 0.000000 0.000000 0.048684 0.000000 0.000000
# 5 0.000000 0.000000 0.000000 0.000000 0.048684 0.000000
# 6 0.000000 0.000000 0.000000 0.000000 0.000000 0.028782
#
#
# Mechanical properties :
#
#
# Convention : Reuss Voigt Hill
#
# Bulk Modulus (GPa) = 45.19249 45.55617 45.37433
# Shear Modulus (GPa) = 24.26117 25.27281 24.76699
#
# Velocity S-wave (km/s) = 3.55964 3.63310 3.59656
# Velocity P-wave (km/s) = 6.36378 6.43367 6.39882
#
# Compressibility (1/GPa) = 0.02212757
#
# Stress axis : x y z
#
# Youngs Moduli (GPa) = 67.91702 67.91702 55.87087
#
# Poissons Ratio (x) = 0.24996 0.24943
# Poissons Ratio (y) = 0.24996 0.24943
# Poissons Ratio (z) = 0.30321 0.30321
#
# Static dielectric constant tensor:
#      x y z
#    x 3.768610 0.000000 0.000000 
#    y 0.000000 3.768610 0.000000 
#    z 0.000000 0.000000 2.977760 
# 
# 
# High freq. dielectric constant tensor:
#      x y z
#    x 1.752490 0.000000 0.000000 
#    y 0.000000 1.752490 0.000000 
#    z 0.000000 0.000000 1.692360 
# 
# From -- ./inp_files/2229.got.cif
#   From: 2010.03.12/outbox.cif.g09.slc.cpg/sg114_2_cif.got.tgz:2229.got - 2010.04.14 02:08:34.
