data_PCOD8308006
_publ_section_title
;
Structure prediction by ZEFSAII (Michael W. Deem and Ramdas Pophale) SiO2 
 PCOD8308006
Probable space group: I 41 C D
;
_chemical_formula_sum "Si O2"
_cell_formula_units_Z 112
_cell_length_a 33.391940
_cell_length_b 33.391940
_cell_length_c 5.049591
_cell_angle_alpha 90.000000
_cell_angle_beta 90.000000
_cell_angle_gamma 90.000000
_cell_volume 5630.403324
_symmetry_space_group_name_H-M "I 41 C D"
_symmetry_group_IT_number 110
_symmetry_cell_setting 'tetragonal'
loop_
_space_group_symop_operation_xyz
x,y,z
-y,1/2+x,1/4+z
-x,-y,z
y,1/2-x,1/4+z
-x,y,1/2+z
x,-y,1/2+z
1/2-y,-x,1/4+z
1/2+y,x,1/4+z
1/2+x,1/2+y,1/2+z
1/2-y,x,3/4+z
1/2-x,1/2-y,1/2+z
1/2+y,-x,3/4+z
1/2-x,1/2+y,z
1/2+x,1/2-y,z
-y,1/2-x,3/4+z
y,1/2+x,3/4+z
loop_
_atom_site_type_symbol
_atom_site_label
_atom_site_fract_x
_atom_site_fract_y
_atom_site_fract_z
Si Si1 0.146798 0.023943 0.802900
Si Si2 0.301472 0.857470 0.567950
Si Si3 0.183998 0.895436 0.306114
Si Si4 0.284251 0.640665 0.294306
Si Si5 0.474442 0.384124 0.310398
Si Si6 0.526397 0.945838 0.531194
Si Si7 0.108987 0.160666 0.819934
O O1 0.176079 0.059472 0.717718
O O2 0.100926 0.037113 0.776656
O O3 0.156053 0.987649 0.604749
O O4 0.322605 0.814865 0.525294
O O5 0.258542 0.845002 0.686556
O O6 0.304647 0.881575 0.289382
O O7 0.321238 0.887685 0.777722
O O8 0.203537 0.895072 0.595965
O O9 0.141445 0.874189 0.336271
O O10 0.214464 0.875351 0.095259
O O11 0.507141 0.372099 0.529025
O O12 0.467901 0.431779 0.323654
O O13 0.434432 0.358632 0.362559
O O14 0.505226 0.958130 0.257436
#
# Coordination Sequence:
#
# PCOD8308006 Si02
#       7
#    16  16  16  16  16  16  16
#     4  10  19  32  54  80 111 146 187 242 287 320
#     4  10  21  39  63  89 119 144 183 226 285 345
#     4  10  19  36  59  83 113 149 198 227 275 345
#     4  10  21  36  62  91 115 149 177 222 281 343
#     4  12  24  37  57  82 113 156 206 244 289 344
#     4  10  21  35  52  78 115 151 187 241 305 344
#     4  10  21  39  59  81 113 154 195 239 273 333
#
# _framework density 19.892005000000001
#
# number of rings (size 3 to 8) (size 9 to 14) (size 15 to 20)
#    0.000    1.714    1.429    3.429    0.000    1.714 
#    0.000    4.286    0.000   17.143    0.000    0.000 
#    0.000    0.000    0.000    0.000    0.000    0.000 
#
# Total GULP energy -694199.484256 kJ/mol
# GULP energy per Si atom -12396.419362 kJ/mol
# Density = 1.984673 g / cm^3
# Si number density = 19.892005 Si / 1000 Ang^3
#
#
#
# Elastic Constant Matrix: (Units=GPa)
#
#
# Indices 1 2 3 4 5 6 
#
# 1 73.7328 44.7016 23.6808 0.0000 0.0000 0.0000
# 2 44.7016 73.7328 23.6808 0.0000 0.0000 0.0000
# 3 23.6808 23.6808 101.3223 0.0000 0.0000 0.0000
# 4 0.0000 0.0000 0.0000 4.2015 0.0000 0.0000
# 5 0.0000 0.0000 0.0000 0.0000 4.2015 0.0000
# 6 0.0000 0.0000 0.0000 0.0000 0.0000 18.8922
#
#
#
# Elastic Compliance Matrix: (Units=1/GPa)
#
#
# Indices 1 2 3 4 5 6 
#
# 1 0.021880 -0.012566 -0.002177 0.000000 0.000000 0.000000
# 2 -0.012566 0.021880 -0.002177 0.000000 0.000000 0.000000
# 3 -0.002177 -0.002177 0.010887 0.000000 0.000000 0.000000
# 4 0.000000 0.000000 0.000000 0.238011 0.000000 0.000000
# 5 0.000000 0.000000 0.000000 0.000000 0.238011 0.000000
# 6 0.000000 0.000000 0.000000 0.000000 0.000000 0.052932
#
#
# Mechanical properties :
#
#
# Convention : Reuss Voigt Hill
#
# Bulk Modulus (GPa) = 48.05924 48.10160 48.08042
# Shear Modulus (GPa) = 8.00801 15.90735 11.95768
#
# Velocity S-wave (km/s) = 2.00860 2.83094 2.45445
# Velocity P-wave (km/s) = 5.43984 5.90927 5.67941
#
# Compressibility (1/GPa) = 0.02080765
#
# Stress axis : x y z
#
# Youngs Moduli (GPa) = 45.70416 45.70416 91.85237
#
# Poissons Ratio (x) = 0.57431 0.19995
# Poissons Ratio (y) = 0.57431 0.19995
# Poissons Ratio (z) = 0.09949 0.09949
#
# Static dielectric constant tensor:
#      x y z
#    x 3.483970 0.000000 0.000000 
#    y 0.000000 3.483970 0.000000 
#    z 0.000000 0.000000 3.875260 
# 
# 
# High freq. dielectric constant tensor:
#      x y z
#    x 1.759590 0.000000 0.000000 
#    y 0.000000 1.759590 0.000000 
#    z 0.000000 0.000000 1.797410 
# 
# From -- ./inp_files/152.got.cif
#   From: 2010.03.12/outbox.cif.g09.slc.cpg/sg110_1_cif.got.tgz:152.got - 2010.04.14 01:58:01.
