data_PCOD8308228
_publ_section_title
;
Structure prediction by ZEFSAII (Michael W. Deem and Ramdas Pophale) SiO2 
 PCOD8308228
Probable space group: P -4 2 M 
;
_chemical_formula_sum "Si O2"
_cell_formula_units_Z 40
_cell_length_a 12.579548
_cell_length_b 12.579548
_cell_length_c 14.404141
_cell_angle_alpha 90.000000
_cell_angle_beta 90.000000
_cell_angle_gamma 90.000000
_cell_volume 2279.383694
_symmetry_space_group_name_H-M "P -4 2 M "
_symmetry_group_IT_number 111
_symmetry_cell_setting 'tetragonal'
loop_
_space_group_symop_operation_xyz
x,y,z
y,-x,-z
-x,-y,z
-y,x,-z
x,-y,-z
-x,y,-z
-y,-x,z
y,x,z
loop_
_atom_site_type_symbol
_atom_site_label
_atom_site_fract_x
_atom_site_fract_y
_atom_site_fract_z
Si Si1 0.878671 0.294408 0.285114
Si Si2 0.207573 0.377542 0.104003
Si Si3 0.705593 0.121330 0.714884
Si Si4 0.792428 0.377542 0.104002
Si Si5 0.500000 0.126321 0.395177
O O1 0.808209 0.191792 0.309372
O O2 0.873789 0.323738 0.175979
O O3 0.832938 0.393895 0.343748
O O4 0.000000 0.267407 0.311350
O O5 0.322670 0.322670 0.112966
O O6 0.126215 0.323735 0.175980
O O7 0.223679 0.500000 0.128966
O O8 0.160803 0.362894 0.000001
O O9 0.808211 0.191790 0.690624
O O10 0.606106 0.167062 0.656251
O O11 0.677334 0.322667 0.112967
O O12 0.500000 0.170256 0.500000
O O13 0.500000 0.000000 0.392364
#
# Coordination Sequence:
#
# PCOD8308228 Si02
#       5
#     8   8   8   8   8
#     4  10  20  34  52  76 105 136 172 210 250 299
#     4   9  17  29  47  73 104 137 172 210 253 301
#     4  10  20  34  52  76 105 136 172 210 250 299
#     4   9  17  29  47  73 104 137 172 210 253 301
#     4   9  18  34  55  76  98 127 165 210 258 303
#
# _framework density 17.548604000000001
#
# number of rings (size 3 to 8) (size 9 to 14) (size 15 to 20)
#    0.000    2.600    2.000    0.000    0.000    2.400 
#    0.000    4.000    0.000    0.600    0.000   12.600 
#    0.000    0.000    0.000    0.000    0.000    0.000 
#
# Total GULP energy -495912.338539 kJ/mol
# GULP energy per Si atom -12397.808463 kJ/mol
# Density = 1.750866 g / cm^3
# Si number density = 17.548604 Si / 1000 Ang^3
#
#
#
# Elastic Constant Matrix: (Units=GPa)
#
#
# Indices 1 2 3 4 5 6 
#
# 1 93.8728 50.4117 35.3814 0.0000 0.0000 0.0000
# 2 50.4117 93.8750 35.3812 0.0000 0.0000 0.0000
# 3 35.3814 35.3812 94.4548 0.0000 0.0000 0.0000
# 4 0.0000 0.0000 0.0000 18.8663 0.0000 0.0000
# 5 0.0000 0.0000 0.0000 0.0000 18.8660 0.0000
# 6 0.0000 0.0000 0.0000 0.0000 0.0000 18.0280
#
#
#
# Elastic Compliance Matrix: (Units=1/GPa)
#
#
# Indices 1 2 3 4 5 6 
#
# 1 0.015750 -0.007259 -0.003181 0.000000 0.000000 0.000000
# 2 -0.007259 0.015749 -0.003180 0.000000 0.000000 0.000000
# 3 -0.003181 -0.003180 0.012970 0.000000 0.000000 0.000000
# 4 0.000000 0.000000 0.000000 0.053005 0.000000 0.000000
# 5 0.000000 0.000000 0.000000 0.000000 0.053005 0.000000
# 6 0.000000 0.000000 0.000000 0.000000 0.000000 0.055469
#
#
# Mechanical properties :
#
#
# Convention : Reuss Voigt Hill
#
# Bulk Modulus (GPa) = 58.04140 58.28347 58.16243
# Shear Modulus (GPa) = 20.92658 21.88728 21.40693
#
# Velocity S-wave (km/s) = 3.45700 3.53546 3.49645
# Velocity P-wave (km/s) = 7.00577 7.06758 7.03674
#
# Compressibility (1/GPa) = 0.01722908
#
# Stress axis : x y z
#
# Youngs Moduli (GPa) = 63.49318 63.49503 77.10261
#
# Poissons Ratio (x) = 0.46091 0.24523
# Poissons Ratio (y) = 0.46090 0.24521
# Poissons Ratio (z) = 0.20194 0.20193
#
# Static dielectric constant tensor:
#      x y z
#    x 3.077440 0.000000 0.000000 
#    y 0.000000 3.077440 0.000000 
#    z 0.000000 0.000000 3.455250 
# 
# 
# High freq. dielectric constant tensor:
#      x y z
#    x 1.661280 0.000000 0.000000 
#    y 0.000000 1.661280 0.000000 
#    z 0.000000 0.000000 1.686090 
# 
# From -- ./inp_files/3166.got.cif
#   From: 2010.03.12/outbox.cif.g09.slc.cpg/sg111_2_cif.got.tgz:3166.got - 2010.04.14 01:59:48.
