data_PCOD8308142
_publ_section_title
;
Structure prediction by ZEFSAII (Michael W. Deem and Ramdas Pophale) SiO2 
 PCOD8308142
Probable space group: P -4 2 M 
;
_chemical_formula_sum "Si O2"
_cell_formula_units_Z 48
_cell_length_a 12.469588
_cell_length_b 12.469588
_cell_length_c 18.699175
_cell_angle_alpha 90.000000
_cell_angle_beta 90.000000
_cell_angle_gamma 90.000000
_cell_volume 2907.546406
_symmetry_space_group_name_H-M "P -4 2 M "
_symmetry_group_IT_number 111
_symmetry_cell_setting 'tetragonal'
loop_
_space_group_symop_operation_xyz
x,y,z
y,-x,-z
-x,-y,z
-y,x,-z
x,-y,-z
-x,y,-z
-y,-x,z
y,x,z
loop_
_atom_site_type_symbol
_atom_site_label
_atom_site_fract_x
_atom_site_fract_y
_atom_site_fract_z
Si Si1 0.873232 0.380971 0.077758
Si Si2 0.876965 0.709765 0.775077
Si Si3 0.500000 0.326957 0.415721
Si Si4 0.619029 0.873232 0.077758
Si Si5 0.500000 0.877962 0.681369
Si Si6 0.123035 0.290235 0.224923
O O1 0.835284 0.308485 0.143709
O O2 0.823074 0.500000 0.084959
O O3 1.000000 0.391838 0.082785
O O4 0.839815 0.331724 1.000000
O O5 0.805248 0.805248 0.742230
O O6 0.859155 0.603005 0.730077
O O7 1.000000 0.747194 0.772645
O O8 0.500000 0.309590 0.500000
O O9 0.605757 0.394244 0.392604
O O10 0.394244 0.394244 0.392604
O O11 0.500000 0.209047 0.381510
O O12 0.691515 0.835284 0.143709
O O13 0.396994 0.859154 0.730076
O O14 0.500000 0.000000 0.650058
O O15 0.194751 0.194751 0.257770
#
# Coordination Sequence:
#
# PCOD8308142 Si02
#       6
#     8   8   8   8   8   8
#     4   8  13  24  42  61  82 110 149 194 232 268
#     4  10  19  30  45  66  92 121 154 192 232 273
#     4   9  18  33  53  76 100 123 146 178 226 278
#     4   8  13  24  42  61  82 110 149 194 232 268
#     4  10  19  32  49  70  95 123 158 191 217 257
#     4  10  19  30  45  66  92 121 154 192 232 273
#
# _framework density 16.508766000000001
#
# number of rings (size 3 to 8) (size 9 to 14) (size 15 to 20)
#    0.000    2.833    1.667    2.500    0.000    1.333 
#    0.000    0.000    0.000    0.000    0.000    4.667 
#    0.000    2.667    0.000   31.000    0.000    0.000 
#
# Total GULP energy -594700.475430 kJ/mol
# GULP energy per Si atom -12389.593238 kJ/mol
# Density = 1.647119 g / cm^3
# Si number density = 16.508766 Si / 1000 Ang^3
#
#
#
# Elastic Constant Matrix: (Units=GPa)
#
#
# Indices 1 2 3 4 5 6 
#
# 1 95.8419 60.5740 38.9891 0.0000 0.0000 0.0000
# 2 60.5740 95.8423 38.9894 0.0000 0.0000 0.0000
# 3 38.9891 38.9894 63.6344 0.0000 0.0000 0.0000
# 4 0.0000 0.0000 0.0000 11.5728 0.0000 0.0000
# 5 0.0000 0.0000 0.0000 0.0000 11.5732 0.0000
# 6 0.0000 0.0000 0.0000 0.0000 0.0000 23.3714
#
#
#
# Elastic Compliance Matrix: (Units=1/GPa)
#
#
# Indices 1 2 3 4 5 6 
#
# 1 0.018780 -0.009575 -0.005640 0.000000 0.000000 0.000000
# 2 -0.009575 0.018780 -0.005640 0.000000 0.000000 0.000000
# 3 -0.005640 -0.005640 0.022626 0.000000 0.000000 0.000000
# 4 0.000000 0.000000 0.000000 0.086409 0.000000 0.000000
# 5 0.000000 0.000000 0.000000 0.000000 0.086407 0.000000
# 6 0.000000 0.000000 0.000000 0.000000 0.000000 0.042787
#
#
# Mechanical properties :
#
#
# Convention : Reuss Voigt Hill
#
# Bulk Modulus (GPa) = 54.12381 59.15818 56.64100
# Shear Modulus (GPa) = 15.44849 17.08788 16.26818
#
# Velocity S-wave (km/s) = 3.06236 3.22075 3.14256
# Velocity P-wave (km/s) = 6.73499 7.05289 6.89577
#
# Compressibility (1/GPa) = 0.01847616
#
# Stress axis : x y z
#
# Youngs Moduli (GPa) = 53.24944 53.24947 44.19693
#
# Poissons Ratio (x) = 0.50985 0.24926
# Poissons Ratio (y) = 0.50984 0.24927
# Poissons Ratio (z) = 0.30032 0.30033
#
# Static dielectric constant tensor:
#      x y z
#    x 2.958440 0.000000 0.000000 
#    y 0.000000 2.958440 0.000000 
#    z 0.000000 0.000000 3.082760 
# 
# 
# High freq. dielectric constant tensor:
#      x y z
#    x 1.621200 0.000000 0.000000 
#    y 0.000000 1.621200 0.000000 
#    z 0.000000 0.000000 1.625200 
# 
# From -- ./inp_files/3898.got.cif
#   From: 2010.03.12/outbox.cif.g09.slc.cpg/sg111_2_cif.got.tgz:3898.got - 2010.04.14 01:59:48.
