data_PCOD8308310
_publ_section_title
;
Structure prediction by ZEFSAII (Michael W. Deem and Ramdas Pophale) SiO2 
 PCOD8308310
Probable space group: P -4 2 C
;
_chemical_formula_sum "Si O2"
_cell_formula_units_Z 56
_cell_length_a 21.471391
_cell_length_b 21.471391
_cell_length_c 9.813328
_cell_angle_alpha 90.000000
_cell_angle_beta 90.000000
_cell_angle_gamma 90.000000
_cell_volume 4524.146671
_symmetry_space_group_name_H-M "P -4 2 C"
_symmetry_group_IT_number 112
_symmetry_cell_setting 'tetragonal'
loop_
_space_group_symop_operation_xyz
x,y,z
y,-x,-z
-x,-y,z
-y,x,-z
x,-y,1/2-z
-x,y,1/2-z
-y,-x,1/2+z
y,x,1/2+z
loop_
_atom_site_type_symbol
_atom_site_label
_atom_site_fract_x
_atom_site_fract_y
_atom_site_fract_z
Si Si1 0.930969 0.068966 0.981792
Si Si2 0.071246 0.663875 0.969227
Si Si3 0.074843 0.714410 0.249685
Si Si4 0.074824 0.429679 0.749957
Si Si5 0.929507 0.232320 0.751417
Si Si6 0.072282 0.665054 0.531839
Si Si7 0.890675 0.143741 0.232848
O O1 0.889523 0.066283 0.845703
O O2 0.910960 0.124644 0.081190
O O3 0.003172 0.078632 0.941155
O O4 0.100492 0.605249 0.886368
O O5 0.080854 0.726494 0.884471
O O6 0.099612 0.674882 0.119555
O O7 0.999321 0.648983 0.987987
O O8 0.100475 0.676496 0.381413
O O9 0.105406 0.782391 0.248174
O O10 0.000000 0.722302 0.250000
O O11 0.100157 0.500000 0.750000
O O12 0.000000 0.426851 0.750000
O O13 0.101229 0.393542 0.884297
O O14 0.918207 0.271769 0.615544
O O15 0.878034 0.179468 0.758372
O O16 0.000000 0.205023 0.750000
#
# Coordination Sequence:
#
# PCOD8308310 Si02
#       7
#     8   8   8   8   8   8   8
#     4  11  22  32  38  46  60  76 102 148 196 224
#     4   8  15  26  38  51  68  85  99 123 158 193
#     4  10  18  27  36  48  66  85 105 132 168 202
#     4   8  13  24  42  58  68  81  99 113 134 182
#     4   9  16  27  39  49  62  83 113 145 174 204
#     4   8  15  26  38  51  68  85  99 123 158 193
#     4  12  21  29  41  51  60  83 116 143 173 219
#
# _framework density 12.378026
#
# number of rings (size 3 to 8) (size 9 to 14) (size 15 to 20)
#    0.000    2.571    0.000    6.000    0.000    3.429 
#    0.000    0.714    0.000    4.286    0.000    0.000 
#    0.000    0.000    0.000    0.000    0.000    0.000 
#
# Total GULP energy -693985.699250 kJ/mol
# GULP energy per Si atom -12392.601772 kJ/mol
# Density = 1.234985 g / cm^3
# Si number density = 12.378026 Si / 1000 Ang^3
#
#
#
# Elastic Constant Matrix: (Units=GPa)
#
#
# Indices 1 2 3 4 5 6 
#
# 1 61.8137 12.6076 28.4018 0.0000 0.0000 0.0000
# 2 12.6076 61.8137 28.4018 0.0000 0.0000 0.0000
# 3 28.4018 28.4018 103.1575 0.0000 0.0000 0.0000
# 4 0.0000 0.0000 0.0000 -5.3071 0.0000 0.0000
# 5 0.0000 0.0000 0.0000 0.0000 -5.3071 0.0000
# 6 0.0000 0.0000 0.0000 0.0000 0.0000 4.5081
#
#
#
# Elastic Compliance Matrix: (Units=1/GPa)
#
#
# Indices 1 2 3 4 5 6 
#
# 1 0.018667 -0.001655 -0.004684 0.000000 0.000000 0.000000
# 2 -0.001655 0.018667 -0.004684 0.000000 0.000000 0.000000
# 3 -0.004684 -0.004684 0.012273 0.000000 0.000000 0.000000
# 4 0.000000 0.000000 0.000000 -0.188427 0.000000 0.000000
# 5 0.000000 0.000000 0.000000 0.000000 -0.188427 0.000000
# 6 0.000000 0.000000 0.000000 0.000000 0.000000 0.221822
#
#
# Mechanical properties :
#
#
# Convention : Reuss Voigt Hill
#
# Bulk Modulus (GPa) = 36.28208 40.62304 38.45256
# Shear Modulus (GPa) = -67.39309 9.27036 -29.06137
#
# Velocity S-wave (km/s) = -7.38674 2.73964 -4.85069
# Velocity P-wave (km/s) = 6.58609 6.54961 0.48949
#
# Compressibility (1/GPa) = 0.02756182
#
# Stress axis : x y z
#
# Youngs Moduli (GPa) = 53.56936 53.56936 81.47917
#
# Poissons Ratio (x) = 0.08867 0.38164
# Poissons Ratio (y) = 0.08867 0.38164
# Poissons Ratio (z) = 0.25091 0.25091
#
# Static dielectric constant tensor:
#      x y z
#    x 2.306820 0.000000 0.000000 
#    y 0.000000 2.306820 0.000000 
#    z 0.000000 0.000000 1.865570 
# 
# 
# High freq. dielectric constant tensor:
#      x y z
#    x 1.424810 0.000000 0.000000 
#    y 0.000000 1.424810 0.000000 
#    z 0.000000 0.000000 1.490990 
# 
# From -- ./inp_files/1616.got.cif
#   From: 2010.03.12/outbox.cif.g09.slc.cpg/sg112_1_cif.got.tgz:1616.got - 2010.04.14 02:02:48.
