data_PCOD8308668
_publ_section_title
;
Structure prediction by ZEFSAII (Michael W. Deem and Ramdas Pophale) SiO2 
 PCOD8308668
Probable space group: P -4 21 M 
;
_chemical_formula_sum "Si O2"
_cell_formula_units_Z 48
_cell_length_a 14.842032
_cell_length_b 14.842032
_cell_length_c 12.174851
_cell_angle_alpha 90.000000
_cell_angle_beta 90.000000
_cell_angle_gamma 90.000000
_cell_volume 2681.948179
_symmetry_space_group_name_H-M "P -4 21 M "
_symmetry_group_IT_number 113
_symmetry_cell_setting 'tetragonal'
loop_
_space_group_symop_operation_xyz
x,y,z
y,-x,-z
-x,-y,z
-y,x,-z
1/2+x,1/2-y,-z
1/2-x,1/2+y,-z
1/2-y,1/2-x,z
1/2+y,1/2+x,z
loop_
_atom_site_type_symbol
_atom_site_label
_atom_site_fract_x
_atom_site_fract_y
_atom_site_fract_z
Si Si1 0.574412 0.074412 0.040862
Si Si2 0.534252 0.282494 0.740527
Si Si3 0.441171 0.204177 0.118568
Si Si4 0.636920 0.468599 0.030191
Si Si5 0.923787 0.576214 0.215608
Si Si6 0.961324 0.138913 0.477675
Si Si7 0.364709 0.279636 0.328552
O O1 0.542437 0.167559 0.096819
O O2 0.500000 0.000000 0.065403
O O3 0.589950 0.089950 0.912964
O O4 0.489948 0.320518 0.851394
O O5 0.545218 0.173694 0.737568
O O6 0.471019 0.312788 0.639595
O O7 0.628296 0.333224 0.727298
O O8 0.369557 0.130443 0.079317
O O9 0.430624 0.227392 0.245961
O O10 0.420204 0.289023 0.043218
O O11 0.555594 0.397365 0.038370
O O12 0.000000 0.500000 0.242291
O O13 0.919846 0.211301 0.559963
O O14 0.055023 0.106661 0.531476
O O15 0.275951 0.224050 0.356332
#
# Coordination Sequence:
#
# PCOD8308668 Si02
#       7
#     4   8   8   8   4   8   8
#     4   9  18  34  55  81 113 153 187 223 283 347
#     4  11  21  37  59  84 114 152 194 235 293 341
#     4  10  20  36  58  82 114 150 188 230 285 348
#     4  11  23  34  55  87 121 149 188 243 288 342
#     4  11  22  36  59  85 117 152 189 235 289 350
#     4   9  21  37  59  83 113 152 192 239 289 342
#     4  10  20  37  60  83 111 153 200 237 280 345
#
# _framework density 17.897438000000001
#
# number of rings (size 3 to 8) (size 9 to 14) (size 15 to 20)
#    0.000    1.833    4.167    0.000    2.333    2.000 
#    1.500    0.833    0.000    1.000    0.000    0.000 
#    0.000    0.000    0.000    0.000    0.000    0.000 
#
# Total GULP energy -595100.565450 kJ/mol
# GULP energy per Si atom -12397.928447 kJ/mol
# Density = 1.785670 g / cm^3
# Si number density = 17.897438 Si / 1000 Ang^3
#
#
#
# Elastic Constant Matrix: (Units=GPa)
#
#
# Indices 1 2 3 4 5 6 
#
# 1 59.4720 17.8644 39.1883 0.0000 0.0000 0.0000
# 2 17.8644 59.4710 39.1880 0.0000 0.0000 0.0000
# 3 39.1883 39.1880 101.2196 0.0000 0.0000 0.0000
# 4 0.0000 0.0000 0.0000 28.5295 0.0000 0.0000
# 5 0.0000 0.0000 0.0000 0.0000 28.5297 0.0000
# 6 0.0000 0.0000 0.0000 0.0000 0.0000 22.9538
#
#
#
# Elastic Compliance Matrix: (Units=1/GPa)
#
#
# Indices 1 2 3 4 5 6 
#
# 1 0.022657 -0.001377 -0.008239 0.000000 0.000000 0.000000
# 2 -0.001377 0.022658 -0.008239 0.000000 0.000000 0.000000
# 3 -0.008239 -0.008239 0.016259 0.000000 0.000000 0.000000
# 4 0.000000 0.000000 0.000000 0.035051 0.000000 0.000000
# 5 0.000000 0.000000 0.000000 0.000000 0.035051 0.000000
# 6 0.000000 0.000000 0.000000 0.000000 0.000000 0.043566
#
#
# Mechanical properties :
#
#
# Convention : Reuss Voigt Hill
#
# Bulk Modulus (GPa) = 38.66355 45.84934 42.25645
# Shear Modulus (GPa) = 22.77147 24.26407 23.51777
#
# Velocity S-wave (km/s) = 3.57085 3.68602 3.62889
# Velocity P-wave (km/s) = 6.21699 6.61733 6.42028
#
# Compressibility (1/GPa) = 0.02586415
#
# Stress axis : x y z
#
# Youngs Moduli (GPa) = 44.13617 44.13543 61.50426
#
# Poissons Ratio (x) = 0.06078 0.50672
# Poissons Ratio (y) = 0.06078 0.50673
# Poissons Ratio (z) = 0.36363 0.36363
#
# Static dielectric constant tensor:
#      x y z
#    x 3.448200 0.000000 0.000000 
#    y 0.000000 3.448180 0.000000 
#    z 0.000000 0.000000 3.240320 
# 
# 
# High freq. dielectric constant tensor:
#      x y z
#    x 1.694740 0.000000 0.000000 
#    y 0.000000 1.694740 0.000000 
#    z 0.000000 0.000000 1.687100 
# 
# From -- ./inp_files/1857.got.cif
#   From: 2010.03.12/outbox.cif.g09.slc.cpg/sg113_cif.got.tgz:1857.got - 2010.04.14 02:06:34.
