data_PCOD8308037
_publ_section_title
;
Structure prediction by ZEFSAII (Michael W. Deem and Ramdas Pophale) SiO2 
 PCOD8308037
Probable space group: I 41 C D
;
_chemical_formula_sum "Si O2"
_cell_formula_units_Z 120
_cell_length_a 24.632330
_cell_length_b 24.632330
_cell_length_c 9.667178
_cell_angle_alpha 90.000000
_cell_angle_beta 90.000000
_cell_angle_gamma 90.000000
_cell_volume 5865.576504
_symmetry_space_group_name_H-M "I 41 C D"
_symmetry_group_IT_number 110
_symmetry_cell_setting 'tetragonal'
loop_
_space_group_symop_operation_xyz
x,y,z
-y,1/2+x,1/4+z
-x,-y,z
y,1/2-x,1/4+z
-x,y,1/2+z
x,-y,1/2+z
1/2-y,-x,1/4+z
1/2+y,x,1/4+z
1/2+x,1/2+y,1/2+z
1/2-y,x,3/4+z
1/2-x,1/2-y,1/2+z
1/2+y,-x,3/4+z
1/2-x,1/2+y,z
1/2+x,1/2-y,z
-y,1/2-x,3/4+z
y,1/2+x,3/4+z
loop_
_atom_site_type_symbol
_atom_site_label
_atom_site_fract_x
_atom_site_fract_y
_atom_site_fract_z
Si Si1 0.500000 0.500000 0.349520
Si Si2 0.011281 0.593080 0.913770
Si Si3 0.981475 0.663336 0.669591
Si Si4 0.254920 0.402940 0.047787
Si Si5 0.565475 0.366428 0.770469
Si Si6 0.594468 0.817950 0.569943
Si Si7 0.716027 0.789916 0.613113
Si Si8 0.012083 0.092569 0.035524
O O1 0.451960 0.475521 0.251658
O O2 0.477814 0.546919 0.450402
O O3 0.977407 0.616591 0.785981
O O4 0.065613 0.562490 0.866241
O O5 0.028846 0.640785 0.016356
O O6 0.043619 0.687245 0.676678
O O7 0.932676 0.705746 0.688996
O O8 0.195949 0.421146 0.005621
O O9 0.253161 0.337199 0.043116
O O10 0.275030 0.419635 0.200192
O O11 0.619921 0.403904 0.761725
O O12 0.526403 0.377014 0.640968
O O13 0.536589 0.368245 0.919606
O O14 0.652867 0.805695 0.638040
O O15 0.737812 0.777127 0.765854
#
# Coordination Sequence:
#
# PCOD8308037 Si02
#       8
#     8  16  16  16  16  16  16  16
#     4  12  24  36  60  92 124 172 210 260 296 384
#     4  12  24  36  59  91 128 168 217 249 310 377
#     4  12  24  40  61  93 130 168 212 261 318 393
#     4  10  24  42  68  89 131 164 212 263 341 376
#     4  11  25  42  62  91 128 171 212 263 318 380
#     4  10  21  42  66  91 123 174 207 264 324 391
#     4   9  20  45  72  95 118 164 220 274 326 384
#     4  12  25  37  60  90 130 167 211 253 305 381
#
# _framework density 20.458347
#
# number of rings (size 3 to 8) (size 9 to 14) (size 15 to 20)
#    0.000    1.067    5.333    0.400    5.600    0.000 
#    2.400    0.000    2.933    0.000    0.000    0.000 
#    0.000    0.000    0.000    0.000    0.000    0.000 
#
# Total GULP energy -743669.612011 kJ/mol
# GULP energy per Si atom -12394.493534 kJ/mol
# Density = 2.041178 g / cm^3
# Si number density = 20.458347 Si / 1000 Ang^3
#
#
#
# Elastic Constant Matrix: (Units=GPa)
#
#
# Indices 1 2 3 4 5 6 
#
# 1 52.0110 12.7528 12.8698 0.0000 0.0000 0.0000
# 2 12.7528 52.0110 12.8698 0.0000 0.0000 0.0000
# 3 12.8698 12.8698 87.8960 0.0000 0.0000 0.0000
# 4 0.0000 0.0000 0.0000 29.0345 0.0000 0.0000
# 5 0.0000 0.0000 0.0000 0.0000 29.0345 0.0000
# 6 0.0000 0.0000 0.0000 0.0000 0.0000 34.4730
#
#
#
# Elastic Compliance Matrix: (Units=1/GPa)
#
#
# Indices 1 2 3 4 5 6 
#
# 1 0.020934 -0.004539 -0.002401 0.000000 0.000000 0.000000
# 2 -0.004539 0.020934 -0.002401 0.000000 0.000000 0.000000
# 3 -0.002401 -0.002401 0.012080 0.000000 0.000000 0.000000
# 4 0.000000 0.000000 0.000000 0.034442 0.000000 0.000000
# 5 0.000000 0.000000 0.000000 0.000000 0.034442 0.000000
# 6 0.000000 0.000000 0.000000 0.000000 0.000000 0.029008
#
#
# Mechanical properties :
#
#
# Convention : Reuss Voigt Hill
#
# Bulk Modulus (GPa) = 28.35472 29.87808 29.11640
# Shear Modulus (GPa) = 27.43115 28.73679 28.08397
#
# Velocity S-wave (km/s) = 3.66571 3.75193 3.70907
# Velocity P-wave (km/s) = 5.63971 5.77974 5.71015
#
# Compressibility (1/GPa) = 0.03526750
#
# Stress axis : x y z
#
# Youngs Moduli (GPa) = 47.77009 47.77009 82.78112
#
# Poissons Ratio (x) = 0.21682 0.19872
# Poissons Ratio (y) = 0.21682 0.19872
# Poissons Ratio (z) = 0.11467 0.11467
#
# Static dielectric constant tensor:
#      x y z
#    x 3.870240 0.000000 0.000000 
#    y 0.000000 3.870240 0.000000 
#    z 0.000000 0.000000 3.772540 
# 
# 
# High freq. dielectric constant tensor:
#      x y z
#    x 1.797030 0.000000 0.000000 
#    y 0.000000 1.797030 0.000000 
#    z 0.000000 0.000000 1.799900 
# 
# From -- ./inp_files/521.got.cif
#   From: 2010.03.12/outbox.cif.g09.slc.cpg/sg110_1_cif.got.tgz:521.got - 2010.04.14 01:58:01.
