data_PCOD8308275
_publ_section_title
;
Structure prediction by ZEFSAII (Michael W. Deem and Ramdas Pophale) SiO2 
 PCOD8308275
Probable space group: P -4 2 M 
;
_chemical_formula_sum "Si O2"
_cell_formula_units_Z 40
_cell_length_a 13.898500
_cell_length_b 13.898500
_cell_length_c 11.070569
_cell_angle_alpha 90.000000
_cell_angle_beta 90.000000
_cell_angle_gamma 90.000000
_cell_volume 2138.483019
_symmetry_space_group_name_H-M "P -4 2 M "
_symmetry_group_IT_number 111
_symmetry_cell_setting 'tetragonal'
loop_
_space_group_symop_operation_xyz
x,y,z
y,-x,-z
-x,-y,z
-y,x,-z
x,-y,-z
-x,y,-z
-y,-x,z
y,x,z
loop_
_atom_site_type_symbol
_atom_site_label
_atom_site_fract_x
_atom_site_fract_y
_atom_site_fract_z
Si Si1 0.458065 0.302623 0.365133
Si Si2 0.606082 0.018793 0.360437
Si Si3 0.386979 0.891206 0.998340
Si Si4 0.687634 0.160164 0.745857
Si Si5 0.633236 0.785785 0.753771
O O1 0.500000 0.296586 0.500000
O O2 0.406170 0.406170 0.344238
O O3 0.381121 0.217952 0.345781
O O4 0.542579 0.286179 0.266789
O O5 0.631087 0.129317 0.343168
O O6 0.500000 0.000000 0.302505
O O7 0.604849 0.000000 0.500000
O O8 0.685145 0.951140 0.295333
O O9 0.350167 0.832408 0.882620
O O10 0.500000 0.899917 0.000000
O O11 0.357296 0.828673 0.113089
O O12 0.343073 0.000000 0.000000
O O13 0.795325 0.204675 0.739566
O O14 0.729488 0.729488 0.724511
#
# Coordination Sequence:
#
# PCOD8308275 Si02
#       5
#     8   8   8   8   8
#     4  11  23  39  58  84 124 169 204 236 285 350
#     4  11  21  38  61  87 123 157 197 251 300 346
#     4  11  20  38  64  87 118 156 194 248 308 352
#     4  11  22  38  62  90 118 154 202 248 298 356
#     4  12  24  38  61  92 120 155 205 251 293 354
#
# _framework density 18.704847999999998
#
# number of rings (size 3 to 8) (size 9 to 14) (size 15 to 20)
#    0.000    0.800    6.000    2.400    0.000    3.800 
#    0.000    0.000    0.000    0.600    0.000    2.800 
#    0.000    0.000    0.000    0.000    0.000    0.000 
#
# Total GULP energy -495951.920861 kJ/mol
# GULP energy per Si atom -12398.798022 kJ/mol
# Density = 1.866227 g / cm^3
# Si number density = 18.704848 Si / 1000 Ang^3
#
#
#
# Elastic Constant Matrix: (Units=GPa)
#
#
# Indices 1 2 3 4 5 6 
#
# 1 105.4295 70.6851 40.6059 0.0000 0.0000 0.0000
# 2 70.6851 105.4306 40.6063 0.0000 0.0000 0.0000
# 3 40.6059 40.6063 92.4997 0.0000 0.0000 0.0000
# 4 0.0000 0.0000 0.0000 31.2389 0.0000 0.0000
# 5 0.0000 0.0000 0.0000 0.0000 31.2394 0.0000
# 6 0.0000 0.0000 0.0000 0.0000 0.0000 30.4307
#
#
#
# Elastic Compliance Matrix: (Units=1/GPa)
#
#
# Indices 1 2 3 4 5 6 
#
# 1 0.017950 -0.010831 -0.003125 0.000000 0.000000 0.000000
# 2 -0.010831 0.017950 -0.003125 0.000000 0.000000 0.000000
# 3 -0.003125 -0.003125 0.013555 0.000000 0.000000 0.000000
# 4 0.000000 0.000000 0.000000 0.032011 0.000000 0.000000
# 5 0.000000 0.000000 0.000000 0.000000 0.032011 0.000000
# 6 0.000000 0.000000 0.000000 0.000000 0.000000 0.032862
#
#
# Mechanical properties :
#
#
# Convention : Reuss Voigt Hill
#
# Bulk Modulus (GPa) = 65.39272 67.46160 66.42716
# Shear Modulus (GPa) = 26.93975 28.67930 27.80952
#
# Velocity S-wave (km/s) = 3.79919 3.91993 3.86003
# Velocity P-wave (km/s) = 7.36758 7.52545 7.44694
#
# Compressibility (1/GPa) = 0.01529222
#
# Stress axis : x y z
#
# Youngs Moduli (GPa) = 55.70934 55.70987 73.77495
#
# Poissons Ratio (x) = 0.60339 0.23056
# Poissons Ratio (y) = 0.60339 0.23057
# Poissons Ratio (z) = 0.17411 0.17411
#
# Static dielectric constant tensor:
#      x y z
#    x 3.560650 0.000000 0.000000 
#    y 0.000000 3.560650 0.000000 
#    z 0.000000 0.000000 3.222620 
# 
# 
# High freq. dielectric constant tensor:
#      x y z
#    x 1.711890 0.000000 0.000000 
#    y 0.000000 1.711890 0.000000 
#    z 0.000000 0.000000 1.740740 
# 
# From -- ./inp_files/2497.got.cif
#   From: 2010.03.12/outbox.cif.g09.slc.cpg/sg111_2_cif.got.tgz:2497.got - 2010.04.14 01:59:48.
