data_PCOD8308974
_publ_section_title
;
Structure prediction by ZEFSAII (Michael W. Deem and Ramdas Pophale) SiO2 
 PCOD8308974
Probable space group: P -4 21 C
;
_chemical_formula_sum "Si O2"
_cell_formula_units_Z 34
_cell_length_a 7.453487
_cell_length_b 7.453487
_cell_length_c 25.371740
_cell_angle_alpha 90.000000
_cell_angle_beta 90.000000
_cell_angle_gamma 90.000000
_cell_volume 1409.513530
_symmetry_space_group_name_H-M "P -4 21 C"
_symmetry_group_IT_number 114
_symmetry_cell_setting 'tetragonal'
loop_
_space_group_symop_operation_xyz
x,y,z
y,-x,-z
-x,-y,z
-y,x,-z
1/2+x,1/2-y,1/2-z
1/2-x,1/2+y,1/2-z
1/2-y,1/2-x,1/2+z
1/2+y,1/2+x,1/2+z
loop_
_atom_site_type_symbol
_atom_site_label
_atom_site_fract_x
_atom_site_fract_y
_atom_site_fract_z
Si Si1 0.195727 0.291242 0.331891
Si Si2 0.616219 0.677932 0.227417
Si Si3 0.500000 0.500000 0.500000
Si Si4 0.201673 0.567159 0.416728
Si Si5 0.933772 0.697279 0.631895
O O1 0.332405 0.246806 0.284343
O O2 0.266142 0.462045 0.364206
O O3 0.998580 0.323495 0.306546
O O4 0.182507 0.115701 0.369999
O O5 0.500000 0.500000 0.235196
O O6 0.794031 0.640796 0.192187
O O7 0.321686 0.506241 0.465282
O O8 0.226275 0.781589 0.407930
O O9 0.000000 0.500000 0.428871
O O10 0.000000 0.500000 0.615755
#
# Coordination Sequence:
#
# PCOD8308974 Si02
#       5
#     8   8   2   8   8
#     4  11  24  43  67 107 161 200 257 307 391 473
#     4  10  23  38  65 113 156 211 252 304 382 484
#     4  12  32  52  80 116 132 204 280 356 420 462
#     4  12  28  52  80 108 154 203 266 344 407 475
#     4  11  24  42  70 106 149 201 253 313 385 477
#
# _framework density 24.121796
#
# number of rings (size 3 to 8) (size 9 to 14) (size 15 to 20)
#    0.000    0.941    2.353    2.824   11.529    3.765 
#    0.000    0.000    0.000    0.000    0.000    0.000 
#    0.000    0.000    0.000    0.000    0.000    0.000 
#
# Total GULP energy -421317.260881 kJ/mol
# GULP energy per Si atom -12391.684144 kJ/mol
# Density = 2.406689 g / cm^3
# Si number density = 24.121796 Si / 1000 Ang^3
#
#
#
# Elastic Constant Matrix: (Units=GPa)
#
#
# Indices 1 2 3 4 5 6 
#
# 1 133.6592 41.7750 44.4037 0.0000 0.0000 0.0000
# 2 41.7750 133.6592 44.4037 0.0000 0.0000 0.0000
# 3 44.4037 44.4037 93.2926 0.0000 0.0000 0.0000
# 4 0.0000 0.0000 0.0000 34.8606 0.0000 0.0000
# 5 0.0000 0.0000 0.0000 0.0000 34.8606 0.0000
# 6 0.0000 0.0000 0.0000 0.0000 0.0000 37.9002
#
#
#
# Elastic Compliance Matrix: (Units=1/GPa)
#
#
# Indices 1 2 3 4 5 6 
#
# 1 0.009196 -0.001687 -0.003574 0.000000 0.000000 0.000000
# 2 -0.001687 0.009196 -0.003574 0.000000 0.000000 0.000000
# 3 -0.003574 -0.003574 0.014121 0.000000 0.000000 0.000000
# 4 0.000000 0.000000 0.000000 0.028686 0.000000 0.000000
# 5 0.000000 0.000000 0.000000 0.000000 0.028686 0.000000
# 6 0.000000 0.000000 0.000000 0.000000 0.000000 0.026385
#
#
# Mechanical properties :
#
#
# Convention : Reuss Voigt Hill
#
# Bulk Modulus (GPa) = 67.37001 69.08622 68.22812
# Shear Modulus (GPa) = 35.99998 36.85953 36.42976
#
# Velocity S-wave (km/s) = 3.86738 3.91328 3.89040
# Velocity P-wave (km/s) = 6.92329 7.00865 6.96610
#
# Compressibility (1/GPa) = 0.01484340
#
# Stress axis : x y z
#
# Youngs Moduli (GPa) = 108.73863 108.73863 70.81478
#
# Poissons Ratio (x) = 0.18343 0.25311
# Poissons Ratio (y) = 0.18343 0.25311
# Poissons Ratio (z) = 0.38866 0.38866
#
# Static dielectric constant tensor:
#      x y z
#    x 4.591020 0.000000 0.000000 
#    y 0.000000 4.591020 0.000000 
#    z 0.000000 0.000000 4.070570 
# 
# 
# High freq. dielectric constant tensor:
#      x y z
#    x 1.969730 0.000000 0.000000 
#    y 0.000000 1.969730 0.000000 
#    z 0.000000 0.000000 1.914970 
# 
# From -- ./inp_files/2984.got.cif
#   From: 2010.03.12/outbox.cif.g09.slc.cpg/sg114_2_cif.got.tgz:2984.got - 2010.04.14 02:08:34.
