data_PCOD8308875
_publ_section_title
;
Structure prediction by ZEFSAII (Michael W. Deem and Ramdas Pophale) SiO2 
 PCOD8308875
Probable space group: P -4 21 C
;
_chemical_formula_sum "Si O2"
_cell_formula_units_Z 48
_cell_length_a 8.600356
_cell_length_b 8.600356
_cell_length_c 29.181229
_cell_angle_alpha 90.000000
_cell_angle_beta 90.000000
_cell_angle_gamma 90.000000
_cell_volume 2158.422383
_symmetry_space_group_name_H-M "P -4 21 C"
_symmetry_group_IT_number 114
_symmetry_cell_setting 'tetragonal'
loop_
_space_group_symop_operation_xyz
x,y,z
y,-x,-z
-x,-y,z
-y,x,-z
1/2+x,1/2-y,1/2-z
1/2-x,1/2+y,1/2-z
1/2-y,1/2-x,1/2+z
1/2+y,1/2+x,1/2+z
loop_
_atom_site_type_symbol
_atom_site_label
_atom_site_fract_x
_atom_site_fract_y
_atom_site_fract_z
Si Si1 0.864879 0.215767 0.277993
Si Si2 0.746928 0.750710 0.395119
Si Si3 0.945362 0.325258 0.439658
Si Si4 0.327878 0.061509 0.145976
Si Si5 0.119193 0.781817 0.012807
Si Si6 0.124336 0.786985 0.699175
O O1 0.773136 0.342650 0.309495
O O2 0.842911 0.274763 0.225973
O O3 0.045164 0.203809 0.292158
O O4 0.781184 0.050924 0.283196
O O5 0.725020 0.588028 0.367417
O O6 0.610011 0.763539 0.433034
O O7 0.745604 0.879966 0.355182
O O8 0.902274 0.774551 0.426664
O O9 0.827350 0.317489 0.396507
O O10 0.849573 0.280270 0.485449
O O11 0.000000 0.500000 0.446297
O O12 0.500000 0.000000 0.155791
O O13 0.945939 0.791611 0.992420
#
# Coordination Sequence:
#
# PCOD8308875 Si02
#       6
#     8   8   8   8   8   8
#     4  11  23  41  67  92 127 161 214 250 321 376
#     4  10  20  41  62  83 119 165 206 248 314 367
#     4   9  17  37  60  79 115 165 197 231 321 359
#     4   9  16  36  66  79 112 168 198 238 311 374
#     4  11  21  36  60  92 122 155 211 257 296 368
#     4  11  24  41  64  96 124 165 207 266 308 388
#
# _framework density 22.238464
#
# number of rings (size 3 to 8) (size 9 to 14) (size 15 to 20)
#    0.000    2.167    6.667    1.000    0.000    0.000 
#    6.000    1.667    0.000    0.000    0.000    0.000 
#    0.000    0.000    0.000    0.000    0.000    0.000 
#
# Total GULP energy -594667.959688 kJ/mol
# GULP energy per Si atom -12388.915827 kJ/mol
# Density = 2.218785 g / cm^3
# Si number density = 22.238464 Si / 1000 Ang^3
#
#
#
# Elastic Constant Matrix: (Units=GPa)
#
#
# Indices 1 2 3 4 5 6 
#
# 1 46.2293 11.8127 40.1005 0.0000 0.0000 0.0000
# 2 11.8127 46.2293 40.1005 0.0000 0.0000 0.0000
# 3 40.1005 40.1005 166.7954 0.0000 0.0000 0.0000
# 4 0.0000 0.0000 0.0000 35.2161 0.0000 0.0000
# 5 0.0000 0.0000 0.0000 0.0000 35.2161 0.0000
# 6 0.0000 0.0000 0.0000 0.0000 0.0000 14.6799
#
#
#
# Elastic Compliance Matrix: (Units=1/GPa)
#
#
# Indices 1 2 3 4 5 6 
#
# 1 0.027428 -0.001628 -0.006203 0.000000 0.000000 0.000000
# 2 -0.001628 0.027428 -0.006203 0.000000 0.000000 0.000000
# 3 -0.006203 -0.006203 0.008978 0.000000 0.000000 0.000000
# 4 0.000000 0.000000 0.000000 0.028396 0.000000 0.000000
# 5 0.000000 0.000000 0.000000 0.000000 0.028396 0.000000
# 6 0.000000 0.000000 0.000000 0.000000 0.000000 0.068120
#
#
# Mechanical properties :
#
#
# Convention : Reuss Voigt Hill
#
# Bulk Modulus (GPa) = 27.95926 49.25349 38.60637
# Shear Modulus (GPa) = 21.85940 28.17177 25.01559
#
# Velocity S-wave (km/s) = 3.13861 3.56308 3.35756
# Velocity P-wave (km/s) = 5.07290 6.25487 5.69463
#
# Compressibility (1/GPa) = 0.03576633
#
# Stress axis : x y z
#
# Youngs Moduli (GPa) = 36.45952 36.45952 111.38551
#
# Poissons Ratio (x) = 0.05936 0.69089
# Poissons Ratio (y) = 0.05936 0.69089
# Poissons Ratio (z) = 0.22615 0.22615
#
# Static dielectric constant tensor:
#      x y z
#    x 3.716430 0.000000 0.000000 
#    y 0.000000 3.716430 0.000000 
#    z 0.000000 0.000000 4.442080 
# 
# 
# High freq. dielectric constant tensor:
#      x y z
#    x 1.839080 0.000000 0.000000 
#    y 0.000000 1.839080 0.000000 
#    z 0.000000 0.000000 1.893240 
# 
# From -- ./inp_files/3932.got.cif
#   From: 2010.03.12/outbox.cif.g09.slc.cpg/sg114_2_cif.got.tgz:3932.got - 2010.04.14 02:08:34.
