data_PCOD8308906
_publ_section_title
;
Structure prediction by ZEFSAII (Michael W. Deem and Ramdas Pophale) SiO2 
 PCOD8308906
Probable space group: P -4 21 C
;
_chemical_formula_sum "Si O2"
_cell_formula_units_Z 40
_cell_length_a 19.159367
_cell_length_b 19.159367
_cell_length_c 5.038853
_cell_angle_alpha 90.000000
_cell_angle_beta 90.000000
_cell_angle_gamma 90.000000
_cell_volume 1849.668931
_symmetry_space_group_name_H-M "P -4 21 C"
_symmetry_group_IT_number 114
_symmetry_cell_setting 'tetragonal'
loop_
_space_group_symop_operation_xyz
x,y,z
y,-x,-z
-x,-y,z
-y,x,-z
1/2+x,1/2-y,1/2-z
1/2-x,1/2+y,1/2-z
1/2-y,1/2-x,1/2+z
1/2+y,1/2+x,1/2+z
loop_
_atom_site_type_symbol
_atom_site_label
_atom_site_fract_x
_atom_site_fract_y
_atom_site_fract_z
Si Si1 0.380011 0.944338 0.085218
Si Si2 0.950722 0.102084 0.541186
Si Si3 0.767123 0.668356 0.463133
Si Si4 0.894410 0.173995 0.051262
Si Si5 0.834916 0.399865 0.431230
O O1 0.434367 0.912090 0.876361
O O2 0.370419 0.025388 0.030900
O O3 0.305401 0.906062 0.062086
O O4 0.927934 0.123198 0.834841
O O5 0.033174 0.090305 0.548417
O O6 0.932392 0.162580 0.331965
O O7 0.776993 0.701250 0.753271
O O8 0.686424 0.655127 0.412561
O O9 0.906213 0.252978 0.967774
O O10 0.846996 0.369015 0.139904
#
# Coordination Sequence:
#
# PCOD8308906 Si02
#       5
#     8   8   8   8   8
#     4  10  23  41  64  96 128 174 223 265 320 393
#     4  11  26  44  65  99 134 170 217 266 324 401
#     4  10  21  40  64  95 130 166 215 268 320 385
#     4  12  24  43  71  96 133 175 213 271 337 388
#     4  12  26  43  66 100 136 172 222 279 335 397
#
# _framework density 21.625492000000001
#
# number of rings (size 3 to 8) (size 9 to 14) (size 15 to 20)
#    0.000    1.000    0.000    6.000    5.600    4.000 
#    0.000    0.000    0.000    0.000    0.000    0.000 
#    0.000    0.000    0.000    0.000    0.000    0.000 
#
# Total GULP energy -496395.792233 kJ/mol
# GULP energy per Si atom -12409.894806 kJ/mol
# Density = 2.157627 g / cm^3
# Si number density = 21.625492 Si / 1000 Ang^3
#
#
#
# Elastic Constant Matrix: (Units=GPa)
#
#
# Indices 1 2 3 4 5 6 
#
# 1 74.9535 21.6919 4.4129 0.0000 0.0000 0.0000
# 2 21.6919 74.9535 4.4129 0.0000 0.0000 0.0000
# 3 4.4129 4.4129 79.6087 0.0000 0.0000 0.0000
# 4 0.0000 0.0000 0.0000 29.5527 0.0000 0.0000
# 5 0.0000 0.0000 0.0000 0.0000 29.5527 0.0000
# 6 0.0000 0.0000 0.0000 0.0000 0.0000 20.2175
#
#
#
# Elastic Compliance Matrix: (Units=1/GPa)
#
#
# Indices 1 2 3 4 5 6 
#
# 1 0.014588 -0.004188 -0.000576 0.000000 0.000000 0.000000
# 2 -0.004188 0.014588 -0.000576 0.000000 0.000000 0.000000
# 3 -0.000576 -0.000576 0.012625 0.000000 0.000000 0.000000
# 4 0.000000 0.000000 0.000000 0.033838 0.000000 0.000000
# 5 0.000000 0.000000 0.000000 0.000000 0.033838 0.000000
# 6 0.000000 0.000000 0.000000 0.000000 0.000000 0.049462
#
#
# Mechanical properties :
#
#
# Convention : Reuss Voigt Hill
#
# Bulk Modulus (GPa) = 32.13482 32.28348 32.20915
# Shear Modulus (GPa) = 27.77894 29.13113 28.45503
#
# Velocity S-wave (km/s) = 3.58794 3.67423 3.63134
# Velocity P-wave (km/s) = 5.66184 5.74115 5.70163
#
# Compressibility (1/GPa) = 0.03111890
#
# Stress axis : x y z
#
# Youngs Moduli (GPa) = 68.55180 68.55180 79.20572
#
# Poissons Ratio (x) = 0.28708 0.04566
# Poissons Ratio (y) = 0.28708 0.04566
# Poissons Ratio (z) = 0.03952 0.03952
#
# Static dielectric constant tensor:
#      x y z
#    x 3.914740 0.000000 0.000000 
#    y 0.000000 3.914740 0.000000 
#    z 0.000000 0.000000 4.025090 
# 
# 
# High freq. dielectric constant tensor:
#      x y z
#    x 1.855680 0.000000 0.000000 
#    y 0.000000 1.855680 0.000000 
#    z 0.000000 0.000000 1.865830 
# 
# From -- ./inp_files/156.got.cif
#   From: 2010.03.12/outbox.cif.g09.slc.cpg/sg114_1_cif.got.tgz:156.got - 2010.04.14 02:08:34.
