data_PCOD8308282
_publ_section_title
;
Structure prediction by ZEFSAII (Michael W. Deem and Ramdas Pophale) SiO2 
 PCOD8308282
Probable space group: P -4 2 M 
;
_chemical_formula_sum "Si O2"
_cell_formula_units_Z 16
_cell_length_a 11.567650
_cell_length_b 11.567650
_cell_length_c 4.924386
_cell_angle_alpha 90.000000
_cell_angle_beta 90.000000
_cell_angle_gamma 90.000000
_cell_volume 658.934683
_symmetry_space_group_name_H-M "P -4 2 M "
_symmetry_group_IT_number 111
_symmetry_cell_setting 'tetragonal'
loop_
_space_group_symop_operation_xyz
x,y,z
y,-x,-z
-x,-y,z
-y,x,-z
x,-y,-z
-x,y,-z
-y,-x,z
y,x,z
loop_
_atom_site_type_symbol
_atom_site_label
_atom_site_fract_x
_atom_site_fract_y
_atom_site_fract_z
Si Si1 0.500000 0.828698 0.500000
Si Si2 0.265035 0.075901 0.731913
Si Si3 0.500000 0.681664 0.000000
O O1 0.605202 0.900815 0.626545
O O2 0.550539 0.754522 0.250429
O O3 0.193594 0.193594 0.786166
O O4 0.201461 0.000000 0.500000
O O5 0.273641 0.000000 0.000000
O O6 0.604179 0.604179 0.883351
#
# Coordination Sequence:
#
# PCOD8308282 Si02
#       3
#     4   8   4
#     4  12  25  45  70 104 144 189 244 302 365 432
#     4  12  27  48  75 107 145 192 245 303 366 433
#     4  11  22  38  65 102 146 194 239 291 360 438
#
# _framework density 24.281617000000001
#
# number of rings (size 3 to 8) (size 9 to 14) (size 15 to 20)
#    0.000    0.250    0.000    9.750    0.000    7.000 
#    0.000    0.000    0.000    0.000    0.000    0.000 
#    0.000    0.000    0.000    0.000    0.000    0.000 
#
# Total GULP energy -198377.446689 kJ/mol
# GULP energy per Si atom -12398.590418 kJ/mol
# Density = 2.422635 g / cm^3
# Si number density = 24.281617 Si / 1000 Ang^3
#
#
#
# Elastic Constant Matrix: (Units=GPa)
#
#
# Indices 1 2 3 4 5 6 
#
# 1 143.4313 73.3234 69.0477 0.0000 0.0000 0.0000
# 2 73.3234 143.4313 69.0477 0.0000 0.0000 0.0000
# 3 69.0477 69.0477 209.9721 0.0000 0.0000 0.0000
# 4 0.0000 0.0000 0.0000 40.5999 0.0000 0.0000
# 5 0.0000 0.0000 0.0000 0.0000 40.5999 0.0000
# 6 0.0000 0.0000 0.0000 0.0000 0.0000 18.5930
#
#
#
# Elastic Compliance Matrix: (Units=1/GPa)
#
#
# Indices 1 2 3 4 5 6 
#
# 1 0.010050 -0.004214 -0.001919 0.000000 0.000000 0.000000
# 2 -0.004214 0.010050 -0.001919 0.000000 0.000000 0.000000
# 3 -0.001919 -0.001919 0.006025 0.000000 0.000000 0.000000
# 4 0.000000 0.000000 0.000000 0.024631 0.000000 0.000000
# 5 0.000000 0.000000 0.000000 0.000000 0.024631 0.000000
# 6 0.000000 0.000000 0.000000 0.000000 0.000000 0.053784
#
#
# Mechanical properties :
#
#
# Convention : Reuss Voigt Hill
#
# Bulk Modulus (GPa) = 99.79603 102.18584 100.99093
# Shear Modulus (GPa) = 33.64420 38.98629 36.31524
#
# Velocity S-wave (km/s) = 3.72638 4.01133 3.87148
# Velocity P-wave (km/s) = 7.72678 7.97680 7.85279
#
# Compressibility (1/GPa) = 0.01002044
#
# Stress axis : x y z
#
# Youngs Moduli (GPa) = 99.50260 99.50260 165.98150
#
# Poissons Ratio (x) = 0.41928 0.31855
# Poissons Ratio (y) = 0.41928 0.31855
# Poissons Ratio (z) = 0.19097 0.19097
#
# Static dielectric constant tensor:
#      x y z
#    x 4.478740 0.000000 0.000000 
#    y 0.000000 4.478740 0.000000 
#    z 0.000000 0.000000 4.741430 
# 
# 
# High freq. dielectric constant tensor:
#      x y z
#    x 1.969040 0.000000 0.000000 
#    y 0.000000 1.969040 0.000000 
#    z 0.000000 0.000000 1.986720 
# 
# From -- ./inp_files/117.got.cif
#   From: 2010.03.12/outbox.cif.g09.slc.cpg/sg111_1_cif.got.tgz:117.got - 2010.04.14 01:59:48.
