data_PCOD8308495
_publ_section_title
;
Structure prediction by ZEFSAII (Michael W. Deem and Ramdas Pophale) SiO2 
 PCOD8308495
Probable space group: P -4 2 C
;
_chemical_formula_sum "Si O2"
_cell_formula_units_Z 40
_cell_length_a 8.749556
_cell_length_b 8.749556
_cell_length_c 20.111916
_cell_angle_alpha 90.000000
_cell_angle_beta 90.000000
_cell_angle_gamma 90.000000
_cell_volume 1539.662303
_symmetry_space_group_name_H-M "P -4 2 C"
_symmetry_group_IT_number 112
_symmetry_cell_setting 'tetragonal'
loop_
_space_group_symop_operation_xyz
x,y,z
y,-x,-z
-x,-y,z
-y,x,-z
x,-y,1/2-z
-x,y,1/2-z
-y,-x,1/2+z
y,x,1/2+z
loop_
_atom_site_type_symbol
_atom_site_label
_atom_site_fract_x
_atom_site_fract_y
_atom_site_fract_z
Si Si1 0.527573 0.667331 0.672861
Si Si2 0.823264 0.209568 0.397280
Si Si3 0.712742 0.615351 0.984059
Si Si4 0.726661 0.103191 0.684904
Si Si5 0.077219 0.348224 0.861345
O O1 0.500000 0.500000 0.637413
O O2 0.500000 0.641269 0.750000
O O3 0.698209 0.717746 0.655533
O O4 0.422474 0.814037 0.654305
O O5 0.823469 0.285281 0.469574
O O6 0.997421 0.203651 0.372587
O O7 0.752788 0.041901 0.402650
O O8 0.787423 0.599523 0.911499
O O9 0.696127 0.452395 0.021227
O O10 0.849656 0.241580 0.697143
O O11 0.694360 0.000000 0.750000
O O12 0.000000 0.500000 0.830144
#
# Coordination Sequence:
#
# PCOD8308495 Si02
#       5
#     8   8   8   8   8
#     4  11  24  46  78 114 148 198 267 326 390 479
#     4  12  26  45  78 113 155 208 256 336 401 491
#     4  11  26  49  80 115 154 207 272 331 400 483
#     4  12  27  51  77 114 160 209 258 331 415 493
#     4  12  27  50  75 115 160 212 269 335 416 486
#
# _framework density 25.979724000000001
#
# number of rings (size 3 to 8) (size 9 to 14) (size 15 to 20)
#    0.000    0.400    4.000    3.600    5.600    3.200 
#    0.000    1.000    0.000    0.000    0.000    0.000 
#    0.000    0.000    0.000    0.000    0.000    0.000 
#
# Total GULP energy -495847.462160 kJ/mol
# GULP energy per Si atom -12396.186554 kJ/mol
# Density = 2.592059 g / cm^3
# Si number density = 25.979724 Si / 1000 Ang^3
#
#
#
# Elastic Constant Matrix: (Units=GPa)
#
#
# Indices 1 2 3 4 5 6 
#
# 1 146.5724 45.5940 14.4482 0.0000 0.0000 0.0000
# 2 45.5940 146.5724 14.4482 0.0000 0.0000 0.0000
# 3 14.4482 14.4482 37.9333 0.0000 0.0000 0.0000
# 4 0.0000 0.0000 0.0000 34.3395 0.0000 0.0000
# 5 0.0000 0.0000 0.0000 0.0000 34.3395 0.0000
# 6 0.0000 0.0000 0.0000 0.0000 0.0000 56.1287
#
#
#
# Elastic Compliance Matrix: (Units=1/GPa)
#
#
# Indices 1 2 3 4 5 6 
#
# 1 0.007712 -0.002192 -0.002102 0.000000 0.000000 0.000000
# 2 -0.002192 0.007712 -0.002102 0.000000 0.000000 0.000000
# 3 -0.002102 -0.002102 0.027964 0.000000 0.000000 0.000000
# 4 0.000000 0.000000 0.000000 0.029121 0.000000 0.000000
# 5 0.000000 0.000000 0.000000 0.000000 0.029121 0.000000
# 6 0.000000 0.000000 0.000000 0.000000 0.000000 0.017816
#
#
# Mechanical properties :
#
#
# Convention : Reuss Voigt Hill
#
# Bulk Modulus (GPa) = 32.68643 53.33987 43.01315
# Shear Modulus (GPa) = 35.10354 42.06741 38.58547
#
# Velocity S-wave (km/s) = 3.67984 4.02834 3.85803
# Velocity P-wave (km/s) = 5.53749 6.49713 6.03641
#
# Compressibility (1/GPa) = 0.03059374
#
# Stress axis : x y z
#
# Youngs Moduli (GPa) = 129.67579 129.67579 35.76069
#
# Poissons Ratio (x) = 0.28419 0.07519
# Poissons Ratio (y) = 0.28419 0.07519
# Poissons Ratio (z) = 0.27264 0.27264
#
# Static dielectric constant tensor:
#      x y z
#    x 5.031510 0.000000 0.000000 
#    y 0.000000 5.031510 0.000000 
#    z 0.000000 0.000000 4.480180 
# 
# 
# High freq. dielectric constant tensor:
#      x y z
#    x 2.054810 0.000000 0.000000 
#    y 0.000000 2.054810 0.000000 
#    z 0.000000 0.000000 2.012650 
# 
# From -- ./inp_files/5349.got.cif
#   From: 2010.03.12/outbox.cif.g09.slc.cpg/sg112_3_cif.got.tgz:5349.got - 2010.04.14 02:02:48.
