data_PCOD8308025
_publ_section_title
;
Structure prediction by ZEFSAII (Michael W. Deem and Ramdas Pophale) SiO2 
 PCOD8308025
Probable space group: I 41 C D
;
_chemical_formula_sum "Si O2"
_cell_formula_units_Z 120
_cell_length_a 18.171885
_cell_length_b 18.171885
_cell_length_c 18.448561
_cell_angle_alpha 90.000000
_cell_angle_beta 90.000000
_cell_angle_gamma 90.000000
_cell_volume 6092.035929
_symmetry_space_group_name_H-M "I 41 C D"
_symmetry_group_IT_number 110
_symmetry_cell_setting 'tetragonal'
loop_
_space_group_symop_operation_xyz
x,y,z
-y,1/2+x,1/4+z
-x,-y,z
y,1/2-x,1/4+z
-x,y,1/2+z
x,-y,1/2+z
1/2-y,-x,1/4+z
1/2+y,x,1/4+z
1/2+x,1/2+y,1/2+z
1/2-y,x,3/4+z
1/2-x,1/2-y,1/2+z
1/2+y,-x,3/4+z
1/2-x,1/2+y,z
1/2+x,1/2-y,z
-y,1/2-x,3/4+z
y,1/2+x,3/4+z
loop_
_atom_site_type_symbol
_atom_site_label
_atom_site_fract_x
_atom_site_fract_y
_atom_site_fract_z
Si Si1 0.083730 0.261492 0.663150
Si Si2 0.823436 0.738899 0.275050
Si Si3 0.361955 0.416989 0.618560
Si Si4 0.868850 0.101551 0.783403
Si Si5 0.389980 0.028609 0.386437
Si Si6 0.702875 0.760589 0.386320
Si Si7 0.000000 0.500000 0.001801
Si Si8 0.327597 0.571815 0.565289
O O1 0.073311 0.308455 0.589903
O O2 0.024617 0.194635 0.663301
O O3 0.164485 0.228318 0.674737
O O4 0.068535 0.314453 0.729984
O O5 0.853687 0.668783 0.317312
O O6 0.877959 0.809244 0.287979
O O7 0.744871 0.754335 0.310552
O O8 0.808127 0.717885 0.190656
O O9 0.339065 0.408467 0.702089
O O10 0.449777 0.416449 0.607197
O O11 0.322969 0.490375 0.593819
O O12 0.944350 0.053893 0.796721
O O13 0.394445 0.090457 0.324508
O O14 0.445494 0.050258 0.452358
O O15 0.617690 0.767577 0.362098
#
# Coordination Sequence:
#
# PCOD8308025 Si02
#       8
#    16  16  16  16  16  16   8  16
#     4  10  23  37  66  93 121 165 213 268 313 379
#     4  11  21  39  64  95 127 163 215 264 314 380
#     4  11  23  39  65  90 125 177 207 258 326 383
#     4  10  22  41  64  91 125 170 209 259 325 387
#     4  10  21  42  64  85 129 168 212 253 326 383
#     4  10  21  39  61  93 129 162 207 266 319 370
#     4  10  20  44  62  88 120 180 198 254 322 394
#     4  11  21  40  64  93 126 169 212 257 325 380
#
# _framework density 19.697846999999999
#
# number of rings (size 3 to 8) (size 9 to 14) (size 15 to 20)
#    0.000    1.600    5.333    0.000    3.733    1.067 
#    2.400    1.333    0.000    0.000    0.000    0.000 
#    0.000    0.000    0.000    0.000    0.000    0.000 
#
# Total GULP energy -743611.128879 kJ/mol
# GULP energy per Si atom -12393.518815 kJ/mol
# Density = 1.965301 g / cm^3
# Si number density = 19.697847 Si / 1000 Ang^3
#
#
#
# Elastic Constant Matrix: (Units=GPa)
#
#
# Indices 1 2 3 4 5 6 
#
# 1 86.8836 29.5250 32.4577 0.0000 0.0000 0.0000
# 2 29.5250 86.8836 32.4577 0.0000 0.0000 0.0000
# 3 32.4577 32.4577 103.7382 0.0000 0.0000 0.0000
# 4 0.0000 0.0000 0.0000 26.1635 0.0000 0.0000
# 5 0.0000 0.0000 0.0000 0.0000 26.1635 0.0000
# 6 0.0000 0.0000 0.0000 0.0000 0.0000 32.0704
#
#
#
# Elastic Compliance Matrix: (Units=1/GPa)
#
#
# Indices 1 2 3 4 5 6 
#
# 1 0.013920 -0.003514 -0.003256 0.000000 0.000000 0.000000
# 2 -0.003514 0.013920 -0.003256 0.000000 0.000000 0.000000
# 3 -0.003256 -0.003256 0.011677 0.000000 0.000000 0.000000
# 4 0.000000 0.000000 0.000000 0.038221 0.000000 0.000000
# 5 0.000000 0.000000 0.000000 0.000000 0.038221 0.000000
# 6 0.000000 0.000000 0.000000 0.000000 0.000000 0.031181
#
#
# Mechanical properties :
#
#
# Convention : Reuss Voigt Hill
#
# Bulk Modulus (GPa) = 51.37232 51.82070 51.59651
# Shear Modulus (GPa) = 28.78836 29.08380 28.93608
#
# Velocity S-wave (km/s) = 3.82710 3.84669 3.83691
# Velocity P-wave (km/s) = 6.75764 6.78928 6.77348
#
# Compressibility (1/GPa) = 0.01946573
#
# Stress axis : x y z
#
# Youngs Moduli (GPa) = 71.83848 71.83848 85.63811
#
# Poissons Ratio (x) = 0.25244 0.27883
# Poissons Ratio (y) = 0.25244 0.27883
# Poissons Ratio (z) = 0.23390 0.23390
#
# Static dielectric constant tensor:
#      x y z
#    x 3.649270 0.000000 0.000000 
#    y 0.000000 3.649270 0.000000 
#    z 0.000000 0.000000 3.447290 
# 
# 
# High freq. dielectric constant tensor:
#      x y z
#    x 1.766190 0.000000 0.000000 
#    y 0.000000 1.766190 0.000000 
#    z 0.000000 0.000000 1.755710 
# 
# From -- ./inp_files/2356.got.cif
#   From: 2010.03.12/outbox.cif.g09.slc.cpg/sg110_2_cif.got.tgz:2356.got - 2010.04.14 01:58:01.
