data_PCOD8308044
_publ_section_title
;
Structure prediction by ZEFSAII (Michael W. Deem and Ramdas Pophale) SiO2 
 PCOD8308044
Probable space group: I 41 C D
;
_chemical_formula_sum "Si O2"
_cell_formula_units_Z 104
_cell_length_a 18.748743
_cell_length_b 18.748743
_cell_length_c 15.622362
_cell_angle_alpha 90.000000
_cell_angle_beta 90.000000
_cell_angle_gamma 90.000000
_cell_volume 5491.500266
_symmetry_space_group_name_H-M "I 41 C D"
_symmetry_group_IT_number 110
_symmetry_cell_setting 'tetragonal'
loop_
_space_group_symop_operation_xyz
x,y,z
-y,1/2+x,1/4+z
-x,-y,z
y,1/2-x,1/4+z
-x,y,1/2+z
x,-y,1/2+z
1/2-y,-x,1/4+z
1/2+y,x,1/4+z
1/2+x,1/2+y,1/2+z
1/2-y,x,3/4+z
1/2-x,1/2-y,1/2+z
1/2+y,-x,3/4+z
1/2-x,1/2+y,z
1/2+x,1/2-y,z
-y,1/2-x,3/4+z
y,1/2+x,3/4+z
loop_
_atom_site_type_symbol
_atom_site_label
_atom_site_fract_x
_atom_site_fract_y
_atom_site_fract_z
Si Si1 0.000000 0.500000 0.097450
Si Si2 0.974807 0.713291 0.347366
Si Si3 0.724672 0.788487 0.468533
Si Si4 0.382337 0.705669 0.865959
Si Si5 0.635462 0.449503 0.922224
Si Si6 0.296399 0.829702 0.577675
Si Si7 0.636843 0.548515 0.770967
O O1 0.044304 0.450407 0.162796
O O2 0.047723 0.550590 0.034881
O O3 0.981839 0.667043 0.260097
O O4 0.904263 0.759267 0.342882
O O5 0.977139 0.658115 0.426344
O O6 0.035014 0.773484 0.362427
O O7 0.660338 0.772045 0.404632
O O8 0.695604 0.856660 0.519036
O O9 0.741299 0.720434 0.527582
O O10 0.796035 0.812475 0.419909
O O11 0.355963 0.635644 0.917553
O O12 0.671049 0.494553 0.842888
O O13 0.370746 0.836450 0.528316
#
# Coordination Sequence:
#
# PCOD8308044 Si02
#       7
#     8  16  16  16  16  16  16
#     4   8  22  42  64  84 132 158 202 274 310 368
#     4  12  23  38  70  92 128 173 216 260 329 391
#     4  10  22  38  64  89 130 160 203 273 314 386
#     4  11  22  40  61  94 125 163 214 257 330 373
#     4  10  22  43  63  93 130 165 214 273 311 388
#     4  11  20  40  62  94 121 168 210 261 324 379
#     4  10  22  42  63  94 125 164 217 261 317 387
#
# _framework density 18.938358000000001
#
# number of rings (size 3 to 8) (size 9 to 14) (size 15 to 20)
#    0.923    0.615    3.077    2.769    0.000    0.615 
#    2.769    0.000    0.000    0.000    0.000    0.000 
#    0.000    0.000    0.000    0.000    0.000    0.000 
#
# Total GULP energy -644253.774747 kJ/mol
# GULP energy per Si atom -12389.495668 kJ/mol
# Density = 1.889525 g / cm^3
# Si number density = 18.938358 Si / 1000 Ang^3
#
#
#
# Elastic Constant Matrix: (Units=GPa)
#
#
# Indices 1 2 3 4 5 6 
#
# 1 71.6671 11.7380 24.0562 0.0000 0.0000 0.0000
# 2 11.7380 71.6671 24.0562 0.0000 0.0000 0.0000
# 3 24.0562 24.0562 116.1141 0.0000 0.0000 0.0000
# 4 0.0000 0.0000 0.0000 22.2273 0.0000 0.0000
# 5 0.0000 0.0000 0.0000 0.0000 22.2273 0.0000
# 6 0.0000 0.0000 0.0000 0.0000 0.0000 24.8432
#
#
#
# Elastic Compliance Matrix: (Units=1/GPa)
#
#
# Indices 1 2 3 4 5 6 
#
# 1 0.015152 -0.001535 -0.002821 0.000000 0.000000 0.000000
# 2 -0.001535 0.015152 -0.002821 0.000000 0.000000 0.000000
# 3 -0.002821 -0.002821 0.009781 0.000000 0.000000 0.000000
# 4 0.000000 0.000000 0.000000 0.044990 0.000000 0.000000
# 5 0.000000 0.000000 0.000000 0.000000 0.044990 0.000000
# 6 0.000000 0.000000 0.000000 0.000000 0.000000 0.040252
#
#
# Mechanical properties :
#
#
# Convention : Reuss Voigt Hill
#
# Bulk Modulus (GPa) = 38.86405 42.12767 40.49586
# Shear Modulus (GPa) = 25.87360 27.16610 26.51985
#
# Velocity S-wave (km/s) = 3.70023 3.79152 3.74615
# Velocity P-wave (km/s) = 6.23069 6.43898 6.33569
#
# Compressibility (1/GPa) = 0.02573072
#
# Stress axis : x y z
#
# Youngs Moduli (GPa) = 65.99911 65.99911 102.23719
#
# Poissons Ratio (x) = 0.10129 0.28843
# Poissons Ratio (y) = 0.10129 0.28843
# Poissons Ratio (z) = 0.18619 0.18619
#
# Static dielectric constant tensor:
#      x y z
#    x 3.369170 0.000000 0.000000 
#    y 0.000000 3.369170 0.000000 
#    z 0.000000 0.000000 3.513050 
# 
# 
# High freq. dielectric constant tensor:
#      x y z
#    x 1.733610 0.000000 0.000000 
#    y 0.000000 1.733610 0.000000 
#    z 0.000000 0.000000 1.736100 
# 
# From -- ./inp_files/1771.got.cif
#   From: 2010.03.12/outbox.cif.g09.slc.cpg/sg110_1_cif.got.tgz:1771.got - 2010.04.14 01:58:01.
