data_PCOD8308224
_publ_section_title
;
Structure prediction by ZEFSAII (Michael W. Deem and Ramdas Pophale) SiO2 
 PCOD8308224
Probable space group: P -4 2 M 
;
_chemical_formula_sum "Si O2"
_cell_formula_units_Z 40
_cell_length_a 16.608644
_cell_length_b 16.608644
_cell_length_c 7.596230
_cell_angle_alpha 90.000000
_cell_angle_beta 90.000000
_cell_angle_gamma 90.000000
_cell_volume 2095.397679
_symmetry_space_group_name_H-M "P -4 2 M "
_symmetry_group_IT_number 111
_symmetry_cell_setting 'tetragonal'
loop_
_space_group_symop_operation_xyz
x,y,z
y,-x,-z
-x,-y,z
-y,x,-z
x,-y,-z
-x,y,-z
-y,-x,z
y,x,z
loop_
_atom_site_type_symbol
_atom_site_label
_atom_site_fract_x
_atom_site_fract_y
_atom_site_fract_z
Si Si1 0.687804 0.000000 0.699308
Si Si2 0.871299 0.000000 0.207603
Si Si3 0.592999 0.848367 0.703396
Si Si4 0.407812 0.723004 1.000000
Si Si5 0.407000 0.151633 0.296604
O O1 0.649182 0.919696 0.782065
O O2 0.657843 0.000000 0.500000
O O3 0.784121 1.000000 0.706118
O O4 0.649183 0.080304 0.782065
O O5 0.920625 0.920625 0.267929
O O6 0.920624 0.079377 0.267929
O O7 0.860872 0.000000 0.000000
O O8 0.613121 0.771956 0.823182
O O9 0.613126 0.827112 0.500000
O O10 0.500000 0.874510 0.724579
O O11 0.358032 0.641969 0.000000
O O12 0.500000 0.696743 0.000000
O O13 0.386879 0.771956 0.823181
#
# Coordination Sequence:
#
# PCOD8308224 Si02
#       5
#     8   8   8   8   8
#     4  10  20  33  54  82 106 137 180 219 263 323
#     4   9  20  37  51  66  97 141 182 220 261 303
#     4   9  19  36  56  81 114 144 173 217 271 325
#     4  10  22  38  57  81 108 144 184 224 275 326
#     4   9  19  36  56  81 114 144 173 217 271 325
#
# _framework density 19.089455999999998
#
# number of rings (size 3 to 8) (size 9 to 14) (size 15 to 20)
#    0.000    2.600    0.000    1.200    2.800    5.800 
#    0.000    8.000    0.000    0.000    0.000    5.600 
#    0.000    0.000    0.000    0.000    0.000    0.000 
#
# Total GULP energy -495922.517031 kJ/mol
# GULP energy per Si atom -12398.062926 kJ/mol
# Density = 1.904601 g / cm^3
# Si number density = 19.089456 Si / 1000 Ang^3
#
#
#
# Elastic Constant Matrix: (Units=GPa)
#
#
# Indices 1 2 3 4 5 6 
#
# 1 124.2863 82.4911 38.8159 0.0000 0.0000 0.0000
# 2 82.4911 124.2926 38.8167 0.0000 0.0000 0.0000
# 3 38.8159 38.8167 82.4782 0.0000 0.0000 0.0000
# 4 0.0000 0.0000 0.0000 -22.7329 0.0000 0.0000
# 5 0.0000 0.0000 0.0000 0.0000 -22.4099 0.0000
# 6 0.0000 0.0000 0.0000 0.0000 0.0000 33.2334
#
#
#
# Elastic Compliance Matrix: (Units=1/GPa)
#
#
# Indices 1 2 3 4 5 6 
#
# 1 0.014900 -0.009025 -0.002764 0.000000 0.000000 0.000000
# 2 -0.009025 0.014899 -0.002764 0.000000 0.000000 0.000000
# 3 -0.002764 -0.002764 0.014726 0.000000 0.000000 0.000000
# 4 0.000000 0.000000 0.000000 -0.043989 0.000000 0.000000
# 5 0.000000 0.000000 0.000000 0.000000 -0.044623 0.000000
# 6 0.000000 0.000000 0.000000 0.000000 0.000000 0.030090
#
#
# Mechanical properties :
#
#
# Convention : Reuss Voigt Hill
#
# Bulk Modulus (GPa) = 64.86516 72.36717 68.61616
# Shear Modulus (GPa) = 246.91781 9.01368 127.96574
#
# Velocity S-wave (km/s) = 11.38545 2.17533 8.19636
# Velocity P-wave (km/s) = 14.38372 6.65592 11.20698
#
# Compressibility (1/GPa) = 0.01541660
#
# Stress axis : x y z
#
# Youngs Moduli (GPa) = 67.11620 67.11968 67.90520
#
# Poissons Ratio (x) = 0.60577 0.18772
# Poissons Ratio (y) = 0.60574 0.18771
# Poissons Ratio (z) = 0.18554 0.18554
#
# Static dielectric constant tensor:
#      x y z
#    x 3.406330 0.000000 0.000000 
#    y 0.000000 3.406340 0.000000 
#    z 0.000000 0.000000 3.595350 
# 
# 
# High freq. dielectric constant tensor:
#      x y z
#    x 1.734410 0.000000 0.000000 
#    y 0.000000 1.734410 0.000000 
#    z 0.000000 0.000000 1.746470 
# 
# From -- ./inp_files/1553.got.cif
#   From: 2010.03.12/outbox.cif.g09.slc.cpg/sg111_1_cif.got.tgz:1553.got - 2010.04.14 01:59:48.
