data_PCOD8308258
_publ_section_title
;
Structure prediction by ZEFSAII (Michael W. Deem and Ramdas Pophale) SiO2 
 PCOD8308258
Probable space group: P -4 2 M 
;
_chemical_formula_sum "Si O2"
_cell_formula_units_Z 40
_cell_length_a 16.380898
_cell_length_b 16.380898
_cell_length_c 7.757064
_cell_angle_alpha 90.000000
_cell_angle_beta 90.000000
_cell_angle_gamma 90.000000
_cell_volume 2081.482610
_symmetry_space_group_name_H-M "P -4 2 M "
_symmetry_group_IT_number 111
_symmetry_cell_setting 'tetragonal'
loop_
_space_group_symop_operation_xyz
x,y,z
y,-x,-z
-x,-y,z
-y,x,-z
x,-y,-z
-x,y,-z
-y,-x,z
y,x,z
loop_
_atom_site_type_symbol
_atom_site_label
_atom_site_fract_x
_atom_site_fract_y
_atom_site_fract_z
Si Si1 0.686275 0.999970 0.804338
Si Si2 0.868276 0.000005 0.298052
Si Si3 0.593161 0.844465 0.693268
Si Si4 0.405207 0.726574 0.000023
Si Si5 0.406901 0.155453 0.306622
O O1 0.784118 0.000040 0.804839
O O2 0.652397 0.078657 0.707164
O O3 0.652551 0.921179 0.707307
O O4 0.654476 0.000000 0.000000
O O5 0.919669 0.919669 0.246778
O O6 0.849502 0.000000 0.500000
O O7 0.919623 0.080378 0.246791
O O8 0.601181 0.808393 0.499907
O O9 0.500047 0.872264 0.731115
O O10 0.620337 0.776326 0.829572
O O11 0.358318 0.641683 0.999788
O O12 0.379659 0.776522 0.829874
O O13 0.500000 0.704759 0.000000
#
# Coordination Sequence:
#
# PCOD8308258 Si02
#       5
#     8   8   8   8   8
#     4  12  22  34  57  87 118 152 191 234 283 343
#     4   9  20  39  57  73 102 147 195 240 282 323
#     4  10  21  38  60  86 119 155 188 231 288 344
#     4  10  22  40  61  87 118 152 194 242 293 350
#     4  10  21  38  60  86 119 155 188 231 288 344
#
# _framework density 19.217072000000002
#
# number of rings (size 3 to 8) (size 9 to 14) (size 15 to 20)
#    0.000    1.800    2.000    3.000    0.000    5.800 
#    0.000    1.000    0.000    0.000    0.000    5.600 
#    0.000    0.000    0.000    0.000    0.000    0.000 
#
# Total GULP energy -496150.376214 kJ/mol
# GULP energy per Si atom -12403.759405 kJ/mol
# Density = 1.917333 g / cm^3
# Si number density = 19.217072 Si / 1000 Ang^3
#
#
#
# Elastic Constant Matrix: (Units=GPa)
#
#
# Indices 1 2 3 4 5 6 
#
# 1 101.9843 59.7467 36.2197 0.0000 0.0000 0.0000
# 2 59.7467 101.9898 36.2212 0.0000 0.0000 0.0000
# 3 36.2197 36.2212 130.5866 0.0000 0.0000 0.0000
# 4 0.0000 0.0000 0.0000 10.0126 0.0000 0.0000
# 5 0.0000 0.0000 0.0000 0.0000 10.0227 0.0000
# 6 0.0000 0.0000 0.0000 0.0000 0.0000 17.0655
#
#
#
# Elastic Compliance Matrix: (Units=1/GPa)
#
#
# Indices 1 2 3 4 5 6 
#
# 1 0.015367 -0.008307 -0.001958 0.000000 0.000000 0.000000
# 2 -0.008307 0.015367 -0.001958 0.000000 0.000000 0.000000
# 3 -0.001958 -0.001958 0.008744 0.000000 0.000000 0.000000
# 4 0.000000 0.000000 0.000000 0.099874 0.000000 0.000000
# 5 0.000000 0.000000 0.000000 0.000000 0.099774 0.000000
# 6 0.000000 0.000000 0.000000 0.000000 0.000000 0.058598
#
#
# Mechanical properties :
#
#
# Convention : Reuss Voigt Hill
#
# Bulk Modulus (GPa) = 66.52786 66.54843 66.53815
# Shear Modulus (GPa) = 15.28204 20.91168 18.09686
#
# Velocity S-wave (km/s) = 2.82305 3.30234 3.07205
# Velocity P-wave (km/s) = 6.73204 7.01752 6.87627
#
# Compressibility (1/GPa) = 0.01503130
#
# Stress axis : x y z
#
# Youngs Moduli (GPa) = 65.07253 65.07580 114.36332
#
# Poissons Ratio (x) = 0.54058 0.22395
# Poissons Ratio (y) = 0.54056 0.22395
# Poissons Ratio (z) = 0.12743 0.12744
#
# Static dielectric constant tensor:
#      x y z
#    x 3.342590 0.000000 0.000000 
#    y 0.000000 3.342590 0.000000 
#    z 0.000000 0.000000 3.676120 
# 
# 
# High freq. dielectric constant tensor:
#      x y z
#    x 1.735900 0.000000 0.000000 
#    y 0.000000 1.735900 0.000000 
#    z 0.000000 0.000000 1.765200 
# 
# From -- ./inp_files/1552.got.cif
#   From: 2010.03.12/outbox.cif.g09.slc.cpg/sg111_1_cif.got.tgz:1552.got - 2010.04.14 01:59:48.
