data_PCOD8308600
_publ_section_title
;
Structure prediction by ZEFSAII (Michael W. Deem and Ramdas Pophale) SiO2 
 PCOD8308600
Probable space group: P -4 21 M 
;
_chemical_formula_sum "Si O2"
_cell_formula_units_Z 64
_cell_length_a 11.825306
_cell_length_b 11.825306
_cell_length_c 22.981991
_cell_angle_alpha 90.000000
_cell_angle_beta 90.000000
_cell_angle_gamma 90.000000
_cell_volume 3213.752486
_symmetry_space_group_name_H-M "P -4 21 M "
_symmetry_group_IT_number 113
_symmetry_cell_setting 'tetragonal'
loop_
_space_group_symop_operation_xyz
x,y,z
y,-x,-z
-x,-y,z
-y,x,-z
1/2+x,1/2-y,-z
1/2-x,1/2+y,-z
1/2-y,1/2-x,z
1/2+y,1/2+x,z
loop_
_atom_site_type_symbol
_atom_site_label
_atom_site_fract_x
_atom_site_fract_y
_atom_site_fract_z
Si Si1 0.144793 0.828696 0.938081
Si Si2 0.161909 0.839029 0.180343
Si Si3 0.822013 0.140278 0.554305
Si Si4 0.251285 0.566678 0.759503
Si Si5 0.787834 0.890434 0.570922
Si Si6 0.872404 0.009901 0.351882
Si Si7 0.733318 0.587105 0.180375
Si Si8 0.281727 0.397516 0.942694
O O1 0.225180 0.725180 0.947583
O O2 0.183826 0.906872 0.884915
O O3 0.026429 0.770288 0.923565
O O4 0.143159 0.896622 0.998753
O O5 0.249766 0.749766 0.205917
O O6 0.155214 0.834034 0.110137
O O7 0.039962 0.793476 0.202831
O O8 0.212335 0.960947 0.199696
O O9 0.740726 0.240726 0.575098
O O10 0.849737 0.146563 0.486440
O O11 0.936502 0.144119 0.590571
O O12 0.760327 0.022576 0.567503
O O13 0.121551 0.621551 0.765061
O O14 0.276202 0.525619 0.694014
O O15 0.333936 0.667982 0.775048
O O16 0.666898 0.833103 0.577149
O O17 0.861300 0.855803 0.627431
O O18 0.000000 0.000000 0.325751
O O19 0.865197 0.634804 0.180354
O O20 0.157974 0.342027 0.952948
#
# Coordination Sequence:
#
# PCOD8308600 Si02
#       8
#     8   8   8   8   8   8   8   8
#     4  10  20  35  55  82 111 149 196 244 301 362
#     4  11  23  38  58  84 118 159 197 244 305 360
#     4  10  19  34  56  83 117 152 191 239 287 345
#     4  11  23  40  62  89 118 157 204 248 293 351
#     4  10  20  34  55  83 116 153 194 238 290 346
#     4  10  20  35  61  86 115 154 197 243 292 343
#     4  10  21  38  61  86 115 151 198 251 299 355
#     4  10  21  34  53  82 113 149 194 242 301 364
#
# _framework density 19.914413
#
# number of rings (size 3 to 8) (size 9 to 14) (size 15 to 20)
#    0.000    1.750    2.500    2.250    0.000    2.750 
#    0.000    1.250    0.000    5.625    0.000    3.500 
#    0.000    0.000    0.000    0.000    0.000    0.000 
#
# Total GULP energy -792863.794426 kJ/mol
# GULP energy per Si atom -12388.496788 kJ/mol
# Density = 1.986909 g / cm^3
# Si number density = 19.914413 Si / 1000 Ang^3
#
#
#
# Elastic Constant Matrix: (Units=GPa)
#
#
# Indices 1 2 3 4 5 6 
#
# 1 78.1708 38.3789 6.9291 0.0000 0.0000 0.0000
# 2 38.3789 78.1698 6.9284 0.0000 0.0000 0.0000
# 3 6.9291 6.9284 64.2697 0.0000 0.0000 0.0000
# 4 0.0000 0.0000 0.0000 19.2291 0.0000 0.0000
# 5 0.0000 0.0000 0.0000 0.0000 19.2290 0.0000
# 6 0.0000 0.0000 0.0000 0.0000 0.0000 28.2625
#
#
#
# Elastic Compliance Matrix: (Units=1/GPa)
#
#
# Indices 1 2 3 4 5 6 
#
# 1 0.016911 -0.008220 -0.000937 0.000000 0.000000 0.000000
# 2 -0.008220 0.016911 -0.000937 0.000000 0.000000 0.000000
# 3 -0.000937 -0.000937 0.015761 0.000000 0.000000 0.000000
# 4 0.000000 0.000000 0.000000 0.052004 0.000000 0.000000
# 5 0.000000 0.000000 0.000000 0.000000 0.052005 0.000000
# 6 0.000000 0.000000 0.000000 0.000000 0.000000 0.035383
#
#
# Mechanical properties :
#
#
# Convention : Reuss Voigt Hill
#
# Bulk Modulus (GPa) = 34.01778 36.12035 35.06907
# Shear Modulus (GPa) = 22.83498 24.56904 23.70201
#
# Velocity S-wave (km/s) = 3.38990 3.51626 3.45366
# Velocity P-wave (km/s) = 5.69570 5.88750 5.79239
#
# Compressibility (1/GPa) = 0.02939639
#
# Stress axis : x y z
#
# Youngs Moduli (GPa) = 59.13246 59.13185 63.44586
#
# Poissons Ratio (x) = 0.48605 0.05946
# Poissons Ratio (y) = 0.48606 0.05944
# Poissons Ratio (z) = 0.05541 0.05540
#
# Static dielectric constant tensor:
#      x y z
#    x 3.704050 0.000000 0.000000 
#    y 0.000000 3.704050 0.000000 
#    z 0.000000 0.000000 3.685260 
# 
# 
# High freq. dielectric constant tensor:
#      x y z
#    x 1.768280 0.000000 0.000000 
#    y 0.000000 1.768280 0.000000 
#    z 0.000000 0.000000 1.778540 
# 
# From -- ./inp_files/2873.got.cif
#   From: 2010.03.12/outbox.cif.g09.slc.cpg/sg113_cif.got.tgz:2873.got - 2010.04.14 02:06:34.
