data_PCOD8308782
_publ_section_title
;
Structure prediction by ZEFSAII (Michael W. Deem and Ramdas Pophale) SiO2 
 PCOD8308782
Probable space group: P -4 21 M 
;
_chemical_formula_sum "Si O2"
_cell_formula_units_Z 18
_cell_length_a 10.774761
_cell_length_b 10.774761
_cell_length_c 7.173154
_cell_angle_alpha 90.000000
_cell_angle_beta 90.000000
_cell_angle_gamma 90.000000
_cell_volume 832.770718
_symmetry_space_group_name_H-M "P -4 21 M "
_symmetry_group_IT_number 113
_symmetry_cell_setting 'tetragonal'
loop_
_space_group_symop_operation_xyz
x,y,z
y,-x,-z
-x,-y,z
-y,x,-z
1/2+x,1/2-y,-z
1/2-x,1/2+y,-z
1/2-y,1/2-x,z
1/2+y,1/2+x,z
loop_
_atom_site_type_symbol
_atom_site_label
_atom_site_fract_x
_atom_site_fract_y
_atom_site_fract_z
Si Si1 0.899713 0.600288 0.846355
Si Si2 0.104057 0.395944 0.437768
Si Si3 0.959041 0.254327 0.149164
Si Si4 0.500000 0.500000 0.000000
O O1 0.851471 0.648530 0.643443
O O2 0.000000 0.500000 0.787176
O O3 0.793753 0.533832 0.964548
O O4 0.221360 0.454254 0.328809
O O5 0.000000 0.500000 0.429930
O O6 0.826414 0.326414 0.160417
O O7 0.939678 0.107004 0.130665
#
# Coordination Sequence:
#
# PCOD8308782 Si02
#       4
#     4   4   8   2
#     4   8  15  35  64  85 109 151 197 242 291 340
#     4   8  15  35  64  85 109 151 197 242 291 340
#     4   9  20  36  58  87 116 152 194 237 290 345
#     4  12  24  36  62  88 124 158 192 236 294 352
#
# _framework density 21.614595000000001
#
# number of rings (size 3 to 8) (size 9 to 14) (size 15 to 20)
#    0.000    3.111    0.000    2.667    6.222    0.000 
#    0.000    6.667    0.000    0.000    0.000    0.000 
#    0.000    0.000    0.000    0.000    0.000    0.000 
#
# Total GULP energy -223025.025112 kJ/mol
# GULP energy per Si atom -12390.279173 kJ/mol
# Density = 2.156540 g / cm^3
# Si number density = 21.614595 Si / 1000 Ang^3
#
#
#
# Elastic Constant Matrix: (Units=GPa)
#
#
# Indices 1 2 3 4 5 6 
#
# 1 94.6289 22.3745 17.5990 0.0000 0.0000 0.0000
# 2 22.3745 94.6283 17.5993 0.0000 0.0000 0.0000
# 3 17.5990 17.5993 151.7601 0.0000 0.0000 0.0000
# 4 0.0000 0.0000 0.0000 4.1335 0.0000 0.0000
# 5 0.0000 0.0000 0.0000 0.0000 4.1336 0.0000
# 6 0.0000 0.0000 0.0000 0.0000 0.0000 17.7339
#
#
#
# Elastic Compliance Matrix: (Units=1/GPa)
#
#
# Indices 1 2 3 4 5 6 
#
# 1 0.011348 -0.002492 -0.001027 0.000000 0.000000 0.000000
# 2 -0.002492 0.011348 -0.001027 0.000000 0.000000 0.000000
# 3 -0.001027 -0.001027 0.006828 0.000000 0.000000 0.000000
# 4 0.000000 0.000000 0.000000 0.241927 0.000000 0.000000
# 5 0.000000 0.000000 0.000000 0.000000 0.241919 0.000000
# 6 0.000000 0.000000 0.000000 0.000000 0.000000 0.056389
#
#
# Mechanical properties :
#
#
# Convention : Reuss Voigt Hill
#
# Bulk Modulus (GPa) = 48.94497 50.68476 49.81486
# Shear Modulus (GPa) = 8.53735 24.09651 16.31693
#
# Velocity S-wave (km/s) = 1.98957 3.34252 2.75053
# Velocity P-wave (km/s) = 5.28880 6.19652 5.76057
#
# Compressibility (1/GPa) = 0.02043111
#
# Stress axis : x y z
#
# Youngs Moduli (GPa) = 88.12253 88.12188 146.46567
#
# Poissons Ratio (x) = 0.21961 0.15041
# Poissons Ratio (y) = 0.21961 0.15042
# Poissons Ratio (z) = 0.09050 0.09050
#
# Static dielectric constant tensor:
#      x y z
#    x 3.639630 0.000000 0.000000 
#    y 0.000000 3.639640 0.000000 
#    z 0.000000 0.000000 4.111030 
# 
# 
# High freq. dielectric constant tensor:
#      x y z
#    x 1.834570 0.000000 0.000000 
#    y 0.000000 1.834570 0.000000 
#    z 0.000000 0.000000 1.839850 
# 
# From -- ./inp_files/96.got.cif
#   From: 2010.03.12/outbox.cif.g09.slc.cpg/sg113_cif.got.tgz:96.got - 2010.04.14 02:06:34.
