data_PCOD8308126
_publ_section_title
;
Structure prediction by ZEFSAII (Michael W. Deem and Ramdas Pophale) SiO2 
 PCOD8308126
Probable space group: P -4 2 M 
;
_chemical_formula_sum "Si O2"
_cell_formula_units_Z 48
_cell_length_a 12.800790
_cell_length_b 12.800790
_cell_length_c 17.077056
_cell_angle_alpha 90.000000
_cell_angle_beta 90.000000
_cell_angle_gamma 90.000000
_cell_volume 2798.250232
_symmetry_space_group_name_H-M "P -4 2 M "
_symmetry_group_IT_number 111
_symmetry_cell_setting 'tetragonal'
loop_
_space_group_symop_operation_xyz
x,y,z
y,-x,-z
-x,-y,z
-y,x,-z
x,-y,-z
-x,y,-z
-y,-x,z
y,x,z
loop_
_atom_site_type_symbol
_atom_site_label
_atom_site_fract_x
_atom_site_fract_y
_atom_site_fract_z
Si Si1 0.000000 0.376247 0.588177
Si Si2 0.280927 0.877517 1.000000
Si Si3 0.623135 0.208699 0.677461
Si Si4 0.116170 0.621857 0.841490
Si Si5 0.378143 0.116169 0.841491
Si Si6 0.623134 0.791301 0.677462
O O1 0.105461 0.338403 0.631147
O O2 0.000000 0.500000 0.589284
O O3 0.000000 0.331803 0.500000
O O4 0.894540 0.338402 0.631147
O O5 0.161705 0.838296 0.000000
O O6 0.335567 0.833255 0.078295
O O7 0.335566 0.833255 0.921705
O O8 0.285360 0.000000 0.000000
O O9 0.691267 0.308734 0.649386
O O10 0.648225 0.190434 0.768731
O O11 0.500000 0.231641 0.662696
O O12 0.104130 0.500000 0.851058
O O13 0.000000 0.669857 0.827225
O O14 0.351776 0.190433 0.768732
O O15 0.691266 0.691266 0.649387
#
# Coordination Sequence:
#
# PCOD8308126 Si02
#       6
#     8   8   8   8   8   8
#     4   9  18  34  54  74  96 128 169 204 239 291
#     4  10  19  28  41  63  92 126 163 203 247 292
#     4  10  19  32  52  77 105 134 165 205 251 298
#     4   9  16  29  48  69  92 122 165 211 247 282
#     4   9  16  29  48  69  92 122 165 211 247 282
#     4  10  19  32  52  77 105 134 165 205 251 298
#
# _framework density 17.153576999999999
#
# number of rings (size 3 to 8) (size 9 to 14) (size 15 to 20)
#    0.000    2.500    1.667    1.500    0.000    3.167 
#    0.000    0.000    0.000    0.500    0.000    5.833 
#    0.000   12.000    0.000    0.000    0.000    0.000 
#
# Total GULP energy -594835.378839 kJ/mol
# GULP energy per Si atom -12392.403726 kJ/mol
# Density = 1.711453 g / cm^3
# Si number density = 17.153577 Si / 1000 Ang^3
#
#
#
# Elastic Constant Matrix: (Units=GPa)
#
#
# Indices 1 2 3 4 5 6 
#
# 1 66.3933 50.3686 39.7665 0.0000 0.0000 0.0000
# 2 50.3686 66.3911 39.7663 0.0000 0.0000 0.0000
# 3 39.7665 39.7663 115.1372 0.0000 0.0000 0.0000
# 4 0.0000 0.0000 0.0000 7.0339 0.0000 0.0000
# 5 0.0000 0.0000 0.0000 0.0000 7.0358 0.0000
# 6 0.0000 0.0000 0.0000 0.0000 0.0000 29.5999
#
#
#
# Elastic Compliance Matrix: (Units=1/GPa)
#
#
# Indices 1 2 3 4 5 6 
#
# 1 0.036803 -0.025604 -0.003868 0.000000 0.000000 0.000000
# 2 -0.025604 0.036804 -0.003868 0.000000 0.000000 0.000000
# 3 -0.003868 -0.003868 0.011357 0.000000 0.000000 0.000000
# 4 0.000000 0.000000 0.000000 0.142169 0.000000 0.000000
# 5 0.000000 0.000000 0.000000 0.000000 0.142131 0.000000
# 6 0.000000 0.000000 0.000000 0.000000 0.000000 0.033784
#
#
# Mechanical properties :
#
#
# Convention : Reuss Voigt Hill
#
# Bulk Modulus (GPa) = 54.69384 56.41383 55.55384
# Shear Modulus (GPa) = 10.50810 16.60192 13.55501
#
# Velocity S-wave (km/s) = 2.47774 3.11439 2.81413
# Velocity P-wave (km/s) = 6.33558 6.77432 6.55862
#
# Compressibility (1/GPa) = 0.01828359
#
# Stress axis : x y z
#
# Youngs Moduli (GPa) = 27.17174 27.17069 88.04992
#
# Poissons Ratio (x) = 0.69569 0.34056
# Poissons Ratio (y) = 0.69572 0.34060
# Poissons Ratio (z) = 0.10510 0.10510
#
# Static dielectric constant tensor:
#      x y z
#    x 3.034850 0.000000 0.000000 
#    y 0.000000 3.034840 0.000000 
#    z 0.000000 0.000000 3.555240 
# 
# 
# High freq. dielectric constant tensor:
#      x y z
#    x 1.638020 0.000000 0.000000 
#    y 0.000000 1.638020 0.000000 
#    z 0.000000 0.000000 1.674900 
# 
# From -- ./inp_files/3639.got.cif
#   From: 2010.03.12/outbox.cif.g09.slc.cpg/sg111_2_cif.got.tgz:3639.got - 2010.04.14 01:59:48.
