data_PCOD8308989
_publ_section_title
;
Structure prediction by ZEFSAII (Michael W. Deem and Ramdas Pophale) SiO2 
 PCOD8308989
Probable space group: P -4 21 C
;
_chemical_formula_sum "Si O2"
_cell_formula_units_Z 24
_cell_length_a 8.151551
_cell_length_b 8.151551
_cell_length_c 13.714095
_cell_angle_alpha 90.000000
_cell_angle_beta 90.000000
_cell_angle_gamma 90.000000
_cell_volume 911.271218
_symmetry_space_group_name_H-M "P -4 21 C"
_symmetry_group_IT_number 114
_symmetry_cell_setting 'tetragonal'
loop_
_space_group_symop_operation_xyz
x,y,z
y,-x,-z
-x,-y,z
-y,x,-z
1/2+x,1/2-y,1/2-z
1/2-x,1/2+y,1/2-z
1/2-y,1/2-x,1/2+z
1/2+y,1/2+x,1/2+z
loop_
_atom_site_type_symbol
_atom_site_label
_atom_site_fract_x
_atom_site_fract_y
_atom_site_fract_z
Si Si1 0.559271 0.669748 0.118642
Si Si2 0.837132 0.594870 0.272335
Si Si3 0.786258 0.906813 0.045835
O O1 0.500000 0.500000 0.072585
O O2 0.719300 0.649648 0.186333
O O3 0.401420 0.742742 0.172884
O O4 0.625100 0.790337 0.031693
O O5 0.729278 0.487319 0.347332
O O6 0.000000 0.500000 0.234758
O O7 0.953303 0.797290 0.038251
#
# Coordination Sequence:
#
# PCOD8308989 Si02
#       3
#     8   8   8
#     4  11  23  45  76 115 151 191 257 317 380 471
#     4  10  23  44  75 114 148 198 255 307 387 476
#     4  10  24  46  74 103 153 203 246 301 396 449
#
# _framework density 26.336832999999999
#
# number of rings (size 3 to 8) (size 9 to 14) (size 15 to 20)
#    0.000    1.667    0.000    4.000   14.000    0.000 
#   18.000    0.000    0.000    0.000    0.000    0.000 
#    0.000    0.000    0.000    0.000    0.000    0.000 
#
# Total GULP energy -297412.262899 kJ/mol
# GULP energy per Si atom -12392.177621 kJ/mol
# Density = 2.627689 g / cm^3
# Si number density = 26.336833 Si / 1000 Ang^3
#
#
#
# Elastic Constant Matrix: (Units=GPa)
#
#
# Indices 1 2 3 4 5 6 
#
# 1 146.3197 53.7150 44.0172 0.0000 0.0000 0.0000
# 2 53.7150 146.3197 44.0172 0.0000 0.0000 0.0000
# 3 44.0172 44.0172 73.9739 0.0000 0.0000 0.0000
# 4 0.0000 0.0000 0.0000 38.1885 0.0000 0.0000
# 5 0.0000 0.0000 0.0000 0.0000 38.1885 0.0000
# 6 0.0000 0.0000 0.0000 0.0000 0.0000 68.9375
#
#
#
# Elastic Compliance Matrix: (Units=1/GPa)
#
#
# Indices 1 2 3 4 5 6 
#
# 1 0.008786 -0.002013 -0.004030 0.000000 0.000000 0.000000
# 2 -0.002013 0.008786 -0.004030 0.000000 0.000000 0.000000
# 3 -0.004030 -0.004030 0.018314 0.000000 0.000000 0.000000
# 4 0.000000 0.000000 0.000000 0.026186 0.000000 0.000000
# 5 0.000000 0.000000 0.000000 0.000000 0.026186 0.000000
# 6 0.000000 0.000000 0.000000 0.000000 0.000000 0.014506
#
#
# Mechanical properties :
#
#
# Convention : Reuss Voigt Hill
#
# Bulk Modulus (GPa) = 63.53374 72.23467 67.88421
# Shear Modulus (GPa) = 39.01502 44.05385 41.53444
#
# Velocity S-wave (km/s) = 3.85305 4.09431 3.97551
# Velocity P-wave (km/s) = 6.63103 7.05960 6.84867
#
# Compressibility (1/GPa) = 0.01573967
#
# Stress axis : x y z
#
# Youngs Moduli (GPa) = 113.82184 113.82184 54.60212
#
# Poissons Ratio (x) = 0.22912 0.22005
# Poissons Ratio (y) = 0.22912 0.22005
# Poissons Ratio (z) = 0.45870 0.45870
#
# Static dielectric constant tensor:
#      x y z
#    x 5.420490 0.000000 0.000000 
#    y 0.000000 5.420490 0.000000 
#    z 0.000000 0.000000 4.180110 
# 
# 
# High freq. dielectric constant tensor:
#      x y z
#    x 2.073450 0.000000 0.000000 
#    y 0.000000 2.073450 0.000000 
#    z 0.000000 0.000000 2.020390 
# 
# From -- ./inp_files/1925.got.cif
#   From: 2010.03.12/outbox.cif.g09.slc.cpg/sg114_1_cif.got.tgz:1925.got - 2010.04.14 02:08:34.
