data_PCOD8308927
_publ_section_title
;
Structure prediction by ZEFSAII (Michael W. Deem and Ramdas Pophale) SiO2 
 PCOD8308927
Probable space group: P -4 21 C
;
_chemical_formula_sum "Si O2"
_cell_formula_units_Z 40
_cell_length_a 8.086222
_cell_length_b 8.086222
_cell_length_c 23.273629
_cell_angle_alpha 90.000000
_cell_angle_beta 90.000000
_cell_angle_gamma 90.000000
_cell_volume 1521.792459
_symmetry_space_group_name_H-M "P -4 21 C"
_symmetry_group_IT_number 114
_symmetry_cell_setting 'tetragonal'
loop_
_space_group_symop_operation_xyz
x,y,z
y,-x,-z
-x,-y,z
-y,x,-z
1/2+x,1/2-y,1/2-z
1/2-x,1/2+y,1/2-z
1/2-y,1/2-x,1/2+z
1/2+y,1/2+x,1/2+z
loop_
_atom_site_type_symbol
_atom_site_label
_atom_site_fract_x
_atom_site_fract_y
_atom_site_fract_z
Si Si1 0.285565 0.159499 0.131189
Si Si2 0.364924 0.720136 0.479322
Si Si3 0.306007 0.028719 0.738112
Si Si4 0.731532 0.715238 0.337105
Si Si5 0.322213 0.421780 0.933881
O O1 0.314729 0.236422 0.194906
O O2 0.454371 0.191091 0.095518
O O3 0.250591 0.966635 0.138084
O O4 0.137607 0.233306 0.090973
O O5 0.549170 0.725750 0.502858
O O6 0.251867 0.868195 0.504296
O O7 0.235374 0.058005 0.802674
O O8 0.500000 0.000000 0.741179
O O9 0.225942 0.865911 0.710679
O O10 0.759316 0.835450 0.391991
O O11 0.500000 0.500000 0.943098
#
# Coordination Sequence:
#
# PCOD8308927 Si02
#       5
#     8   8   8   8   8
#     4  10  23  46  70 105 151 191 240 315 378 432
#     4  11  25  45  73 109 141 191 250 307 377 439
#     4   9  21  40  70 103 141 196 244 304 377 444
#     4  10  21  45  72 103 153 195 243 315 374 441
#     4  11  25  44  72 109 145 196 245 300 372 451
#
# _framework density 26.284790000000001
#
# number of rings (size 3 to 8) (size 9 to 14) (size 15 to 20)
#    0.000    1.800    2.000    1.800    2.800    8.000 
#    0.000    0.000    0.000    0.000    0.000    0.000 
#    0.000    0.000    0.000    0.000    0.000    0.000 
#
# Total GULP energy -495620.679136 kJ/mol
# GULP energy per Si atom -12390.516978 kJ/mol
# Density = 2.622496 g / cm^3
# Si number density = 26.284790 Si / 1000 Ang^3
#
#
#
# Elastic Constant Matrix: (Units=GPa)
#
#
# Indices 1 2 3 4 5 6 
#
# 1 43.0168 7.8610 13.1683 0.0000 0.0000 0.0000
# 2 7.8610 43.0168 13.1683 0.0000 0.0000 0.0000
# 3 13.1683 13.1683 150.9118 0.0000 0.0000 0.0000
# 4 0.0000 0.0000 0.0000 45.3539 0.0000 0.0000
# 5 0.0000 0.0000 0.0000 0.0000 45.3539 0.0000
# 6 0.0000 0.0000 0.0000 0.0000 0.0000 21.6726
#
#
#
# Elastic Compliance Matrix: (Units=1/GPa)
#
#
# Indices 1 2 3 4 5 6 
#
# 1 0.024515 -0.003930 -0.001796 0.000000 0.000000 0.000000
# 2 -0.003930 0.024515 -0.001796 0.000000 0.000000 0.000000
# 3 -0.001796 -0.001796 0.006940 0.000000 0.000000 0.000000
# 4 0.000000 0.000000 0.000000 0.022049 0.000000 0.000000
# 5 0.000000 0.000000 0.000000 0.000000 0.022049 0.000000
# 6 0.000000 0.000000 0.000000 0.000000 0.000000 0.046141
#
#
# Mechanical properties :
#
#
# Convention : Reuss Voigt Hill
#
# Bulk Modulus (GPa) = 24.43522 33.92674 29.18098
# Shear Modulus (GPa) = 28.58865 35.99259 32.29062
#
# Velocity S-wave (km/s) = 3.30153 3.70446 3.50879
# Velocity P-wave (km/s) = 4.88365 5.58863 5.24799
#
# Compressibility (1/GPa) = 0.04092454
#
# Stress axis : x y z
#
# Youngs Moduli (GPa) = 40.79179 40.79179 144.09536
#
# Poissons Ratio (x) = 0.16031 0.25882
# Poissons Ratio (y) = 0.16031 0.25882
# Poissons Ratio (z) = 0.07327 0.07327
#
# Static dielectric constant tensor:
#      x y z
#    x 4.541370 0.000000 0.000000 
#    y 0.000000 4.541370 0.000000 
#    z 0.000000 0.000000 5.588720 
# 
# 
# High freq. dielectric constant tensor:
#      x y z
#    x 2.030850 0.000000 0.000000 
#    y 0.000000 2.030850 0.000000 
#    z 0.000000 0.000000 2.084280 
# 
# From -- ./inp_files/3364.got.cif
#   From: 2010.03.12/outbox.cif.g09.slc.cpg/sg114_2_cif.got.tgz:3364.got - 2010.04.14 02:08:34.
