data_PCOD8308478
_publ_section_title
;
Structure prediction by ZEFSAII (Michael W. Deem and Ramdas Pophale) SiO2 
 PCOD8308478
Probable space group: P -4 2 C
;
_chemical_formula_sum "Si O2"
_cell_formula_units_Z 26
_cell_length_a 7.839449
_cell_length_b 7.839449
_cell_length_c 16.377559
_cell_angle_alpha 90.000000
_cell_angle_beta 90.000000
_cell_angle_gamma 90.000000
_cell_volume 1006.514999
_symmetry_space_group_name_H-M "P -4 2 C"
_symmetry_group_IT_number 112
_symmetry_cell_setting 'tetragonal'
loop_
_space_group_symop_operation_xyz
x,y,z
y,-x,-z
-x,-y,z
-y,x,-z
x,-y,1/2-z
-x,y,1/2-z
-y,-x,1/2+z
y,x,1/2+z
loop_
_atom_site_type_symbol
_atom_site_label
_atom_site_fract_x
_atom_site_fract_y
_atom_site_fract_z
Si Si1 0.258088 0.072488 0.121502
Si Si2 0.059772 0.267391 0.341696
Si Si3 0.431465 0.768347 0.519030
Si Si4 0.500000 0.000000 0.250000
O O1 0.388322 0.127481 0.193276
O O2 0.108414 0.209082 0.110296
O O3 0.192122 0.888603 0.151516
O O4 0.362767 0.074903 0.036770
O O5 0.153173 0.426544 0.388110
O O6 0.000000 0.314194 0.250000
O O7 0.615187 0.704452 0.491607
#
# Coordination Sequence:
#
# PCOD8308478 Si02
#       4
#     8   8   8   2
#     4  11  22  40  71 104 143 187 250 313 379 459
#     4  11  22  44  70 109 143 186 253 319 376 463
#     4  11  26  46  70 104 150 204 255 313 395 476
#     4  12  20  38  72 106 138 190 236 310 384 434
#
# _framework density 25.831704999999999
#
# number of rings (size 3 to 8) (size 9 to 14) (size 15 to 20)
#    0.000    0.923    3.077    4.615    0.000    6.154 
#    0.000    4.615    0.000    0.000    0.000    0.000 
#    0.000    0.000    0.000    0.000    0.000    0.000 
#
# Total GULP energy -322139.137071 kJ/mol
# GULP energy per Si atom -12389.966810 kJ/mol
# Density = 2.577291 g / cm^3
# Si number density = 25.831705 Si / 1000 Ang^3
#
#
#
# Elastic Constant Matrix: (Units=GPa)
#
#
# Indices 1 2 3 4 5 6 
#
# 1 107.9356 18.5939 44.2804 0.0000 0.0000 0.0000
# 2 18.5939 107.9356 44.2804 0.0000 0.0000 0.0000
# 3 44.2804 44.2804 194.6383 0.0000 0.0000 0.0000
# 4 0.0000 0.0000 0.0000 39.5138 0.0000 0.0000
# 5 0.0000 0.0000 0.0000 0.0000 39.5138 0.0000
# 6 0.0000 0.0000 0.0000 0.0000 0.0000 40.0382
#
#
#
# Elastic Compliance Matrix: (Units=1/GPa)
#
#
# Indices 1 2 3 4 5 6 
#
# 1 0.010297 -0.000896 -0.002139 0.000000 0.000000 0.000000
# 2 -0.000896 0.010297 -0.002139 0.000000 0.000000 0.000000
# 3 -0.002139 -0.002139 0.006111 0.000000 0.000000 0.000000
# 4 0.000000 0.000000 0.000000 0.025308 0.000000 0.000000
# 5 0.000000 0.000000 0.000000 0.000000 0.025308 0.000000
# 6 0.000000 0.000000 0.000000 0.000000 0.000000 0.024976
#
#
# Mechanical properties :
#
#
# Convention : Reuss Voigt Hill
#
# Bulk Modulus (GPa) = 61.13648 69.42432 65.28040
# Shear Modulus (GPa) = 42.33898 44.03683 43.18790
#
# Velocity S-wave (km/s) = 4.05289 4.13335 4.09332
# Velocity P-wave (km/s) = 6.75424 7.05078 6.90410
#
# Compressibility (1/GPa) = 0.01635685
#
# Stress axis : x y z
#
# Youngs Moduli (GPa) = 97.12001 97.12001 163.64542
#
# Poissons Ratio (x) = 0.08706 0.34996
# Poissons Ratio (y) = 0.08706 0.34996
# Poissons Ratio (z) = 0.20769 0.20769
#
# Static dielectric constant tensor:
#      x y z
#    x 4.737640 0.000000 0.000000 
#    y 0.000000 4.737640 0.000000 
#    z 0.000000 0.000000 4.663020 
# 
# 
# High freq. dielectric constant tensor:
#      x y z
#    x 2.037670 0.000000 0.000000 
#    y 0.000000 2.037670 0.000000 
#    z 0.000000 0.000000 2.033980 
# 
# From -- ./inp_files/3806.got.cif
#   From: 2010.03.12/outbox.cif.g09.slc.cpg/sg112_2_cif.got.tgz:3806.got - 2010.04.14 02:02:48.
