data_PCOD8308208
_publ_section_title
;
Structure prediction by ZEFSAII (Michael W. Deem and Ramdas Pophale) SiO2 
 PCOD8308208
Probable space group: P -4 2 M 
;
_chemical_formula_sum "Si O2"
_cell_formula_units_Z 48
_cell_length_a 12.775295
_cell_length_b 12.775295
_cell_length_c 17.047342
_cell_angle_alpha 90.000000
_cell_angle_beta 90.000000
_cell_angle_gamma 90.000000
_cell_volume 2782.265361
_symmetry_space_group_name_H-M "P -4 2 M "
_symmetry_group_IT_number 111
_symmetry_cell_setting 'tetragonal'
loop_
_space_group_symop_operation_xyz
x,y,z
y,-x,-z
-x,-y,z
-y,x,-z
x,-y,-z
-x,y,-z
-y,-x,z
y,x,z
loop_
_atom_site_type_symbol
_atom_site_label
_atom_site_fract_x
_atom_site_fract_y
_atom_site_fract_z
Si Si1 0.734783 0.433819 0.072796
Si Si2 0.621974 0.794033 0.172091
Si Si3 0.420736 0.747061 0.431598
Si Si4 0.880947 0.288309 0.982943
Si Si5 0.890407 0.722269 0.467600
Si Si6 0.108306 0.440778 0.331006
O O1 0.649167 0.350834 0.100774
O O2 0.760280 0.505497 0.147036
O O3 0.688186 0.500000 0.000000
O O4 0.840014 0.376676 0.042839
O O5 0.690151 0.690151 0.185095
O O6 0.672758 0.867634 0.106073
O O7 0.616028 0.859394 0.251332
O O8 0.500000 0.710900 0.500000
O O9 0.354709 0.645292 0.403639
O O10 0.343196 0.835226 0.463993
O O11 0.482598 0.797573 0.358533
O O12 0.818365 0.181635 0.996619
O O13 0.000000 0.263482 0.000000
O O14 0.820215 0.820215 0.441071
O O15 0.911967 0.648544 0.394198
O O16 0.000000 0.765594 0.500000
O O17 0.000000 0.500000 0.317241
#
# Coordination Sequence:
#
# PCOD8308208 Si02
#       6
#     8   8   8   8   8   8
#     4   9  18  32  52  77 105 140 180 219 260 310
#     4  10  22  35  50  79 110 139 175 219 266 317
#     4   9  19  34  54  79 107 138 178 220 255 305
#     4   9  19  35  55  78 105 134 179 228 267 314
#     4  10  19  35  57  80 105 135 177 225 262 309
#     4  11  21  34  56  78 108 146 179 212 267 324
#
# _framework density 17.252127999999999
#
# number of rings (size 3 to 8) (size 9 to 14) (size 15 to 20)
#    0.000    2.333    1.667    2.000    2.333    5.333 
#    0.000    0.000    0.000    1.000    0.000    2.333 
#    0.000    0.000    0.000    0.000    0.000    0.000 
#
# Total GULP energy -595261.175490 kJ/mol
# GULP energy per Si atom -12401.274489 kJ/mol
# Density = 1.721286 g / cm^3
# Si number density = 17.252128 Si / 1000 Ang^3
#
#
#
# Elastic Constant Matrix: (Units=GPa)
#
#
# Indices 1 2 3 4 5 6 
#
# 1 101.8917 55.3837 37.5436 0.0000 0.0000 0.0000
# 2 55.3837 101.8924 37.5444 0.0000 0.0000 0.0000
# 3 37.5436 37.5444 74.7497 0.0000 0.0000 0.0000
# 4 0.0000 0.0000 0.0000 16.7804 0.0000 0.0000
# 5 0.0000 0.0000 0.0000 0.0000 16.7804 0.0000
# 6 0.0000 0.0000 0.0000 0.0000 0.0000 16.0040
#
#
#
# Elastic Compliance Matrix: (Units=1/GPa)
#
#
# Indices 1 2 3 4 5 6 
#
# 1 0.014933 -0.006569 -0.004201 0.000000 0.000000 0.000000
# 2 -0.006569 0.014933 -0.004201 0.000000 0.000000 0.000000
# 3 -0.004201 -0.004201 0.017598 0.000000 0.000000 0.000000
# 4 0.000000 0.000000 0.000000 0.059593 0.000000 0.000000
# 5 0.000000 0.000000 0.000000 0.000000 0.059593 0.000000
# 6 0.000000 0.000000 0.000000 0.000000 0.000000 0.062484
#
#
# Mechanical properties :
#
#
# Convention : Reuss Voigt Hill
#
# Bulk Modulus (GPa) = 57.07063 59.94191 58.50627
# Shear Modulus (GPa) = 18.87389 19.78376 19.32883
#
# Velocity S-wave (km/s) = 3.31116 3.39003 3.35083
# Velocity P-wave (km/s) = 6.91162 7.08118 6.99692
#
# Compressibility (1/GPa) = 0.01752215
#
# Stress axis : x y z
#
# Youngs Moduli (GPa) = 66.96718 66.96715 56.82511
#
# Poissons Ratio (x) = 0.43989 0.23871
# Poissons Ratio (y) = 0.43989 0.23872
# Poissons Ratio (z) = 0.28131 0.28133
#
# Static dielectric constant tensor:
#      x y z
#    x 3.189490 0.000000 0.000000 
#    y 0.000000 3.189490 0.000000 
#    z 0.000000 0.000000 3.057370 
# 
# 
# High freq. dielectric constant tensor:
#      x y z
#    x 1.665760 0.000000 0.000000 
#    y 0.000000 1.665760 0.000000 
#    z 0.000000 0.000000 1.652110 
# 
# From -- ./inp_files/3626.got.cif
#   From: 2010.03.12/outbox.cif.g09.slc.cpg/sg111_2_cif.got.tgz:3626.got - 2010.04.14 01:59:48.
