data_PCOD8308808
_publ_section_title
;
Structure prediction by ZEFSAII (Michael W. Deem and Ramdas Pophale) SiO2 
 PCOD8308808
Probable space group: P -4 21 C
;
_chemical_formula_sum "Si O2"
_cell_formula_units_Z 60
_cell_length_a 18.072841
_cell_length_b 18.072841
_cell_length_c 9.189665
_cell_angle_alpha 90.000000
_cell_angle_beta 90.000000
_cell_angle_gamma 90.000000
_cell_volume 3001.598057
_symmetry_space_group_name_H-M "P -4 21 C"
_symmetry_group_IT_number 114
_symmetry_cell_setting 'tetragonal'
loop_
_space_group_symop_operation_xyz
x,y,z
y,-x,-z
-x,-y,z
-y,x,-z
1/2+x,1/2-y,1/2-z
1/2-x,1/2+y,1/2-z
1/2-y,1/2-x,1/2+z
1/2+y,1/2+x,1/2+z
loop_
_atom_site_type_symbol
_atom_site_label
_atom_site_fract_x
_atom_site_fract_y
_atom_site_fract_z
Si Si1 0.115962 0.991424 0.041019
Si Si2 0.805586 0.699286 0.963818
Si Si3 0.588405 0.186596 0.800108
Si Si4 0.102670 0.471127 0.717150
Si Si5 0.768469 0.077011 0.847788
Si Si6 0.155232 0.864689 0.569583
Si Si7 0.496158 0.675865 0.848836
Si Si8 0.500000 0.000000 0.537870
O O1 0.121965 0.001973 0.212683
O O2 0.194341 0.980053 0.960283
O O3 0.065418 0.919643 0.021110
O O4 0.819684 0.617704 0.032989
O O5 0.843625 0.758121 0.071897
O O6 0.842456 0.708685 0.805434
O O7 0.715541 0.701761 0.955509
O O8 0.559494 0.106651 0.755969
O O9 0.519448 0.241661 0.789595
O O10 0.191373 0.458931 0.708584
O O11 0.073076 0.502805 0.564371
O O12 0.073608 0.513428 0.861030
O O13 0.824055 0.091174 0.715714
O O14 0.151545 0.926062 0.443968
O O15 0.074743 0.826648 0.569600
#
# Coordination Sequence:
#
# PCOD8308808 Si02
#       8
#     8   8   8   8   8   8   8   4
#     4  11  24  41  64  96 128 169 216 266 319 383
#     4  10  18  35  64  95 118 158 221 260 305 377
#     4  10  19  35  64  93 116 168 218 261 305 391
#     4  10  20  37  62  92 122 165 218 259 317 381
#     4  11  21  39  70  91 121 170 224 261 313 394
#     4  11  24  41  63 100 129 171 210 275 322 388
#     4  11  25  39  64  97 134 165 218 266 330 375
#     4  10  22  34  58  94 128 154 202 276 310 370
#
# _framework density 19.989350999999999
#
# number of rings (size 3 to 8) (size 9 to 14) (size 15 to 20)
#    0.000    1.467    5.333    1.600    3.733    0.267 
#    0.000    0.000    8.800    0.000    0.000    0.000 
#    0.000    0.000    0.000    0.000    0.000    0.000 
#
# Total GULP energy -743385.085126 kJ/mol
# GULP energy per Si atom -12389.751419 kJ/mol
# Density = 1.994385 g / cm^3
# Si number density = 19.989351 Si / 1000 Ang^3
#
#
#
# Elastic Constant Matrix: (Units=GPa)
#
#
# Indices 1 2 3 4 5 6 
#
# 1 73.7160 37.3317 7.8632 0.0000 0.0000 0.0000
# 2 37.3317 73.7160 7.8632 0.0000 0.0000 0.0000
# 3 7.8632 7.8632 68.2961 0.0000 0.0000 0.0000
# 4 0.0000 0.0000 0.0000 25.0603 0.0000 0.0000
# 5 0.0000 0.0000 0.0000 0.0000 25.0603 0.0000
# 6 0.0000 0.0000 0.0000 0.0000 0.0000 33.5778
#
#
#
# Elastic Compliance Matrix: (Units=1/GPa)
#
#
# Indices 1 2 3 4 5 6 
#
# 1 0.018319 -0.009165 -0.001054 0.000000 0.000000 0.000000
# 2 -0.009165 0.018319 -0.001054 0.000000 0.000000 0.000000
# 3 -0.001054 -0.001054 0.014885 0.000000 0.000000 0.000000
# 4 0.000000 0.000000 0.000000 0.039904 0.000000 0.000000
# 5 0.000000 0.000000 0.000000 0.000000 0.039904 0.000000
# 6 0.000000 0.000000 0.000000 0.000000 0.000000 0.029782
#
#
# Mechanical properties :
#
#
# Convention : Reuss Voigt Hill
#
# Bulk Modulus (GPa) = 34.50929 35.76046 35.13487
# Shear Modulus (GPa) = 25.86415 27.58435 26.72425
#
# Velocity S-wave (km/s) = 3.60098 3.71880 3.66036
# Velocity P-wave (km/s) = 5.88139 6.03058 5.95645
#
# Compressibility (1/GPa) = 0.02897771
#
# Stress axis : x y z
#
# Youngs Moduli (GPa) = 54.58701 54.58701 67.18256
#
# Poissons Ratio (x) = 0.50029 0.07081
# Poissons Ratio (y) = 0.50029 0.07081
# Poissons Ratio (z) = 0.05753 0.05753
#
# Static dielectric constant tensor:
#      x y z
#    x 3.551900 0.000000 0.000000 
#    y 0.000000 3.551900 0.000000 
#    z 0.000000 0.000000 3.880850 
# 
# 
# High freq. dielectric constant tensor:
#      x y z
#    x 1.757720 0.000000 0.000000 
#    y 0.000000 1.757720 0.000000 
#    z 0.000000 0.000000 1.805880 
# 
# From -- ./inp_files/1044.got.cif
#   From: 2010.03.12/outbox.cif.g09.slc.cpg/sg114_1_cif.got.tgz:1044.got - 2010.04.14 02:08:34.
