data_PCOD8308079
_publ_section_title
;
Structure prediction by ZEFSAII (Michael W. Deem and Ramdas Pophale) SiO2 
 PCOD8308079
Probable space group: I 41 C D
;
_chemical_formula_sum "Si O2"
_cell_formula_units_Z 88
_cell_length_a 12.405833
_cell_length_b 12.405833
_cell_length_c 26.606310
_cell_angle_alpha 90.000000
_cell_angle_beta 90.000000
_cell_angle_gamma 90.000000
_cell_volume 4094.835957
_symmetry_space_group_name_H-M "I 41 C D"
_symmetry_group_IT_number 110
_symmetry_cell_setting 'tetragonal'
loop_
_space_group_symop_operation_xyz
x,y,z
-y,1/2+x,1/4+z
-x,-y,z
y,1/2-x,1/4+z
-x,y,1/2+z
x,-y,1/2+z
1/2-y,-x,1/4+z
1/2+y,x,1/4+z
1/2+x,1/2+y,1/2+z
1/2-y,x,3/4+z
1/2-x,1/2-y,1/2+z
1/2+y,-x,3/4+z
1/2-x,1/2+y,z
1/2+x,1/2-y,z
-y,1/2-x,3/4+z
y,1/2+x,3/4+z
loop_
_atom_site_type_symbol
_atom_site_label
_atom_site_fract_x
_atom_site_fract_y
_atom_site_fract_z
Si Si1 0.033473 0.120150 0.808730
Si Si2 0.177863 0.905502 0.572694
Si Si3 0.033473 0.379850 0.218479
Si Si4 0.500000 0.000000 0.388604
Si Si5 0.677863 0.905502 0.454515
Si Si6 0.306607 0.693393 0.888604
O O1 0.103436 0.112534 0.757348
O O2 0.093769 0.185175 0.851769
O O3 0.930924 0.199536 0.804735
O O4 0.000000 0.000000 0.825453
O O5 0.112534 0.896564 0.519861
O O6 0.185346 0.797828 0.604352
O O7 0.109272 0.991710 0.605435
O O8 0.093769 0.314825 0.175440
O O9 0.000000 0.500000 0.201756
O O10 0.930924 0.300465 0.222474
O O11 0.609272 0.991710 0.421774
O O12 0.685346 0.797828 0.422857
#
# Coordination Sequence:
#
# PCOD8308079 Si02
#       6
#    16  16  16   8  16  16
#     4  11  25  45  69 101 140 183 237 290 356 431
#     4  11  25  44  70 102 138 183 233 293 355 425
#     4  11  25  45  69 101 140 183 237 290 356 431
#     4  12  20  48  68  98 140 180 232 296 352 418
#     4  11  25  44  70 102 138 183 233 293 355 425
#     4  12  25  42  67 104 134 186 230 294 357 418
#
# _framework density 21.490483999999999
#
# number of rings (size 3 to 8) (size 9 to 14) (size 15 to 20)
#    0.000    0.727    5.455    1.636    5.091    0.000 
#    0.000    3.636    0.000    0.000    0.000    0.000 
#    0.000    0.000    0.000    0.000    0.000    0.000 
#
# Total GULP energy -545108.470526 kJ/mol
# GULP energy per Si atom -12388.828876 kJ/mol
# Density = 2.144157 g / cm^3
# Si number density = 21.490484 Si / 1000 Ang^3
#
#
#
# Elastic Constant Matrix: (Units=GPa)
#
#
# Indices 1 2 3 4 5 6 
#
# 1 79.6598 77.3620 40.3065 0.0000 0.0000 0.0000
# 2 77.3620 79.6598 40.3065 0.0000 0.0000 0.0000
# 3 40.3065 40.3065 136.5400 0.0000 0.0000 0.0000
# 4 0.0000 0.0000 0.0000 40.2957 0.0000 0.0000
# 5 0.0000 0.0000 0.0000 0.0000 40.2957 0.0000
# 6 0.0000 0.0000 0.0000 0.0000 0.0000 21.4315
#
#
#
# Elastic Compliance Matrix: (Units=1/GPa)
#
#
# Indices 1 2 3 4 5 6 
#
# 1 0.221349 -0.213843 -0.002216 0.000000 0.000000 0.000000
# 2 -0.213843 0.221349 -0.002216 0.000000 0.000000 0.000000
# 3 -0.002216 -0.002216 0.008632 0.000000 0.000000 0.000000
# 4 0.000000 0.000000 0.000000 0.024817 0.000000 0.000000
# 5 0.000000 0.000000 0.000000 0.000000 0.024817 0.000000
# 6 0.000000 0.000000 0.000000 0.000000 0.000000 0.046660
#
#
# Mechanical properties :
#
#
# Convention : Reuss Voigt Hill
#
# Bulk Modulus (GPa) = 67.65401 67.97883 67.81642
# Shear Modulus (GPa) = 5.05510 29.59689 17.32600
#
# Velocity S-wave (km/s) = 1.53537 3.71510 2.84248
# Velocity P-wave (km/s) = 5.89003 7.07837 6.51137
#
# Compressibility (1/GPa) = 0.01478109
#
# Stress axis : x y z
#
# Youngs Moduli (GPa) = 4.51775 4.51775 115.84714
#
# Poissons Ratio (x) = 0.96609 0.25669
# Poissons Ratio (y) = 0.96609 0.25669
# Poissons Ratio (z) = 0.01001 0.01001
#
# Static dielectric constant tensor:
#      x y z
#    x 3.870350 0.000000 0.000000 
#    y 0.000000 3.870350 0.000000 
#    z 0.000000 0.000000 4.195150 
# 
# 
# High freq. dielectric constant tensor:
#      x y z
#    x 1.834880 0.000000 0.000000 
#    y 0.000000 1.834880 0.000000 
#    z 0.000000 0.000000 1.870690 
# 
# From -- ./inp_files/3162.got.cif
#   From: 2010.03.12/outbox.cif.g09.slc.cpg/sg110_2_cif.got.tgz:3162.got - 2010.04.14 01:58:01.
