data_PCOD8308857
_publ_section_title
;
Structure prediction by ZEFSAII (Michael W. Deem and Ramdas Pophale) SiO2 
 PCOD8308857
Probable space group: P -4 21 C
;
_chemical_formula_sum "Si O2"
_cell_formula_units_Z 34
_cell_length_a 8.175605
_cell_length_b 8.175605
_cell_length_c 24.995064
_cell_angle_alpha 90.000000
_cell_angle_beta 90.000000
_cell_angle_gamma 90.000000
_cell_volume 1670.683003
_symmetry_space_group_name_H-M "P -4 21 C"
_symmetry_group_IT_number 114
_symmetry_cell_setting 'tetragonal'
loop_
_space_group_symop_operation_xyz
x,y,z
y,-x,-z
-x,-y,z
-y,x,-z
1/2+x,1/2-y,1/2-z
1/2-x,1/2+y,1/2-z
1/2-y,1/2-x,1/2+z
1/2+y,1/2+x,1/2+z
loop_
_atom_site_type_symbol
_atom_site_label
_atom_site_fract_x
_atom_site_fract_y
_atom_site_fract_z
Si Si1 0.869511 0.686207 0.679474
Si Si2 0.500000 0.500000 0.000000
Si Si3 0.845354 0.904906 0.864615
Si Si4 0.312739 0.052449 0.425927
Si Si5 0.961537 0.326329 0.788461
O O1 0.791231 0.511511 0.665701
O O2 0.729252 0.804271 0.700734
O O3 0.952474 0.751336 0.625609
O O4 0.007253 0.675681 0.724988
O O5 0.482217 0.327847 0.968987
O O6 0.747486 0.811365 0.911762
O O7 0.921079 0.798352 0.817843
O O8 0.000000 0.000000 0.891271
O O9 0.500000 0.000000 0.443737
O O10 0.000000 0.500000 0.814020
#
# Coordination Sequence:
#
# PCOD8308857 Si02
#       5
#     8   2   8   8   8
#     4  10  20  37  58  86 136 171 208 267 323 395
#     4  12  28  48  76 104 124 180 240 300 344 394
#     4   9  20  39  62  89 131 174 209 263 337 402
#     4  10  23  48  66  92 134 168 218 290 338 394
#     4  11  20  31  57  98 125 173 215 251 327 410
#
# _framework density 20.350956
#
# number of rings (size 3 to 8) (size 9 to 14) (size 15 to 20)
#    0.000    1.882    0.000    4.941    3.294    0.000 
#   19.059    0.000    0.000    0.000    0.000    0.000 
#    0.000    0.000    0.000    0.000    0.000    0.000 
#
# Total GULP energy -421256.743916 kJ/mol
# GULP energy per Si atom -12389.904233 kJ/mol
# Density = 2.030464 g / cm^3
# Si number density = 20.350956 Si / 1000 Ang^3
#
#
#
# Elastic Constant Matrix: (Units=GPa)
#
#
# Indices 1 2 3 4 5 6 
#
# 1 107.0886 45.3435 65.0889 0.0000 0.0000 0.0000
# 2 45.3435 107.0886 65.0889 0.0000 0.0000 0.0000
# 3 65.0889 65.0889 101.6472 0.0000 0.0000 0.0000
# 4 0.0000 0.0000 0.0000 11.8486 0.0000 0.0000
# 5 0.0000 0.0000 0.0000 0.0000 11.8486 0.0000
# 6 0.0000 0.0000 0.0000 0.0000 0.0000 32.9546
#
#
#
# Elastic Compliance Matrix: (Units=1/GPa)
#
#
# Indices 1 2 3 4 5 6 
#
# 1 0.015336 -0.000859 -0.009270 0.000000 0.000000 0.000000
# 2 -0.000859 0.015336 -0.009270 0.000000 0.000000 0.000000
# 3 -0.009270 -0.009270 0.021710 0.000000 0.000000 0.000000
# 4 0.000000 0.000000 0.000000 0.084398 0.000000 0.000000
# 5 0.000000 0.000000 0.000000 0.000000 0.084398 0.000000
# 6 0.000000 0.000000 0.000000 0.000000 0.000000 0.030345
#
#
# Mechanical properties :
#
#
# Convention : Reuss Voigt Hill
#
# Bulk Modulus (GPa) = 73.61957 74.09631 73.85794
# Shear Modulus (GPa) = 16.95768 20.68390 18.82079
#
# Velocity S-wave (km/s) = 2.88976 3.19150 3.04437
# Velocity P-wave (km/s) = 6.88388 7.07596 6.98058
#
# Compressibility (1/GPa) = 0.01358335
#
# Stress axis : x y z
#
# Youngs Moduli (GPa) = 65.20420 65.20420 46.06100
#
# Poissons Ratio (x) = 0.05602 0.42700
# Poissons Ratio (y) = 0.05602 0.42700
# Poissons Ratio (z) = 0.60447 0.60447
#
# Static dielectric constant tensor:
#      x y z
#    x 5.034030 0.000000 0.000000 
#    y 0.000000 5.034030 0.000000 
#    z 0.000000 0.000000 3.458420 
# 
# 
# High freq. dielectric constant tensor:
#      x y z
#    x 1.808140 0.000000 0.000000 
#    y 0.000000 1.808140 0.000000 
#    z 0.000000 0.000000 1.765770 
# 
# From -- ./inp_files/2922.got.cif
#   From: 2010.03.12/outbox.cif.g09.slc.cpg/sg114_2_cif.got.tgz:2922.got - 2010.04.14 02:08:34.
