data_PCOD8308269
_publ_section_title
;
Structure prediction by ZEFSAII (Michael W. Deem and Ramdas Pophale) SiO2 
 PCOD8308269
Probable space group: P -4 2 M 
;
_chemical_formula_sum "Si O2"
_cell_formula_units_Z 33
_cell_length_a 12.150538
_cell_length_b 12.150538
_cell_length_c 11.424749
_cell_angle_alpha 90.000000
_cell_angle_beta 90.000000
_cell_angle_gamma 90.000000
_cell_volume 1686.699373
_symmetry_space_group_name_H-M "P -4 2 M "
_symmetry_group_IT_number 111
_symmetry_cell_setting 'tetragonal'
loop_
_space_group_symop_operation_xyz
x,y,z
y,-x,-z
-x,-y,z
-y,x,-z
x,-y,-z
-x,y,-z
-y,-x,z
y,x,z
loop_
_atom_site_type_symbol
_atom_site_label
_atom_site_fract_x
_atom_site_fract_y
_atom_site_fract_z
Si Si1 0.087043 0.912957 0.236285
Si Si2 0.000000 0.000000 0.000000
Si Si3 0.975771 0.688772 0.632546
Si Si4 0.840788 0.478001 0.680750
Si Si5 0.674897 0.499232 0.136232
Si Si6 0.500000 0.330717 0.500000
O O1 0.209655 0.942495 0.283052
O O2 0.000000 0.000000 0.292232
O O3 0.075224 0.924777 0.091565
O O4 0.885208 0.592160 0.624994
O O5 0.000000 0.730922 0.500000
O O6 0.079110 0.626102 0.689002
O O7 0.796868 0.501066 0.810409
O O8 0.739186 0.442528 0.601087
O O9 0.610338 0.389663 0.175277
O O10 0.606116 0.606116 0.176074
O O11 0.692703 0.500000 0.000000
O O12 0.405676 0.405676 0.558674
#
# Coordination Sequence:
#
# PCOD8308269 Si02
#       6
#     4   1   8   8   8   4
#     4  10  26  47  72  93 119 170 220 284 346 393
#     4   8  24  60  66  96 128 152 224 298 340 388
#     4  11  24  42  64  94 129 166 218 273 322 399
#     4  11  21  40  58  93 134 172 211 265 332 379
#     4   9  19  37  58  86 125 168 218 260 302 376
#     4  11  22  33  56  92 130 175 212 249 310 392
#
# _framework density 19.564836
#
# number of rings (size 3 to 8) (size 9 to 14) (size 15 to 20)
#    0.364    1.333    2.424    2.909    5.091    3.879 
#    4.364    1.212    0.000    0.000    0.000    0.000 
#    0.000    0.000    0.000    0.000    0.000    0.000 
#
# Total GULP energy -408832.927097 kJ/mol
# GULP energy per Si atom -12388.876579 kJ/mol
# Density = 1.952031 g / cm^3
# Si number density = 19.564836 Si / 1000 Ang^3
#
#
#
# Elastic Constant Matrix: (Units=GPa)
#
#
# Indices 1 2 3 4 5 6 
#
# 1 119.0477 47.6633 50.7265 0.0000 0.0000 0.0000
# 2 47.6633 119.0471 50.7266 0.0000 0.0000 0.0000
# 3 50.7265 50.7266 105.4651 0.0000 0.0000 0.0000
# 4 0.0000 0.0000 0.0000 37.0507 0.0000 0.0000
# 5 0.0000 0.0000 0.0000 0.0000 37.0505 0.0000
# 6 0.0000 0.0000 0.0000 0.0000 0.0000 16.8284
#
#
#
# Elastic Compliance Matrix: (Units=1/GPa)
#
#
# Indices 1 2 3 4 5 6 
#
# 1 0.011245 -0.002764 -0.004079 0.000000 0.000000 0.000000
# 2 -0.002764 0.011245 -0.004079 0.000000 0.000000 0.000000
# 3 -0.004079 -0.004079 0.013406 0.000000 0.000000 0.000000
# 4 0.000000 0.000000 0.000000 0.026990 0.000000 0.000000
# 5 0.000000 0.000000 0.000000 0.000000 0.026990 0.000000
# 6 0.000000 0.000000 0.000000 0.000000 0.000000 0.059423
#
#
# Mechanical properties :
#
#
# Convention : Reuss Voigt Hill
#
# Bulk Modulus (GPa) = 71.16959 71.31031 71.23995
# Shear Modulus (GPa) = 28.43711 31.14882 29.79297
#
# Velocity S-wave (km/s) = 3.81659 3.99442 3.90652
# Velocity P-wave (km/s) = 7.47510 7.60271 7.53917
#
# Compressibility (1/GPa) = 0.01405094
#
# Stress axis : x y z
#
# Youngs Moduli (GPa) = 88.93066 88.93007 74.59503
#
# Poissons Ratio (x) = 0.24580 0.30428
# Poissons Ratio (y) = 0.24580 0.30428
# Poissons Ratio (z) = 0.36275 0.36275
#
# Static dielectric constant tensor:
#      x y z
#    x 3.646590 0.000000 0.000000 
#    y 0.000000 3.646600 0.000000 
#    z 0.000000 0.000000 3.553650 
# 
# 
# High freq. dielectric constant tensor:
#      x y z
#    x 1.759130 0.000000 0.000000 
#    y 0.000000 1.759130 0.000000 
#    z 0.000000 0.000000 1.760910 
# 
# From -- ./inp_files/2382.got.cif
#   From: 2010.03.12/outbox.cif.g09.slc.cpg/sg111_2_cif.got.tgz:2382.got - 2010.04.14 01:59:48.
