data_PCOD8308346
_publ_section_title
;
Structure prediction by ZEFSAII (Michael W. Deem and Ramdas Pophale) SiO2 
 PCOD8308346
Probable space group: P -4 2 C
;
_chemical_formula_sum "Si O2"
_cell_formula_units_Z 28
_cell_length_a 12.821387
_cell_length_b 12.821387
_cell_length_c 8.027976
_cell_angle_alpha 90.000000
_cell_angle_beta 90.000000
_cell_angle_gamma 90.000000
_cell_volume 1319.702635
_symmetry_space_group_name_H-M "P -4 2 C"
_symmetry_group_IT_number 112
_symmetry_cell_setting 'tetragonal'
loop_
_space_group_symop_operation_xyz
x,y,z
y,-x,-z
-x,-y,z
-y,x,-z
x,-y,1/2-z
-x,y,1/2-z
-y,-x,1/2+z
y,x,1/2+z
loop_
_atom_site_type_symbol
_atom_site_label
_atom_site_fract_x
_atom_site_fract_y
_atom_site_fract_z
Si Si1 0.000000 0.830684 0.250000
Si Si2 0.310078 0.362002 0.456189
Si Si3 0.841522 0.340021 0.340161
Si Si4 0.500000 0.000000 0.750000
Si Si5 0.500000 0.653757 0.250000
Si Si6 0.000000 0.000000 0.500000
O O1 0.097365 0.767679 0.323222
O O2 0.954404 0.904174 0.394135
O O3 0.335153 0.242808 0.511374
O O4 0.212089 0.366322 0.336091
O O5 0.413012 0.409233 0.359249
O O6 0.279901 0.432364 0.616207
O O7 0.927567 0.429757 0.371576
#
# Coordination Sequence:
#
# PCOD8308346 Si02
#       6
#     4   8   8   2   4   2
#     4  10  20  34  56  80 108 144 182 230 280 334
#     4  10  21  37  56  81 111 144 184 230 276 331
#     4  10  20  36  58  80 110 148 187 227 281 336
#     4  10  20  34  56  82 108 146 184 224 276 336
#     4  10  22  35  54  79 108 140 176 221 268 319
#     4  10  20  34  52  82 112 138 184 234 280 330
#
# _framework density 21.216901
#
# number of rings (size 3 to 8) (size 9 to 14) (size 15 to 20)
#    0.000    2.000    0.000    3.429    0.000    5.143 
#    0.000    0.000    0.000   65.143    0.000    0.000 
#    0.000    0.000    0.000    0.000    0.000    0.000 
#
# Total GULP energy -346916.054949 kJ/mol
# GULP energy per Si atom -12389.859105 kJ/mol
# Density = 2.116861 g / cm^3
# Si number density = 21.216901 Si / 1000 Ang^3
#
#
#
# Elastic Constant Matrix: (Units=GPa)
#
#
# Indices 1 2 3 4 5 6 
#
# 1 113.7237 42.5467 37.8398 0.0000 0.0000 0.0000
# 2 42.5467 113.7237 37.8398 0.0000 0.0000 0.0000
# 3 37.8398 37.8398 100.7358 0.0000 0.0000 0.0000
# 4 0.0000 0.0000 0.0000 20.9287 0.0000 0.0000
# 5 0.0000 0.0000 0.0000 0.0000 20.9287 0.0000
# 6 0.0000 0.0000 0.0000 0.0000 0.0000 27.5581
#
#
#
# Elastic Compliance Matrix: (Units=1/GPa)
#
#
# Indices 1 2 3 4 5 6 
#
# 1 0.010936 -0.003114 -0.002938 0.000000 0.000000 0.000000
# 2 -0.003114 0.010936 -0.002938 0.000000 0.000000 0.000000
# 3 -0.002938 -0.002938 0.012134 0.000000 0.000000 0.000000
# 4 0.000000 0.000000 0.000000 0.047781 0.000000 0.000000
# 5 0.000000 0.000000 0.000000 0.000000 0.047781 0.000000
# 6 0.000000 0.000000 0.000000 0.000000 0.000000 0.036287
#
#
# Mechanical properties :
#
#
# Convention : Reuss Voigt Hill
#
# Bulk Modulus (GPa) = 62.40016 62.73730 62.56873
# Shear Modulus (GPa) = 26.43018 27.88023 27.15520
#
# Velocity S-wave (km/s) = 3.53330 3.62893 3.58143
# Velocity P-wave (km/s) = 6.79117 6.86968 6.83054
#
# Compressibility (1/GPa) = 0.01602560
#
# Stress axis : x y z
#
# Youngs Moduli (GPa) = 91.44270 91.44270 82.41048
#
# Poissons Ratio (x) = 0.28472 0.24214
# Poissons Ratio (y) = 0.28472 0.24214
# Poissons Ratio (z) = 0.26868 0.26868
#
# Static dielectric constant tensor:
#      x y z
#    x 3.831580 0.000000 0.000000 
#    y 0.000000 3.831580 0.000000 
#    z 0.000000 0.000000 3.886540 
# 
# 
# High freq. dielectric constant tensor:
#      x y z
#    x 1.830500 0.000000 0.000000 
#    y 0.000000 1.830500 0.000000 
#    z 0.000000 0.000000 1.825760 
# 
# From -- ./inp_files/1001.got.cif
#   From: 2010.03.12/outbox.cif.g09.slc.cpg/sg112_1_cif.got.tgz:1001.got - 2010.04.14 02:02:48.
