data_PCOD8308203
_publ_section_title
;
Structure prediction by ZEFSAII (Michael W. Deem and Ramdas Pophale) SiO2 
 PCOD8308203
Probable space group: P -4 2 M 
;
_chemical_formula_sum "Si O2"
_cell_formula_units_Z 48
_cell_length_a 12.126865
_cell_length_b 12.126865
_cell_length_c 18.152850
_cell_angle_alpha 90.000000
_cell_angle_beta 90.000000
_cell_angle_gamma 90.000000
_cell_volume 2669.573637
_symmetry_space_group_name_H-M "P -4 2 M "
_symmetry_group_IT_number 111
_symmetry_cell_setting 'tetragonal'
loop_
_space_group_symop_operation_xyz
x,y,z
y,-x,-z
-x,-y,z
-y,x,-z
x,-y,-z
-x,y,-z
-y,-x,z
y,x,z
loop_
_atom_site_type_symbol
_atom_site_label
_atom_site_fract_x
_atom_site_fract_y
_atom_site_fract_z
Si Si1 0.779940 0.397211 0.039843
Si Si2 0.321849 0.856860 0.325519
Si Si3 0.935668 0.391621 0.170160
Si Si4 0.239735 0.056419 0.419674
Si Si5 0.747372 0.923047 0.062406
Si Si6 0.525691 0.872546 0.422285
O O1 0.691153 0.308848 0.064347
O O2 0.843148 0.432990 0.113381
O O3 0.720771 0.500000 0.000000
O O4 0.864609 0.353330 0.979001
O O5 0.253826 0.746175 0.337242
O O6 0.333790 0.881021 0.239648
O O7 0.443310 0.829834 0.358903
O O8 0.253036 0.957635 0.361403
O O9 0.000000 0.500000 0.197191
O O10 0.012166 0.299109 0.132488
O O11 0.126854 0.126854 0.408278
O O12 0.343372 0.139916 0.406523
O O13 0.241470 0.000000 0.500000
O O14 0.836963 0.836963 0.092716
O O15 0.804153 0.000000 0.000000
O O16 0.500000 0.811827 0.500000
O O17 0.500000 0.000000 0.431392
#
# Coordination Sequence:
#
# PCOD8308203 Si02
#       6
#     8   8   8   8   8   8
#     4  10  19  34  56  82 109 141 186 236 283 330
#     4  11  23  37  55  85 118 149 187 236 286 333
#     4  11  20  35  58  80 110 152 192 230 274 331
#     4  11  21  35  57  86 116 149 187 233 288 340
#     4   9  19  33  53  79 109 147 189 227 268 324
#     4   9  16  34  57  77 106 145 191 225 262 328
#
# _framework density 17.980401000000001
#
# number of rings (size 3 to 8) (size 9 to 14) (size 15 to 20)
#    0.000    1.833    5.000    2.500    0.000    2.833 
#    0.000    0.000    0.000    0.500    0.000    1.167 
#    0.000    0.000    0.000    0.000    0.000    0.000 
#
# Total GULP energy -594895.528588 kJ/mol
# GULP energy per Si atom -12393.656846 kJ/mol
# Density = 1.793948 g / cm^3
# Si number density = 17.980401 Si / 1000 Ang^3
#
#
#
# Elastic Constant Matrix: (Units=GPa)
#
#
# Indices 1 2 3 4 5 6 
#
# 1 68.7997 36.1394 35.3277 0.0000 0.0000 0.0000
# 2 36.1394 68.8033 35.3281 0.0000 0.0000 0.0000
# 3 35.3277 35.3281 94.6186 0.0000 0.0000 0.0000
# 4 0.0000 0.0000 0.0000 17.4916 0.0000 0.0000
# 5 0.0000 0.0000 0.0000 0.0000 17.4911 0.0000
# 6 0.0000 0.0000 0.0000 0.0000 0.0000 14.1329
#
#
#
# Elastic Compliance Matrix: (Units=1/GPa)
#
#
# Indices 1 2 3 4 5 6 
#
# 1 0.021673 -0.008944 -0.004753 0.000000 0.000000 0.000000
# 2 -0.008944 0.021672 -0.004753 0.000000 0.000000 0.000000
# 3 -0.004753 -0.004753 0.014118 0.000000 0.000000 0.000000
# 4 0.000000 0.000000 0.000000 0.057170 0.000000 0.000000
# 5 0.000000 0.000000 0.000000 0.000000 0.057172 0.000000
# 6 0.000000 0.000000 0.000000 0.000000 0.000000 0.070757
#
#
# Mechanical properties :
#
#
# Convention : Reuss Voigt Hill
#
# Bulk Modulus (GPa) = 48.62569 49.53466 49.08018
# Shear Modulus (GPa) = 17.46323 18.18488 17.82405
#
# Velocity S-wave (km/s) = 3.11985 3.18366 3.15191
# Velocity P-wave (km/s) = 6.33091 6.41275 6.37196
#
# Compressibility (1/GPa) = 0.02056526
#
# Stress axis : x y z
#
# Youngs Moduli (GPa) = 46.13935 46.14211 70.83264
#
# Poissons Ratio (x) = 0.41268 0.33666
# Poissons Ratio (y) = 0.41266 0.33663
# Poissons Ratio (z) = 0.21929 0.21929
#
# Static dielectric constant tensor:
#      x y z
#    x 3.322620 0.000000 0.000000 
#    y 0.000000 3.322610 0.000000 
#    z 0.000000 0.000000 3.303370 
# 
# 
# High freq. dielectric constant tensor:
#      x y z
#    x 1.681450 0.000000 0.000000 
#    y 0.000000 1.681450 0.000000 
#    z 0.000000 0.000000 1.696270 
# 
# From -- ./inp_files/3613.got.cif
#   From: 2010.03.12/outbox.cif.g09.slc.cpg/sg111_2_cif.got.tgz:3613.got - 2010.04.14 01:59:48.
