data_PCOD8308813
_publ_section_title
;
Structure prediction by ZEFSAII (Michael W. Deem and Ramdas Pophale) SiO2 
 PCOD8308813
Probable space group: P -4 21 C
;
_chemical_formula_sum "Si O2"
_cell_formula_units_Z 42
_cell_length_a 15.385056
_cell_length_b 15.385056
_cell_length_c 9.620447
_cell_angle_alpha 90.000000
_cell_angle_beta 90.000000
_cell_angle_gamma 90.000000
_cell_volume 2277.159306
_symmetry_space_group_name_H-M "P -4 21 C"
_symmetry_group_IT_number 114
_symmetry_cell_setting 'tetragonal'
loop_
_space_group_symop_operation_xyz
x,y,z
y,-x,-z
-x,-y,z
-y,x,-z
1/2+x,1/2-y,1/2-z
1/2-x,1/2+y,1/2-z
1/2-y,1/2-x,1/2+z
1/2+y,1/2+x,1/2+z
loop_
_atom_site_type_symbol
_atom_site_label
_atom_site_fract_x
_atom_site_fract_y
_atom_site_fract_z
Si Si1 0.964002 0.405221 0.063826
Si Si2 0.827309 0.464834 0.279891
Si Si3 0.500000 0.500000 0.000000
Si Si4 0.765836 0.127279 0.533309
Si Si5 0.178988 0.047404 0.410867
Si Si6 0.344943 0.866672 0.798827
O O1 0.882579 0.414734 0.164183
O O2 0.000000 0.500000 0.017659
O O3 0.037208 0.347785 0.137772
O O4 0.928348 0.352210 0.930785
O O5 0.726099 0.449006 0.240042
O O6 0.848805 0.566682 0.284294
O O7 0.485155 0.420070 0.894158
O O8 0.858079 0.176124 0.516990
O O9 0.733346 0.140605 0.690143
O O10 0.702305 0.171311 0.421493
O O11 0.770147 0.022998 0.506251
#
# Coordination Sequence:
#
# PCOD8308813 Si02
#       6
#     8   8   2   8   8   8
#     4  10  19  31  51  79 118 153 172 209 275 352
#     4  10  20  31  52  83 115 144 183 220 278 339
#     4   8  16  40  60  76  98 156 196 240 282 336
#     4  10  20  37  58  80 110 148 191 233 280 333
#     4   9  20  35  59  81 107 145 198 238 278 325
#     4  10  19  34  55  78 115 150 182 223 283 337
#
# _framework density 18.444033000000001
#
# number of rings (size 3 to 8) (size 9 to 14) (size 15 to 20)
#    0.000    2.286    1.905    1.714    5.333    1.524 
#    0.000    0.000    0.000    0.000    0.000    1.333 
#    0.000    0.000    0.000    0.000    0.000    0.000 
#
# Total GULP energy -520712.011288 kJ/mol
# GULP energy per Si atom -12397.905031 kJ/mol
# Density = 1.840205 g / cm^3
# Si number density = 18.444033 Si / 1000 Ang^3
#
#
#
# Elastic Constant Matrix: (Units=GPa)
#
#
# Indices 1 2 3 4 5 6 
#
# 1 80.8850 37.3924 44.2823 0.0000 0.0000 0.0000
# 2 37.3924 80.8850 44.2823 0.0000 0.0000 0.0000
# 3 44.2823 44.2823 107.4610 0.0000 0.0000 0.0000
# 4 0.0000 0.0000 0.0000 17.6126 0.0000 0.0000
# 5 0.0000 0.0000 0.0000 0.0000 17.6126 0.0000
# 6 0.0000 0.0000 0.0000 0.0000 0.0000 22.0150
#
#
#
# Elastic Compliance Matrix: (Units=1/GPa)
#
#
# Indices 1 2 3 4 5 6 
#
# 1 0.017610 -0.005382 -0.005039 0.000000 0.000000 0.000000
# 2 -0.005382 0.017610 -0.005039 0.000000 0.000000 0.000000
# 3 -0.005039 -0.005039 0.013458 0.000000 0.000000 0.000000
# 4 0.000000 0.000000 0.000000 0.056778 0.000000 0.000000
# 5 0.000000 0.000000 0.000000 0.000000 0.056778 0.000000
# 6 0.000000 0.000000 0.000000 0.000000 0.000000 0.045424
#
#
# Mechanical properties :
#
#
# Convention : Reuss Voigt Hill
#
# Bulk Modulus (GPa) = 56.31030 57.90497 57.10764
# Shear Modulus (GPa) = 20.45020 20.99964 20.72492
#
# Velocity S-wave (km/s) = 3.33343 3.37792 3.35575
# Velocity P-wave (km/s) = 6.73887 6.83205 6.78562
#
# Compressibility (1/GPa) = 0.01775874
#
# Stress axis : x y z
#
# Youngs Moduli (GPa) = 56.78582 56.78582 74.30305
#
# Poissons Ratio (x) = 0.30564 0.37439
# Poissons Ratio (y) = 0.30564 0.37439
# Poissons Ratio (z) = 0.28613 0.28613
#
# Static dielectric constant tensor:
#      x y z
#    x 3.400670 0.000000 0.000000 
#    y 0.000000 3.400670 0.000000 
#    z 0.000000 0.000000 3.162410 
# 
# 
# High freq. dielectric constant tensor:
#      x y z
#    x 1.708740 0.000000 0.000000 
#    y 0.000000 1.708740 0.000000 
#    z 0.000000 0.000000 1.696680 
# 
# From -- ./inp_files/798.got.cif
#   From: 2010.03.12/outbox.cif.g09.slc.cpg/sg114_1_cif.got.tgz:798.got - 2010.04.14 02:08:34.
