data_PCOD8308547
_publ_section_title
;
Structure prediction by ZEFSAII (Michael W. Deem and Ramdas Pophale) SiO2 
 PCOD8308547
Probable space group: P -4 21 M 
;
_chemical_formula_sum "Si O2"
_cell_formula_units_Z 64
_cell_length_a 12.338666
_cell_length_b 12.338666
_cell_length_c 23.226619
_cell_angle_alpha 90.000000
_cell_angle_beta 90.000000
_cell_angle_gamma 90.000000
_cell_volume 3536.082693
_symmetry_space_group_name_H-M "P -4 21 M "
_symmetry_group_IT_number 113
_symmetry_cell_setting 'tetragonal'
loop_
_space_group_symop_operation_xyz
x,y,z
y,-x,-z
-x,-y,z
-y,x,-z
1/2+x,1/2-y,-z
1/2-x,1/2+y,-z
1/2-y,1/2-x,z
1/2+y,1/2+x,z
loop_
_atom_site_type_symbol
_atom_site_label
_atom_site_fract_x
_atom_site_fract_y
_atom_site_fract_z
Si Si1 0.035852 0.160010 0.022515
Si Si2 0.998522 0.675489 0.933864
Si Si3 0.607268 0.282871 0.665259
Si Si4 0.868468 0.192263 0.552780
Si Si5 0.310267 0.637196 0.313061
Si Si6 0.289335 0.384497 0.564194
Si Si7 0.877431 0.972687 0.259450
Si Si8 0.612924 0.439551 0.871051
O O1 0.090504 0.163917 0.086730
O O2 0.914354 0.109753 0.020253
O O3 0.030270 0.282454 0.998261
O O4 0.114181 0.614181 0.933757
O O5 0.998785 0.779975 0.892574
O O6 0.905484 0.594517 0.912018
O O7 0.670282 0.170282 0.675573
O O8 0.607304 0.315052 0.597840
O O9 0.487722 0.273007 0.692561
O O10 0.669483 0.380729 0.698351
O O11 0.803855 0.303855 0.553638
O O12 0.867296 0.139028 0.489854
O O13 0.988334 0.225885 0.571055
O O14 0.208908 0.708908 0.293554
O O15 0.339163 0.653330 0.379443
O O16 0.409849 0.676998 0.271518
O O17 0.172568 0.327433 0.554711
O O18 0.865573 0.920337 0.196091
O O19 0.000000 0.000000 0.276551
O O20 0.500000 0.500000 0.878662
#
# Coordination Sequence:
#
# PCOD8308547 Si02
#       8
#     8   8   8   8   8   8   8   8
#     4   9  15  31  53  77 105 131 176 214 251 306
#     4  10  21  34  51  80 115 145 171 212 271 322
#     4  10  20  35  53  77 107 140 182 226 271 325
#     4  10  20  33  52  77 106 140 180 226 279 334
#     4  10  20  35  54  79 108 140 180 224 277 327
#     4  10  20  33  52  78 106 139 180 228 280 336
#     4   9  19  34  57  78 105 139 183 227 266 313
#     4  10  18  35  56  81 105 140 186 225 260 314
#
# _framework density 18.099125000000001
#
# number of rings (size 3 to 8) (size 9 to 14) (size 15 to 20)
#    0.000    2.250    3.750    0.750    0.000    4.750 
#    0.000    0.000    0.000    5.625    0.000    0.000 
#    0.000    0.000    0.000    0.000    0.000    0.000 
#
# Total GULP energy -792884.295577 kJ/mol
# GULP energy per Si atom -12388.817118 kJ/mol
# Density = 1.805793 g / cm^3
# Si number density = 18.099125 Si / 1000 Ang^3
#
#
#
# Elastic Constant Matrix: (Units=GPa)
#
#
# Indices 1 2 3 4 5 6 
#
# 1 85.0452 33.3116 19.2119 0.0000 0.0000 0.0000
# 2 33.3116 85.0450 19.2114 0.0000 0.0000 0.0000
# 3 19.2119 19.2114 97.4492 0.0000 0.0000 0.0000
# 4 0.0000 0.0000 0.0000 16.1032 0.0000 0.0000
# 5 0.0000 0.0000 0.0000 0.0000 16.1030 0.0000
# 6 0.0000 0.0000 0.0000 0.0000 0.0000 11.7708
#
#
#
# Elastic Compliance Matrix: (Units=1/GPa)
#
#
# Indices 1 2 3 4 5 6 
#
# 1 0.014178 -0.005152 -0.001780 0.000000 0.000000 0.000000
# 2 -0.005152 0.014178 -0.001780 0.000000 0.000000 0.000000
# 3 -0.001780 -0.001780 0.010963 0.000000 0.000000 0.000000
# 4 0.000000 0.000000 0.000000 0.062099 0.000000 0.000000
# 5 0.000000 0.000000 0.000000 0.000000 0.062100 0.000000
# 6 0.000000 0.000000 0.000000 0.000000 0.000000 0.084956
#
#
# Mechanical properties :
#
#
# Convention : Reuss Voigt Hill
#
# Bulk Modulus (GPa) = 45.66498 45.66769 45.66634
# Shear Modulus (GPa) = 18.30184 21.84904 20.07544
#
# Velocity S-wave (km/s) = 3.18339 3.47823 3.33407
# Velocity P-wave (km/s) = 6.22874 6.43565 6.33304
#
# Compressibility (1/GPa) = 0.02189862
#
# Stress axis : x y z
#
# Youngs Moduli (GPa) = 70.53028 70.53037 91.21231
#
# Poissons Ratio (x) = 0.36334 0.16232
# Poissons Ratio (y) = 0.36334 0.16231
# Poissons Ratio (z) = 0.12552 0.12551
#
# Static dielectric constant tensor:
#      x y z
#    x 3.268650 0.000000 0.000000 
#    y 0.000000 3.268650 0.000000 
#    z 0.000000 0.000000 3.556500 
# 
# 
# High freq. dielectric constant tensor:
#      x y z
#    x 1.687320 0.000000 0.000000 
#    y 0.000000 1.687320 0.000000 
#    z 0.000000 0.000000 1.698270 
# 
# From -- ./inp_files/2898.got.cif
#   From: 2010.03.12/outbox.cif.g09.slc.cpg/sg113_cif.got.tgz:2898.got - 2010.04.14 02:06:34.
