data_PCOD8308863
_publ_section_title
;
Structure prediction by ZEFSAII (Michael W. Deem and Ramdas Pophale) SiO2 
 PCOD8308863
Probable space group: P -4 21 C
;
_chemical_formula_sum "Si O2"
_cell_formula_units_Z 34
_cell_length_a 15.662909
_cell_length_b 15.662909
_cell_length_c 5.423373
_cell_angle_alpha 90.000000
_cell_angle_beta 90.000000
_cell_angle_gamma 90.000000
_cell_volume 1330.498300
_symmetry_space_group_name_H-M "P -4 21 C"
_symmetry_group_IT_number 114
_symmetry_cell_setting 'tetragonal'
loop_
_space_group_symop_operation_xyz
x,y,z
y,-x,-z
-x,-y,z
-y,x,-z
1/2+x,1/2-y,1/2-z
1/2-x,1/2+y,1/2-z
1/2-y,1/2-x,1/2+z
1/2+y,1/2+x,1/2+z
loop_
_atom_site_type_symbol
_atom_site_label
_atom_site_fract_x
_atom_site_fract_y
_atom_site_fract_z
Si Si1 0.000000 0.000000 0.000000
Si Si2 0.741405 0.209650 0.153530
Si Si3 0.759898 0.414848 0.165484
Si Si4 0.409605 0.958024 0.392270
Si Si5 0.074576 0.833600 0.163963
O O1 0.976542 0.078338 0.177121
O O2 0.692657 0.185022 0.407666
O O3 0.767725 0.311163 0.171945
O O4 0.823969 0.149812 0.143269
O O5 0.716816 0.451335 0.414817
O O6 0.850504 0.459588 0.148464
O O7 0.711210 0.447215 0.921359
O O8 0.406094 0.894412 0.152484
O O9 0.500000 0.000000 0.443846
#
# Coordination Sequence:
#
# PCOD8308863 Si02
#       5
#     2   8   8   8   8
#     4  12  28  50  68 106 124 182 260 274 360 366
#     4   8  16  30  58  86 113 156 212 256 320 398
#     4  10  20  38  62  97 128 178 224 256 357 396
#     4  10  21  28  53  96 142 169 206 270 321 423
#     4  10  23  38  66  86 125 166 228 301 304 416
#
# _framework density 25.554334000000001
#
# number of rings (size 3 to 8) (size 9 to 14) (size 15 to 20)
#    0.000    2.353    0.000    1.412   19.765    2.824 
#    0.000    0.000    0.000   25.412    0.000    0.000 
#    0.000    0.000    0.000    0.000    0.000    0.000 
#
# Total GULP energy -421308.808924 kJ/mol
# GULP energy per Si atom -12391.435557 kJ/mol
# Density = 2.549617 g / cm^3
# Si number density = 25.554334 Si / 1000 Ang^3
#
#
#
# Elastic Constant Matrix: (Units=GPa)
#
#
# Indices 1 2 3 4 5 6 
#
# 1 60.6543 21.5748 29.8180 0.0000 0.0000 0.0000
# 2 21.5748 60.6543 29.8180 0.0000 0.0000 0.0000
# 3 29.8180 29.8180 238.9284 0.0000 0.0000 0.0000
# 4 0.0000 0.0000 0.0000 13.4533 0.0000 0.0000
# 5 0.0000 0.0000 0.0000 0.0000 13.4533 0.0000
# 6 0.0000 0.0000 0.0000 0.0000 0.0000 32.1684
#
#
#
# Elastic Compliance Matrix: (Units=1/GPa)
#
#
# Indices 1 2 3 4 5 6 
#
# 1 0.019480 -0.006109 -0.001669 0.000000 0.000000 0.000000
# 2 -0.006109 0.019480 -0.001669 0.000000 0.000000 0.000000
# 3 -0.001669 -0.001669 0.004602 0.000000 0.000000 0.000000
# 4 0.000000 0.000000 0.000000 0.074331 0.000000 0.000000
# 5 0.000000 0.000000 0.000000 0.000000 0.074331 0.000000
# 6 0.000000 0.000000 0.000000 0.000000 0.000000 0.031086
#
#
# Mechanical properties :
#
#
# Convention : Reuss Voigt Hill
#
# Bulk Modulus (GPa) = 40.53559 58.07319 49.30439
# Shear Modulus (GPa) = 19.96597 30.41677 25.19137
#
# Velocity S-wave (km/s) = 2.79823 3.45378 3.14315
# Velocity P-wave (km/s) = 5.13197 6.21929 5.70161
#
# Compressibility (1/GPa) = 0.02466968
#
# Stress axis : x y z
#
# Youngs Moduli (GPa) = 51.33438 51.33438 217.30319
#
# Poissons Ratio (x) = 0.31359 0.36262
# Poissons Ratio (y) = 0.31359 0.36262
# Poissons Ratio (z) = 0.08566 0.08566
#
# Static dielectric constant tensor:
#      x y z
#    x 4.608680 0.000000 0.000000 
#    y 0.000000 4.608680 0.000000 
#    z 0.000000 0.000000 5.838750 
# 
# 
# High freq. dielectric constant tensor:
#      x y z
#    x 2.007530 0.000000 0.000000 
#    y 0.000000 2.007530 0.000000 
#    z 0.000000 0.000000 2.065540 
# 
# From -- ./inp_files/136.got.cif
#   From: 2010.03.12/outbox.cif.g09.slc.cpg/sg114_1_cif.got.tgz:136.got - 2010.04.14 02:08:34.
