data_PCOD8308714
_publ_section_title
;
Structure prediction by ZEFSAII (Michael W. Deem and Ramdas Pophale) SiO2 
 PCOD8308714
Probable space group: P -4 21 M 
;
_chemical_formula_sum "Si O2"
_cell_formula_units_Z 40
_cell_length_a 15.852263
_cell_length_b 15.852263
_cell_length_c 7.999423
_cell_angle_alpha 90.000000
_cell_angle_beta 90.000000
_cell_angle_gamma 90.000000
_cell_volume 2010.208941
_symmetry_space_group_name_H-M "P -4 21 M "
_symmetry_group_IT_number 113
_symmetry_cell_setting 'tetragonal'
loop_
_space_group_symop_operation_xyz
x,y,z
y,-x,-z
-x,-y,z
-y,x,-z
1/2+x,1/2-y,-z
1/2-x,1/2+y,-z
1/2-y,1/2-x,z
1/2+y,1/2+x,z
loop_
_atom_site_type_symbol
_atom_site_label
_atom_site_fract_x
_atom_site_fract_y
_atom_site_fract_z
Si Si1 0.296303 0.936421 0.107983
Si Si2 0.538879 0.390867 0.080872
Si Si3 0.944127 0.302231 0.575242
Si Si4 0.386471 0.545720 0.580646
Si Si5 0.496352 0.136469 0.771237
O O1 0.351693 0.851693 0.116559
O O2 0.197385 0.911851 0.103944
O O3 0.319044 0.994690 0.266578
O O4 0.308320 0.986338 0.934931
O O5 0.475924 0.408619 0.231925
O O6 0.467845 0.394112 0.931807
O O7 0.864966 0.364966 0.589472
O O8 0.911443 0.205880 0.571666
O O9 0.995649 0.312967 0.402887
O O10 0.456429 0.611742 0.518752
O O11 0.405459 0.094542 0.800012
O O12 0.567003 0.067003 0.750768
#
# Coordination Sequence:
#
# PCOD8308714 Si02
#       5
#     8   8   8   8   8
#     4  10  21  37  59  86 118 153 195 244 293 353
#     4  10  21  37  61  85 113 157 198 240 298 354
#     4  10  21  37  59  86 118 153 195 244 293 353
#     4  10  21  37  61  85 113 157 198 240 298 354
#     4   9  18  32  54  81 110 152 192 229 288 350
#
# _framework density 19.898430999999999
#
# number of rings (size 3 to 8) (size 9 to 14) (size 15 to 20)
#    0.000    2.200    0.000    3.600    5.600    2.000 
#    0.000   10.000    0.000    0.000    0.000    0.000 
#    0.000    0.000    0.000    0.000    0.000    0.000 
#
# Total GULP energy -495573.242998 kJ/mol
# GULP energy per Si atom -12389.331075 kJ/mol
# Density = 1.985314 g / cm^3
# Si number density = 19.898431 Si / 1000 Ang^3
#
#
#
# Elastic Constant Matrix: (Units=GPa)
#
#
# Indices 1 2 3 4 5 6 
#
# 1 102.1434 38.3803 28.7560 0.0000 0.0000 0.0000
# 2 38.3803 102.1426 28.7561 0.0000 0.0000 0.0000
# 3 28.7560 28.7561 109.2941 0.0000 0.0000 0.0000
# 4 0.0000 0.0000 0.0000 18.7154 0.0000 0.0000
# 5 0.0000 0.0000 0.0000 0.0000 18.7154 0.0000
# 6 0.0000 0.0000 0.0000 0.0000 0.0000 20.7395
#
#
#
# Elastic Compliance Matrix: (Units=1/GPa)
#
#
# Indices 1 2 3 4 5 6 
#
# 1 0.011829 -0.003854 -0.002098 0.000000 0.000000 0.000000
# 2 -0.003854 0.011829 -0.002098 0.000000 0.000000 0.000000
# 3 -0.002098 -0.002098 0.010254 0.000000 0.000000 0.000000
# 4 0.000000 0.000000 0.000000 0.053432 0.000000 0.000000
# 5 0.000000 0.000000 0.000000 0.000000 0.053432 0.000000
# 6 0.000000 0.000000 0.000000 0.000000 0.000000 0.048217
#
#
# Mechanical properties :
#
#
# Convention : Reuss Voigt Hill
#
# Bulk Modulus (GPa) = 56.14609 56.15166 56.14887
# Shear Modulus (GPa) = 23.69317 26.14656 24.91987
#
# Velocity S-wave (km/s) = 3.45440 3.62885 3.54270
# Velocity P-wave (km/s) = 6.64742 6.77041 6.70919
#
# Compressibility (1/GPa) = 0.01781068
#
# Stress axis : x y z
#
# Youngs Moduli (GPa) = 84.53772 84.53698 97.52512
#
# Poissons Ratio (x) = 0.32581 0.20463
# Poissons Ratio (y) = 0.32581 0.20464
# Poissons Ratio (z) = 0.17738 0.17738
#
# Static dielectric constant tensor:
#      x y z
#    x 3.557610 0.000000 0.000000 
#    y 0.000000 3.557610 0.000000 
#    z 0.000000 0.000000 4.013930 
# 
# 
# High freq. dielectric constant tensor:
#      x y z
#    x 1.761460 0.000000 0.000000 
#    y 0.000000 1.761460 0.000000 
#    z 0.000000 0.000000 1.802860 
# 
# From -- ./inp_files/1008.got.cif
#   From: 2010.03.12/outbox.cif.g09.slc.cpg/sg113_cif.got.tgz:1008.got - 2010.04.14 02:06:34.
