data_PCOD8308227
_publ_section_title
;
Structure prediction by ZEFSAII (Michael W. Deem and Ramdas Pophale) SiO2 
 PCOD8308227
Probable space group: P -4 2 M 
;
_chemical_formula_sum "Si O2"
_cell_formula_units_Z 60
_cell_length_a 12.418996
_cell_length_b 12.418996
_cell_length_c 21.308018
_cell_angle_alpha 90.000000
_cell_angle_beta 90.000000
_cell_angle_gamma 90.000000
_cell_volume 3286.366761
_symmetry_space_group_name_H-M "P -4 2 M "
_symmetry_group_IT_number 111
_symmetry_cell_setting 'tetragonal'
loop_
_space_group_symop_operation_xyz
x,y,z
y,-x,-z
-x,-y,z
-y,x,-z
x,-y,-z
-x,y,-z
-y,-x,z
y,x,z
loop_
_atom_site_type_symbol
_atom_site_label
_atom_site_fract_x
_atom_site_fract_y
_atom_site_fract_z
Si Si1 0.382859 0.212345 0.812085
Si Si2 0.875265 0.700861 0.932230
Si Si3 0.494254 0.124377 0.397807
Si Si4 0.120486 0.705199 0.929067
Si Si5 0.685873 0.500000 0.500000
Si Si6 0.285853 0.111649 0.316665
Si Si7 0.204452 0.622699 0.806192
Si Si8 0.299453 0.127655 0.687703
O O1 0.329429 0.329429 0.819088
O O2 0.387407 0.153019 0.879599
O O3 0.501862 0.229788 0.786228
O O4 0.317881 0.140795 0.762066
O O5 0.807017 0.807017 0.918130
O O6 0.997132 0.738232 0.925963
O O7 0.851754 0.654318 0.002320
O O8 0.505529 0.227833 0.443256
O O9 0.380885 0.140197 0.364103
O O10 0.587838 0.137525 0.347350
O O11 0.500000 0.000000 0.426671
O O12 0.185468 0.814533 0.917249
O O13 0.147759 0.621159 0.874287
O O14 0.607157 0.392844 0.501819
O O15 0.185535 0.185535 0.334740
O O16 0.322975 0.127396 0.244955
O O17 0.247663 0.988922 0.324257
O O18 0.318295 0.681706 0.809363
O O19 0.217073 0.217073 0.661531
#
# Coordination Sequence:
#
# PCOD8308227 Si02
#       8
#     8   8   8   8   4   8   8   8
#     4  10  20  34  51  71  98 131 171 218 265 316
#     4   9  18  31  47  69  96 127 165 210 261 316
#     4  10  20  37  60  83 110 147 188 221 254 309
#     4   9  18  31  47  69  96 127 165 210 261 316
#     4  11  23  38  58  86 121 151 176 218 270 311
#     4  10  20  34  54  80 109 142 179 221 267 316
#     4  10  20  34  51  71  98 131 171 218 265 316
#     4  10  20  34  54  80 109 142 179 221 267 316
#
# _framework density 18.257244
#
# number of rings (size 3 to 8) (size 9 to 14) (size 15 to 20)
#    0.000    2.200    1.333    1.800    0.000    2.933 
#    0.000    2.667    0.000    4.800    0.000    3.733 
#    0.000    9.600    0.000    0.000    0.000    0.000 
#
# Total GULP energy -743517.346472 kJ/mol
# GULP energy per Si atom -12391.955775 kJ/mol
# Density = 1.821569 g / cm^3
# Si number density = 18.257244 Si / 1000 Ang^3
#
#
#
# Elastic Constant Matrix: (Units=GPa)
#
#
# Indices 1 2 3 4 5 6 
#
# 1 76.0245 30.1157 17.9058 0.0000 0.0000 0.0000
# 2 30.1157 76.0201 17.9056 0.0000 0.0000 0.0000
# 3 17.9058 17.9056 72.1759 0.0000 0.0000 0.0000
# 4 0.0000 0.0000 0.0000 26.1420 0.0000 0.0000
# 5 0.0000 0.0000 0.0000 0.0000 26.1418 0.0000
# 6 0.0000 0.0000 0.0000 0.0000 0.0000 20.5344
#
#
#
# Elastic Compliance Matrix: (Units=1/GPa)
#
#
# Indices 1 2 3 4 5 6 
#
# 1 0.016032 -0.005751 -0.002551 0.000000 0.000000 0.000000
# 2 -0.005751 0.016033 -0.002551 0.000000 0.000000 0.000000
# 3 -0.002551 -0.002551 0.015121 0.000000 0.000000 0.000000
# 4 0.000000 0.000000 0.000000 0.038253 0.000000 0.000000
# 5 0.000000 0.000000 0.000000 0.000000 0.038253 0.000000
# 6 0.000000 0.000000 0.000000 0.000000 0.000000 0.048699
#
#
# Mechanical properties :
#
#
# Convention : Reuss Voigt Hill
#
# Bulk Modulus (GPa) = 39.24355 39.56385 39.40370
# Shear Modulus (GPa) = 24.68048 25.11655 24.89851
#
# Velocity S-wave (km/s) = 3.68070 3.71307 3.69692
# Velocity P-wave (km/s) = 6.29324 6.33244 6.31287
#
# Compressibility (1/GPa) = 0.02548189
#
# Stress axis : x y z
#
# Youngs Moduli (GPa) = 62.37375 62.36998 66.13448
#
# Poissons Ratio (x) = 0.35866 0.16870
# Poissons Ratio (y) = 0.35868 0.16871
# Poissons Ratio (z) = 0.15910 0.15910
#
# Static dielectric constant tensor:
#      x y z
#    x 3.353710 0.000000 0.000000 
#    y 0.000000 3.353710 0.000000 
#    z 0.000000 0.000000 3.485470 
# 
# 
# High freq. dielectric constant tensor:
#      x y z
#    x 1.703940 0.000000 0.000000 
#    y 0.000000 1.703940 0.000000 
#    z 0.000000 0.000000 1.709390 
# 
# From -- ./inp_files/4034.got.cif
#   From: 2010.03.12/outbox.cif.g09.slc.cpg/sg111_3_cif.got.tgz:4034.got - 2010.04.14 01:59:48.
