data_PCOD8308642
_publ_section_title
;
Structure prediction by ZEFSAII (Michael W. Deem and Ramdas Pophale) SiO2 
 PCOD8308642
Probable space group: P -4 21 M 
;
_chemical_formula_sum "Si O2"
_cell_formula_units_Z 48
_cell_length_a 11.089377
_cell_length_b 11.089377
_cell_length_c 18.779261
_cell_angle_alpha 90.000000
_cell_angle_beta 90.000000
_cell_angle_gamma 90.000000
_cell_volume 2309.366143
_symmetry_space_group_name_H-M "P -4 21 M "
_symmetry_group_IT_number 113
_symmetry_cell_setting 'tetragonal'
loop_
_space_group_symop_operation_xyz
x,y,z
y,-x,-z
-x,-y,z
-y,x,-z
1/2+x,1/2-y,-z
1/2-x,1/2+y,-z
1/2-y,1/2-x,z
1/2+y,1/2+x,z
loop_
_atom_site_type_symbol
_atom_site_label
_atom_site_fract_x
_atom_site_fract_y
_atom_site_fract_z
Si Si1 0.347866 0.347866 0.394350
Si Si2 0.500001 0.803630 0.500001
Si Si3 0.302028 0.500000 0.000000
Si Si4 0.402733 0.402733 0.237347
Si Si5 0.741186 0.055521 0.151254
Si Si6 0.944479 0.258813 0.151255
O O1 0.249997 0.250004 0.372567
O O2 0.456845 0.284279 0.437036
O O3 0.284285 0.456847 0.437037
O O4 0.400848 0.400846 0.322325
O O5 0.611832 0.888169 0.525774
O O6 0.388169 0.888169 0.474229
O O7 0.220155 0.489533 0.929534
O O8 0.382609 0.617390 0.988571
O O9 0.220155 0.510467 0.070466
O O10 0.500000 0.500000 0.212406
O O11 0.444594 0.274439 0.204011
O O12 0.274439 0.444594 0.204011
O O13 0.617365 0.117365 0.178548
O O14 0.848053 0.151947 0.151315
O O15 0.882635 0.382635 0.178548
#
# Coordination Sequence:
#
# PCOD8308642 Si02
#       6
#     8   8   8   8   8   8
#     4  10  22  38  60  86 112 149 190 225 282 346
#     4   9  20  39  60  86 120 151 186 235 280 330
#     4   9  14  26  50  71  96 140 188 235 284 327
#     4  10  20  34  52  82 112 145 182 232 281 331
#     4   9  17  30  49  77 110 145 187 232 283 336
#     4   9  17  30  49  77 110 145 187 232 283 336
#
# _framework density 20.784924
#
# number of rings (size 3 to 8) (size 9 to 14) (size 15 to 20)
#    0.000    2.667    1.667    0.000    2.333    1.333 
#    0.000    1.667    0.000    2.500    0.000    0.000 
#    0.000    0.000    0.000    0.000    0.000    0.000 
#
# Total GULP energy -594901.506872 kJ/mol
# GULP energy per Si atom -12393.781393 kJ/mol
# Density = 2.073762 g / cm^3
# Si number density = 20.784924 Si / 1000 Ang^3
#
#
#
# Elastic Constant Matrix: (Units=GPa)
#
#
# Indices 1 2 3 4 5 6 
#
# 1 78.0004 57.1599 58.7306 0.0000 0.0000 0.0000
# 2 57.1599 78.0006 58.7306 0.0000 0.0000 0.0000
# 3 58.7306 58.7306 140.4293 0.0000 0.0000 0.0000
# 4 0.0000 0.0000 0.0000 11.8319 0.0000 0.0000
# 5 0.0000 0.0000 0.0000 0.0000 11.8319 0.0000
# 6 0.0000 0.0000 0.0000 0.0000 0.0000 18.0617
#
#
#
# Elastic Compliance Matrix: (Units=1/GPa)
#
#
# Indices 1 2 3 4 5 6 
#
# 1 0.029803 -0.018180 -0.004861 0.000000 0.000000 0.000000
# 2 -0.018180 0.029803 -0.004861 0.000000 0.000000 0.000000
# 3 -0.004861 -0.004861 0.011187 0.000000 0.000000 0.000000
# 4 0.000000 0.000000 0.000000 0.084517 0.000000 0.000000
# 5 0.000000 0.000000 0.000000 0.000000 0.084517 0.000000
# 6 0.000000 0.000000 0.000000 0.000000 0.000000 0.055366
#
#
# Mechanical properties :
#
#
# Convention : Reuss Voigt Hill
#
# Bulk Modulus (GPa) = 66.71529 71.74138 69.22834
# Shear Modulus (GPa) = 14.04519 16.46573 15.25546
#
# Velocity S-wave (km/s) = 2.60232 2.81765 2.71212
# Velocity P-wave (km/s) = 6.41849 6.72135 6.57166
#
# Compressibility (1/GPa) = 0.01498907
#
# Stress axis : x y z
#
# Youngs Moduli (GPa) = 33.55340 33.55349 89.38937
#
# Poissons Ratio (x) = 0.61001 0.43453
# Poissons Ratio (y) = 0.61000 0.43452
# Poissons Ratio (z) = 0.16311 0.16310
#
# Static dielectric constant tensor:
#      x y z
#    x 3.739380 0.000000 0.000000 
#    y 0.000000 3.739380 0.000000 
#    z 0.000000 0.000000 3.536290 
# 
# 
# High freq. dielectric constant tensor:
#      x y z
#    x 1.802360 0.000000 0.000000 
#    y 0.000000 1.802360 0.000000 
#    z 0.000000 0.000000 1.797020 
# 
# From -- ./inp_files/2508.got.cif
#   From: 2010.03.12/outbox.cif.g09.slc.cpg/sg113_cif.got.tgz:2508.got - 2010.04.14 02:06:34.
