data_PCOD8308687
_publ_section_title
;
Structure prediction by ZEFSAII (Michael W. Deem and Ramdas Pophale) SiO2 
 PCOD8308687
Probable space group: P -4 21 M 
;
_chemical_formula_sum "Si O2"
_cell_formula_units_Z 40
_cell_length_a 15.738403
_cell_length_b 15.738403
_cell_length_c 7.829590
_cell_angle_alpha 90.000000
_cell_angle_beta 90.000000
_cell_angle_gamma 90.000000
_cell_volume 1939.368530
_symmetry_space_group_name_H-M "P -4 21 M "
_symmetry_group_IT_number 113
_symmetry_cell_setting 'tetragonal'
loop_
_space_group_symop_operation_xyz
x,y,z
y,-x,-z
-x,-y,z
-y,x,-z
1/2+x,1/2-y,-z
1/2-x,1/2+y,-z
1/2-y,1/2-x,z
1/2+y,1/2+x,z
loop_
_atom_site_type_symbol
_atom_site_label
_atom_site_fract_x
_atom_site_fract_y
_atom_site_fract_z
Si Si1 0.438132 0.305856 0.657696
Si Si2 0.321943 0.178058 0.492070
Si Si3 0.806856 0.693145 0.601524
Si Si4 0.304640 0.448856 0.646686
Si Si5 0.747830 0.006591 0.999970
Si Si6 0.798225 0.701776 0.985739
Si Si7 0.660460 0.839541 0.101928
O O1 0.402754 0.214272 0.596245
O O2 0.361858 0.368802 0.689740
O O3 0.495556 0.343155 0.504842
O O4 0.490665 0.304362 0.832714
O O5 0.249122 0.250878 0.469700
O O6 0.351769 0.148232 0.305067
O O7 0.786515 0.592081 0.583878
O O8 0.778095 0.721906 0.790665
O O9 0.299356 0.502129 0.821717
O O10 0.713631 0.101869 0.973975
O O11 0.680799 0.929606 0.012404
O O12 0.733563 0.766438 0.080783
#
# Coordination Sequence:
#
# PCOD8308687 Si02
#       7
#     8   4   4   8   8   4   4
#     4  11  23  39  63  89 129 165 217 270 331 392
#     4  10  20  38  64  90 119 167 215 266 318 390
#     4   8  18  38  59  83 123 151 214 264 308 379
#     4  10  22  39  58  93 121 168 212 270 326 393
#     4  11  23  41  67  95 130 169 220 272 328 390
#     4  10  24  41  67 100 127 176 224 269 329 392
#     4  12  22  41  68  95 131 174 221 267 335 389
#
# _framework density 20.625271999999999
#
# number of rings (size 3 to 8) (size 9 to 14) (size 15 to 20)
#    0.000    1.600    2.000    4.200    5.600    2.400 
#    0.000    0.000    0.000    7.200    0.000    0.000 
#    0.000    0.000    0.000    0.000    0.000    0.000 
#
# Total GULP energy -495608.291078 kJ/mol
# GULP energy per Si atom -12390.207277 kJ/mol
# Density = 2.057833 g / cm^3
# Si number density = 20.625272 Si / 1000 Ang^3
#
#
#
# Elastic Constant Matrix: (Units=GPa)
#
#
# Indices 1 2 3 4 5 6 
#
# 1 94.0335 28.9920 24.3942 0.0000 0.0000 0.0000
# 2 28.9920 94.0320 24.3949 0.0000 0.0000 0.0000
# 3 24.3942 24.3949 117.9739 0.0000 0.0000 0.0000
# 4 0.0000 0.0000 0.0000 32.4975 0.0000 0.0000
# 5 0.0000 0.0000 0.0000 0.0000 32.4972 0.0000
# 6 0.0000 0.0000 0.0000 0.0000 0.0000 18.5950
#
#
#
# Elastic Compliance Matrix: (Units=1/GPa)
#
#
# Indices 1 2 3 4 5 6 
#
# 1 0.012115 -0.003260 -0.001831 0.000000 0.000000 0.000000
# 2 -0.003260 0.012115 -0.001831 0.000000 0.000000 0.000000
# 3 -0.001831 -0.001831 0.009234 0.000000 0.000000 0.000000
# 4 0.000000 0.000000 0.000000 0.030772 0.000000 0.000000
# 5 0.000000 0.000000 0.000000 0.000000 0.030772 0.000000
# 6 0.000000 0.000000 0.000000 0.000000 0.000000 0.053778
#
#
# Mechanical properties :
#
#
# Convention : Reuss Voigt Hill
#
# Bulk Modulus (GPa) = 50.97097 51.28907 51.13002
# Shear Modulus (GPa) = 29.55634 31.93516 30.74575
#
# Velocity S-wave (km/s) = 3.78963 3.93918 3.86513
# Velocity P-wave (km/s) = 6.62683 6.75356 6.69050
#
# Compressibility (1/GPa) = 0.01961901
#
# Stress axis : x y z
#
# Youngs Moduli (GPa) = 82.54471 82.54301 108.29944
#
# Poissons Ratio (x) = 0.26911 0.19828
# Poissons Ratio (y) = 0.26911 0.19830
# Poissons Ratio (z) = 0.15113 0.15114
#
# Static dielectric constant tensor:
#      x y z
#    x 3.804670 0.000000 0.000000 
#    y 0.000000 3.804680 0.000000 
#    z 0.000000 0.000000 3.837640 
# 
# 
# High freq. dielectric constant tensor:
#      x y z
#    x 1.792480 0.000000 0.000000 
#    y 0.000000 1.792480 0.000000 
#    z 0.000000 0.000000 1.821590 
# 
# From -- ./inp_files/1082.got.cif
#   From: 2010.03.12/outbox.cif.g09.slc.cpg/sg113_cif.got.tgz:1082.got - 2010.04.14 02:06:34.
