data_PCOD8308054
_publ_section_title
;
Structure prediction by ZEFSAII (Michael W. Deem and Ramdas Pophale) SiO2 
 PCOD8308054
Probable space group: I 41 C D
;
_chemical_formula_sum "Si O2"
_cell_formula_units_Z 88
_cell_length_a 13.164328
_cell_length_b 13.164328
_cell_length_c 23.182002
_cell_angle_alpha 90.000000
_cell_angle_beta 90.000000
_cell_angle_gamma 90.000000
_cell_volume 4017.430090
_symmetry_space_group_name_H-M "I 41 C D"
_symmetry_group_IT_number 110
_symmetry_cell_setting 'tetragonal'
loop_
_space_group_symop_operation_xyz
x,y,z
-y,1/2+x,1/4+z
-x,-y,z
y,1/2-x,1/4+z
-x,y,1/2+z
x,-y,1/2+z
1/2-y,-x,1/4+z
1/2+y,x,1/4+z
1/2+x,1/2+y,1/2+z
1/2-y,x,3/4+z
1/2-x,1/2-y,1/2+z
1/2+y,-x,3/4+z
1/2-x,1/2+y,z
1/2+x,1/2-y,z
-y,1/2-x,3/4+z
y,1/2+x,3/4+z
loop_
_atom_site_type_symbol
_atom_site_label
_atom_site_fract_x
_atom_site_fract_y
_atom_site_fract_z
Si Si1 0.500000 0.000000 0.869660
Si Si2 0.228852 0.012398 0.253889
Si Si3 0.927187 0.850353 0.794137
Si Si4 0.631194 0.684698 0.415493
Si Si5 0.643205 0.848606 0.329786
Si Si6 0.839220 0.590380 0.451328
O O1 0.468421 0.902291 0.831843
O O2 0.602420 0.980451 0.906020
O O3 0.275795 0.066838 0.310077
O O4 0.194894 0.098666 0.208645
O O5 0.130116 0.948131 0.270281
O O6 0.309221 0.938085 0.222685
O O7 0.937008 0.864072 0.863739
O O8 0.863549 0.744829 0.783698
O O9 0.035903 0.837889 0.763841
O O10 0.667670 0.797695 0.392927
O O11 0.727129 0.613454 0.428376
#
# Coordination Sequence:
#
# PCOD8308054 Si02
#       6
#     8  16  16  16  16  16
#     4  12  22  44  70  94 136 196 226 286 366 426
#     4  12  22  43  70 101 140 186 234 292 366 430
#     4  10  23  44  62 108 139 178 244 289 360 435
#     4  10  25  43  66 107 140 183 247 292 366 428
#     4  10  25  41  68 100 136 183 239 289 357 433
#     4  12  22  43  75  96 143 187 233 296 359 439
#
# _framework density 21.90455
#
# number of rings (size 3 to 8) (size 9 to 14) (size 15 to 20)
#    1.091    0.000    3.636    2.182    2.545    2.909 
#    0.000    3.636    0.000    0.000    0.000    0.000 
#    0.000    0.000    0.000    0.000    0.000    0.000 
#
# Total GULP energy -545173.487645 kJ/mol
# GULP energy per Si atom -12390.306537 kJ/mol
# Density = 2.185469 g / cm^3
# Si number density = 21.904550 Si / 1000 Ang^3
#
#
#
# Elastic Constant Matrix: (Units=GPa)
#
#
# Indices 1 2 3 4 5 6 
#
# 1 92.8900 36.6712 27.2581 0.0000 0.0000 0.0000
# 2 36.6712 92.8900 27.2581 0.0000 0.0000 0.0000
# 3 27.2581 27.2581 65.5716 0.0000 0.0000 0.0000
# 4 0.0000 0.0000 0.0000 36.8149 0.0000 0.0000
# 5 0.0000 0.0000 0.0000 0.0000 36.8149 0.0000
# 6 0.0000 0.0000 0.0000 0.0000 0.0000 49.9997
#
#
#
# Elastic Compliance Matrix: (Units=1/GPa)
#
#
# Indices 1 2 3 4 5 6 
#
# 1 0.013571 -0.004216 -0.003889 0.000000 0.000000 0.000000
# 2 -0.004216 0.013571 -0.003889 0.000000 0.000000 0.000000
# 3 -0.003889 -0.003889 0.018484 0.000000 0.000000 0.000000
# 4 0.000000 0.000000 0.000000 0.027163 0.000000 0.000000
# 5 0.000000 0.000000 0.000000 0.000000 0.027163 0.000000
# 6 0.000000 0.000000 0.000000 0.000000 0.000000 0.020000
#
#
# Mechanical properties :
#
#
# Convention : Reuss Voigt Hill
#
# Bulk Modulus (GPa) = 46.21500 48.19179 47.20340
# Shear Modulus (GPa) = 33.07922 35.40354 34.24138
#
# Velocity S-wave (km/s) = 3.89028 4.02464 3.95803
# Velocity P-wave (km/s) = 6.42832 6.60648 6.51801
#
# Compressibility (1/GPa) = 0.02163800
#
# Stress axis : x y z
#
# Youngs Moduli (GPa) = 73.68581 73.68581 54.10205
#
# Poissons Ratio (x) = 0.31070 0.21039
# Poissons Ratio (y) = 0.31070 0.21039
# Poissons Ratio (z) = 0.28654 0.28654
#
# Static dielectric constant tensor:
#      x y z
#    x 3.818370 0.000000 0.000000 
#    y 0.000000 3.818370 0.000000 
#    z 0.000000 0.000000 3.831460 
# 
# 
# High freq. dielectric constant tensor:
#      x y z
#    x 1.855540 0.000000 0.000000 
#    y 0.000000 1.855540 0.000000 
#    z 0.000000 0.000000 1.849620 
# 
# From -- ./inp_files/2137.got.cif
#   From: 2010.03.12/outbox.cif.g09.slc.cpg/sg110_2_cif.got.tgz:2137.got - 2010.04.14 01:58:01.
