data_PCOD8308330
_publ_section_title
;
Structure prediction by ZEFSAII (Michael W. Deem and Ramdas Pophale) SiO2 
 PCOD8308330
Probable space group: P -4 2 C
;
_chemical_formula_sum "Si O2"
_cell_formula_units_Z 56
_cell_length_a 12.779591
_cell_length_b 12.779591
_cell_length_c 19.337828
_cell_angle_alpha 90.000000
_cell_angle_beta 90.000000
_cell_angle_gamma 90.000000
_cell_volume 3158.214352
_symmetry_space_group_name_H-M "P -4 2 C"
_symmetry_group_IT_number 112
_symmetry_cell_setting 'tetragonal'
loop_
_space_group_symop_operation_xyz
x,y,z
y,-x,-z
-x,-y,z
-y,x,-z
x,-y,1/2-z
-x,y,1/2-z
-y,-x,1/2+z
y,x,1/2+z
loop_
_atom_site_type_symbol
_atom_site_label
_atom_site_fract_x
_atom_site_fract_y
_atom_site_fract_z
Si Si1 0.311091 0.606764 0.667899
Si Si2 0.899665 0.674423 0.577481
Si Si3 0.328016 0.136751 0.435649
Si Si4 0.112562 0.116878 0.505367
Si Si5 0.509069 0.879399 0.962182
Si Si6 0.491587 0.253738 0.671089
Si Si7 0.715553 0.625705 0.674893
O O1 0.226494 0.662169 0.620294
O O2 0.427883 0.651017 0.662575
O O3 0.322527 0.486177 0.646992
O O4 0.265532 0.622737 0.743897
O O5 0.889761 0.798881 0.566572
O O6 0.857404 0.610172 0.510647
O O7 0.828358 0.650596 0.642990
O O8 0.020522 0.642580 0.593030
O O9 0.206774 0.142106 0.454571
O O10 0.403871 0.162483 0.500357
O O11 0.001156 0.125442 0.464249
O O12 0.523492 0.829607 0.886735
O O13 0.500000 0.000000 0.945923
O O14 0.500000 0.208672 0.750000
O O15 0.373643 0.290953 0.654941
#
# Coordination Sequence:
#
# PCOD8308330 Si02
#       7
#     8   8   8   8   8   8   8
#     4  10  20  35  53  73 103 139 172 211 258 309
#     4  10  19  33  53  78 105 131 170 216 257 306
#     4  10  19  33  53  78 105 131 170 216 257 306
#     4   9  18  32  52  74  99 136 172 208 257 308
#     4  10  20  34  54  78 105 135 166 216 267 302
#     4  10  21  35  52  74 102 139 177 209 251 311
#     4  10  20  35  53  73 103 139 172 211 258 309
#
# _framework density 17.731538
#
# number of rings (size 3 to 8) (size 9 to 14) (size 15 to 20)
#    0.000    2.143    1.429    2.143    0.000    2.571 
#    0.000    1.429    3.143    2.571    0.000    4.000 
#    0.000    0.000    0.000    0.000    0.000    0.000 
#
# Total GULP energy -694127.039711 kJ/mol
# GULP energy per Si atom -12395.125709 kJ/mol
# Density = 1.769118 g / cm^3
# Si number density = 17.731538 Si / 1000 Ang^3
#
#
#
# Elastic Constant Matrix: (Units=GPa)
#
#
# Indices 1 2 3 4 5 6 
#
# 1 66.9834 0.3208 22.3072 0.0000 0.0000 0.0000
# 2 0.3208 66.9834 22.3072 0.0000 0.0000 0.0000
# 3 22.3072 22.3072 51.4722 0.0000 0.0000 0.0000
# 4 0.0000 0.0000 0.0000 24.1906 0.0000 0.0000
# 5 0.0000 0.0000 0.0000 0.0000 24.1906 0.0000
# 6 0.0000 0.0000 0.0000 0.0000 0.0000 23.1297
#
#
#
# Elastic Compliance Matrix: (Units=1/GPa)
#
#
# Indices 1 2 3 4 5 6 
#
# 1 0.017924 0.002923 -0.009035 0.000000 0.000000 0.000000
# 2 0.002923 0.017924 -0.009035 0.000000 0.000000 0.000000
# 3 -0.009035 -0.009035 0.027259 0.000000 0.000000 0.000000
# 4 0.000000 0.000000 0.000000 0.041338 0.000000 0.000000
# 5 0.000000 0.000000 0.000000 0.000000 0.041338 0.000000
# 6 0.000000 0.000000 0.000000 0.000000 0.000000 0.043235
#
#
# Mechanical properties :
#
#
# Convention : Reuss Voigt Hill
#
# Bulk Modulus (GPa) = 30.47494 30.58995 30.53245
# Shear Modulus (GPa) = 21.71564 23.66908 22.69236
#
# Velocity S-wave (km/s) = 3.50335 3.65753 3.58127
# Velocity P-wave (km/s) = 5.79559 5.92671 5.86152
#
# Compressibility (1/GPa) = 0.03281384
#
# Stress axis : x y z
#
# Youngs Moduli (GPa) = 55.79151 55.79151 36.68516
#
# Poissons Ratio (x) = -0.16308 0.33144
# Poissons Ratio (y) = -0.16308 0.33144
# Poissons Ratio (z) = 0.50406 0.50406
#
# Static dielectric constant tensor:
#      x y z
#    x 3.446510 0.000000 0.000000 
#    y 0.000000 3.446510 0.000000 
#    z 0.000000 0.000000 3.079860 
# 
# 
# High freq. dielectric constant tensor:
#      x y z
#    x 1.696580 0.000000 0.000000 
#    y 0.000000 1.696580 0.000000 
#    z 0.000000 0.000000 1.659370 
# 
# From -- ./inp_files/4911.got.cif
#   From: 2010.03.12/outbox.cif.g09.slc.cpg/sg112_3_cif.got.tgz:4911.got - 2010.04.14 02:02:48.
