data_PCOD8308475
_publ_section_title
;
Structure prediction by ZEFSAII (Michael W. Deem and Ramdas Pophale) SiO2 
 PCOD8308475
Probable space group: P -4 2 C
;
_chemical_formula_sum "Si O2"
_cell_formula_units_Z 32
_cell_length_a 8.062690
_cell_length_b 8.062690
_cell_length_c 23.419294
_cell_angle_alpha 90.000000
_cell_angle_beta 90.000000
_cell_angle_gamma 90.000000
_cell_volume 1522.417343
_symmetry_space_group_name_H-M "P -4 2 C"
_symmetry_group_IT_number 112
_symmetry_cell_setting 'tetragonal'
loop_
_space_group_symop_operation_xyz
x,y,z
y,-x,-z
-x,-y,z
-y,x,-z
x,-y,1/2-z
-x,y,1/2-z
-y,-x,1/2+z
y,x,1/2+z
loop_
_atom_site_type_symbol
_atom_site_label
_atom_site_fract_x
_atom_site_fract_y
_atom_site_fract_z
Si Si1 0.686639 0.313362 0.500000
Si Si2 0.500000 0.304864 0.685532
Si Si3 0.815264 0.808020 0.614490
Si Si4 0.184736 0.808020 0.614490
O O1 0.500000 0.285307 0.522288
O O2 0.718199 0.195005 0.446470
O O3 0.804995 0.281802 0.553530
O O4 0.500000 0.500000 0.683270
O O5 0.500000 0.236482 0.750000
O O6 0.329622 0.245716 0.657020
O O7 0.670378 0.245717 0.657020
O O8 1.000000 0.768898 0.639923
O O9 0.793456 0.000000 0.602084
#
# Coordination Sequence:
#
# PCOD8308475 Si02
#       4
#     8   8   8   8
#     4  11  22  37  62  96 132 169 211 264 330 392
#     4  11  25  45  67  93 127 171 221 270 325 388
#     4  11  24  41  64  96 130 168 216 268 328 395
#     4  11  24  41  64  96 130 168 216 268 328 395
#
# _framework density 21.019202
#
# number of rings (size 3 to 8) (size 9 to 14) (size 15 to 20)
#    0.000    1.000    2.500    3.750    0.000   11.000 
#    0.000    5.000    0.000    0.000    0.000    0.000 
#    0.000    0.000    0.000    0.000    0.000    0.000 
#
# Total GULP energy -396781.461846 kJ/mol
# GULP energy per Si atom -12399.420683 kJ/mol
# Density = 2.097136 g / cm^3
# Si number density = 21.019202 Si / 1000 Ang^3
#
#
#
# Elastic Constant Matrix: (Units=GPa)
#
#
# Indices 1 2 3 4 5 6 
#
# 1 125.8524 55.1831 57.3929 0.0000 0.0000 0.0000
# 2 55.1831 125.8524 57.3929 0.0000 0.0000 0.0000
# 3 57.3929 57.3929 124.1368 0.0000 0.0000 0.0000
# 4 0.0000 0.0000 0.0000 16.9554 0.0000 0.0000
# 5 0.0000 0.0000 0.0000 0.0000 16.9554 0.0000
# 6 0.0000 0.0000 0.0000 0.0000 0.0000 32.9283
#
#
#
# Elastic Compliance Matrix: (Units=1/GPa)
#
#
# Indices 1 2 3 4 5 6 
#
# 1 0.010982 -0.003168 -0.003613 0.000000 0.000000 0.000000
# 2 -0.003168 0.010982 -0.003613 0.000000 0.000000 0.000000
# 3 -0.003613 -0.003613 0.011396 0.000000 0.000000 0.000000
# 4 0.000000 0.000000 0.000000 0.058978 0.000000 0.000000
# 5 0.000000 0.000000 0.000000 0.000000 0.058978 0.000000
# 6 0.000000 0.000000 0.000000 0.000000 0.000000 0.030369
#
#
# Mechanical properties :
#
#
# Convention : Reuss Voigt Hill
#
# Bulk Modulus (GPa) = 79.53075 79.53102 79.53088
# Shear Modulus (GPa) = 24.19361 27.09265 25.64313
#
# Velocity S-wave (km/s) = 3.39636 3.59409 3.49662
# Velocity P-wave (km/s) = 7.30066 7.42582 7.36350
#
# Compressibility (1/GPa) = 0.01257375
#
# Stress axis : x y z
#
# Youngs Moduli (GPa) = 91.05396 91.05396 87.74679
#
# Poissons Ratio (x) = 0.28845 0.31703
# Poissons Ratio (y) = 0.28845 0.31703
# Poissons Ratio (z) = 0.32897 0.32897
#
# Static dielectric constant tensor:
#      x y z
#    x 3.996480 0.000000 0.000000 
#    y 0.000000 3.996480 0.000000 
#    z 0.000000 0.000000 3.776290 
# 
# 
# High freq. dielectric constant tensor:
#      x y z
#    x 1.840110 0.000000 0.000000 
#    y 0.000000 1.840110 0.000000 
#    z 0.000000 0.000000 1.809820 
# 
# From -- ./inp_files/5189.got.cif
#   From: 2010.03.12/outbox.cif.g09.slc.cpg/sg112_3_cif.got.tgz:5189.got - 2010.04.14 02:02:48.
