data_PCOD8308672
_publ_section_title
;
Structure prediction by ZEFSAII (Michael W. Deem and Ramdas Pophale) SiO2 
 PCOD8308672
Probable space group: P -4 21 M 
;
_chemical_formula_sum "Si O2"
_cell_formula_units_Z 40
_cell_length_a 11.004473
_cell_length_b 11.004473
_cell_length_c 16.176973
_cell_angle_alpha 90.000000
_cell_angle_beta 90.000000
_cell_angle_gamma 90.000000
_cell_volume 1959.005968
_symmetry_space_group_name_H-M "P -4 21 M "
_symmetry_group_IT_number 113
_symmetry_cell_setting 'tetragonal'
loop_
_space_group_symop_operation_xyz
x,y,z
y,-x,-z
-x,-y,z
-y,x,-z
1/2+x,1/2-y,-z
1/2-x,1/2+y,-z
1/2-y,1/2-x,z
1/2+y,1/2+x,z
loop_
_atom_site_type_symbol
_atom_site_label
_atom_site_fract_x
_atom_site_fract_y
_atom_site_fract_z
Si Si1 0.755660 0.554445 0.087451
Si Si2 0.698083 0.000000 0.500002
Si Si3 0.151148 0.848854 0.376357
Si Si4 0.597825 0.597824 0.807184
Si Si5 0.255657 0.054449 0.087450
O O1 0.869193 0.630808 0.123774
O O2 0.725375 0.446736 0.152977
O O3 0.640756 0.640753 0.072171
O O4 0.794349 0.499996 0.000001
O O5 0.613464 0.113464 0.528665
O O6 0.786276 0.040436 0.425867
O O7 0.613462 0.886539 0.471337
O O8 0.786271 0.959562 0.574138
O O9 0.250005 0.750005 0.353012
O O10 0.100622 0.899383 0.291319
O O11 0.500000 0.500000 0.834322
O O12 0.725374 0.553263 0.847026
O O13 0.369188 0.130813 0.123775
#
# Coordination Sequence:
#
# PCOD8308672 Si02
#       5
#     8   8   8   8   8
#     4  10  20  36  59  84 116 157 197 238 286 340
#     4   9  20  39  60  86 120 151 188 239 286 340
#     4  10  22  38  60  86 113 154 194 232 291 347
#     4  10  22  36  56  86 121 152 188 243 292 334
#     4  10  20  36  59  84 116 157 197 238 286 340
#
# _framework density 20.418519
#
# number of rings (size 3 to 8) (size 9 to 14) (size 15 to 20)
#    0.000    2.200    2.000    0.000    2.800    3.600 
#    0.000    0.000    0.000    0.000    0.000    0.000 
#    0.000    0.000    0.000    0.000    0.000    0.000 
#
# Total GULP energy -495861.843831 kJ/mol
# GULP energy per Si atom -12396.546096 kJ/mol
# Density = 2.037205 g / cm^3
# Si number density = 20.418519 Si / 1000 Ang^3
#
#
#
# Elastic Constant Matrix: (Units=GPa)
#
#
# Indices 1 2 3 4 5 6 
#
# 1 93.3573 59.2563 58.3577 0.0000 0.0000 0.0000
# 2 59.2563 93.3570 58.3573 0.0000 0.0000 0.0000
# 3 58.3577 58.3573 140.1079 0.0000 0.0000 0.0000
# 4 0.0000 0.0000 0.0000 16.5703 0.0000 0.0000
# 5 0.0000 0.0000 0.0000 0.0000 16.5708 0.0000
# 6 0.0000 0.0000 0.0000 0.0000 0.0000 30.6794
#
#
#
# Elastic Compliance Matrix: (Units=1/GPa)
#
#
# Indices 1 2 3 4 5 6 
#
# 1 0.019470 -0.009855 -0.004005 0.000000 0.000000 0.000000
# 2 -0.009855 0.019470 -0.004005 0.000000 0.000000 0.000000
# 3 -0.004005 -0.004005 0.010474 0.000000 0.000000 0.000000
# 4 0.000000 0.000000 0.000000 0.060349 0.000000 0.000000
# 5 0.000000 0.000000 0.000000 0.000000 0.060347 0.000000
# 6 0.000000 0.000000 0.000000 0.000000 0.000000 0.032595
#
#
# Mechanical properties :
#
#
# Convention : Reuss Voigt Hill
#
# Bulk Modulus (GPa) = 73.07525 75.41829 74.24677
# Shear Modulus (GPa) = 20.57648 22.82084 21.69866
#
# Velocity S-wave (km/s) = 3.17793 3.34676 3.26344
# Velocity P-wave (km/s) = 7.02368 7.20769 7.11628
#
# Compressibility (1/GPa) = 0.01368452
#
# Stress axis : x y z
#
# Youngs Moduli (GPa) = 51.36078 51.36081 95.47751
#
# Poissons Ratio (x) = 0.50614 0.38239
# Poissons Ratio (y) = 0.50614 0.38238
# Poissons Ratio (z) = 0.20570 0.20570
#
# Static dielectric constant tensor:
#      x y z
#    x 3.842300 0.000000 0.000000 
#    y 0.000000 3.842290 0.000000 
#    z 0.000000 0.000000 3.349460 
# 
# 
# High freq. dielectric constant tensor:
#      x y z
#    x 1.802500 0.000000 0.000000 
#    y 0.000000 1.802500 0.000000 
#    z 0.000000 0.000000 1.773910 
# 
# From -- ./inp_files/2151.got.cif
#   From: 2010.03.12/outbox.cif.g09.slc.cpg/sg113_cif.got.tgz:2151.got - 2010.04.14 02:06:34.
