data_PCOD8308312
_publ_section_title
;
Structure prediction by ZEFSAII (Michael W. Deem and Ramdas Pophale) SiO2 
 PCOD8308312
Probable space group: P -4 2 C
;
_chemical_formula_sum "Si O2"
_cell_formula_units_Z 56
_cell_length_a 20.093621
_cell_length_b 20.093621
_cell_length_c 10.295715
_cell_angle_alpha 90.000000
_cell_angle_beta 90.000000
_cell_angle_gamma 90.000000
_cell_volume 4156.932046
_symmetry_space_group_name_H-M "P -4 2 C"
_symmetry_group_IT_number 112
_symmetry_cell_setting 'tetragonal'
loop_
_space_group_symop_operation_xyz
x,y,z
y,-x,-z
-x,-y,z
-y,x,-z
x,-y,1/2-z
-x,y,1/2-z
-y,-x,1/2+z
y,x,1/2+z
loop_
_atom_site_type_symbol
_atom_site_label
_atom_site_fract_x
_atom_site_fract_y
_atom_site_fract_z
Si Si1 0.924442 0.075540 0.017438
Si Si2 0.078731 0.640582 0.989712
Si Si3 0.079130 0.711153 0.250923
Si Si4 0.920587 0.499599 0.897611
Si Si5 0.920947 0.269989 0.750245
Si Si6 0.078447 0.639702 0.511504
Si Si7 0.872274 0.142891 0.266630
O O1 0.873744 0.105270 0.912777
O O2 0.918436 0.108154 0.158790
O O3 0.997822 0.089909 0.963881
O O4 0.102178 0.668238 0.127678
O O5 0.108122 0.566437 0.968001
O O6 0.102460 0.690787 0.877948
O O7 0.000190 0.635245 0.983096
O O8 0.102177 0.668873 0.374930
O O9 0.120915 0.778578 0.248783
O O10 0.000000 0.726329 0.250000
O O11 0.895051 0.500000 0.750000
O O12 0.892299 0.565256 0.969953
O O13 0.000000 0.500000 0.900074
O O14 0.897661 0.312534 0.626819
O O15 0.879944 0.202493 0.743465
O O16 0.000000 0.255065 0.750000
#
# Coordination Sequence:
#
# PCOD8308312 Si02
#       7
#     8   8   8   8   8   8   8
#     4  11  22  34  46  58  70  92 134 184 226 262
#     4   9  17  28  43  61  80  98 121 154 195 245
#     4  10  20  31  40  56  81 104 127 162 205 245
#     4   9  14  25  45  65  79  95 117 145 189 240
#     4  10  18  29  44  60  75 100 137 170 203 247
#     4   9  17  28  43  61  80  98 121 154 195 245
#     4  12  22  33  46  58  78 106 134 170 218 257
#
# _framework density 13.471474000000001
#
# number of rings (size 3 to 8) (size 9 to 14) (size 15 to 20)
#    0.000    2.000    1.429    4.286    0.000    4.000 
#    0.000    2.857    0.000    0.000    0.000    0.000 
#    0.000    0.000    0.000    0.000    0.000    0.000 
#
# Total GULP energy -694386.268940 kJ/mol
# GULP energy per Si atom -12399.754802 kJ/mol
# Density = 1.344081 g / cm^3
# Si number density = 13.471474 Si / 1000 Ang^3
#
#
#
# Elastic Constant Matrix: (Units=GPa)
#
#
# Indices 1 2 3 4 5 6 
#
# 1 73.7463 28.7951 32.8020 0.0000 0.0000 0.0000
# 2 28.7951 73.7463 32.8020 0.0000 0.0000 0.0000
# 3 32.8020 32.8020 104.6983 0.0000 0.0000 0.0000
# 4 0.0000 0.0000 0.0000 13.8475 0.0000 0.0000
# 5 0.0000 0.0000 0.0000 0.0000 13.8475 0.0000
# 6 0.0000 0.0000 0.0000 0.0000 0.0000 5.7501
#
#
#
# Elastic Compliance Matrix: (Units=1/GPa)
#
#
# Indices 1 2 3 4 5 6 
#
# 1 0.017222 -0.005025 -0.003821 0.000000 0.000000 0.000000
# 2 -0.005025 0.017222 -0.003821 0.000000 0.000000 0.000000
# 3 -0.003821 -0.003821 0.011946 0.000000 0.000000 0.000000
# 4 0.000000 0.000000 0.000000 0.072215 0.000000 0.000000
# 5 0.000000 0.000000 0.000000 0.000000 0.072215 0.000000
# 6 0.000000 0.000000 0.000000 0.000000 0.000000 0.173909
#
#
# Mechanical properties :
#
#
# Convention : Reuss Voigt Hill
#
# Bulk Modulus (GPa) = 47.49610 48.99880 48.24745
# Shear Modulus (GPa) = 12.59190 17.20849 14.90019
#
# Velocity S-wave (km/s) = 3.06062 3.57795 3.32935
# Velocity P-wave (km/s) = 6.91543 7.31575 7.11841
#
# Compressibility (1/GPa) = 0.02105436
#
# Stress axis : x y z
#
# Youngs Moduli (GPa) = 58.06641 58.06641 83.71218
#
# Poissons Ratio (x) = 0.29177 0.31989
# Poissons Ratio (y) = 0.29177 0.31989
# Poissons Ratio (z) = 0.22189 0.22189
#
# Static dielectric constant tensor:
#      x y z
#    x 2.553020 0.000000 0.000000 
#    y 0.000000 2.553020 0.000000 
#    z 0.000000 0.000000 3.080200 
# 
# 
# High freq. dielectric constant tensor:
#      x y z
#    x 1.478110 0.000000 0.000000 
#    y 0.000000 1.478110 0.000000 
#    z 0.000000 0.000000 1.534470 
# 
# From -- ./inp_files/1592.got.cif
#   From: 2010.03.12/outbox.cif.g09.slc.cpg/sg112_1_cif.got.tgz:1592.got - 2010.04.14 02:02:48.
