data_PCOD8308482
_publ_section_title
;
Structure prediction by ZEFSAII (Michael W. Deem and Ramdas Pophale) SiO2 
 PCOD8308482
Probable space group: P -4 2 C
;
_chemical_formula_sum "Si O2"
_cell_formula_units_Z 40
_cell_length_a 8.860668
_cell_length_b 8.860668
_cell_length_c 22.583193
_cell_angle_alpha 90.000000
_cell_angle_beta 90.000000
_cell_angle_gamma 90.000000
_cell_volume 1773.038944
_symmetry_space_group_name_H-M "P -4 2 C"
_symmetry_group_IT_number 112
_symmetry_cell_setting 'tetragonal'
loop_
_space_group_symop_operation_xyz
x,y,z
y,-x,-z
-x,-y,z
-y,x,-z
x,-y,1/2-z
-x,y,1/2-z
-y,-x,1/2+z
y,x,1/2+z
loop_
_atom_site_type_symbol
_atom_site_label
_atom_site_fract_x
_atom_site_fract_y
_atom_site_fract_z
Si Si1 0.174449 0.466327 0.682432
Si Si2 0.718145 0.323624 0.120258
Si Si3 0.823132 0.824048 0.999551
Si Si4 0.036245 0.829250 0.182287
Si Si5 0.325752 0.213185 0.620853
O O1 0.218286 0.500000 0.750000
O O2 0.286025 0.544374 0.634033
O O3 0.213950 0.293214 0.668430
O O4 0.000000 0.500000 0.669534
O O5 0.747789 0.499940 0.129956
O O6 0.790547 0.213415 0.170710
O O7 0.768282 0.274618 0.055394
O O8 0.759313 0.726049 0.053754
O O9 0.999659 0.793249 0.988005
O O10 0.959823 0.707272 0.138134
O O11 0.000000 0.801180 0.250000
O O12 0.000000 0.000000 0.162206
#
# Coordination Sequence:
#
# PCOD8308482 Si02
#       5
#     8   8   8   8   8
#     4  11  25  47  73 101 139 189 236 287 358 437
#     4  12  26  43  68 103 140 183 233 298 361 419
#     4  11  24  44  69  94 136 186 241 290 351 434
#     4  11  23  43  71 103 139 181 232 283 346 427
#     4  12  26  43  68 103 140 183 233 298 361 419
#
# _framework density 22.560137999999998
#
# number of rings (size 3 to 8) (size 9 to 14) (size 15 to 20)
#    0.000    0.600    2.000    6.000    2.800    8.000 
#    0.000    0.000    0.000    0.000    0.000    0.000 
#    0.000    0.000    0.000    0.000    0.000    0.000 
#
# Total GULP energy -496051.368380 kJ/mol
# GULP energy per Si atom -12401.284210 kJ/mol
# Density = 2.250879 g / cm^3
# Si number density = 22.560138 Si / 1000 Ang^3
#
#
#
# Elastic Constant Matrix: (Units=GPa)
#
#
# Indices 1 2 3 4 5 6 
#
# 1 98.3386 21.3789 33.4132 0.0000 0.0000 0.0000
# 2 21.3789 98.3386 33.4132 0.0000 0.0000 0.0000
# 3 33.4132 33.4132 118.8432 0.0000 0.0000 0.0000
# 4 0.0000 0.0000 0.0000 38.3080 0.0000 0.0000
# 5 0.0000 0.0000 0.0000 0.0000 38.3080 0.0000
# 6 0.0000 0.0000 0.0000 0.0000 0.0000 39.9813
#
#
#
# Elastic Compliance Matrix: (Units=1/GPa)
#
#
# Indices 1 2 3 4 5 6 
#
# 1 0.011451 -0.001543 -0.002786 0.000000 0.000000 0.000000
# 2 -0.001543 0.011451 -0.002786 0.000000 0.000000 0.000000
# 3 -0.002786 -0.002786 0.009981 0.000000 0.000000 0.000000
# 4 0.000000 0.000000 0.000000 0.026104 0.000000 0.000000
# 5 0.000000 0.000000 0.000000 0.000000 0.026104 0.000000
# 6 0.000000 0.000000 0.000000 0.000000 0.000000 0.025012
#
#
# Mechanical properties :
#
#
# Convention : Reuss Voigt Hill
#
# Bulk Modulus (GPa) = 53.60747 54.65901 54.13324
# Shear Modulus (GPa) = 38.29971 38.47378 38.38674
#
# Velocity S-wave (km/s) = 4.12475 4.13411 4.12944
# Velocity P-wave (km/s) = 6.81897 6.86066 6.83985
#
# Compressibility (1/GPa) = 0.01865412
#
# Stress axis : x y z
#
# Youngs Moduli (GPa) = 87.32948 87.32948 100.19189
#
# Poissons Ratio (x) = 0.13474 0.27910
# Poissons Ratio (y) = 0.13474 0.27910
# Poissons Ratio (z) = 0.24327 0.24327
#
# Static dielectric constant tensor:
#      x y z
#    x 4.058650 0.000000 0.000000 
#    y 0.000000 4.058650 0.000000 
#    z 0.000000 0.000000 3.931750 
# 
# 
# High freq. dielectric constant tensor:
#      x y z
#    x 1.898840 0.000000 0.000000 
#    y 0.000000 1.898840 0.000000 
#    z 0.000000 0.000000 1.896710 
# 
# From -- ./inp_files/5309.got.cif
#   From: 2010.03.12/outbox.cif.g09.slc.cpg/sg112_3_cif.got.tgz:5309.got - 2010.04.14 02:02:48.
