data_PCOD8308322
_publ_section_title
;
Structure prediction by ZEFSAII (Michael W. Deem and Ramdas Pophale) SiO2 
 PCOD8308322
Probable space group: P -4 2 C
;
_chemical_formula_sum "Si O2"
_cell_formula_units_Z 48
_cell_length_a 9.499895
_cell_length_b 9.499895
_cell_length_c 27.406913
_cell_angle_alpha 90.000000
_cell_angle_beta 90.000000
_cell_angle_gamma 90.000000
_cell_volume 2473.419222
_symmetry_space_group_name_H-M "P -4 2 C"
_symmetry_group_IT_number 112
_symmetry_cell_setting 'tetragonal'
loop_
_space_group_symop_operation_xyz
x,y,z
y,-x,-z
-x,-y,z
-y,x,-z
x,-y,1/2-z
-x,y,1/2-z
-y,-x,1/2+z
y,x,1/2+z
loop_
_atom_site_type_symbol
_atom_site_label
_atom_site_fract_x
_atom_site_fract_y
_atom_site_fract_z
Si Si1 0.164996 0.474288 0.387113
Si Si2 0.764464 0.138751 0.542532
Si Si3 0.257507 0.814676 0.943256
Si Si4 0.361528 0.579401 0.200669
Si Si5 0.916784 0.641050 0.798131
Si Si6 0.998040 0.158877 0.615797
O O1 0.201364 0.334059 0.415937
O O2 0.233236 0.594890 0.420969
O O3 0.234091 0.455448 0.334873
O O4 0.000000 0.500000 0.378620
O O5 0.727376 0.214716 0.491395
O O6 0.920213 0.167419 0.563265
O O7 0.738867 0.973539 0.537028
O O8 0.154134 0.790523 0.897398
O O9 0.500000 0.500000 0.179795
O O10 0.319822 0.500000 0.250000
O O11 0.384442 0.748374 0.210080
O O12 0.929127 0.749470 0.842126
O O13 0.000000 0.500000 0.813397
O O14 0.000000 0.698930 0.750000
O O15 0.000000 0.000000 0.635945
#
# Coordination Sequence:
#
# PCOD8308322 Si02
#       6
#     8   8   8   8   8   8
#     4  10  23  41  61  90 125 158 206 253 299 363
#     4  10  18  39  56  88 120 163 200 251 298 357
#     4  10  20  34  63  84 123 162 203 243 306 357
#     4  11  24  44  65  86 122 165 197 246 314 371
#     4  11  24  43  64  93 120 153 208 257 301 370
#     4  10  21  37  65  91 120 159 203 255 301 351
#
# _framework density 19.406334000000001
#
# number of rings (size 3 to 8) (size 9 to 14) (size 15 to 20)
#    0.000    1.667    3.333    2.000    4.667    0.667 
#    6.000    1.667    0.000    0.000    0.000    0.000 
#    0.000    0.000    0.000    0.000    0.000    0.000 
#
# Total GULP energy -594832.046161 kJ/mol
# GULP energy per Si atom -12392.334295 kJ/mol
# Density = 1.936216 g / cm^3
# Si number density = 19.406334 Si / 1000 Ang^3
#
#
#
# Elastic Constant Matrix: (Units=GPa)
#
#
# Indices 1 2 3 4 5 6 
#
# 1 82.3108 36.2006 44.4898 0.0000 0.0000 0.0000
# 2 36.2006 82.3108 44.4898 0.0000 0.0000 0.0000
# 3 44.4898 44.4898 95.2220 0.0000 0.0000 0.0000
# 4 0.0000 0.0000 0.0000 15.2832 0.0000 0.0000
# 5 0.0000 0.0000 0.0000 0.0000 15.2832 0.0000
# 6 0.0000 0.0000 0.0000 0.0000 0.0000 22.8380
#
#
#
# Elastic Compliance Matrix: (Units=1/GPa)
#
#
# Indices 1 2 3 4 5 6 
#
# 1 0.017342 -0.004345 -0.006073 0.000000 0.000000 0.000000
# 2 -0.004345 0.017342 -0.006073 0.000000 0.000000 0.000000
# 3 -0.006073 -0.006073 0.016176 0.000000 0.000000 0.000000
# 4 0.000000 0.000000 0.000000 0.065431 0.000000 0.000000
# 5 0.000000 0.000000 0.000000 0.000000 0.065431 0.000000
# 6 0.000000 0.000000 0.000000 0.000000 0.000000 0.043787
#
#
# Mechanical properties :
#
#
# Convention : Reuss Voigt Hill
#
# Bulk Modulus (GPa) = 55.92686 56.68932 56.30809
# Shear Modulus (GPa) = 18.90709 19.65844 19.28276
#
# Velocity S-wave (km/s) = 3.12472 3.18620 3.15561
# Velocity P-wave (km/s) = 6.47302 6.54301 6.50811
#
# Compressibility (1/GPa) = 0.01788050
#
# Stress axis : x y z
#
# Youngs Moduli (GPa) = 57.66245 57.66245 61.81863
#
# Poissons Ratio (x) = 0.25054 0.37541
# Poissons Ratio (y) = 0.25054 0.37541
# Poissons Ratio (z) = 0.35017 0.35017
#
# Static dielectric constant tensor:
#      x y z
#    x 3.590710 0.000000 0.000000 
#    y 0.000000 3.590710 0.000000 
#    z 0.000000 0.000000 3.440940 
# 
# 
# High freq. dielectric constant tensor:
#      x y z
#    x 1.750570 0.000000 0.000000 
#    y 0.000000 1.750570 0.000000 
#    z 0.000000 0.000000 1.761540 
# 
# From -- ./inp_files/6280.got.cif
#   From: 2010.03.12/outbox.cif.g09.slc.cpg/sg112_4_cif.got.tgz:6280.got - 2010.04.14 02:02:48.
