data_PCOD8308215
_publ_section_title
;
Structure prediction by ZEFSAII (Michael W. Deem and Ramdas Pophale) SiO2 
 PCOD8308215
Probable space group: P -4 2 M 
;
_chemical_formula_sum "Si O2"
_cell_formula_units_Z 64
_cell_length_a 16.844519
_cell_length_b 16.844519
_cell_length_c 13.291752
_cell_angle_alpha 90.000000
_cell_angle_beta 90.000000
_cell_angle_gamma 90.000000
_cell_volume 3771.372741
_symmetry_space_group_name_H-M "P -4 2 M "
_symmetry_group_IT_number 111
_symmetry_cell_setting 'tetragonal'
loop_
_space_group_symop_operation_xyz
x,y,z
y,-x,-z
-x,-y,z
-y,x,-z
x,-y,-z
-x,y,-z
-y,-x,z
y,x,z
loop_
_atom_site_type_symbol
_atom_site_label
_atom_site_fract_x
_atom_site_fract_y
_atom_site_fract_z
Si Si1 0.185766 0.056525 0.912439
Si Si2 0.717149 0.413674 0.952316
Si Si3 0.086327 0.782852 0.547682
Si Si4 0.443475 0.314234 0.587561
Si Si5 0.840437 0.708139 0.037555
Si Si6 0.084974 0.785457 0.783331
Si Si7 0.791861 0.659562 0.462445
Si Si8 0.285455 0.415026 0.283331
O O1 0.122809 0.122809 0.883488
O O2 0.201074 0.006721 0.812120
O O3 0.267869 0.095832 0.952436
O O4 0.151072 0.000000 0.000000
O O5 0.639909 0.360092 0.978839
O O6 0.800646 0.376377 0.991424
O O7 0.732658 0.414855 0.833537
O O8 0.703711 0.500000 0.000000
O O9 0.139908 0.860093 0.521155
O O10 0.085147 0.767346 0.666462
O O11 0.123623 0.699356 0.508575
O O12 0.000000 0.796290 0.500000
O O13 0.500000 0.348928 0.500000
O O14 0.377191 0.377191 0.616512
O O15 0.404168 0.232131 0.547564
O O16 0.493279 0.298927 0.687880
O O17 0.768851 0.768851 0.038974
O O18 0.880770 0.712476 0.149004
O O19 0.135519 0.864482 0.808463
O O20 0.731148 0.731148 0.461024
O O21 0.787525 0.619229 0.350997
O O22 0.364478 0.364478 0.308459
#
# Coordination Sequence:
#
# PCOD8308215 Si02
#       8
#     8   8   8   8   8   8   8   8
#     4   9  16  26  44  71  97 119 146 186 234 274
#     4  10  20  33  48  67  92 123 157 188 222 270
#     4  10  20  33  48  67  92 123 157 188 222 270
#     4   9  16  26  44  71  97 119 146 186 234 274
#     4   8  15  30  50  69  89 116 154 196 230 262
#     4   9  17  29  48  71  94 122 153 186 224 269
#     4   8  15  30  50  69  89 116 154 196 230 262
#     4   9  17  29  48  71  94 122 153 186 224 269
#
# _framework density 16.969947999999999
#
# number of rings (size 3 to 8) (size 9 to 14) (size 15 to 20)
#    0.000    3.000    0.000    3.000    0.000    6.000 
#    0.000    3.750    0.000   11.250    0.000   10.500 
#    0.000    0.000    0.000    0.000    0.000    0.000 
#
# Total GULP energy -792930.518346 kJ/mol
# GULP energy per Si atom -12389.539349 kJ/mol
# Density = 1.693132 g / cm^3
# Si number density = 16.969948 Si / 1000 Ang^3
#
#
#
# Elastic Constant Matrix: (Units=GPa)
#
#
# Indices 1 2 3 4 5 6 
#
# 1 79.1299 63.1683 29.9628 0.0000 0.0000 0.0000
# 2 63.1683 79.1291 29.9629 0.0000 0.0000 0.0000
# 3 29.9628 29.9629 32.1218 0.0000 0.0000 0.0000
# 4 0.0000 0.0000 0.0000 21.3700 0.0000 0.0000
# 5 0.0000 0.0000 0.0000 0.0000 21.3702 0.0000
# 6 0.0000 0.0000 0.0000 0.0000 0.0000 20.1659
#
#
#
# Elastic Compliance Matrix: (Units=1/GPa)
#
#
# Indices 1 2 3 4 5 6 
#
# 1 0.037113 -0.025539 -0.010796 0.000000 0.000000 0.000000
# 2 -0.025539 0.037113 -0.010797 0.000000 0.000000 0.000000
# 3 -0.010796 -0.010797 0.051273 0.000000 0.000000 0.000000
# 4 0.000000 0.000000 0.000000 0.046795 0.000000 0.000000
# 5 0.000000 0.000000 0.000000 0.000000 0.046794 0.000000
# 6 0.000000 0.000000 0.000000 0.000000 0.000000 0.049589
#
#
# Mechanical properties :
#
#
# Convention : Reuss Voigt Hill
#
# Bulk Modulus (GPa) = 32.01425 48.50765 40.26095
# Shear Modulus (GPa) = 13.39224 17.06701 15.22963
#
# Velocity S-wave (km/s) = 2.81227 3.17475 2.99899
# Velocity P-wave (km/s) = 5.42691 6.48731 5.98066
#
# Compressibility (1/GPa) = 0.03123609
#
# Stress axis : x y z
#
# Youngs Moduli (GPa) = 26.94503 26.94452 19.50358
#
# Poissons Ratio (x) = 0.68813 0.21056
# Poissons Ratio (y) = 0.68815 0.21057
# Poissons Ratio (z) = 0.29089 0.29091
#
# Static dielectric constant tensor:
#      x y z
#    x 3.354370 0.000000 0.000000 
#    y 0.000000 3.354380 0.000000 
#    z 0.000000 0.000000 3.008420 
# 
# 
# High freq. dielectric constant tensor:
#      x y z
#    x 1.639500 0.000000 0.000000 
#    y 0.000000 1.639500 0.000000 
#    z 0.000000 0.000000 1.639620 
# 
# From -- ./inp_files/2907.got.cif
#   From: 2010.03.12/outbox.cif.g09.slc.cpg/sg111_2_cif.got.tgz:2907.got - 2010.04.14 01:59:48.
