data_PCOD8308229
_publ_section_title
;
Structure prediction by ZEFSAII (Michael W. Deem and Ramdas Pophale) SiO2 
 PCOD8308229
Probable space group: P -4 2 M 
;
_chemical_formula_sum "Si O2"
_cell_formula_units_Z 48
_cell_length_a 12.555253
_cell_length_b 12.555253
_cell_length_c 17.019418
_cell_angle_alpha 90.000000
_cell_angle_beta 90.000000
_cell_angle_gamma 90.000000
_cell_volume 2682.845369
_symmetry_space_group_name_H-M "P -4 2 M "
_symmetry_group_IT_number 111
_symmetry_cell_setting 'tetragonal'
loop_
_space_group_symop_operation_xyz
x,y,z
y,-x,-z
-x,-y,z
-y,x,-z
x,-y,-z
-x,y,-z
-y,-x,z
y,x,z
loop_
_atom_site_type_symbol
_atom_site_label
_atom_site_fract_x
_atom_site_fract_y
_atom_site_fract_z
Si Si1 0.795411 0.622706 0.683710
Si Si2 0.621433 0.796761 1.000000
Si Si3 0.122208 0.706282 0.158207
Si Si4 0.000000 0.626531 0.411385
Si Si5 0.795412 0.377294 0.683711
Si Si6 0.706283 0.122207 0.841793
O O1 0.691710 0.691710 0.662023
O O2 0.824589 0.632920 0.775291
O O3 0.894035 0.667302 0.632447
O O4 0.769328 0.500000 0.664466
O O5 0.689088 0.689088 0.999998
O O6 0.645506 0.868096 0.924080
O O7 0.500000 0.760307 0.000000
O O8 0.645509 0.868095 0.075919
O O9 0.179310 0.820691 0.154337
O O10 0.000001 0.727175 0.178433
O O11 0.000000 0.500000 0.409643
O O12 0.000000 0.671119 0.500000
O O13 0.894036 0.667302 0.367552
O O14 0.691712 0.308289 0.662025
O O15 0.824592 0.367082 0.775291
O O16 0.820691 0.179310 0.845659
#
# Coordination Sequence:
#
# PCOD8308229 Si02
#       6
#     8   8   8   8   8   8
#     4  10  20  34  54  80 109 141 177 218 265 316
#     4  10  21  34  50  74 102 136 177 218 262 312
#     4  10  20  34  52  76 105 138 177 219 263 311
#     4   9  18  34  56  78 102 136 175 214 259 315
#     4  10  20  34  54  80 109 141 177 218 265 316
#     4  10  20  34  52  76 105 138 177 219 263 311
#
# _framework density 17.891452000000001
#
# number of rings (size 3 to 8) (size 9 to 14) (size 15 to 20)
#    0.000    2.167    1.667    1.500    0.000    4.167 
#    0.000    0.000    0.000    9.500    0.000    5.833 
#    0.000    0.000    0.000    0.000    0.000    0.000 
#
# Total GULP energy -595326.713263 kJ/mol
# GULP energy per Si atom -12402.639860 kJ/mol
# Density = 1.785073 g / cm^3
# Si number density = 17.891452 Si / 1000 Ang^3
#
#
#
# Elastic Constant Matrix: (Units=GPa)
#
#
# Indices 1 2 3 4 5 6 
#
# 1 109.0869 56.8197 26.9215 0.0000 0.0000 0.0000
# 2 56.8197 109.0859 26.9213 0.0000 0.0000 0.0000
# 3 26.9215 26.9213 105.2144 0.0000 0.0000 0.0000
# 4 0.0000 0.0000 0.0000 20.9591 0.0000 0.0000
# 5 0.0000 0.0000 0.0000 0.0000 20.9592 0.0000
# 6 0.0000 0.0000 0.0000 0.0000 0.0000 16.0407
#
#
#
# Elastic Compliance Matrix: (Units=1/GPa)
#
#
# Indices 1 2 3 4 5 6 
#
# 1 0.012853 -0.006280 -0.001682 0.000000 0.000000 0.000000
# 2 -0.006280 0.012853 -0.001682 0.000000 0.000000 0.000000
# 3 -0.001682 -0.001682 0.010365 0.000000 0.000000 0.000000
# 4 0.000000 0.000000 0.000000 0.047712 0.000000 0.000000
# 5 0.000000 0.000000 0.000000 0.000000 0.047712 0.000000
# 6 0.000000 0.000000 0.000000 0.000000 0.000000 0.062342
#
#
# Mechanical properties :
#
#
# Convention : Reuss Voigt Hill
#
# Bulk Modulus (GPa) = 59.58025 60.52359 60.05192
# Shear Modulus (GPa) = 22.86047 25.77343 24.31695
#
# Velocity S-wave (km/s) = 3.57841 3.79957 3.69065
# Velocity P-wave (km/s) = 7.10258 7.29045 7.19713
#
# Compressibility (1/GPa) = 0.01678409
#
# Stress axis : x y z
#
# Youngs Moduli (GPa) = 77.80327 77.80258 96.47739
#
# Poissons Ratio (x) = 0.48857 0.16227
# Poissons Ratio (y) = 0.48858 0.16227
# Poissons Ratio (z) = 0.13086 0.13086
#
# Static dielectric constant tensor:
#      x y z
#    x 3.167760 0.000000 0.000000 
#    y 0.000000 3.167760 0.000000 
#    z 0.000000 0.000000 3.497280 
# 
# 
# High freq. dielectric constant tensor:
#      x y z
#    x 1.682550 0.000000 0.000000 
#    y 0.000000 1.682550 0.000000 
#    z 0.000000 0.000000 1.702000 
# 
# From -- ./inp_files/3605.got.cif
#   From: 2010.03.12/outbox.cif.g09.slc.cpg/sg111_2_cif.got.tgz:3605.got - 2010.04.14 01:59:48.
