data_PCOD8308111
_publ_section_title
;
Structure prediction by ZEFSAII (Michael W. Deem and Ramdas Pophale) SiO2 
 PCOD8308111
Probable space group: P -4 2 M 
;
_chemical_formula_sum "Si O2"
_cell_formula_units_Z 48
_cell_length_a 19.135191
_cell_length_b 19.135191
_cell_length_c 8.765247
_cell_angle_alpha 90.000000
_cell_angle_beta 90.000000
_cell_angle_gamma 90.000000
_cell_volume 3209.443701
_symmetry_space_group_name_H-M "P -4 2 M "
_symmetry_group_IT_number 111
_symmetry_cell_setting 'tetragonal'
loop_
_space_group_symop_operation_xyz
x,y,z
y,-x,-z
-x,-y,z
-y,x,-z
x,-y,-z
-x,y,-z
-y,-x,z
y,x,z
loop_
_atom_site_type_symbol
_atom_site_label
_atom_site_fract_x
_atom_site_fract_y
_atom_site_fract_z
Si Si1 0.474791 0.363445 0.326882
Si Si2 0.007899 0.582807 0.169015
Si Si3 0.292005 0.403000 0.841619
Si Si4 0.411022 0.129857 0.333912
Si Si5 0.851823 0.424074 0.322428
Si Si6 0.736578 0.626153 0.178735
O O1 0.500000 0.364699 0.500000
O O2 0.437735 0.437735 0.285174
O O3 0.538660 0.347497 0.213435
O O4 0.418314 0.301765 0.310574
O O5 0.947749 0.611300 0.281961
O O6 0.000000 0.500000 0.165231
O O7 0.083699 0.607166 0.226743
O O8 0.000000 0.614354 0.000000
O O9 0.327976 0.327976 0.820523
O O10 0.221844 0.400477 0.743879
O O11 0.272854 0.415229 0.019038
O O12 0.391707 0.140754 0.509606
O O13 0.492792 0.144316 0.314581
O O14 0.368016 0.182694 0.225496
O O15 0.703594 0.703594 0.168369
#
# Coordination Sequence:
#
# PCOD8308111 Si02
#       6
#     8   8   8   8   8   8
#     4  11  22  35  48  61  77 102 138 184 230 270
#     4   9  17  28  45  67  87 110 133 165 208 254
#     4  11  22  34  48  63  82 110 143 180 222 265
#     4  10  18  30  47  65  87 109 136 174 212 256
#     4  10  19  30  46  66  86 108 137 174 213 258
#     4  10  21  34  48  64  83 110 142 177 220 266
#
# _framework density 14.955862
#
# number of rings (size 3 to 8) (size 9 to 14) (size 15 to 20)
#    0.000    1.833    1.667    3.500    0.000    6.500 
#    0.000    0.833    0.000    6.000    0.000    0.000 
#    0.000    0.000    0.000    0.000    0.000    0.833 
#
# Total GULP energy -595114.816053 kJ/mol
# GULP energy per Si atom -12398.225334 kJ/mol
# Density = 1.492182 g / cm^3
# Si number density = 14.955862 Si / 1000 Ang^3
#
#
#
# Elastic Constant Matrix: (Units=GPa)
#
#
# Indices 1 2 3 4 5 6 
#
# 1 68.5893 34.0262 42.8812 0.0000 0.0000 0.0000
# 2 34.0262 68.5893 42.8812 0.0000 0.0000 0.0000
# 3 42.8812 42.8812 108.7651 0.0000 0.0000 0.0000
# 4 0.0000 0.0000 0.0000 22.0305 0.0000 0.0000
# 5 0.0000 0.0000 0.0000 0.0000 22.0305 0.0000
# 6 0.0000 0.0000 0.0000 0.0000 0.0000 9.1639
#
#
#
# Elastic Compliance Matrix: (Units=1/GPa)
#
#
# Indices 1 2 3 4 5 6 
#
# 1 0.021733 -0.007199 -0.005730 0.000000 0.000000 0.000000
# 2 -0.007199 0.021733 -0.005730 0.000000 0.000000 0.000000
# 3 -0.005730 -0.005730 0.013712 0.000000 0.000000 0.000000
# 4 0.000000 0.000000 0.000000 0.045392 0.000000 0.000000
# 5 0.000000 0.000000 0.000000 0.000000 0.045392 0.000000
# 6 0.000000 0.000000 0.000000 0.000000 0.000000 0.109124
#
#
# Mechanical properties :
#
#
# Convention : Reuss Voigt Hill
#
# Bulk Modulus (GPa) = 50.35222 53.94678 52.14950
# Shear Modulus (GPa) = 16.60989 19.05533 17.83261
#
# Velocity S-wave (km/s) = 3.33617 3.57333 3.45679
# Velocity P-wave (km/s) = 6.96996 7.29204 7.13282
#
# Compressibility (1/GPa) = 0.01986010
#
# Stress axis : x y z
#
# Youngs Moduli (GPa) = 46.01211 46.01211 72.92650
#
# Poissons Ratio (x) = 0.33125 0.41788
# Poissons Ratio (y) = 0.33125 0.41788
# Poissons Ratio (z) = 0.26366 0.26366
#
# Static dielectric constant tensor:
#      x y z
#    x 2.748770 0.000000 0.000000 
#    y 0.000000 2.748770 0.000000 
#    z 0.000000 0.000000 3.089030 
# 
# 
# High freq. dielectric constant tensor:
#      x y z
#    x 1.538770 0.000000 0.000000 
#    y 0.000000 1.538770 0.000000 
#    z 0.000000 0.000000 1.594250 
# 
# From -- ./inp_files/1762.got.cif
#   From: 2010.03.12/outbox.cif.g09.slc.cpg/sg111_1_cif.got.tgz:1762.got - 2010.04.14 01:59:48.
