data_PCOD8308705
_publ_section_title
;
Structure prediction by ZEFSAII (Michael W. Deem and Ramdas Pophale) SiO2 
 PCOD8308705
Probable space group: P -4 21 M 
;
_chemical_formula_sum "Si O2"
_cell_formula_units_Z 56
_cell_length_a 12.413435
_cell_length_b 12.413435
_cell_length_c 20.523049
_cell_angle_alpha 90.000000
_cell_angle_beta 90.000000
_cell_angle_gamma 90.000000
_cell_volume 3162.465752
_symmetry_space_group_name_H-M "P -4 21 M "
_symmetry_group_IT_number 113
_symmetry_cell_setting 'tetragonal'
loop_
_space_group_symop_operation_xyz
x,y,z
y,-x,-z
-x,-y,z
-y,x,-z
1/2+x,1/2-y,-z
1/2-x,1/2+y,-z
1/2-y,1/2-x,z
1/2+y,1/2+x,z
loop_
_atom_site_type_symbol
_atom_site_label
_atom_site_fract_x
_atom_site_fract_y
_atom_site_fract_z
Si Si1 0.393882 0.277520 0.584933
Si Si2 0.139011 0.181308 0.715921
Si Si3 0.032120 0.161030 0.977922
Si Si4 0.429166 0.392899 0.852277
Si Si5 0.177298 0.497835 0.083015
Si Si6 0.325833 0.006902 0.356941
Si Si7 0.762821 0.566315 0.512475
O O1 0.340756 0.159245 0.587259
O O2 0.398949 0.325391 0.657851
O O3 0.512925 0.272215 0.555502
O O4 0.326791 0.351781 0.536411
O O5 0.229182 0.270818 0.727624
O O6 0.121689 0.116434 0.780990
O O7 0.024812 0.234899 0.695480
O O8 0.085921 0.165155 0.905973
O O9 0.024352 0.280106 0.009256
O O10 0.913394 0.107089 0.975185
O O11 0.500000 0.500000 0.853156
O O12 0.491953 0.282195 0.870351
O O13 0.102743 0.397258 0.105393
O O14 0.107616 0.607616 0.084414
O O15 0.407054 0.907054 0.361313
O O16 0.279074 0.022354 0.429939
O O17 0.383734 0.116267 0.333593
O O18 0.874075 0.625926 0.497491
#
# Coordination Sequence:
#
# PCOD8308705 Si02
#       7
#     8   8   8   8   8   8   8
#     4   9  18  33  49  72 104 130 172 223 264 324
#     4   9  19  34  51  73 104 145 180 216 267 320
#     4   9  16  34  56  81 106 136 175 220 269 317
#     4  11  20  38  57  78 110 149 189 217 264 328
#     4  10  21  36  58  88 115 142 181 228 274 321
#     4   8  14  28  50  73  97 127 169 219 271 321
#     4   9  17  30  50  74  99 132 172 221 277 324
#
# _framework density 17.707701
#
# number of rings (size 3 to 8) (size 9 to 14) (size 15 to 20)
#    0.000    2.714    2.857    2.571    0.000    4.000 
#    5.143    2.143    0.000    2.571    0.000    0.000 
#    0.000    0.000    0.000    0.000    0.000    0.000 
#
# Total GULP energy -693898.871865 kJ/mol
# GULP energy per Si atom -12391.051283 kJ/mol
# Density = 1.766740 g / cm^3
# Si number density = 17.707701 Si / 1000 Ang^3
#
#
#
# Elastic Constant Matrix: (Units=GPa)
#
#
# Indices 1 2 3 4 5 6 
#
# 1 85.3454 41.1204 53.3058 0.0000 0.0000 0.0000
# 2 41.1204 85.3457 53.3056 0.0000 0.0000 0.0000
# 3 53.3058 53.3056 143.3147 0.0000 0.0000 0.0000
# 4 0.0000 0.0000 0.0000 21.8661 0.0000 0.0000
# 5 0.0000 0.0000 0.0000 0.0000 21.8657 0.0000
# 6 0.0000 0.0000 0.0000 0.0000 0.0000 17.8858
#
#
#
# Elastic Compliance Matrix: (Units=1/GPa)
#
#
# Indices 1 2 3 4 5 6 
#
# 1 0.017065 -0.005546 -0.004285 0.000000 0.000000 0.000000
# 2 -0.005546 0.017065 -0.004284 0.000000 0.000000 0.000000
# 3 -0.004285 -0.004284 0.010165 0.000000 0.000000 0.000000
# 4 0.000000 0.000000 0.000000 0.045733 0.000000 0.000000
# 5 0.000000 0.000000 0.000000 0.000000 0.045734 0.000000
# 6 0.000000 0.000000 0.000000 0.000000 0.000000 0.055910
#
#
# Mechanical properties :
#
#
# Convention : Reuss Voigt Hill
#
# Bulk Modulus (GPa) = 62.24685 67.71883 64.98284
# Shear Modulus (GPa) = 22.19676 23.40845 22.80260
#
# Velocity S-wave (km/s) = 3.54433 3.63979 3.59238
# Velocity P-wave (km/s) = 7.20961 7.48263 7.34739
#
# Compressibility (1/GPa) = 0.01606507
#
# Stress axis : x y z
#
# Youngs Moduli (GPa) = 58.59808 58.59845 98.37777
#
# Poissons Ratio (x) = 0.32500 0.42151
# Poissons Ratio (y) = 0.32500 0.42150
# Poissons Ratio (z) = 0.25107 0.25106
#
# Static dielectric constant tensor:
#      x y z
#    x 3.204090 0.000000 0.000000 
#    y 0.000000 3.204090 0.000000 
#    z 0.000000 0.000000 3.360230 
# 
# 
# High freq. dielectric constant tensor:
#      x y z
#    x 1.671500 0.000000 0.000000 
#    y 0.000000 1.671500 0.000000 
#    z 0.000000 0.000000 1.674460 
# 
# From -- ./inp_files/2663.got.cif
#   From: 2010.03.12/outbox.cif.g09.slc.cpg/sg113_cif.got.tgz:2663.got - 2010.04.14 02:06:34.
