data_PCOD8308718
_publ_section_title
;
Structure prediction by ZEFSAII (Michael W. Deem and Ramdas Pophale) SiO2 
 PCOD8308718
Probable space group: P -4 21 M 
;
_chemical_formula_sum "Si O2"
_cell_formula_units_Z 40
_cell_length_a 11.031616
_cell_length_b 11.031616
_cell_length_c 15.538918
_cell_angle_alpha 90.000000
_cell_angle_beta 90.000000
_cell_angle_gamma 90.000000
_cell_volume 1891.032736
_symmetry_space_group_name_H-M "P -4 21 M "
_symmetry_group_IT_number 113
_symmetry_cell_setting 'tetragonal'
loop_
_space_group_symop_operation_xyz
x,y,z
y,-x,-z
-x,-y,z
-y,x,-z
1/2+x,1/2-y,-z
1/2-x,1/2+y,-z
1/2-y,1/2-x,z
1/2+y,1/2+x,z
loop_
_atom_site_type_symbol
_atom_site_label
_atom_site_fract_x
_atom_site_fract_y
_atom_site_fract_z
Si Si1 0.405775 0.716757 0.576845
Si Si2 0.694311 0.000060 0.989209
Si Si3 0.835897 0.144289 0.389419
Si Si4 0.903697 0.106514 0.881182
Si Si5 0.761162 0.926063 0.292509
O O1 0.357424 0.857424 0.582338
O O2 0.526926 0.684906 0.630043
O O3 0.429788 0.678838 0.478198
O O4 0.303814 0.633779 0.619020
O O5 0.606507 0.106507 0.025282
O O6 0.612074 0.887926 0.954639
O O7 0.779436 0.952236 0.065031
O O8 0.774594 0.055316 0.912392
O O9 0.770348 0.270348 0.400258
O O10 0.775517 0.069896 0.309647
O O11 0.885330 0.151317 0.784522
O O12 0.000000 0.000000 0.889222
O O13 0.623081 0.876920 0.274840
#
# Coordination Sequence:
#
# PCOD8308718 Si02
#       5
#     8   8   8   8   8
#     4  10  21  38  61  90 126 169 216 266 324 390
#     4  11  23  41  67  97 134 176 217 268 326 389
#     4  11  22  38  63  92 126 172 215 266 332 392
#     4  12  23  42  69  97 131 176 217 267 328 391
#     4  11  24  41  64  93 127 167 217 272 321 383
#
# _framework density 21.152464999999999
#
# number of rings (size 3 to 8) (size 9 to 14) (size 15 to 20)
#    0.000    1.000    4.000    3.600    0.000    1.600 
#    0.000    5.000    0.000    1.200    0.000    0.000 
#    0.000    0.000    0.000    0.000    0.000    0.000 
#
# Total GULP energy -495696.962572 kJ/mol
# GULP energy per Si atom -12392.424064 kJ/mol
# Density = 2.110432 g / cm^3
# Si number density = 21.152465 Si / 1000 Ang^3
#
#
#
# Elastic Constant Matrix: (Units=GPa)
#
#
# Indices 1 2 3 4 5 6 
#
# 1 105.3652 75.0047 24.4930 0.0000 0.0000 0.0000
# 2 75.0047 105.3643 24.4927 0.0000 0.0000 0.0000
# 3 24.4930 24.4927 81.4714 0.0000 0.0000 0.0000
# 4 0.0000 0.0000 0.0000 22.4514 0.0000 0.0000
# 5 0.0000 0.0000 0.0000 0.0000 22.4523 0.0000
# 6 0.0000 0.0000 0.0000 0.0000 0.0000 38.4405
#
#
#
# Elastic Compliance Matrix: (Units=1/GPa)
#
#
# Indices 1 2 3 4 5 6 
#
# 1 0.019487 -0.013450 -0.001815 0.000000 0.000000 0.000000
# 2 -0.013450 0.019488 -0.001815 0.000000 0.000000 0.000000
# 3 -0.001815 -0.001815 0.013366 0.000000 0.000000 0.000000
# 4 0.000000 0.000000 0.000000 0.044541 0.000000 0.000000
# 5 0.000000 0.000000 0.000000 0.000000 0.044539 0.000000
# 6 0.000000 0.000000 0.000000 0.000000 0.000000 0.026014
#
#
# Mechanical properties :
#
#
# Convention : Reuss Voigt Hill
#
# Bulk Modulus (GPa) = 55.00571 60.02018 57.51294
# Shear Modulus (GPa) = 24.07840 27.88288 25.98064
#
# Velocity S-wave (km/s) = 3.37757 3.63462 3.50845
# Velocity P-wave (km/s) = 6.42429 6.78606 6.60765
#
# Compressibility (1/GPa) = 0.01817993
#
# Stress axis : x y z
#
# Youngs Moduli (GPa) = 51.31503 51.31466 74.81948
#
# Poissons Ratio (x) = 0.69021 0.13580
# Poissons Ratio (y) = 0.69021 0.13579
# Poissons Ratio (z) = 0.09314 0.09313
#
# Static dielectric constant tensor:
#      x y z
#    x 4.021490 0.000000 0.000000 
#    y 0.000000 4.021490 0.000000 
#    z 0.000000 0.000000 3.704750 
# 
# 
# High freq. dielectric constant tensor:
#      x y z
#    x 1.834400 0.000000 0.000000 
#    y 0.000000 1.834400 0.000000 
#    z 0.000000 0.000000 1.811510 
# 
# From -- ./inp_files/2183.got.cif
#   From: 2010.03.12/outbox.cif.g09.slc.cpg/sg113_cif.got.tgz:2183.got - 2010.04.14 02:06:34.
