data_PCOD8308501
_publ_section_title
;
Structure prediction by ZEFSAII (Michael W. Deem and Ramdas Pophale) SiO2 
 PCOD8308501
Probable space group: P -4 2 C
;
_chemical_formula_sum "Si O2"
_cell_formula_units_Z 34
_cell_length_a 8.885851
_cell_length_b 8.885851
_cell_length_c 20.470910
_cell_angle_alpha 90.000000
_cell_angle_beta 90.000000
_cell_angle_gamma 90.000000
_cell_volume 1616.349236
_symmetry_space_group_name_H-M "P -4 2 C"
_symmetry_group_IT_number 112
_symmetry_cell_setting 'tetragonal'
loop_
_space_group_symop_operation_xyz
x,y,z
y,-x,-z
-x,-y,z
-y,x,-z
x,-y,1/2-z
-x,y,1/2-z
-y,-x,1/2+z
y,x,1/2+z
loop_
_atom_site_type_symbol
_atom_site_label
_atom_site_fract_x
_atom_site_fract_y
_atom_site_fract_z
Si Si1 0.857128 0.187117 0.855859
Si Si2 0.479886 0.321728 0.174648
Si Si3 0.662782 0.993087 0.947901
Si Si4 0.154480 0.293726 0.921289
Si Si5 0.000000 0.000000 0.250000
O O1 0.735042 0.316806 0.846259
O O2 0.879399 0.098821 0.789100
O O3 0.025959 0.228633 0.875256
O O4 0.792700 0.080754 0.911258
O O5 0.500000 0.500000 0.167054
O O6 0.500000 0.271852 0.250000
O O7 0.592319 0.243982 0.124416
O O8 0.725138 0.823521 0.951377
O O9 0.500000 0.000000 0.911580
O O10 0.629973 0.069068 0.018104
#
# Coordination Sequence:
#
# PCOD8308501 Si02
#       5
#     8   8   8   8   2
#     4  12  24  44  70 103 135 189 240 300 359 441
#     4  11  26  48  72 105 149 192 240 300 373 451
#     4  12  25  43  68 102 143 181 240 306 371 436
#     4  12  24  46  72 104 140 191 242 305 371 444
#     4  12  24  40  74 104 140 184 260 298 368 436
#
# _framework density 21.035059
#
# number of rings (size 3 to 8) (size 9 to 14) (size 15 to 20)
#    0.000    0.235    4.706    4.941    0.000    0.941 
#    0.000    0.000    0.000    0.000    0.000    0.000 
#    0.000    0.000    0.000    0.000    0.000    0.000 
#
# Total GULP energy -421497.081437 kJ/mol
# GULP energy per Si atom -12396.972983 kJ/mol
# Density = 2.098718 g / cm^3
# Si number density = 21.035059 Si / 1000 Ang^3
#
#
#
# Elastic Constant Matrix: (Units=GPa)
#
#
# Indices 1 2 3 4 5 6 
#
# 1 125.1539 53.8987 47.0759 0.0000 0.0000 0.0000
# 2 53.8987 125.1539 47.0759 0.0000 0.0000 0.0000
# 3 47.0759 47.0759 133.2421 0.0000 0.0000 0.0000
# 4 0.0000 0.0000 0.0000 39.3224 0.0000 0.0000
# 5 0.0000 0.0000 0.0000 0.0000 39.3224 0.0000
# 6 0.0000 0.0000 0.0000 0.0000 0.0000 36.7543
#
#
#
# Elastic Compliance Matrix: (Units=1/GPa)
#
#
# Indices 1 2 3 4 5 6 
#
# 1 0.010447 -0.003587 -0.002423 0.000000 0.000000 0.000000
# 2 -0.003587 0.010447 -0.002423 0.000000 0.000000 0.000000
# 3 -0.002423 -0.002423 0.009218 0.000000 0.000000 0.000000
# 4 0.000000 0.000000 0.000000 0.025431 0.000000 0.000000
# 5 0.000000 0.000000 0.000000 0.000000 0.025431 0.000000
# 6 0.000000 0.000000 0.000000 0.000000 0.000000 0.027208
#
#
# Mechanical properties :
#
#
# Convention : Reuss Voigt Hill
#
# Bulk Modulus (GPa) = 75.51541 75.51680 75.51610
# Shear Modulus (GPa) = 38.62107 38.77977 38.70042
#
# Velocity S-wave (km/s) = 4.28954 4.29835 4.29395
# Velocity P-wave (km/s) = 7.77890 7.78542 7.78216
#
# Compressibility (1/GPa) = 0.01324233
#
# Stress axis : x y z
#
# Youngs Moduli (GPa) = 95.72427 95.72427 108.48803
#
# Poissons Ratio (x) = 0.34340 0.26292
# Poissons Ratio (y) = 0.34340 0.26292
# Poissons Ratio (z) = 0.23198 0.23198
#
# Static dielectric constant tensor:
#      x y z
#    x 3.742720 0.000000 0.000000 
#    y 0.000000 3.742720 0.000000 
#    z 0.000000 0.000000 3.964430 
# 
# 
# High freq. dielectric constant tensor:
#      x y z
#    x 1.837100 0.000000 0.000000 
#    y 0.000000 1.837100 0.000000 
#    z 0.000000 0.000000 1.833220 
# 
# From -- ./inp_files/4653.got.cif
#   From: 2010.03.12/outbox.cif.g09.slc.cpg/sg112_3_cif.got.tgz:4653.got - 2010.04.14 02:02:48.
