data_PCOD8308490
_publ_section_title
;
Structure prediction by ZEFSAII (Michael W. Deem and Ramdas Pophale) SiO2 
 PCOD8308490
Probable space group: P -4 2 C
;
_chemical_formula_sum "Si O2"
_cell_formula_units_Z 34
_cell_length_a 10.882905
_cell_length_b 10.882905
_cell_length_c 13.415840
_cell_angle_alpha 90.000000
_cell_angle_beta 90.000000
_cell_angle_gamma 90.000000
_cell_volume 1588.940177
_symmetry_space_group_name_H-M "P -4 2 C"
_symmetry_group_IT_number 112
_symmetry_cell_setting 'tetragonal'
loop_
_space_group_symop_operation_xyz
x,y,z
y,-x,-z
-x,-y,z
-y,x,-z
x,-y,1/2-z
-x,y,1/2-z
-y,-x,1/2+z
y,x,1/2+z
loop_
_atom_site_type_symbol
_atom_site_label
_atom_site_fract_x
_atom_site_fract_y
_atom_site_fract_z
Si Si1 0.708604 0.872272 0.463204
Si Si2 0.000000 0.000000 0.250000
Si Si3 0.500000 0.799599 0.750000
Si Si4 0.109569 0.203028 0.630228
Si Si5 0.261563 0.640734 0.729612
Si Si6 0.500000 0.000000 0.912563
O O1 0.794031 0.800212 0.540371
O O2 0.653800 0.770252 0.387841
O O3 0.609306 0.957495 0.517085
O O4 0.787486 0.968572 0.401759
O O5 0.075180 0.897533 0.311744
O O6 0.380359 0.716580 0.765898
O O7 0.466308 0.883114 0.655061
O O8 0.147048 0.314223 0.703594
O O9 0.290437 0.500000 0.750000
#
# Coordination Sequence:
#
# PCOD8308490 Si02
#       6
#     8   2   4   8   8   4
#     4  12  24  44  72 104 144 184 240 292 369 436
#     4  12  24  42  66 102 146 184 220 300 370 432
#     4  11  25  48  70 104 141 195 236 312 352 441
#     4  12  25  43  68 108 140 185 232 298 364 441
#     4  12  26  47  71 101 146 189 246 296 368 427
#     4  11  24  42  77 102 142 188 247 292 369 436
#
# _framework density 21.397912999999999
#
# number of rings (size 3 to 8) (size 9 to 14) (size 15 to 20)
#    0.000    0.235    4.706    4.588    3.294    0.941 
#    0.000    0.000    5.176    0.000    0.000    0.000 
#    0.000    0.000    0.000    0.000    0.000    0.000 
#
# Total GULP energy -421625.211330 kJ/mol
# GULP energy per Si atom -12400.741510 kJ/mol
# Density = 2.134921 g / cm^3
# Si number density = 21.397913 Si / 1000 Ang^3
#
#
#
# Elastic Constant Matrix: (Units=GPa)
#
#
# Indices 1 2 3 4 5 6 
#
# 1 102.9268 22.6811 38.0577 0.0000 0.0000 0.0000
# 2 22.6811 102.9268 38.0577 0.0000 0.0000 0.0000
# 3 38.0577 38.0577 116.8801 0.0000 0.0000 0.0000
# 4 0.0000 0.0000 0.0000 28.4141 0.0000 0.0000
# 5 0.0000 0.0000 0.0000 0.0000 28.4141 0.0000
# 6 0.0000 0.0000 0.0000 0.0000 0.0000 33.4104
#
#
#
# Elastic Compliance Matrix: (Units=1/GPa)
#
#
# Indices 1 2 3 4 5 6 
#
# 1 0.011190 -0.001272 -0.003230 0.000000 0.000000 0.000000
# 2 -0.001272 0.011190 -0.003230 0.000000 0.000000 0.000000
# 3 -0.003230 -0.003230 0.010659 0.000000 0.000000 0.000000
# 4 0.000000 0.000000 0.000000 0.035194 0.000000 0.000000
# 5 0.000000 0.000000 0.000000 0.000000 0.035194 0.000000
# 6 0.000000 0.000000 0.000000 0.000000 0.000000 0.029931
#
#
# Mechanical properties :
#
#
# Convention : Reuss Voigt Hill
#
# Bulk Modulus (GPa) = 56.89117 57.81406 57.35262
# Shear Modulus (GPa) = 32.32521 32.97687 32.65104
#
# Velocity S-wave (km/s) = 3.89095 3.92998 3.91051
# Velocity P-wave (km/s) = 6.84332 6.90436 6.87390
#
# Compressibility (1/GPa) = 0.01757742
#
# Stress axis : x y z
#
# Youngs Moduli (GPa) = 89.36540 89.36540 93.81802
#
# Poissons Ratio (x) = 0.11365 0.30299
# Poissons Ratio (y) = 0.11365 0.30299
# Poissons Ratio (z) = 0.28861 0.28861
#
# Static dielectric constant tensor:
#      x y z
#    x 3.892600 0.000000 0.000000 
#    y 0.000000 3.892600 0.000000 
#    z 0.000000 0.000000 4.248410 
# 
# 
# High freq. dielectric constant tensor:
#      x y z
#    x 1.841060 0.000000 0.000000 
#    y 0.000000 1.841060 0.000000 
#    z 0.000000 0.000000 1.859010 
# 
# From -- ./inp_files/2373.got.cif
#   From: 2010.03.12/outbox.cif.g09.slc.cpg/sg112_2_cif.got.tgz:2373.got - 2010.04.14 02:02:48.
