data_PCOD8308237
_publ_section_title
;
Structure prediction by ZEFSAII (Michael W. Deem and Ramdas Pophale) SiO2 
 PCOD8308237
Probable space group: P -4 2 M 
;
_chemical_formula_sum "Si O2"
_cell_formula_units_Z 36
_cell_length_a 14.324551
_cell_length_b 14.324551
_cell_length_c 8.098305
_cell_angle_alpha 90.000000
_cell_angle_beta 90.000000
_cell_angle_gamma 90.000000
_cell_volume 1661.713565
_symmetry_space_group_name_H-M "P -4 2 M "
_symmetry_group_IT_number 111
_symmetry_cell_setting 'tetragonal'
loop_
_space_group_symop_operation_xyz
x,y,z
y,-x,-z
-x,-y,z
-y,x,-z
x,-y,-z
-x,y,-z
-y,-x,z
y,x,z
loop_
_atom_site_type_symbol
_atom_site_label
_atom_site_fract_x
_atom_site_fract_y
_atom_site_fract_z
Si Si1 0.139710 0.712934 0.884656
Si Si2 0.000000 0.142487 0.500000
Si Si3 0.230890 0.380230 0.639770
Si Si4 0.578572 0.274822 0.733435
Si Si5 0.285521 0.059505 0.759579
O O1 0.197630 0.802371 0.813550
O O2 0.207236 0.622490 0.873828
O O3 0.048629 0.685742 0.778974
O O4 0.108657 0.739756 0.068431
O O5 0.941707 0.199084 0.364324
O O6 0.076902 0.076902 0.409349
O O7 0.288570 0.288570 0.695565
O O8 0.235651 0.393064 0.444868
O O9 0.275182 0.466626 0.742932
O O10 0.121258 0.368842 0.681860
O O11 0.620168 0.379833 0.754752
#
# Coordination Sequence:
#
# PCOD8308237 Si02
#       5
#     8   4   8   8   8
#     4  10  21  38  58  81 114 153 192 238 289 345
#     4  11  22  36  56  83 116 154 198 247 294 345
#     4  10  20  36  59  85 114 148 188 237 289 344
#     4   9  20  38  59  84 114 149 189 235 290 348
#     4  11  22  36  58  84 113 150 194 238 291 348
#
# _framework density 21.664386
#
# number of rings (size 3 to 8) (size 9 to 14) (size 15 to 20)
#    0.000    1.889    0.000    4.000    0.000    4.000 
#    0.000    6.667    0.000    8.000    0.000    3.111 
#    0.000    0.000    0.000    0.000    0.000    0.000 
#
# Total GULP energy -446125.359671 kJ/mol
# GULP energy per Si atom -12392.371102 kJ/mol
# Density = 2.161508 g / cm^3
# Si number density = 21.664386 Si / 1000 Ang^3
#
#
#
# Elastic Constant Matrix: (Units=GPa)
#
#
# Indices 1 2 3 4 5 6 
#
# 1 115.7328 46.2631 33.5954 0.0000 0.0000 0.0000
# 2 46.2631 115.7316 33.5957 0.0000 0.0000 0.0000
# 3 33.5954 33.5957 57.2453 0.0000 0.0000 0.0000
# 4 0.0000 0.0000 0.0000 21.2403 0.0000 0.0000
# 5 0.0000 0.0000 0.0000 0.0000 21.2409 0.0000
# 6 0.0000 0.0000 0.0000 0.0000 0.0000 36.5443
#
#
#
# Elastic Compliance Matrix: (Units=1/GPa)
#
#
# Indices 1 2 3 4 5 6 
#
# 1 0.011277 -0.003118 -0.004788 0.000000 0.000000 0.000000
# 2 -0.003118 0.011277 -0.004788 0.000000 0.000000 0.000000
# 3 -0.004788 -0.004788 0.023089 0.000000 0.000000 0.000000
# 4 0.000000 0.000000 0.000000 0.047080 0.000000 0.000000
# 5 0.000000 0.000000 0.000000 0.000000 0.047079 0.000000
# 6 0.000000 0.000000 0.000000 0.000000 0.000000 0.027364
#
#
# Mechanical properties :
#
#
# Convention : Reuss Voigt Hill
#
# Bulk Modulus (GPa) = 49.37347 57.29092 53.33220
# Shear Modulus (GPa) = 25.08696 27.48879 26.28788
#
# Velocity S-wave (km/s) = 3.40660 3.56595 3.48719
# Velocity P-wave (km/s) = 6.18974 6.59218 6.39413
#
# Compressibility (1/GPa) = 0.02025379
#
# Stress axis : x y z
#
# Youngs Moduli (GPa) = 88.67693 88.67551 43.31081
#
# Poissons Ratio (x) = 0.27648 0.20738
# Poissons Ratio (y) = 0.27649 0.20739
# Poissons Ratio (z) = 0.42461 0.42462
#
# Static dielectric constant tensor:
#      x y z
#    x 3.954870 0.000000 0.000000 
#    y 0.000000 3.954870 0.000000 
#    z 0.000000 0.000000 3.798610 
# 
# 
# High freq. dielectric constant tensor:
#      x y z
#    x 1.847590 0.000000 0.000000 
#    y 0.000000 1.847590 0.000000 
#    z 0.000000 0.000000 1.841440 
# 
# From -- ./inp_files/1423.got.cif
#   From: 2010.03.12/outbox.cif.g09.slc.cpg/sg111_1_cif.got.tgz:1423.got - 2010.04.14 01:59:48.
