data_PCOD8308983
_publ_section_title
;
Structure prediction by ZEFSAII (Michael W. Deem and Ramdas Pophale) SiO2 
 PCOD8308983
Probable space group: P -4 21 C
;
_chemical_formula_sum "Si O2"
_cell_formula_units_Z 48
_cell_length_a 8.408399
_cell_length_b 8.408399
_cell_length_c 29.274860
_cell_angle_alpha 90.000000
_cell_angle_beta 90.000000
_cell_angle_gamma 90.000000
_cell_volume 2069.766963
_symmetry_space_group_name_H-M "P -4 21 C"
_symmetry_group_IT_number 114
_symmetry_cell_setting 'tetragonal'
loop_
_space_group_symop_operation_xyz
x,y,z
y,-x,-z
-x,-y,z
-y,x,-z
1/2+x,1/2-y,1/2-z
1/2-x,1/2+y,1/2-z
1/2-y,1/2-x,1/2+z
1/2+y,1/2+x,1/2+z
loop_
_atom_site_type_symbol
_atom_site_label
_atom_site_fract_x
_atom_site_fract_y
_atom_site_fract_z
Si Si1 0.417491 0.841104 0.788010
Si Si2 0.345478 0.721983 0.197646
Si Si3 0.334047 0.192623 0.043790
Si Si4 0.835424 0.285217 0.357127
Si Si5 0.663346 0.596711 0.368073
Si Si6 0.699375 0.160312 0.041827
O O1 0.542653 0.692808 0.785181
O O2 0.338255 0.881237 0.739520
O O3 0.279726 0.798355 0.823286
O O4 0.500000 0.000000 0.805714
O O5 0.491745 0.729576 0.161510
O O6 0.181136 0.779683 0.173446
O O7 0.283314 0.275601 0.091806
O O8 0.517668 0.173240 0.054860
O O9 0.255463 0.022408 0.031002
O O10 0.282066 0.293858 0.000420
O O11 0.814181 0.476245 0.361111
O O12 0.500000 0.500000 0.367780
O O13 0.687915 0.700083 0.414734
#
# Coordination Sequence:
#
# PCOD8308983 Si02
#       6
#     8   8   8   8   8   8
#     4  12  26  43  69 102 136 181 236 296 348 426
#     4  12  24  45  71 100 139 184 232 289 362 424
#     4  10  23  44  66 100 135 181 228 280 349 408
#     4  11  24  46  68  97 141 188 226 289 361 428
#     4  11  23  41  71 102 135 181 234 287 349 419
#     4  10  23  42  68  98 134 179 228 283 341 412
#
# _framework density 23.191016000000001
#
# number of rings (size 3 to 8) (size 9 to 14) (size 15 to 20)
#    0.000    1.000    1.667    5.000    4.667    3.000 
#    6.000    0.000    0.000    0.000    0.000    0.000 
#    0.000    0.000    0.000    0.000    0.000    0.000 
#
# Total GULP energy -594720.079885 kJ/mol
# GULP energy per Si atom -12390.001664 kJ/mol
# Density = 2.313823 g / cm^3
# Si number density = 23.191016 Si / 1000 Ang^3
#
#
#
# Elastic Constant Matrix: (Units=GPa)
#
#
# Indices 1 2 3 4 5 6 
#
# 1 64.3979 5.2741 33.8214 0.0000 0.0000 0.0000
# 2 5.2741 64.3979 33.8214 0.0000 0.0000 0.0000
# 3 33.8214 33.8214 152.7077 0.0000 0.0000 0.0000
# 4 0.0000 0.0000 0.0000 38.3463 0.0000 0.0000
# 5 0.0000 0.0000 0.0000 0.0000 38.3463 0.0000
# 6 0.0000 0.0000 0.0000 0.0000 0.0000 32.2128
#
#
#
# Elastic Compliance Matrix: (Units=1/GPa)
#
#
# Indices 1 2 3 4 5 6 
#
# 1 0.017599 0.000685 -0.004050 0.000000 0.000000 0.000000
# 2 0.000685 0.017599 -0.004050 0.000000 0.000000 0.000000
# 3 -0.004050 -0.004050 0.008342 0.000000 0.000000 0.000000
# 4 0.000000 0.000000 0.000000 0.026078 0.000000 0.000000
# 5 0.000000 0.000000 0.000000 0.000000 0.026078 0.000000
# 6 0.000000 0.000000 0.000000 0.000000 0.000000 0.031044
#
#
# Mechanical properties :
#
#
# Convention : Reuss Voigt Hill
#
# Bulk Modulus (GPa) = 34.82744 47.48193 41.15468
# Shear Modulus (GPa) = 33.08214 35.68687 34.38450
#
# Velocity S-wave (km/s) = 3.78101 3.92704 3.85472
# Velocity P-wave (km/s) = 5.84052 6.40944 6.13158
#
# Compressibility (1/GPa) = 0.02871300
#
# Stress axis : x y z
#
# Youngs Moduli (GPa) = 56.82092 56.82092 119.87146
#
# Poissons Ratio (x) = -0.03895 0.48544
# Poissons Ratio (y) = -0.03895 0.48544
# Poissons Ratio (z) = 0.23010 0.23010
#
# Static dielectric constant tensor:
#      x y z
#    x 4.064630 0.000000 0.000000 
#    y 0.000000 4.064630 0.000000 
#    z 0.000000 0.000000 4.244910 
# 
# 
# High freq. dielectric constant tensor:
#      x y z
#    x 1.909080 0.000000 0.000000 
#    y 0.000000 1.909080 0.000000 
#    z 0.000000 0.000000 1.928450 
# 
# From -- ./inp_files/3929.got.cif
#   From: 2010.03.12/outbox.cif.g09.slc.cpg/sg114_2_cif.got.tgz:3929.got - 2010.04.14 02:08:34.
