data_PCOD8308287
_publ_section_title
;
Structure prediction by ZEFSAII (Michael W. Deem and Ramdas Pophale) SiO2 
 PCOD8308287
Probable space group: P -4 2 M 
;
_chemical_formula_sum "Si O2"
_cell_formula_units_Z 48
_cell_length_a 20.433874
_cell_length_b 20.433874
_cell_length_c 10.104181
_cell_angle_alpha 90.000000
_cell_angle_beta 90.000000
_cell_angle_gamma 90.000000
_cell_volume 4218.932135
_symmetry_space_group_name_H-M "P -4 2 M "
_symmetry_group_IT_number 111
_symmetry_cell_setting 'tetragonal'
loop_
_space_group_symop_operation_xyz
x,y,z
y,-x,-z
-x,-y,z
-y,x,-z
x,-y,-z
-x,y,-z
-y,-x,z
y,x,z
loop_
_atom_site_type_symbol
_atom_site_label
_atom_site_fract_x
_atom_site_fract_y
_atom_site_fract_z
Si Si1 0.676275 0.572905 0.157519
Si Si2 0.577817 0.821660 0.852595
Si Si3 0.926838 0.422151 0.352067
Si Si4 0.178340 0.422183 0.147405
Si Si5 0.577849 0.073162 0.647933
Si Si6 0.427095 0.323725 0.842481
O O1 0.623005 0.623005 0.217658
O O2 0.748997 0.596897 0.198185
O O3 0.661930 0.500000 0.213618
O O4 0.672052 0.571038 1.000000
O O5 0.608028 0.875025 0.751857
O O6 0.500000 0.826909 0.858032
O O7 0.596897 0.748997 0.801815
O O8 0.606173 0.834838 1.000000
O O9 0.923204 0.500000 0.349172
O O10 0.909759 0.397211 0.500000
O O11 0.000000 0.399224 0.312245
O O12 0.124975 0.391972 0.248143
O O13 0.376995 0.376995 0.782342
#
# Coordination Sequence:
#
# PCOD8308287 Si02
#       6
#     8   8   8   8   8   8
#     4   8  13  20  29  41  56  73  94 121 152 183
#     4   8  13  20  29  41  56  72  89 110 137 168
#     4   8  13  20  29  41  56  72  88 105 127 159
#     4   8  13  20  29  41  56  72  89 110 137 168
#     4   8  13  20  29  41  56  72  88 105 127 159
#     4   8  13  20  29  41  56  73  94 121 152 183
#
# _framework density 11.377287000000001
#
# number of rings (size 3 to 8) (size 9 to 14) (size 15 to 20)
#    0.000    4.000    0.000    3.000    0.000    1.000 
#    0.000    5.000    0.000    1.000    0.000    0.000 
#    0.000    0.000    0.000   13.000    0.000   13.333 
#
# Total GULP energy -594640.546801 kJ/mol
# GULP energy per Si atom -12388.344725 kJ/mol
# Density = 1.135139 g / cm^3
# Si number density = 11.377287 Si / 1000 Ang^3
#
#
#
# Elastic Constant Matrix: (Units=GPa)
#
#
# Indices 1 2 3 4 5 6 
#
# 1 61.1288 33.7442 33.9031 0.0000 0.0000 0.0000
# 2 33.7442 61.1288 33.9031 0.0000 0.0000 0.0000
# 3 33.9031 33.9031 49.4745 0.0000 0.0000 0.0000
# 4 0.0000 0.0000 0.0000 6.2705 0.0000 0.0000
# 5 0.0000 0.0000 0.0000 0.0000 6.2705 0.0000
# 6 0.0000 0.0000 0.0000 0.0000 0.0000 0.6118
#
#
#
# Elastic Compliance Matrix: (Units=1/GPa)
#
#
# Indices 1 2 3 4 5 6 
#
# 1 0.028587 -0.007930 -0.014156 0.000000 0.000000 0.000000
# 2 -0.007930 0.028587 -0.014156 0.000000 0.000000 0.000000
# 3 -0.014156 -0.014156 0.039614 0.000000 0.000000 0.000000
# 4 0.000000 0.000000 0.000000 0.159476 0.000000 0.000000
# 5 0.000000 0.000000 0.000000 0.000000 0.159476 0.000000
# 6 0.000000 0.000000 0.000000 0.000000 0.000000 1.634519
#
#
# Mechanical properties :
#
#
# Convention : Reuss Voigt Hill
#
# Bulk Modulus (GPa) = 41.14364 41.64811 41.39588
# Shear Modulus (GPa) = 2.34649 7.30935 4.82792
#
# Velocity S-wave (km/s) = 1.43767 2.53741 2.06220
# Velocity P-wave (km/s) = 6.24479 6.72833 6.49106
#
# Compressibility (1/GPa) = 0.02430509
#
# Stress axis : x y z
#
# Youngs Moduli (GPa) = 34.98048 34.98048 25.24379
#
# Poissons Ratio (x) = 0.27738 0.35735
# Poissons Ratio (y) = 0.27738 0.35735
# Poissons Ratio (z) = 0.49519 0.49519
#
# Static dielectric constant tensor:
#      x y z
#    x 2.372160 0.000000 0.000000 
#    y 0.000000 2.372160 0.000000 
#    z 0.000000 0.000000 2.461600 
# 
# 
# High freq. dielectric constant tensor:
#      x y z
#    x 1.397040 0.000000 0.000000 
#    y 0.000000 1.397040 0.000000 
#    z 0.000000 0.000000 1.414030 
# 
# From -- ./inp_files/1890.got.cif
#   From: 2010.03.12/outbox.cif.g09.slc.cpg/sg111_1_cif.got.tgz:1890.got - 2010.04.14 01:59:48.
