data_PCOD8308674
_publ_section_title
;
Structure prediction by ZEFSAII (Michael W. Deem and Ramdas Pophale) SiO2 
 PCOD8308674
Probable space group: P -4 21 M 
;
_chemical_formula_sum "Si O2"
_cell_formula_units_Z 56
_cell_length_a 11.204860
_cell_length_b 11.204860
_cell_length_c 21.107811
_cell_angle_alpha 90.000000
_cell_angle_beta 90.000000
_cell_angle_gamma 90.000000
_cell_volume 2650.062191
_symmetry_space_group_name_H-M "P -4 21 M "
_symmetry_group_IT_number 113
_symmetry_cell_setting 'tetragonal'
loop_
_space_group_symop_operation_xyz
x,y,z
y,-x,-z
-x,-y,z
-y,x,-z
1/2+x,1/2-y,-z
1/2-x,1/2+y,-z
1/2-y,1/2-x,z
1/2+y,1/2+x,z
loop_
_atom_site_type_symbol
_atom_site_label
_atom_site_fract_x
_atom_site_fract_y
_atom_site_fract_z
Si Si1 0.648662 0.649960 0.709861
Si Si2 0.850539 0.846365 0.852811
Si Si3 0.987511 0.808208 0.499648
Si Si4 0.495433 0.809324 0.629409
Si Si5 0.931907 0.245381 0.933228
Si Si6 0.949770 0.739243 0.062645
Si Si7 0.308591 0.006408 0.368103
O O1 0.749580 0.750421 0.708634
O O2 0.613359 0.618242 0.781590
O O3 0.529325 0.699725 0.675606
O O4 0.693976 0.528982 0.674699
O O5 0.769761 0.730240 0.853943
O O6 0.974077 0.808594 0.884543
O O7 0.780334 0.954169 0.885848
O O8 0.013437 0.722156 0.558028
O O9 0.105608 0.880229 0.480178
O O10 0.947745 0.735953 0.437972
O O11 0.612127 0.887874 0.616517
O O12 0.389403 0.889403 0.660145
O O13 0.853269 0.353269 0.902335
O O14 0.847369 0.137556 0.954184
O O15 0.990261 0.297491 0.996685
O O16 0.875414 0.624587 0.088640
O O17 0.406581 0.906581 0.357161
O O18 0.365014 0.134987 0.347810
#
# Coordination Sequence:
#
# PCOD8308674 Si02
#       7
#     8   8   8   8   8   8   8
#     4   9  20  39  59  85 125 161 202 257 307 371
#     4  11  23  39  63  95 127 167 210 258 320 379
#     4  11  22  35  54  84 118 155 200 257 320 370
#     4  10  20  36  60  86 114 157 207 255 314 374
#     4  11  23  40  63  92 126 166 212 264 321 376
#     4  11  23  40  63  92 126 166 212 264 321 376
#     4  10  20  36  60  86 114 157 207 255 314 374
#
# _framework density 21.131577
#
# number of rings (size 3 to 8) (size 9 to 14) (size 15 to 20)
#    0.000    1.571    2.857    2.143    0.000    6.000 
#    0.000    5.714    0.000    0.000    0.000    0.000 
#    0.000    0.000    0.000    0.000    0.000    0.000 
#
# Total GULP energy -694379.937839 kJ/mol
# GULP energy per Si atom -12399.641747 kJ/mol
# Density = 2.108348 g / cm^3
# Si number density = 21.131577 Si / 1000 Ang^3
#
#
#
# Elastic Constant Matrix: (Units=GPa)
#
#
# Indices 1 2 3 4 5 6 
#
# 1 85.9734 39.8116 40.4979 0.0000 0.0000 0.0000
# 2 39.8116 85.9789 40.4998 0.0000 0.0000 0.0000
# 3 40.4979 40.4998 140.6943 0.0000 0.0000 0.0000
# 4 0.0000 0.0000 0.0000 27.3004 0.0000 0.0000
# 5 0.0000 0.0000 0.0000 0.0000 27.3003 0.0000
# 6 0.0000 0.0000 0.0000 0.0000 0.0000 39.5267
#
#
#
# Elastic Compliance Matrix: (Units=1/GPa)
#
#
# Indices 1 2 3 4 5 6 
#
# 1 0.015711 -0.005951 -0.002809 0.000000 0.000000 0.000000
# 2 -0.005951 0.015710 -0.002809 0.000000 0.000000 0.000000
# 3 -0.002809 -0.002809 0.008725 0.000000 0.000000 0.000000
# 4 0.000000 0.000000 0.000000 0.036629 0.000000 0.000000
# 5 0.000000 0.000000 0.000000 0.000000 0.036630 0.000000
# 6 0.000000 0.000000 0.000000 0.000000 0.000000 0.025299
#
#
# Mechanical properties :
#
#
# Convention : Reuss Voigt Hill
#
# Bulk Modulus (GPa) = 58.80271 61.58501 60.19386
# Shear Modulus (GPa) = 29.84871 31.61463 30.73167
#
# Velocity S-wave (km/s) = 3.76242 3.87212 3.81767
# Velocity P-wave (km/s) = 6.83826 7.01413 6.92675
#
# Compressibility (1/GPa) = 0.01700602
#
# Stress axis : x y z
#
# Youngs Moduli (GPa) = 63.65109 63.65485 114.61610
#
# Poissons Ratio (x) = 0.37884 0.32196
# Poissons Ratio (y) = 0.37882 0.32196
# Poissons Ratio (z) = 0.17880 0.17881
#
# Static dielectric constant tensor:
#      x y z
#    x 3.922100 0.000000 0.000000 
#    y 0.000000 3.922110 0.000000 
#    z 0.000000 0.000000 3.717080 
# 
# 
# High freq. dielectric constant tensor:
#      x y z
#    x 1.832090 0.000000 0.000000 
#    y 0.000000 1.832090 0.000000 
#    z 0.000000 0.000000 1.811070 
# 
# From -- ./inp_files/2731.got.cif
#   From: 2010.03.12/outbox.cif.g09.slc.cpg/sg113_cif.got.tgz:2731.got - 2010.04.14 02:06:34.
