data_PCOD8308940
_publ_section_title
;
Structure prediction by ZEFSAII (Michael W. Deem and Ramdas Pophale) SiO2 
 PCOD8308940
Probable space group: P -4 21 C
;
_chemical_formula_sum "Si O2"
_cell_formula_units_Z 32
_cell_length_a 9.085930
_cell_length_b 9.085930
_cell_length_c 19.241718
_cell_angle_alpha 90.000000
_cell_angle_beta 90.000000
_cell_angle_gamma 90.000000
_cell_volume 1588.483173
_symmetry_space_group_name_H-M "P -4 21 C"
_symmetry_group_IT_number 114
_symmetry_cell_setting 'tetragonal'
loop_
_space_group_symop_operation_xyz
x,y,z
y,-x,-z
-x,-y,z
-y,x,-z
1/2+x,1/2-y,1/2-z
1/2-x,1/2+y,1/2-z
1/2-y,1/2-x,1/2+z
1/2+y,1/2+x,1/2+z
loop_
_atom_site_type_symbol
_atom_site_label
_atom_site_fract_x
_atom_site_fract_y
_atom_site_fract_z
Si Si1 0.323020 0.703127 0.664075
Si Si2 0.897851 0.359891 0.878213
Si Si3 0.796894 0.879060 0.987873
Si Si4 0.994274 0.829912 0.285257
O O1 0.499050 0.732542 0.655715
O O2 0.252124 0.684417 0.587545
O O3 0.308011 0.550544 0.706113
O O4 0.238421 0.832422 0.705184
O O5 0.754665 0.387472 0.832510
O O6 0.000000 0.500000 0.883690
O O7 0.837998 0.325220 0.955282
O O8 0.945884 0.808464 0.016810
O O9 0.000000 0.000000 0.307369
#
# Coordination Sequence:
#
# PCOD8308940 Si02
#       4
#     8   8   8   8
#     4  10  22  39  63  91 118 162 202 249 309 358
#     4   9  20  41  59  85 125 159 203 253 300 362
#     4   9  19  36  64  86 108 162 214 248 291 368
#     4  11  23  39  61  90 126 160 194 257 307 362
#
# _framework density 20.145004
#
# number of rings (size 3 to 8) (size 9 to 14) (size 15 to 20)
#    0.000    2.250    0.000    1.500   10.500    0.000 
#   13.500    3.750    0.000    0.000    0.000    0.000 
#    0.000    0.000    0.000    0.000    0.000    0.000 
#
# Total GULP energy -396733.324956 kJ/mol
# GULP energy per Si atom -12397.916405 kJ/mol
# Density = 2.009915 g / cm^3
# Si number density = 20.145004 Si / 1000 Ang^3
#
#
#
# Elastic Constant Matrix: (Units=GPa)
#
#
# Indices 1 2 3 4 5 6 
#
# 1 74.5429 23.6017 58.3774 0.0000 0.0000 0.0000
# 2 23.6017 74.5429 58.3774 0.0000 0.0000 0.0000
# 3 58.3774 58.3774 142.7372 0.0000 0.0000 0.0000
# 4 0.0000 0.0000 0.0000 31.0320 0.0000 0.0000
# 5 0.0000 0.0000 0.0000 0.0000 31.0320 0.0000
# 6 0.0000 0.0000 0.0000 0.0000 0.0000 22.8608
#
#
#
# Elastic Compliance Matrix: (Units=1/GPa)
#
#
# Indices 1 2 3 4 5 6 
#
# 1 0.019737 0.000107 -0.008116 0.000000 0.000000 0.000000
# 2 0.000107 0.019737 -0.008116 0.000000 0.000000 0.000000
# 3 -0.008116 -0.008116 0.013644 0.000000 0.000000 0.000000
# 4 0.000000 0.000000 0.000000 0.032225 0.000000 0.000000
# 5 0.000000 0.000000 0.000000 0.000000 0.032225 0.000000
# 6 0.000000 0.000000 0.000000 0.000000 0.000000 0.043743
#
#
# Mechanical properties :
#
#
# Convention : Reuss Voigt Hill
#
# Bulk Modulus (GPa) = 47.91868 63.61514 55.76691
# Shear Modulus (GPa) = 24.93548 27.08272 26.00910
#
# Velocity S-wave (km/s) = 3.52205 3.67057 3.59708
# Velocity P-wave (km/s) = 6.35440 7.04353 6.70782
#
# Compressibility (1/GPa) = 0.02086869
#
# Stress axis : x y z
#
# Youngs Moduli (GPa) = 50.66589 50.66589 73.29014
#
# Poissons Ratio (x) = -0.00540 0.59481
# Poissons Ratio (y) = -0.00540 0.59481
# Poissons Ratio (z) = 0.41120 0.41120
#
# Static dielectric constant tensor:
#      x y z
#    x 3.728700 0.000000 0.000000 
#    y 0.000000 3.728700 0.000000 
#    z 0.000000 0.000000 3.856680 
# 
# 
# High freq. dielectric constant tensor:
#      x y z
#    x 1.777940 0.000000 0.000000 
#    y 0.000000 1.777940 0.000000 
#    z 0.000000 0.000000 1.794360 
# 
# From -- ./inp_files/2817.got.cif
#   From: 2010.03.12/outbox.cif.g09.slc.cpg/sg114_2_cif.got.tgz:2817.got - 2010.04.14 02:08:34.
