data_PCOD8308205
_publ_section_title
;
Structure prediction by ZEFSAII (Michael W. Deem and Ramdas Pophale) SiO2 
 PCOD8308205
Probable space group: P -4 2 M 
;
_chemical_formula_sum "Si O2"
_cell_formula_units_Z 64
_cell_length_a 11.917135
_cell_length_b 11.917135
_cell_length_c 22.975578
_cell_angle_alpha 90.000000
_cell_angle_beta 90.000000
_cell_angle_gamma 90.000000
_cell_volume 3262.948086
_symmetry_space_group_name_H-M "P -4 2 M "
_symmetry_group_IT_number 111
_symmetry_cell_setting 'tetragonal'
loop_
_space_group_symop_operation_xyz
x,y,z
y,-x,-z
-x,-y,z
-y,x,-z
x,-y,-z
-x,y,-z
-y,-x,z
y,x,z
loop_
_atom_site_type_symbol
_atom_site_label
_atom_site_fract_x
_atom_site_fract_y
_atom_site_fract_z
Si Si1 0.684657 0.866025 0.227487
Si Si2 0.297913 0.879689 0.235288
Si Si3 0.806340 0.624392 0.352549
Si Si4 0.374675 0.194061 0.645462
Si Si5 0.397023 0.217447 0.106004
Si Si6 0.634113 0.001024 0.434400
Si Si7 0.047235 0.772041 0.936878
Si Si8 0.827198 0.348734 0.111790
O O1 0.799871 0.799871 0.232198
O O2 0.615795 0.853868 0.287078
O O3 0.612691 0.824796 0.172518
O O4 0.721598 0.992706 0.218167
O O5 0.177045 0.822956 0.247097
O O6 0.374636 0.868107 0.292291
O O7 0.360182 0.818863 0.181591
O O8 0.693248 0.693248 0.355261
O O9 0.775196 0.500179 0.372894
O O10 0.895528 0.679137 0.397253
O O11 0.309619 0.309619 0.648107
O O12 0.320625 0.112968 0.596826
O O13 0.346168 0.346168 0.102036
O O14 0.324731 0.141262 0.061908
O O15 0.526413 0.197154 0.086217
O O16 0.500000 0.000000 0.432796
O O17 0.681178 0.000000 0.500000
O O18 0.112453 0.887548 0.913625
O O19 0.943841 0.718294 0.900721
O O20 0.000000 0.800055 0.000000
O O21 0.727316 0.272685 0.086424
#
# Coordination Sequence:
#
# PCOD8308205 Si02
#       8
#     8   8   8   8   8   8   8   8
#     4  10  19  34  56  83 114 150 187 227 276 330
#     4  10  20  33  53  84 117 148 183 226 280 339
#     4  10  20  33  54  81 108 143 184 224 270 327
#     4  10  20  34  53  79 111 145 180 223 275 327
#     4  10  22  39  60  87 117 153 196 236 280 339
#     4   9  18  33  53  75 100 135 180 226 270 321
#     4  11  24  42  63  87 116 151 192 243 296 346
#     4  11  23  37  59  89 119 154 191 232 286 345
#
# _framework density 19.614165
#
# number of rings (size 3 to 8) (size 9 to 14) (size 15 to 20)
#    0.000    1.875    2.500    1.500    0.000    4.125 
#    0.000    1.250    0.000    4.875    0.000    6.125 
#    0.000    0.000    0.000    0.000    0.000    0.000 
#
# Total GULP energy -792959.113165 kJ/mol
# GULP energy per Si atom -12389.986143 kJ/mol
# Density = 1.956952 g / cm^3
# Si number density = 19.614165 Si / 1000 Ang^3
#
#
#
# Elastic Constant Matrix: (Units=GPa)
#
#
# Indices 1 2 3 4 5 6 
#
# 1 102.4502 66.6976 17.0730 0.0000 0.0000 0.0000
# 2 66.6976 102.4489 17.0742 0.0000 0.0000 0.0000
# 3 17.0730 17.0742 67.0980 0.0000 0.0000 0.0000
# 4 0.0000 0.0000 0.0000 23.4414 0.0000 0.0000
# 5 0.0000 0.0000 0.0000 0.0000 23.4416 0.0000
# 6 0.0000 0.0000 0.0000 0.0000 0.0000 18.2894
#
#
#
# Elastic Compliance Matrix: (Units=1/GPa)
#
#
# Indices 1 2 3 4 5 6 
#
# 1 0.017101 -0.010869 -0.001586 0.000000 0.000000 0.000000
# 2 -0.010869 0.017101 -0.001586 0.000000 0.000000 0.000000
# 3 -0.001586 -0.001586 0.015711 0.000000 0.000000 0.000000
# 4 0.000000 0.000000 0.000000 0.042660 0.000000 0.000000
# 5 0.000000 0.000000 0.000000 0.000000 0.042659 0.000000
# 6 0.000000 0.000000 0.000000 0.000000 0.000000 0.054676
#
#
# Mechanical properties :
#
#
# Convention : Reuss Voigt Hill
#
# Bulk Modulus (GPa) = 45.80504 52.63184 49.21844
# Shear Modulus (GPa) = 22.19584 24.44462 23.32023
#
# Velocity S-wave (km/s) = 3.36761 3.53409 3.45185
# Velocity P-wave (km/s) = 6.20683 6.59886 6.40584
#
# Compressibility (1/GPa) = 0.02183166
#
# Stress axis : x y z
#
# Youngs Moduli (GPa) = 58.47554 58.47441 63.65120
#
# Poissons Ratio (x) = 0.63557 0.10092
# Poissons Ratio (y) = 0.63558 0.10096
# Poissons Ratio (z) = 0.09271 0.09275
#
# Static dielectric constant tensor:
#      x y z
#    x 3.479720 0.000000 0.000000 
#    y 0.000000 3.479730 0.000000 
#    z 0.000000 0.000000 3.742570 
# 
# 
# High freq. dielectric constant tensor:
#      x y z
#    x 1.754120 0.000000 0.000000 
#    y 0.000000 1.754120 0.000000 
#    z 0.000000 0.000000 1.763570 
# 
# From -- ./inp_files/4226.got.cif
#   From: 2010.03.12/outbox.cif.g09.slc.cpg/sg111_3_cif.got.tgz:4226.got - 2010.04.14 01:59:48.
