data_PCOD8308232
_publ_section_title
;
Structure prediction by ZEFSAII (Michael W. Deem and Ramdas Pophale) SiO2 
 PCOD8308232
Probable space group: P -4 2 M 
;
_chemical_formula_sum "Si O2"
_cell_formula_units_Z 44
_cell_length_a 13.970082
_cell_length_b 13.970082
_cell_length_c 11.184804
_cell_angle_alpha 90.000000
_cell_angle_beta 90.000000
_cell_angle_gamma 90.000000
_cell_volume 2182.862040
_symmetry_space_group_name_H-M "P -4 2 M "
_symmetry_group_IT_number 111
_symmetry_cell_setting 'tetragonal'
loop_
_space_group_symop_operation_xyz
x,y,z
y,-x,-z
-x,-y,z
-y,x,-z
x,-y,-z
-x,y,-z
-y,-x,z
y,x,z
loop_
_atom_site_type_symbol
_atom_site_label
_atom_site_fract_x
_atom_site_fract_y
_atom_site_fract_z
Si Si1 0.000000 0.152478 0.000000
Si Si2 0.558333 0.289607 0.649994
Si Si3 0.887933 0.731005 0.179189
Si Si4 0.251977 0.403828 0.075907
Si Si5 0.366841 0.782342 0.421367
Si Si6 0.988920 0.390799 0.359901
O O1 0.973530 0.213807 0.884491
O O2 0.089122 0.089122 0.957330
O O3 0.608856 0.391145 0.619454
O O4 0.575049 0.262417 0.785175
O O5 0.604651 0.206120 0.563267
O O6 0.445065 0.293789 0.628735
O O7 0.803744 0.803744 0.225672
O O8 0.843655 0.661131 0.075942
O O9 0.937229 0.676051 0.289122
O O10 0.344353 0.344353 0.027368
O O11 0.238914 0.500000 0.000000
O O12 0.262184 0.737816 0.407632
O O13 0.365270 0.877219 0.340375
O O14 0.000000 0.500000 0.317824
O O15 0.000000 0.375701 0.500000
#
# Coordination Sequence:
#
# PCOD8308232 Si02
#       6
#     4   8   8   8   8   8
#     4   9  20  40  61  80 106 142 187 238 290 337
#     4   9  18  35  56  80 118 158 185 220 280 346
#     4  10  22  40  61  82 110 151 191 232 286 343
#     4  10  21  37  56  80 112 149 189 230 275 330
#     4  10  20  34  56  86 114 145 189 235 278 333
#     4  11  22  37  58  85 117 149 183 227 284 341
#
# _framework density 20.157022000000001
#
# number of rings (size 3 to 8) (size 9 to 14) (size 15 to 20)
#    0.000    2.091    0.000    4.364    0.000    7.091 
#    0.000    5.455    0.000    0.000    0.000    1.273 
#    0.000    0.000    0.000    0.000    0.000    0.000 
#
# Total GULP energy -545189.926290 kJ/mol
# GULP energy per Si atom -12390.680143 kJ/mol
# Density = 2.011114 g / cm^3
# Si number density = 20.157022 Si / 1000 Ang^3
#
#
#
# Elastic Constant Matrix: (Units=GPa)
#
#
# Indices 1 2 3 4 5 6 
#
# 1 122.9518 68.2909 53.0002 0.0000 0.0000 0.0000
# 2 68.2909 122.9506 52.9995 0.0000 0.0000 0.0000
# 3 53.0002 52.9995 64.2753 0.0000 0.0000 0.0000
# 4 0.0000 0.0000 0.0000 28.2732 0.0000 0.0000
# 5 0.0000 0.0000 0.0000 0.0000 28.2737 0.0000
# 6 0.0000 0.0000 0.0000 0.0000 0.0000 24.1399
#
#
#
# Elastic Compliance Matrix: (Units=1/GPa)
#
#
# Indices 1 2 3 4 5 6 
#
# 1 0.013963 -0.004332 -0.007941 0.000000 0.000000 0.000000
# 2 -0.004332 0.013963 -0.007941 0.000000 0.000000 0.000000
# 3 -0.007941 -0.007941 0.028654 0.000000 0.000000 0.000000
# 4 0.000000 0.000000 0.000000 0.035369 0.000000 0.000000
# 5 0.000000 0.000000 0.000000 0.000000 0.035369 0.000000
# 6 0.000000 0.000000 0.000000 0.000000 0.000000 0.041425
#
#
# Mechanical properties :
#
#
# Convention : Reuss Voigt Hill
#
# Bulk Modulus (GPa) = 61.91641 73.19544 67.55593
# Shear Modulus (GPa) = 23.30411 25.19649 24.25030
#
# Velocity S-wave (km/s) = 3.40388 3.53938 3.47229
# Velocity P-wave (km/s) = 6.79943 7.28659 7.04722
#
# Compressibility (1/GPa) = 0.01615081
#
# Stress axis : x y z
#
# Youngs Moduli (GPa) = 71.61975 71.61964 34.89904
#
# Poissons Ratio (x) = 0.31027 0.27714
# Poissons Ratio (y) = 0.31027 0.27713
# Poissons Ratio (z) = 0.56874 0.56873
#
# Static dielectric constant tensor:
#      x y z
#    x 3.941140 0.000000 0.000000 
#    y 0.000000 3.941140 0.000000 
#    z 0.000000 0.000000 3.449980 
# 
# 
# High freq. dielectric constant tensor:
#      x y z
#    x 1.789980 0.000000 0.000000 
#    y 0.000000 1.789980 0.000000 
#    z 0.000000 0.000000 1.767910 
# 
# From -- ./inp_files/2628.got.cif
#   From: 2010.03.12/outbox.cif.g09.slc.cpg/sg111_2_cif.got.tgz:2628.got - 2010.04.14 01:59:48.
