data_PCOD8308104
_publ_section_title
;
Structure prediction by ZEFSAII (Michael W. Deem and Ramdas Pophale) SiO2 
 PCOD8308104
Probable space group: P -4 2 M 
;
_chemical_formula_sum "Si O2"
_cell_formula_units_Z 40
_cell_length_a 16.275639
_cell_length_b 16.275639
_cell_length_c 10.325233
_cell_angle_alpha 90.000000
_cell_angle_beta 90.000000
_cell_angle_gamma 90.000000
_cell_volume 2735.117308
_symmetry_space_group_name_H-M "P -4 2 M "
_symmetry_group_IT_number 111
_symmetry_cell_setting 'tetragonal'
loop_
_space_group_symop_operation_xyz
x,y,z
y,-x,-z
-x,-y,z
-y,x,-z
x,-y,-z
-x,y,-z
-y,-x,z
y,x,z
loop_
_atom_site_type_symbol
_atom_site_label
_atom_site_fract_x
_atom_site_fract_y
_atom_site_fract_z
Si Si1 0.402743 0.827487 0.755682
Si Si2 1.000000 0.598053 0.851830
Si Si3 0.403391 0.274931 0.000000
Si Si4 0.172513 0.597257 0.244317
Si Si5 0.401967 0.732806 0.500000
O O1 0.368576 0.920143 0.774427
O O2 0.500000 0.830806 0.758037
O O3 0.373069 0.786727 0.622436
O O4 0.371027 0.773217 0.874723
O O5 0.000000 0.500000 0.855509
O O6 0.920143 0.631424 0.774427
O O7 0.000000 0.630718 0.000000
O O8 0.365495 0.365495 1.000000
O O9 0.371027 0.226782 0.874724
O O10 0.500000 0.286588 0.000000
O O11 0.213274 0.626932 0.377563
O O12 0.500000 0.714361 0.500000
O O13 0.354427 0.645574 0.500001
#
# Coordination Sequence:
#
# PCOD8308104 Si02
#       5
#     8   8   8   8   8
#     4   9  17  28  43  61  80 105 139 180 222 267
#     4   9  14  25  45  65  83 101 129 174 227 276
#     4  10  18  28  41  57  79 111 152 190 219 248
#     4   9  17  28  43  61  80 105 139 180 222 267
#     4  10  20  32  43  59  85 117 156 194 221 246
#
# _framework density 14.624603
#
# number of rings (size 3 to 8) (size 9 to 14) (size 15 to 20)
#    0.000    2.600    2.000    1.200    0.000    1.200 
#    0.000    4.000    0.000    7.200    0.000    0.000 
#    0.000    0.000    0.000    0.000    0.000   70.000 
#
# Total GULP energy -495773.493596 kJ/mol
# GULP energy per Si atom -12394.337340 kJ/mol
# Density = 1.459132 g / cm^3
# Si number density = 14.624603 Si / 1000 Ang^3
#
#
#
# Elastic Constant Matrix: (Units=GPa)
#
#
# Indices 1 2 3 4 5 6 
#
# 1 65.8851 40.5649 41.6835 0.0000 0.0000 0.0000
# 2 40.5649 65.8875 41.6844 0.0000 0.0000 0.0000
# 3 41.6835 41.6844 137.0946 0.0000 0.0000 0.0000
# 4 0.0000 0.0000 0.0000 11.3216 0.0000 0.0000
# 5 0.0000 0.0000 0.0000 0.0000 11.3214 0.0000
# 6 0.0000 0.0000 0.0000 0.0000 0.0000 3.0564
#
#
#
# Elastic Compliance Matrix: (Units=1/GPa)
#
#
# Indices 1 2 3 4 5 6 
#
# 1 0.025912 -0.013581 -0.003749 0.000000 0.000000 0.000000
# 2 -0.013581 0.025911 -0.003749 0.000000 0.000000 0.000000
# 3 -0.003749 -0.003749 0.009574 0.000000 0.000000 0.000000
# 4 0.000000 0.000000 0.000000 0.088327 0.000000 0.000000
# 5 0.000000 0.000000 0.000000 0.000000 0.088329 0.000000
# 6 0.000000 0.000000 0.000000 0.000000 0.000000 0.327182
#
#
# Mechanical properties :
#
#
# Convention : Reuss Voigt Hill
#
# Bulk Modulus (GPa) = 51.98007 57.41474 54.69740
# Shear Modulus (GPa) = 8.14592 14.80217 11.47404
#
# Velocity S-wave (km/s) = 2.36265 3.18487 2.80406
# Velocity P-wave (km/s) = 6.56223 7.27109 6.92573
#
# Compressibility (1/GPa) = 0.01923814
#
# Stress axis : x y z
#
# Youngs Moduli (GPa) = 38.59280 38.59415 104.44959
#
# Poissons Ratio (x) = 0.52415 0.39158
# Poissons Ratio (y) = 0.52413 0.39158
# Poissons Ratio (z) = 0.14468 0.14469
#
# Static dielectric constant tensor:
#      x y z
#    x 2.680700 0.000000 0.000000 
#    y 0.000000 2.680700 0.000000 
#    z 0.000000 0.000000 3.183940 
# 
# 
# High freq. dielectric constant tensor:
#      x y z
#    x 1.525140 0.000000 0.000000 
#    y 0.000000 1.525140 0.000000 
#    z 0.000000 0.000000 1.576970 
# 
# From -- ./inp_files/1650.got.cif
#   From: 2010.03.12/outbox.cif.g09.slc.cpg/sg111_1_cif.got.tgz:1650.got - 2010.04.14 01:59:48.
