data_PCOD8308634
_publ_section_title
;
Structure prediction by ZEFSAII (Michael W. Deem and Ramdas Pophale) SiO2 
 PCOD8308634
Probable space group: P -4 21 M 
;
_chemical_formula_sum "Si O2"
_cell_formula_units_Z 56
_cell_length_a 13.681244
_cell_length_b 13.681244
_cell_length_c 17.361295
_cell_angle_alpha 90.000000
_cell_angle_beta 90.000000
_cell_angle_gamma 90.000000
_cell_volume 3249.625347
_symmetry_space_group_name_H-M "P -4 21 M "
_symmetry_group_IT_number 113
_symmetry_cell_setting 'tetragonal'
loop_
_space_group_symop_operation_xyz
x,y,z
y,-x,-z
-x,-y,z
-y,x,-z
1/2+x,1/2-y,-z
1/2-x,1/2+y,-z
1/2-y,1/2-x,z
1/2+y,1/2+x,z
loop_
_atom_site_type_symbol
_atom_site_label
_atom_site_fract_x
_atom_site_fract_y
_atom_site_fract_z
Si Si1 0.015575 0.149273 0.474711
Si Si2 0.396235 0.732879 0.843095
Si Si3 0.945774 0.291239 0.721195
Si Si4 0.789140 0.131860 0.674543
Si Si5 0.003403 0.342085 0.567441
Si Si6 0.918003 0.252465 0.883257
Si Si7 0.500548 0.839271 0.970140
O O1 0.058419 0.170769 0.390244
O O2 0.912922 0.090359 0.471638
O O3 0.991735 0.252611 0.511040
O O4 0.308180 0.808180 0.841357
O O5 0.430440 0.720146 0.754277
O O6 0.354027 0.633622 0.882129
O O7 0.485289 0.773282 0.894331
O O8 0.895611 0.395611 0.733590
O O9 0.869093 0.213885 0.688405
O O10 0.027272 0.304811 0.654805
O O11 0.985253 0.258983 0.805491
O O12 0.686200 0.186200 0.652124
O O13 0.901707 0.401707 0.566436
O O14 0.092296 0.407705 0.537659
O O15 0.836854 0.336854 0.881126
O O16 0.985899 0.266201 0.957745
O O17 0.596397 0.903604 0.955064
O O18 0.407106 0.907106 0.987512
#
# Coordination Sequence:
#
# PCOD8308634 Si02
#       7
#     8   8   8   8   8   8   8
#     4  11  22  34  52  75 100 133 171 207 252 304
#     4   8  15  28  48  70  92 128 170 195 232 294
#     4   8  14  27  47  71  96 125 162 198 238 291
#     4   9  16  31  54  73  94 130 169 205 242 292
#     4  10  20  33  51  76 103 129 162 208 258 303
#     4   8  14  25  45  69  94 126 159 190 233 291
#     4   9  16  26  44  72 100 122 155 205 245 275
#
# _framework density 17.232755999999998
#
# number of rings (size 3 to 8) (size 9 to 14) (size 15 to 20)
#    0.000    3.000    1.429    2.143    0.000    1.143 
#    0.000    3.571    3.143    3.000    0.000    0.000 
#    0.000    0.000    0.000    0.000    0.000    0.000 
#
# Total GULP energy -693746.696810 kJ/mol
# GULP energy per Si atom -12388.333872 kJ/mol
# Density = 1.719353 g / cm^3
# Si number density = 17.232756 Si / 1000 Ang^3
#
#
#
# Elastic Constant Matrix: (Units=GPa)
#
#
# Indices 1 2 3 4 5 6 
#
# 1 53.6662 24.3322 41.3345 0.0000 0.0000 0.0000
# 2 24.3322 53.6669 41.3352 0.0000 0.0000 0.0000
# 3 41.3345 41.3352 126.3115 0.0000 0.0000 0.0000
# 4 0.0000 0.0000 0.0000 24.3311 0.0000 0.0000
# 5 0.0000 0.0000 0.0000 0.0000 24.3310 0.0000
# 6 0.0000 0.0000 0.0000 0.0000 0.0000 13.4459
#
#
#
# Elastic Compliance Matrix: (Units=1/GPa)
#
#
# Indices 1 2 3 4 5 6 
#
# 1 0.026859 -0.007230 -0.006423 0.000000 0.000000 0.000000
# 2 -0.007230 0.026859 -0.006424 0.000000 0.000000 0.000000
# 3 -0.006423 -0.006424 0.012121 0.000000 0.000000 0.000000
# 4 0.000000 0.000000 0.000000 0.041100 0.000000 0.000000
# 5 0.000000 0.000000 0.000000 0.000000 0.041100 0.000000
# 6 0.000000 0.000000 0.000000 0.000000 0.000000 0.074372
#
#
# Mechanical properties :
#
#
# Convention : Reuss Voigt Hill
#
# Bulk Modulus (GPa) = 38.93339 49.73872 44.33606
# Shear Modulus (GPa) = 18.44151 20.86444 19.65298
#
# Velocity S-wave (km/s) = 3.27485 3.48335 3.38071
# Velocity P-wave (km/s) = 6.07793 6.71594 6.40488
#
# Compressibility (1/GPa) = 0.02568489
#
# Stress axis : x y z
#
# Youngs Moduli (GPa) = 37.23098 37.23118 82.50133
#
# Poissons Ratio (x) = 0.26920 0.52994
# Poissons Ratio (y) = 0.26920 0.52995
# Poissons Ratio (z) = 0.23915 0.23916
#
# Static dielectric constant tensor:
#      x y z
#    x 3.064260 0.000000 0.000000 
#    y 0.000000 3.064250 0.000000 
#    z 0.000000 0.000000 3.612170 
# 
# 
# High freq. dielectric constant tensor:
#      x y z
#    x 1.635910 0.000000 0.000000 
#    y 0.000000 1.635910 0.000000 
#    z 0.000000 0.000000 1.674290 
# 
# From -- ./inp_files/2285.got.cif
#   From: 2010.03.12/outbox.cif.g09.slc.cpg/sg113_cif.got.tgz:2285.got - 2010.04.14 02:06:34.
