data_PCOD8308201
_publ_section_title
;
Structure prediction by ZEFSAII (Michael W. Deem and Ramdas Pophale) SiO2 
 PCOD8308201
Probable space group: P -4 2 M 
;
_chemical_formula_sum "Si O2"
_cell_formula_units_Z 40
_cell_length_a 14.050314
_cell_length_b 14.050314
_cell_length_c 11.174708
_cell_angle_alpha 90.000000
_cell_angle_beta 90.000000
_cell_angle_gamma 90.000000
_cell_volume 2206.013896
_symmetry_space_group_name_H-M "P -4 2 M "
_symmetry_group_IT_number 111
_symmetry_cell_setting 'tetragonal'
loop_
_space_group_symop_operation_xyz
x,y,z
y,-x,-z
-x,-y,z
-y,x,-z
x,-y,-z
-x,y,-z
-y,-x,z
y,x,z
loop_
_atom_site_type_symbol
_atom_site_label
_atom_site_fract_x
_atom_site_fract_y
_atom_site_fract_z
Si Si1 0.681446 0.833456 0.248648
Si Si2 0.541018 0.693892 0.132743
Si Si3 0.014690 0.608121 0.139635
Si Si4 0.215906 0.365125 0.754548
Si Si5 0.762203 0.609488 0.490596
O O1 0.788185 0.788185 0.252283
O O2 0.619088 0.775894 0.151659
O O3 0.633687 0.831273 0.380142
O O4 0.680525 0.943374 0.208032
O O5 0.590570 0.590570 0.155152
O O6 0.455751 0.714119 0.225145
O O7 0.500000 0.700723 0.000000
O O8 0.122346 0.635083 0.166480
O O9 0.000000 0.500000 0.183829
O O10 0.000000 0.618798 0.000000
O O11 0.271887 0.271887 0.796102
O O12 0.188597 0.358112 0.614455
O O13 0.737724 0.500000 0.500000
O O14 0.662624 0.662624 0.468706
#
# Coordination Sequence:
#
# PCOD8308201 Si02
#       5
#     8   8   8   8   8
#     4  10  21  37  57  80 108 143 186 231 276 328
#     4  11  21  34  51  74 108 148 185 221 266 326
#     4  11  21  36  57  80 109 145 185 227 279 330
#     4  11  23  36  54  82 112 143 183 232 277 324
#     4  10  19  34  53  77 111 147 183 224 271 323
#
# _framework density 18.132252999999999
#
# number of rings (size 3 to 8) (size 9 to 14) (size 15 to 20)
#    0.000    1.400    4.000    1.800    0.000    4.800 
#    0.000    4.000    0.000    0.600    0.000    1.400 
#    0.000    4.800    0.000    0.000    0.000    0.000 
#
# Total GULP energy -495935.227461 kJ/mol
# GULP energy per Si atom -12398.380687 kJ/mol
# Density = 1.809098 g / cm^3
# Si number density = 18.132253 Si / 1000 Ang^3
#
#
#
# Elastic Constant Matrix: (Units=GPa)
#
#
# Indices 1 2 3 4 5 6 
#
# 1 94.6146 52.4669 40.3247 0.0000 0.0000 0.0000
# 2 52.4669 94.6146 40.3247 0.0000 0.0000 0.0000
# 3 40.3247 40.3247 93.0508 0.0000 0.0000 0.0000
# 4 0.0000 0.0000 0.0000 25.5559 0.0000 0.0000
# 5 0.0000 0.0000 0.0000 0.0000 25.5559 0.0000
# 6 0.0000 0.0000 0.0000 0.0000 0.0000 20.2215
#
#
#
# Elastic Compliance Matrix: (Units=1/GPa)
#
#
# Indices 1 2 3 4 5 6 
#
# 1 0.016322 -0.007404 -0.003865 0.000000 0.000000 0.000000
# 2 -0.007404 0.016322 -0.003865 0.000000 0.000000 0.000000
# 3 -0.003865 -0.003865 0.014097 0.000000 0.000000 0.000000
# 4 0.000000 0.000000 0.000000 0.039130 0.000000 0.000000
# 5 0.000000 0.000000 0.000000 0.000000 0.039130 0.000000
# 6 0.000000 0.000000 0.000000 0.000000 0.000000 0.049452
#
#
# Mechanical properties :
#
#
# Convention : Reuss Voigt Hill
#
# Bulk Modulus (GPa) = 60.70298 60.94585 60.82441
# Shear Modulus (GPa) = 23.78562 24.21092 23.99827
#
# Velocity S-wave (km/s) = 3.62579 3.65806 3.64196
# Velocity P-wave (km/s) = 7.14696 7.17821 7.16260
#
# Compressibility (1/GPa) = 0.01647366
#
# Stress axis : x y z
#
# Youngs Moduli (GPa) = 61.26661 61.26661 70.93954
#
# Poissons Ratio (x) = 0.45362 0.27417
# Poissons Ratio (y) = 0.45362 0.27417
# Poissons Ratio (z) = 0.23678 0.23678
#
# Static dielectric constant tensor:
#      x y z
#    x 3.225560 0.000000 0.000000 
#    y 0.000000 3.225560 0.000000 
#    z 0.000000 0.000000 3.629830 
# 
# 
# High freq. dielectric constant tensor:
#      x y z
#    x 1.678850 0.000000 0.000000 
#    y 0.000000 1.678850 0.000000 
#    z 0.000000 0.000000 1.722590 
# 
# From -- ./inp_files/2526.got.cif
#   From: 2010.03.12/outbox.cif.g09.slc.cpg/sg111_2_cif.got.tgz:2526.got - 2010.04.14 01:59:48.
