data_PCOD8308688
_publ_section_title
;
Structure prediction by ZEFSAII (Michael W. Deem and Ramdas Pophale) SiO2 
 PCOD8308688
Probable space group: P -4 21 M 
;
_chemical_formula_sum "Si O2"
_cell_formula_units_Z 34
_cell_length_a 11.025163
_cell_length_b 11.025163
_cell_length_c 13.297306
_cell_angle_alpha 90.000000
_cell_angle_beta 90.000000
_cell_angle_gamma 90.000000
_cell_volume 1616.343648
_symmetry_space_group_name_H-M "P -4 21 M "
_symmetry_group_IT_number 113
_symmetry_cell_setting 'tetragonal'
loop_
_space_group_symop_operation_xyz
x,y,z
y,-x,-z
-x,-y,z
-y,x,-z
1/2+x,1/2-y,-z
1/2-x,1/2+y,-z
1/2-y,1/2-x,z
1/2+y,1/2+x,z
loop_
_atom_site_type_symbol
_atom_site_label
_atom_site_fract_x
_atom_site_fract_y
_atom_site_fract_z
Si Si1 0.344336 0.344577 0.848191
Si Si2 0.254125 0.053695 0.285496
Si Si3 0.500000 0.500000 0.000000
Si Si4 0.698102 0.499923 0.499886
Si Si5 0.746196 0.053949 0.714787
O O1 0.249994 0.250007 0.898191
O O2 0.264537 0.435348 0.781010
O O3 0.413852 0.415273 0.934711
O O4 0.435945 0.264907 0.781705
O O5 0.368370 0.131631 0.244959
O O6 0.280711 0.019482 0.401663
O O7 0.130227 0.129927 0.279516
O O8 0.616907 0.382967 0.477311
O O9 0.780450 0.519267 0.401272
O O10 0.631975 0.131975 0.755216
#
# Coordination Sequence:
#
# PCOD8308688 Si02
#       5
#     8   8   2   8   8
#     4  12  26  46  73  97 124 165 213 268 331 392
#     4  10  20  38  66  98 135 177 217 258 309 377
#     4  12  28  52  72  94 124 160 208 276 348 390
#     4   9  16  30  58  95 136 182 221 251 298 368
#     4  10  20  38  66  98 135 177 217 258 309 377
#
# _framework density 21.035129000000001
#
# number of rings (size 3 to 8) (size 9 to 14) (size 15 to 20)
#    0.000    1.647    4.706    0.000    0.000    4.706 
#    0.000    0.000    0.000    0.000    0.000    0.000 
#    0.000    0.000    0.000    0.000    0.000    0.000 
#
# Total GULP energy -421605.128944 kJ/mol
# GULP energy per Si atom -12400.150851 kJ/mol
# Density = 2.098725 g / cm^3
# Si number density = 21.035129 Si / 1000 Ang^3
#
#
#
# Elastic Constant Matrix: (Units=GPa)
#
#
# Indices 1 2 3 4 5 6 
#
# 1 92.3659 68.6596 50.6334 0.0000 0.0000 0.0000
# 2 68.6596 92.3684 50.6353 0.0000 0.0000 0.0000
# 3 50.6334 50.6353 95.8902 0.0000 0.0000 0.0000
# 4 0.0000 0.0000 0.0000 1.6458 0.0000 0.0000
# 5 0.0000 0.0000 0.0000 0.0000 1.6457 0.0000
# 6 0.0000 0.0000 0.0000 0.0000 0.0000 41.6366
#
#
#
# Elastic Compliance Matrix: (Units=1/GPa)
#
#
# Indices 1 2 3 4 5 6 
#
# 1 0.025739 -0.016441 -0.004909 0.000000 0.000000 0.000000
# 2 -0.016441 0.025739 -0.004910 0.000000 0.000000 0.000000
# 3 -0.004909 -0.004910 0.015614 0.000000 0.000000 0.000000
# 4 0.000000 0.000000 0.000000 0.607603 0.000000 0.000000
# 5 0.000000 0.000000 0.000000 0.000000 0.607627 0.000000
# 6 0.000000 0.000000 0.000000 0.000000 0.000000 0.024017
#
#
# Mechanical properties :
#
#
# Convention : Reuss Voigt Hill
#
# Bulk Modulus (GPa) = 68.63134 68.94235 68.78684
# Shear Modulus (GPa) = 3.66645 16.36537 10.01591
#
# Velocity S-wave (km/s) = 1.32166 2.79229 2.18446
# Velocity P-wave (km/s) = 5.91835 6.57586 6.25575
#
# Compressibility (1/GPa) = 0.01457060
#
# Stress axis : x y z
#
# Youngs Moduli (GPa) = 38.85094 38.85125 64.04657
#
# Poissons Ratio (x) = 0.63877 0.31442
# Poissons Ratio (y) = 0.63877 0.31447
# Poissons Ratio (z) = 0.19073 0.19076
#
# Static dielectric constant tensor:
#      x y z
#    x 3.735490 0.000000 0.000000 
#    y 0.000000 3.735480 0.000000 
#    z 0.000000 0.000000 3.670860 
# 
# 
# High freq. dielectric constant tensor:
#      x y z
#    x 1.820670 0.000000 0.000000 
#    y 0.000000 1.820670 0.000000 
#    z 0.000000 0.000000 1.803400 
# 
# From -- ./inp_files/1646.got.cif
#   From: 2010.03.12/outbox.cif.g09.slc.cpg/sg113_cif.got.tgz:1646.got - 2010.04.14 02:06:34.
