data_PCOD8308950
_publ_section_title
;
Structure prediction by ZEFSAII (Michael W. Deem and Ramdas Pophale) SiO2 
 PCOD8308950
Probable space group: P -4 21 C
;
_chemical_formula_sum "Si O2"
_cell_formula_units_Z 48
_cell_length_a 8.918233
_cell_length_b 8.918233
_cell_length_c 28.929202
_cell_angle_alpha 90.000000
_cell_angle_beta 90.000000
_cell_angle_gamma 90.000000
_cell_volume 2300.880605
_symmetry_space_group_name_H-M "P -4 21 C"
_symmetry_group_IT_number 114
_symmetry_cell_setting 'tetragonal'
loop_
_space_group_symop_operation_xyz
x,y,z
y,-x,-z
-x,-y,z
-y,x,-z
1/2+x,1/2-y,1/2-z
1/2-x,1/2+y,1/2-z
1/2-y,1/2-x,1/2+z
1/2+y,1/2+x,1/2+z
loop_
_atom_site_type_symbol
_atom_site_label
_atom_site_fract_x
_atom_site_fract_y
_atom_site_fract_z
Si Si1 0.414288 0.651808 0.270268
Si Si2 0.175808 0.994564 0.871458
Si Si3 0.702013 0.314753 0.894476
Si Si4 0.845646 0.423001 0.801901
Si Si5 0.850669 0.420886 0.083787
Si Si6 0.269285 0.565639 0.990230
O O1 0.500000 0.500000 0.257087
O O2 0.480040 0.718020 0.317721
O O3 0.452522 0.769578 0.230447
O O4 0.234462 0.627410 0.274866
O O5 0.228386 0.849341 0.899325
O O6 0.256428 0.144474 0.891905
O O7 0.000000 0.000000 0.878303
O O8 0.741581 0.395844 0.846645
O O9 0.519559 0.295694 0.900546
O O10 0.775056 0.406966 0.936978
O O11 0.000000 0.500000 0.818070
O O12 0.000000 0.500000 0.102911
O O13 0.861242 0.405112 0.027927
O O14 0.395625 0.680906 0.006241
#
# Coordination Sequence:
#
# PCOD8308950 Si02
#       6
#     8   8   8   8   8   8
#     4  10  22  41  61  88 124 162 206 256 315 387
#     4   9  19  38  58  86 125 157 198 256 310 369
#     4   9  20  39  57  86 119 155 208 247 304 380
#     4  11  23  41  63  90 126 162 206 266 318 377
#     4   9  18  36  61  83 115 162 200 244 312 375
#     4   9  18  37  56  80 116 152 200 257 296 355
#
# _framework density 20.86158
#
# number of rings (size 3 to 8) (size 9 to 14) (size 15 to 20)
#    0.000    2.500    0.000    1.000    0.000    5.333 
#   27.000    0.000    0.000    0.000    0.000    0.000 
#    0.000    0.000    0.000    0.000    0.000    0.000 
#
# Total GULP energy -594909.547452 kJ/mol
# GULP energy per Si atom -12393.948905 kJ/mol
# Density = 2.081410 g / cm^3
# Si number density = 20.861580 Si / 1000 Ang^3
#
#
#
# Elastic Constant Matrix: (Units=GPa)
#
#
# Indices 1 2 3 4 5 6 
#
# 1 72.7474 35.4856 52.3916 0.0000 0.0000 0.0000
# 2 35.4856 72.7474 52.3916 0.0000 0.0000 0.0000
# 3 52.3916 52.3916 110.5309 0.0000 0.0000 0.0000
# 4 0.0000 0.0000 0.0000 32.9139 0.0000 0.0000
# 5 0.0000 0.0000 0.0000 0.0000 32.9139 0.0000
# 6 0.0000 0.0000 0.0000 0.0000 0.0000 31.0443
#
#
#
# Elastic Compliance Matrix: (Units=1/GPa)
#
#
# Indices 1 2 3 4 5 6 
#
# 1 0.021956 -0.004881 -0.008093 0.000000 0.000000 0.000000
# 2 -0.004881 0.021956 -0.008093 0.000000 0.000000 0.000000
# 3 -0.008093 -0.008093 0.016720 0.000000 0.000000 0.000000
# 4 0.000000 0.000000 0.000000 0.030382 0.000000 0.000000
# 5 0.000000 0.000000 0.000000 0.000000 0.030382 0.000000
# 6 0.000000 0.000000 0.000000 0.000000 0.000000 0.032212
#
#
# Mechanical properties :
#
#
# Convention : Reuss Voigt Hill
#
# Bulk Modulus (GPa) = 54.06676 59.61811 56.84244
# Shear Modulus (GPa) = 24.76353 27.09154 25.92753
#
# Velocity S-wave (km/s) = 3.44908 3.60756 3.52921
# Velocity P-wave (km/s) = 6.46798 6.78179 6.62674
#
# Compressibility (1/GPa) = 0.01849565
#
# Stress axis : x y z
#
# Youngs Moduli (GPa) = 45.54569 45.54569 59.80919
#
# Poissons Ratio (x) = 0.22232 0.48406
# Poissons Ratio (y) = 0.22232 0.48406
# Poissons Ratio (z) = 0.36862 0.36862
#
# Static dielectric constant tensor:
#      x y z
#    x 3.816250 0.000000 0.000000 
#    y 0.000000 3.816250 0.000000 
#    z 0.000000 0.000000 3.952290 
# 
# 
# High freq. dielectric constant tensor:
#      x y z
#    x 1.807320 0.000000 0.000000 
#    y 0.000000 1.807320 0.000000 
#    z 0.000000 0.000000 1.819780 
# 
# From -- ./inp_files/3973.got.cif
#   From: 2010.03.12/outbox.cif.g09.slc.cpg/sg114_2_cif.got.tgz:3973.got - 2010.04.14 02:08:34.
