data_PCOD8308738
_publ_section_title
;
Structure prediction by ZEFSAII (Michael W. Deem and Ramdas Pophale) SiO2 
 PCOD8308738
Probable space group: P -4 21 M 
;
_chemical_formula_sum "Si O2"
_cell_formula_units_Z 40
_cell_length_a 16.025378
_cell_length_b 16.025378
_cell_length_c 6.074538
_cell_angle_alpha 90.000000
_cell_angle_beta 90.000000
_cell_angle_gamma 90.000000
_cell_volume 1560.018748
_symmetry_space_group_name_H-M "P -4 21 M "
_symmetry_group_IT_number 113
_symmetry_cell_setting 'tetragonal'
loop_
_space_group_symop_operation_xyz
x,y,z
y,-x,-z
-x,-y,z
-y,x,-z
1/2+x,1/2-y,-z
1/2-x,1/2+y,-z
1/2-y,1/2-x,z
1/2+y,1/2+x,z
loop_
_atom_site_type_symbol
_atom_site_label
_atom_site_fract_x
_atom_site_fract_y
_atom_site_fract_z
Si Si1 0.514889 0.709994 0.018171
Si Si2 0.599854 0.230570 0.379551
Si Si3 0.865642 0.499462 0.287976
Si Si4 0.153398 0.787726 0.642357
Si Si5 0.115028 0.035233 0.606526
O O1 0.437571 0.709896 0.189786
O O2 0.607081 0.699044 0.125612
O O3 0.513491 0.798871 0.902256
O O4 0.502219 0.629987 0.854013
O O5 0.674538 0.174538 0.277194
O O6 0.526395 0.173863 0.477971
O O7 0.637028 0.281854 0.590694
O O8 0.929070 0.570931 0.204523
O O9 0.913018 0.413018 0.332722
O O10 0.197963 0.697963 0.628018
O O11 0.080860 0.797123 0.455411
O O12 0.037754 0.098981 0.574391
#
# Coordination Sequence:
#
# PCOD8308738 Si02
#       5
#     8   8   8   8   8
#     4  12  24  44  73 102 137 187 238 286 350 426
#     4  10  24  47  72 103 144 184 228 288 355 422
#     4  10  22  42  71 107 144 182 230 290 353 421
#     4  11  25  45  70 104 143 182 231 293 354 418
#     4  11  27  50  72 100 139 186 240 296 350 414
#
# _framework density 25.640716000000001
#
# number of rings (size 3 to 8) (size 9 to 14) (size 15 to 20)
#    0.000    1.200    0.000    4.800    0.000   11.200 
#    0.000   17.000    0.000    0.000    0.000    0.000 
#    0.000    0.000    0.000    0.000    0.000    0.000 
#
# Total GULP energy -495714.287324 kJ/mol
# GULP energy per Si atom -12392.857183 kJ/mol
# Density = 2.558236 g / cm^3
# Si number density = 25.640716 Si / 1000 Ang^3
#
#
#
# Elastic Constant Matrix: (Units=GPa)
#
#
# Indices 1 2 3 4 5 6 
#
# 1 123.7575 65.6775 71.2872 0.0000 0.0000 0.0000
# 2 65.6775 123.7577 71.2874 0.0000 0.0000 0.0000
# 3 71.2872 71.2874 133.0665 0.0000 0.0000 0.0000
# 4 0.0000 0.0000 0.0000 48.0283 0.0000 0.0000
# 5 0.0000 0.0000 0.0000 0.0000 48.0281 0.0000
# 6 0.0000 0.0000 0.0000 0.0000 0.0000 51.6806
#
#
#
# Elastic Compliance Matrix: (Units=1/GPa)
#
#
# Indices 1 2 3 4 5 6 
#
# 1 0.013031 -0.004186 -0.004739 0.000000 0.000000 0.000000
# 2 -0.004186 0.013031 -0.004739 0.000000 0.000000 0.000000
# 3 -0.004739 -0.004739 0.012592 0.000000 0.000000 0.000000
# 4 0.000000 0.000000 0.000000 0.020821 0.000000 0.000000
# 5 0.000000 0.000000 0.000000 0.000000 0.020821 0.000000
# 6 0.000000 0.000000 0.000000 0.000000 0.000000 0.019350
#
#
# Mechanical properties :
#
#
# Convention : Reuss Voigt Hill
#
# Bulk Modulus (GPa) = 88.27487 88.56510 88.41999
# Shear Modulus (GPa) = 38.24088 41.03604 39.63846
#
# Velocity S-wave (km/s) = 3.86607 4.00487 3.93608
# Velocity P-wave (km/s) = 7.37774 7.48339 7.43075
#
# Compressibility (1/GPa) = 0.01132825
#
# Stress axis : x y z
#
# Youngs Moduli (GPa) = 76.73740 76.73734 79.41352
#
# Poissons Ratio (x) = 0.32123 0.37631
# Poissons Ratio (y) = 0.32123 0.37632
# Poissons Ratio (z) = 0.36363 0.36363
#
# Static dielectric constant tensor:
#      x y z
#    x 4.968870 0.000000 0.000000 
#    y 0.000000 4.968870 0.000000 
#    z 0.000000 0.000000 4.348860 
# 
# 
# High freq. dielectric constant tensor:
#      x y z
#    x 2.042060 0.000000 0.000000 
#    y 0.000000 2.042060 0.000000 
#    z 0.000000 0.000000 2.002800 
# 
# From -- ./inp_files/333.got.cif
#   From: 2010.03.12/outbox.cif.g09.slc.cpg/sg113_cif.got.tgz:333.got - 2010.04.14 02:06:34.
