data_PCOD8308429
_publ_section_title
;
Structure prediction by ZEFSAII (Michael W. Deem and Ramdas Pophale) SiO2 
 PCOD8308429
Probable space group: P -4 2 C
;
_chemical_formula_sum "Si O2"
_cell_formula_units_Z 26
_cell_length_a 11.282250
_cell_length_b 11.282250
_cell_length_c 9.942757
_cell_angle_alpha 90.000000
_cell_angle_beta 90.000000
_cell_angle_gamma 90.000000
_cell_volume 1265.605237
_symmetry_space_group_name_H-M "P -4 2 C"
_symmetry_group_IT_number 112
_symmetry_cell_setting 'tetragonal'
loop_
_space_group_symop_operation_xyz
x,y,z
y,-x,-z
-x,-y,z
-y,x,-z
x,-y,1/2-z
-x,y,1/2-z
-y,-x,1/2+z
y,x,1/2+z
loop_
_atom_site_type_symbol
_atom_site_label
_atom_site_fract_x
_atom_site_fract_y
_atom_site_fract_z
Si Si1 0.500000 0.000000 0.750000
Si Si2 0.218404 0.523576 0.107425
Si Si3 0.235573 0.729026 0.509758
Si Si4 0.864461 0.140007 0.261131
O O1 0.576841 0.911211 0.845369
O O2 0.289396 0.500000 0.250000
O O3 0.194105 0.403453 0.024756
O O4 0.278915 0.620498 0.012374
O O5 0.186234 0.823603 0.405149
O O6 0.193387 0.772487 0.654686
O O7 0.000000 0.186514 0.250000
O O8 0.862350 0.000000 0.250000
#
# Coordination Sequence:
#
# PCOD8308429 Si02
#       4
#     2   8   8   8
#     4   8  20  44  68  92 134 192 204 286 334 394
#     4  10  24  42  67  97 134 179 222 273 341 397
#     4  12  24  44  68  98 132 184 222 280 338 406
#     4  11  25  41  65  99 137 175 222 282 345 407
#
# _framework density 20.543531000000002
#
# number of rings (size 3 to 8) (size 9 to 14) (size 15 to 20)
#    0.923    0.308    3.077    1.846   12.923    4.308 
#    0.000    3.077    0.000    0.000    0.000    0.000 
#    0.000    0.000    0.000    0.000    0.000    0.000 
#
# Total GULP energy -322092.315527 kJ/mol
# GULP energy per Si atom -12388.165982 kJ/mol
# Density = 2.049677 g / cm^3
# Si number density = 20.543531 Si / 1000 Ang^3
#
#
#
# Elastic Constant Matrix: (Units=GPa)
#
#
# Indices 1 2 3 4 5 6 
#
# 1 115.9140 14.6044 22.2236 0.0000 0.0000 0.0000
# 2 14.6044 115.9140 22.2236 0.0000 0.0000 0.0000
# 3 22.2236 22.2236 49.5181 0.0000 0.0000 0.0000
# 4 0.0000 0.0000 0.0000 31.1408 0.0000 0.0000
# 5 0.0000 0.0000 0.0000 0.0000 31.1408 0.0000
# 6 0.0000 0.0000 0.0000 0.0000 0.0000 13.7686
#
#
#
# Elastic Compliance Matrix: (Units=1/GPa)
#
#
# Indices 1 2 3 4 5 6 
#
# 1 0.009457 -0.000413 -0.004059 0.000000 0.000000 0.000000
# 2 -0.000413 0.009457 -0.004059 0.000000 0.000000 0.000000
# 3 -0.004059 -0.004059 0.023838 0.000000 0.000000 0.000000
# 4 0.000000 0.000000 0.000000 0.032112 0.000000 0.000000
# 5 0.000000 0.000000 0.000000 0.000000 0.032112 0.000000
# 6 0.000000 0.000000 0.000000 0.000000 0.000000 0.072629
#
#
# Mechanical properties :
#
#
# Convention : Reuss Voigt Hill
#
# Bulk Modulus (GPa) = 38.92532 44.38324 41.65428
# Shear Modulus (GPa) = 24.36265 30.02966 27.19615
#
# Velocity S-wave (km/s) = 3.44743 3.82744 3.64240
# Velocity P-wave (km/s) = 5.90214 6.41746 6.16519
#
# Compressibility (1/GPa) = 0.02569022
#
# Stress axis : x y z
#
# Youngs Moduli (GPa) = 105.73770 105.73770 41.94995
#
# Poissons Ratio (x) = 0.04371 0.17027
# Poissons Ratio (y) = 0.04371 0.17027
# Poissons Ratio (z) = 0.42918 0.42918
#
# Static dielectric constant tensor:
#      x y z
#    x 3.775130 0.000000 0.000000 
#    y 0.000000 3.775130 0.000000 
#    z 0.000000 0.000000 3.805620 
# 
# 
# High freq. dielectric constant tensor:
#      x y z
#    x 1.799820 0.000000 0.000000 
#    y 0.000000 1.799820 0.000000 
#    z 0.000000 0.000000 1.804860 
# 
# From -- ./inp_files/858.got.cif
#   From: 2010.03.12/outbox.cif.g09.slc.cpg/sg112_1_cif.got.tgz:858.got - 2010.04.14 02:02:48.
