data_PCOD8308923
_publ_section_title
;
Structure prediction by ZEFSAII (Michael W. Deem and Ramdas Pophale) SiO2 
 PCOD8308923
Probable space group: P -4 21 C
;
_chemical_formula_sum "Si O2"
_cell_formula_units_Z 60
_cell_length_a 17.045838
_cell_length_b 17.045838
_cell_length_c 9.105696
_cell_angle_alpha 90.000000
_cell_angle_beta 90.000000
_cell_angle_gamma 90.000000
_cell_volume 2645.756431
_symmetry_space_group_name_H-M "P -4 21 C"
_symmetry_group_IT_number 114
_symmetry_cell_setting 'tetragonal'
loop_
_space_group_symop_operation_xyz
x,y,z
y,-x,-z
-x,-y,z
-y,x,-z
1/2+x,1/2-y,1/2-z
1/2-x,1/2+y,1/2-z
1/2-y,1/2-x,1/2+z
1/2+y,1/2+x,1/2+z
loop_
_atom_site_type_symbol
_atom_site_label
_atom_site_fract_x
_atom_site_fract_y
_atom_site_fract_z
Si Si1 0.828482 0.306756 0.443972
Si Si2 0.253628 0.328650 0.667151
Si Si3 0.024286 0.665552 0.035867
Si Si4 0.500000 0.000000 0.040421
Si Si5 0.886276 0.711273 0.849842
Si Si6 0.331006 0.998604 0.648307
Si Si7 0.050068 0.202113 0.586381
Si Si8 0.838981 0.878547 0.381861
O O1 0.765094 0.268795 0.334372
O O2 0.797076 0.389961 0.509851
O O3 0.844919 0.246126 0.575042
O O4 0.907209 0.325283 0.354723
O O5 0.177933 0.348440 0.775422
O O6 0.246261 0.352352 0.498955
O O7 0.330867 0.368297 0.738301
O O8 0.030695 0.571413 0.060826
O O9 0.971116 0.675764 0.889718
O O10 0.981236 0.699680 0.183263
O O11 0.472034 0.922141 0.131187
O O12 0.897964 0.776206 0.726135
O O13 0.276716 0.959845 0.522802
O O14 0.097036 0.132610 0.508845
O O15 0.970073 0.167057 0.649364
#
# Coordination Sequence:
#
# PCOD8308923 Si02
#       8
#     8   8   8   4   8   8   8   8
#     4  10  21  42  68  95 132 174 233 267 333 400
#     4  12  23  42  69  98 136 181 226 280 342 401
#     4  11  24  38  62  94 131 181 218 281 321 407
#     4  10  24  36  56  90 140 176 218 260 332 394
#     4  12  26  40  65  99 138 174 235 280 337 411
#     4  10  23  41  65  94 136 177 225 270 336 400
#     4  11  25  45  68 102 132 174 234 286 349 410
#     4  11  23  45  73  98 135 180 227 289 344 414
#
# _framework density 22.677824999999999
#
# number of rings (size 3 to 8) (size 9 to 14) (size 15 to 20)
#    0.000    1.067    2.667    2.800    5.600    5.600 
#    0.000    1.333    0.000    0.000    0.000    0.000 
#    0.000    0.000    0.000    0.000    0.000    0.000 
#
# Total GULP energy -743725.829663 kJ/mol
# GULP energy per Si atom -12395.430494 kJ/mol
# Density = 2.262621 g / cm^3
# Si number density = 22.677825 Si / 1000 Ang^3
#
#
#
# Elastic Constant Matrix: (Units=GPa)
#
#
# Indices 1 2 3 4 5 6 
#
# 1 74.4014 18.1916 25.5185 0.0000 0.0000 0.0000
# 2 18.1916 74.4014 25.5185 0.0000 0.0000 0.0000
# 3 25.5185 25.5185 131.8825 0.0000 0.0000 0.0000
# 4 0.0000 0.0000 0.0000 25.9541 0.0000 0.0000
# 5 0.0000 0.0000 0.0000 0.0000 25.9541 0.0000
# 6 0.0000 0.0000 0.0000 0.0000 0.0000 16.0051
#
#
#
# Elastic Compliance Matrix: (Units=1/GPa)
#
#
# Indices 1 2 3 4 5 6 
#
# 1 0.014940 -0.002851 -0.002339 0.000000 0.000000 0.000000
# 2 -0.002851 0.014940 -0.002339 0.000000 0.000000 0.000000
# 3 -0.002339 -0.002339 0.008488 0.000000 0.000000 0.000000
# 4 0.000000 0.000000 0.000000 0.038530 0.000000 0.000000
# 5 0.000000 0.000000 0.000000 0.000000 0.038530 0.000000
# 6 0.000000 0.000000 0.000000 0.000000 0.000000 0.062480
#
#
# Mechanical properties :
#
#
# Convention : Reuss Voigt Hill
#
# Bulk Modulus (GPa) = 42.90089 46.57140 44.73615
# Shear Modulus (GPa) = 24.90851 27.67978 26.29415
#
# Velocity S-wave (km/s) = 3.31775 3.49745 3.40879
# Velocity P-wave (km/s) = 5.79959 6.07373 5.93824
#
# Compressibility (1/GPa) = 0.02330954
#
# Stress axis : x y z
#
# Youngs Moduli (GPa) = 66.93486 66.93486 117.81679
#
# Poissons Ratio (x) = 0.19080 0.27560
# Poissons Ratio (y) = 0.19080 0.27560
# Poissons Ratio (z) = 0.15657 0.15657
#
# Static dielectric constant tensor:
#      x y z
#    x 4.206940 0.000000 0.000000 
#    y 0.000000 4.206940 0.000000 
#    z 0.000000 0.000000 4.023010 
# 
# 
# High freq. dielectric constant tensor:
#      x y z
#    x 1.889750 0.000000 0.000000 
#    y 0.000000 1.889750 0.000000 
#    z 0.000000 0.000000 1.896120 
# 
# From -- ./inp_files/1041.got.cif
#   From: 2010.03.12/outbox.cif.g09.slc.cpg/sg114_1_cif.got.tgz:1041.got - 2010.04.14 02:08:34.
