data_PCOD8308284
_publ_section_title
;
Structure prediction by ZEFSAII (Michael W. Deem and Ramdas Pophale) SiO2 
 PCOD8308284
Probable space group: P -4 2 M 
;
_chemical_formula_sum "Si O2"
_cell_formula_units_Z 38
_cell_length_a 14.949578
_cell_length_b 14.949578
_cell_length_c 7.832537
_cell_angle_alpha 90.000000
_cell_angle_beta 90.000000
_cell_angle_gamma 90.000000
_cell_volume 1750.492773
_symmetry_space_group_name_H-M "P -4 2 M "
_symmetry_group_IT_number 111
_symmetry_cell_setting 'tetragonal'
loop_
_space_group_symop_operation_xyz
x,y,z
y,-x,-z
-x,-y,z
-y,x,-z
x,-y,-z
-x,y,-z
-y,-x,z
y,x,z
loop_
_atom_site_type_symbol
_atom_site_label
_atom_site_fract_x
_atom_site_fract_y
_atom_site_fract_z
Si Si1 0.248783 0.751218 0.387836
Si Si2 0.637958 0.362043 0.650350
Si Si3 0.959022 0.303350 0.682475
Si Si4 0.622513 0.868632 0.836125
Si Si5 0.500000 0.500000 0.500000
Si Si6 0.000000 0.000000 0.500000
Si Si7 0.135034 0.135034 0.341362
Si Si8 0.818516 0.423930 0.785735
O O1 0.315400 0.684601 0.488506
O O2 0.188015 0.695018 0.261640
O O3 0.185439 0.814562 0.501746
O O4 0.563769 0.436232 0.610362
O O5 0.712752 0.412382 0.762165
O O6 0.918158 0.211744 0.764685
O O7 0.874778 0.369068 0.644179
O O8 0.000000 0.278189 0.500000
O O9 0.027101 0.352681 0.810102
O O10 0.525767 0.845916 0.760749
O O11 0.620597 0.846932 0.035693
O O12 0.062107 0.062107 0.386883
#
# Coordination Sequence:
#
# PCOD8308284 Si02
#       8
#     4   4   8   8   1   1   4   8
#     4  12  21  42  66  95 130 178 233 276 353 417
#     4  12  23  45  68  99 136 180 229 298 353 416
#     4  12  22  40  64  96 130 172 232 282 347 410
#     4  11  24  40  65  96 133 179 229 282 349 422
#     4  12  28  40  72 106 136 176 252 310 356 424
#     4  12  20  36  60  88 130 152 204 264 330 412
#     4  12  22  40  63  96 126 172 216 283 345 406
#     4  11  24  42  63  95 137 179 225 288 352 420
#
# _framework density 21.708175000000001
#
# number of rings (size 3 to 8) (size 9 to 14) (size 15 to 20)
#    0.000    0.421    5.263    3.158    0.000    5.053 
#    0.000    1.053    0.000    2.526    0.000    1.474 
#    0.000    0.000    0.000    0.000    0.000    0.000 
#
# Total GULP energy -471124.752924 kJ/mol
# GULP energy per Si atom -12398.019814 kJ/mol
# Density = 2.165877 g / cm^3
# Si number density = 21.708175 Si / 1000 Ang^3
#
#
#
# Elastic Constant Matrix: (Units=GPa)
#
#
# Indices 1 2 3 4 5 6 
#
# 1 172.1674 94.5122 31.1396 0.0000 0.0000 0.0000
# 2 94.5122 172.1689 31.1403 0.0000 0.0000 0.0000
# 3 31.1396 31.1403 33.0618 0.0000 0.0000 0.0000
# 4 0.0000 0.0000 0.0000 29.7155 0.0000 0.0000
# 5 0.0000 0.0000 0.0000 0.0000 29.7149 0.0000
# 6 0.0000 0.0000 0.0000 0.0000 0.0000 67.2897
#
#
#
# Elastic Compliance Matrix: (Units=1/GPa)
#
#
# Indices 1 2 3 4 5 6 
#
# 1 0.008842 -0.004035 -0.004528 0.000000 0.000000 0.000000
# 2 -0.004035 0.008842 -0.004528 0.000000 0.000000 0.000000
# 3 -0.004528 -0.004528 0.038776 0.000000 0.000000 0.000000
# 4 0.000000 0.000000 0.000000 0.033653 0.000000 0.000000
# 5 0.000000 0.000000 0.000000 0.000000 0.033653 0.000000
# 6 0.000000 0.000000 0.000000 0.000000 0.000000 0.014861
#
#
# Mechanical properties :
#
#
# Convention : Reuss Voigt Hill
#
# Bulk Modulus (GPa) = 33.02631 76.77581 54.90106
# Shear Modulus (GPa) = 28.58760 40.05108 34.31934
#
# Velocity S-wave (km/s) = 3.63285 4.29998 3.98042
# Velocity P-wave (km/s) = 5.73094 7.75223 6.81692
#
# Compressibility (1/GPa) = 0.03027889
#
# Stress axis : x y z
#
# Youngs Moduli (GPa) = 113.09314 113.09338 25.78943
#
# Poissons Ratio (x) = 0.45634 0.11677
# Poissons Ratio (y) = 0.45634 0.11677
# Poissons Ratio (z) = 0.51205 0.51207
#
# Static dielectric constant tensor:
#      x y z
#    x 4.370790 0.000000 0.000000 
#    y 0.000000 4.370790 0.000000 
#    z 0.000000 0.000000 3.663400 
# 
# 
# High freq. dielectric constant tensor:
#      x y z
#    x 1.877240 0.000000 0.000000 
#    y 0.000000 1.877240 0.000000 
#    z 0.000000 0.000000 1.824910 
# 
# From -- ./inp_files/1510.got.cif
#   From: 2010.03.12/outbox.cif.g09.slc.cpg/sg111_1_cif.got.tgz:1510.got - 2010.04.14 01:59:48.
