data_PCOD8308419
_publ_section_title
;
Structure prediction by ZEFSAII (Michael W. Deem and Ramdas Pophale) SiO2 
 PCOD8308419
Probable space group: P -4 2 C
;
_chemical_formula_sum "Si O2"
_cell_formula_units_Z 30
_cell_length_a 9.146731
_cell_length_b 9.146731
_cell_length_c 18.690794
_cell_angle_alpha 90.000000
_cell_angle_beta 90.000000
_cell_angle_gamma 90.000000
_cell_volume 1563.722067
_symmetry_space_group_name_H-M "P -4 2 C"
_symmetry_group_IT_number 112
_symmetry_cell_setting 'tetragonal'
loop_
_space_group_symop_operation_xyz
x,y,z
y,-x,-z
-x,-y,z
-y,x,-z
x,-y,1/2-z
-x,y,1/2-z
-y,-x,1/2+z
y,x,1/2+z
loop_
_atom_site_type_symbol
_atom_site_label
_atom_site_fract_x
_atom_site_fract_y
_atom_site_fract_z
Si Si1 0.900830 0.710868 0.312337
Si Si2 0.471152 0.727159 0.023316
Si Si3 0.500000 0.000000 0.930828
Si Si4 0.000000 0.000000 0.250000
Si Si5 0.567024 0.660952 0.320824
O O1 0.738180 0.650485 0.306129
O O2 0.000000 0.639885 0.250000
O O3 0.963251 0.646597 0.386260
O O4 0.906654 0.890339 0.302794
O O5 0.472102 0.754766 0.108903
O O6 0.622563 0.662691 0.995700
O O7 0.442415 0.875116 0.982608
O O8 0.500000 0.500000 0.332332
O O9 0.500000 0.736473 0.250000
#
# Coordination Sequence:
#
# PCOD8308419 Si02
#       5
#     8   8   4   2   8
#     4  10  23  43  65  98 131 174 232 268 336 406
#     4  11  22  43  60  93 136 163 220 279 325 390
#     4  12  23  40  71  94 126 188 220 274 331 406
#     4   8  24  42  66  94 148 170 216 280 320 410
#     4  11  23  40  68  98 128 175 219 280 334 384
#
# _framework density 19.184995000000001
#
# number of rings (size 3 to 8) (size 9 to 14) (size 15 to 20)
#    0.800    0.533    5.333    0.400   11.200    0.000 
#    9.600    0.000    0.000    0.000    0.000    0.000 
#    0.000    0.000    0.000    0.000    0.000    0.000 
#
# Total GULP energy -371719.983007 kJ/mol
# GULP energy per Si atom -12390.666100 kJ/mol
# Density = 1.914133 g / cm^3
# Si number density = 19.184995 Si / 1000 Ang^3
#
#
#
# Elastic Constant Matrix: (Units=GPa)
#
#
# Indices 1 2 3 4 5 6 
#
# 1 125.1340 40.3914 52.6730 0.0000 0.0000 0.0000
# 2 40.3914 125.1340 52.6730 0.0000 0.0000 0.0000
# 3 52.6730 52.6730 185.0069 0.0000 0.0000 0.0000
# 4 0.0000 0.0000 0.0000 30.8534 0.0000 0.0000
# 5 0.0000 0.0000 0.0000 0.0000 30.8534 0.0000
# 6 0.0000 0.0000 0.0000 0.0000 0.0000 14.3353
#
#
#
# Elastic Compliance Matrix: (Units=1/GPa)
#
#
# Indices 1 2 3 4 5 6 
#
# 1 0.009589 -0.002211 -0.002101 0.000000 0.000000 0.000000
# 2 -0.002211 0.009589 -0.002101 0.000000 0.000000 0.000000
# 3 -0.002101 -0.002101 0.006601 0.000000 0.000000 0.000000
# 4 0.000000 0.000000 0.000000 0.032411 0.000000 0.000000
# 5 0.000000 0.000000 0.000000 0.000000 0.032411 0.000000
# 6 0.000000 0.000000 0.000000 0.000000 0.000000 0.069758
#
#
# Mechanical properties :
#
#
# Convention : Reuss Voigt Hill
#
# Bulk Modulus (GPa) = 77.18844 80.74995 78.96919
# Shear Modulus (GPa) = 28.16842 34.51093 31.33967
#
# Velocity S-wave (km/s) = 3.83594 4.24589 4.04611
# Velocity P-wave (km/s) = 7.74211 8.13746 7.94225
#
# Compressibility (1/GPa) = 0.01295531
#
# Stress axis : x y z
#
# Youngs Moduli (GPa) = 104.28211 104.28211 151.48407
#
# Poissons Ratio (x) = 0.23058 0.31822
# Poissons Ratio (y) = 0.23058 0.31822
# Poissons Ratio (z) = 0.21906 0.21906
#
# Static dielectric constant tensor:
#      x y z
#    x 3.304820 0.000000 0.000000 
#    y 0.000000 3.304820 0.000000 
#    z 0.000000 0.000000 3.887730 
# 
# 
# High freq. dielectric constant tensor:
#      x y z
#    x 1.733150 0.000000 0.000000 
#    y 0.000000 1.733150 0.000000 
#    z 0.000000 0.000000 1.761300 
# 
# From -- ./inp_files/4556.got.cif
#   From: 2010.03.12/outbox.cif.g09.slc.cpg/sg112_3_cif.got.tgz:4556.got - 2010.04.14 02:02:48.
