data_PCOD8308041
_publ_section_title
;
Structure prediction by ZEFSAII (Michael W. Deem and Ramdas Pophale) SiO2 
 PCOD8308041
Probable space group: I 41 C D
;
_chemical_formula_sum "Si O2"
_cell_formula_units_Z 120
_cell_length_a 18.834886
_cell_length_b 18.834886
_cell_length_c 15.717811
_cell_angle_alpha 90.000000
_cell_angle_beta 90.000000
_cell_angle_gamma 90.000000
_cell_volume 5575.939515
_symmetry_space_group_name_H-M "I 41 C D"
_symmetry_group_IT_number 110
_symmetry_cell_setting 'tetragonal'
loop_
_space_group_symop_operation_xyz
x,y,z
-y,1/2+x,1/4+z
-x,-y,z
y,1/2-x,1/4+z
-x,y,1/2+z
x,-y,1/2+z
1/2-y,-x,1/4+z
1/2+y,x,1/4+z
1/2+x,1/2+y,1/2+z
1/2-y,x,3/4+z
1/2-x,1/2-y,1/2+z
1/2+y,-x,3/4+z
1/2-x,1/2+y,z
1/2+x,1/2-y,z
-y,1/2-x,3/4+z
y,1/2+x,3/4+z
loop_
_atom_site_type_symbol
_atom_site_label
_atom_site_fract_x
_atom_site_fract_y
_atom_site_fract_z
Si Si1 0.141076 0.988410 0.195670
Si Si2 0.149300 0.175641 0.652046
Si Si3 0.610286 0.732975 0.654877
Si Si4 0.796175 0.651640 0.083881
Si Si5 0.122837 0.456249 0.177761
Si Si6 0.500000 0.000000 0.049432
Si Si7 0.722166 0.022726 0.800800
Si Si8 0.397977 0.167265 0.808703
O O1 0.131102 0.906683 0.168814
O O2 0.067248 0.014722 0.238177
O O3 0.201136 0.004129 0.264607
O O4 0.164091 0.029134 0.110337
O O5 0.230277 0.188461 0.628338
O O6 0.136923 0.220934 0.736518
O O7 0.102829 0.214646 0.581434
O O8 0.635502 0.797385 0.594036
O O9 0.530247 0.710854 0.630613
O O10 0.613445 0.758896 0.754230
O O11 0.659274 0.665394 0.628479
O O12 0.811005 0.575984 0.126257
O O13 0.065999 0.486596 0.111964
O O14 0.157815 0.518045 0.233339
O O15 0.093245 0.395829 0.240624
#
# Coordination Sequence:
#
# PCOD8308041 Si02
#       8
#    16  16  16  16  16   8  16  16
#     4  12  26  45  63 109 141 185 237 306 354 441
#     4  12  26  42  75 101 138 190 234 294 367 435
#     4  10  21  45  68  99 131 190 225 294 356 427
#     4  11  21  47  72  96 138 186 237 283 370 436
#     4  10  22  43  66  97 137 191 224 304 350 436
#     4  12  26  40  72 102 148 186 250 286 380 430
#     4  11  25  43  67 101 143 178 245 291 365 422
#     4  10  24  39  72  96 142 175 238 282 364 419
#
# _framework density 21.521038999999998
#
# number of rings (size 3 to 8) (size 9 to 14) (size 15 to 20)
#    0.000    1.067    4.000    2.400    7.467    4.267 
#    0.000    0.000    0.000    0.000    0.000    0.000 
#    0.000    0.000    0.000    0.000    0.000    0.000 
#
# Total GULP energy -743700.530285 kJ/mol
# GULP energy per Si atom -12395.008838 kJ/mol
# Density = 2.147206 g / cm^3
# Si number density = 21.521039 Si / 1000 Ang^3
#
#
#
# Elastic Constant Matrix: (Units=GPa)
#
#
# Indices 1 2 3 4 5 6 
#
# 1 50.6648 44.2632 36.7954 0.0000 0.0000 0.0000
# 2 44.2632 50.6648 36.7954 0.0000 0.0000 0.0000
# 3 36.7954 36.7954 118.6993 0.0000 0.0000 0.0000
# 4 0.0000 0.0000 0.0000 20.6025 0.0000 0.0000
# 5 0.0000 0.0000 0.0000 0.0000 20.6025 0.0000
# 6 0.0000 0.0000 0.0000 0.0000 0.0000 33.5351
#
#
#
# Elastic Compliance Matrix: (Units=1/GPa)
#
#
# Indices 1 2 3 4 5 6 
#
# 1 0.085039 -0.071172 -0.004298 0.000000 0.000000 0.000000
# 2 -0.071172 0.085039 -0.004298 0.000000 0.000000 0.000000
# 3 -0.004298 -0.004298 0.011090 0.000000 0.000000 0.000000
# 4 0.000000 0.000000 0.000000 0.048538 0.000000 0.000000
# 5 0.000000 0.000000 0.000000 0.000000 0.048538 0.000000
# 6 0.000000 0.000000 0.000000 0.000000 0.000000 0.029820
#
#
# Mechanical properties :
#
#
# Convention : Reuss Voigt Hill
#
# Bulk Modulus (GPa) = 46.23449 50.63743 48.43596
# Shear Modulus (GPa) = 10.53051 21.75969 16.14510
#
# Velocity S-wave (km/s) = 2.21444 3.18321 2.74195
# Velocity P-wave (km/s) = 5.29796 6.09022 5.70785
#
# Compressibility (1/GPa) = 0.02162888
#
# Stress axis : x y z
#
# Youngs Moduli (GPa) = 11.75931 11.75931 90.17455
#
# Poissons Ratio (x) = 0.83694 0.38761
# Poissons Ratio (y) = 0.83694 0.38761
# Poissons Ratio (z) = 0.05055 0.05055
#
# Static dielectric constant tensor:
#      x y z
#    x 3.810930 0.000000 0.000000 
#    y 0.000000 3.810930 0.000000 
#    z 0.000000 0.000000 4.045050 
# 
# 
# High freq. dielectric constant tensor:
#      x y z
#    x 1.839050 0.000000 0.000000 
#    y 0.000000 1.839050 0.000000 
#    z 0.000000 0.000000 1.854850 
# 
# From -- ./inp_files/1799.got.cif
#   From: 2010.03.12/outbox.cif.g09.slc.cpg/sg110_1_cif.got.tgz:1799.got - 2010.04.14 01:58:01.
