data_PCOD8308272
_publ_section_title
;
Structure prediction by ZEFSAII (Michael W. Deem and Ramdas Pophale) SiO2 
 PCOD8308272
Probable space group: P -4 2 M 
;
_chemical_formula_sum "Si O2"
_cell_formula_units_Z 56
_cell_length_a 20.134173
_cell_length_b 20.134173
_cell_length_c 9.399146
_cell_angle_alpha 90.000000
_cell_angle_beta 90.000000
_cell_angle_gamma 90.000000
_cell_volume 3810.272072
_symmetry_space_group_name_H-M "P -4 2 M "
_symmetry_group_IT_number 111
_symmetry_cell_setting 'tetragonal'
loop_
_space_group_symop_operation_xyz
x,y,z
y,-x,-z
-x,-y,z
-y,x,-z
x,-y,-z
-x,y,-z
-y,-x,z
y,x,z
loop_
_atom_site_type_symbol
_atom_site_label
_atom_site_fract_x
_atom_site_fract_y
_atom_site_fract_z
Si Si1 0.644191 0.249618 0.291823
Si Si2 0.582255 0.882969 0.658025
Si Si3 0.563627 0.665507 0.905711
Si Si4 0.570799 0.131292 0.664960
Si Si5 0.006969 0.421549 0.158188
Si Si6 0.377600 0.519633 0.661249
Si Si7 0.623736 0.728597 0.389326
O O1 0.719184 0.280816 0.283959
O O2 0.639522 0.169917 0.297422
O O3 0.604018 0.270495 0.149332
O O4 0.610163 0.272994 0.440411
O O5 0.507824 0.855847 0.695572
O O6 0.582300 0.899459 0.490985
O O7 0.604797 0.948652 0.740718
O O8 0.613813 0.613813 0.986122
O O9 0.543551 0.629468 0.760272
O O10 0.500000 0.685376 0.000000
O O11 0.614765 0.198280 0.678008
O O12 0.599052 0.078527 0.778587
O O13 0.000000 0.500000 0.153249
O O14 0.000000 0.391059 0.000000
O O15 0.386066 0.500000 0.500000
O O16 0.443697 0.556304 0.712291
O O17 0.314704 0.567396 0.684588
O O18 0.696944 0.696944 0.356590
#
# Coordination Sequence:
#
# PCOD8308272 Si02
#       7
#     8   8   8   8   8   8   8
#     4   9  17  31  46  61  79 103 134 168 204 249
#     4   9  16  27  45  64  79 105 132 165 204 246
#     4  11  22  34  42  52  74 100 132 174 220 266
#     4   9  16  26  45  63  82 105 132 163 204 248
#     4   9  17  29  41  62  87 102 126 161 203 247
#     4  11  20  30  44  58  72  94 131 175 215 257
#     4   9  17  29  46  64  80  99 133 173 205 244
#
# _framework density 14.697113
#
# number of rings (size 3 to 8) (size 9 to 14) (size 15 to 20)
#    0.000    2.429    1.429    2.143    2.000    3.429 
#    7.714    0.000    0.000    0.000    0.000    0.000 
#    0.000    0.000    0.000    0.000    0.000    0.714 
#
# Total GULP energy -693810.678363 kJ/mol
# GULP energy per Si atom -12389.476399 kJ/mol
# Density = 1.466366 g / cm^3
# Si number density = 14.697113 Si / 1000 Ang^3
#
#
#
# Elastic Constant Matrix: (Units=GPa)
#
#
# Indices 1 2 3 4 5 6 
#
# 1 64.7975 33.7361 24.5796 0.0000 0.0000 0.0000
# 2 33.7361 64.7983 24.5795 0.0000 0.0000 0.0000
# 3 24.5796 24.5795 56.0987 0.0000 0.0000 0.0000
# 4 0.0000 0.0000 0.0000 15.8752 0.0000 0.0000
# 5 0.0000 0.0000 0.0000 0.0000 15.8738 0.0000
# 6 0.0000 0.0000 0.0000 0.0000 0.0000 12.3287
#
#
#
# Elastic Compliance Matrix: (Units=1/GPa)
#
#
# Indices 1 2 3 4 5 6 
#
# 1 0.022591 -0.009603 -0.005691 0.000000 0.000000 0.000000
# 2 -0.009603 0.022591 -0.005690 0.000000 0.000000 0.000000
# 3 -0.005691 -0.005690 0.022812 0.000000 0.000000 0.000000
# 4 0.000000 0.000000 0.000000 0.062992 0.000000 0.000000
# 5 0.000000 0.000000 0.000000 0.000000 0.062997 0.000000
# 6 0.000000 0.000000 0.000000 0.000000 0.000000 0.081112
#
#
# Mechanical properties :
#
#
# Convention : Reuss Voigt Hill
#
# Bulk Modulus (GPa) = 38.42362 39.05389 38.73875
# Shear Modulus (GPa) = 15.34976 15.66881 15.50928
#
# Velocity S-wave (km/s) = 3.23523 3.26868 3.25200
# Velocity P-wave (km/s) = 6.33688 6.39343 6.36522
#
# Compressibility (1/GPa) = 0.02602566
#
# Stress axis : x y z
#
# Youngs Moduli (GPa) = 44.26533 44.26612 43.83584
#
# Poissons Ratio (x) = 0.42509 0.24946
# Poissons Ratio (y) = 0.42508 0.24945
# Poissons Ratio (z) = 0.25190 0.25189
#
# Static dielectric constant tensor:
#      x y z
#    x 2.683420 0.000000 0.000000 
#    y 0.000000 2.683420 0.000000 
#    z 0.000000 0.000000 2.901340 
# 
# 
# High freq. dielectric constant tensor:
#      x y z
#    x 1.526540 0.000000 0.000000 
#    y 0.000000 1.526540 0.000000 
#    z 0.000000 0.000000 1.565610 
# 
# From -- ./inp_files/1937.got.cif
#   From: 2010.03.12/outbox.cif.g09.slc.cpg/sg111_1_cif.got.tgz:1937.got - 2010.04.14 01:59:48.
