data_PCOD8308542
_publ_section_title
;
Structure prediction by ZEFSAII (Michael W. Deem and Ramdas Pophale) SiO2 
 PCOD8308542
Probable space group: P -4 21 M 
;
_chemical_formula_sum "Si O2"
_cell_formula_units_Z 64
_cell_length_a 17.487691
_cell_length_b 17.487691
_cell_length_c 11.854715
_cell_angle_alpha 90.000000
_cell_angle_beta 90.000000
_cell_angle_gamma 90.000000
_cell_volume 3625.401076
_symmetry_space_group_name_H-M "P -4 21 M "
_symmetry_group_IT_number 113
_symmetry_cell_setting 'tetragonal'
loop_
_space_group_symop_operation_xyz
x,y,z
y,-x,-z
-x,-y,z
-y,x,-z
1/2+x,1/2-y,-z
1/2-x,1/2+y,-z
1/2-y,1/2-x,z
1/2+y,1/2+x,z
loop_
_atom_site_type_symbol
_atom_site_label
_atom_site_fract_x
_atom_site_fract_y
_atom_site_fract_z
Si Si1 0.056599 0.134784 0.155519
Si Si2 0.865216 0.943400 0.655518
Si Si3 0.204578 0.418835 0.700718
Si Si4 0.305774 0.681177 0.190326
Si Si5 0.680300 0.569841 0.508706
Si Si6 0.680299 0.430159 0.991293
Si Si7 0.694228 0.681176 0.309672
Si Si8 0.795422 0.418834 0.799283
O O1 0.114081 0.194856 0.215572
O O2 0.999999 0.097171 0.250000
O O3 0.006711 0.180594 0.064789
O O4 0.106080 0.069732 0.091815
O O5 0.805144 0.885918 0.715573
O O6 0.930268 0.893920 0.591813
O O7 0.819405 0.993288 0.564790
O O8 0.126955 0.373046 0.682924
O O9 0.261446 0.375551 0.786206
O O10 0.242347 0.429698 0.578979
O O11 0.182028 0.500001 0.749998
O O12 0.224757 0.724757 0.196202
O O13 0.320405 0.646299 0.067079
O O14 0.679596 0.646298 0.432919
O O15 0.757652 0.429699 0.921021
O O16 0.775247 0.724754 0.303795
O O17 0.624453 0.738555 0.286204
O O18 0.873046 0.373046 0.817080
#
# Coordination Sequence:
#
# PCOD8308542 Si02
#       8
#     8   8   8   8   8   8   8   8
#     4   9  19  32  48  72 102 129 162 201 238 285
#     4   9  19  32  48  72 102 129 162 201 238 285
#     4  10  20  33  50  71  96 126 160 200 240 282
#     4   9  18  33  53  75  97 123 160 205 247 287
#     4  10  18  33  51  72  98 130 161 194 240 294
#     4  10  18  33  51  72  98 130 161 194 240 294
#     4   9  18  33  53  75  97 123 160 205 247 287
#     4  10  20  33  50  71  96 126 160 200 240 282
#
# _framework density 17.653219
#
# number of rings (size 3 to 8) (size 9 to 14) (size 15 to 20)
#    0.000    2.500    0.000    2.250    0.000    1.750 
#    0.000   10.000    0.000    0.000    0.000    0.000 
#    0.000   24.500    0.000    0.500    0.000    0.000 
#
# Total GULP energy -793534.651511 kJ/mol
# GULP energy per Si atom -12398.978930 kJ/mol
# Density = 1.761304 g / cm^3
# Si number density = 17.653219 Si / 1000 Ang^3
#
#
#
# Elastic Constant Matrix: (Units=GPa)
#
#
# Indices 1 2 3 4 5 6 
#
# 1 112.5565 55.4831 55.3145 0.0000 0.0000 0.0000
# 2 55.4831 112.5574 55.3148 0.0000 0.0000 0.0000
# 3 55.3145 55.3148 110.5512 0.0000 0.0000 0.0000
# 4 0.0000 0.0000 0.0000 22.1725 0.0000 0.0000
# 5 0.0000 0.0000 0.0000 0.0000 22.1713 0.0000
# 6 0.0000 0.0000 0.0000 0.0000 0.0000 12.4216
#
#
#
# Elastic Compliance Matrix: (Units=1/GPa)
#
#
# Indices 1 2 3 4 5 6 
#
# 1 0.013198 -0.004323 -0.004440 0.000000 0.000000 0.000000
# 2 -0.004323 0.013198 -0.004440 0.000000 0.000000 0.000000
# 3 -0.004440 -0.004440 0.013489 0.000000 0.000000 0.000000
# 4 0.000000 0.000000 0.000000 0.045101 0.000000 0.000000
# 5 0.000000 0.000000 0.000000 0.000000 0.045103 0.000000
# 6 0.000000 0.000000 0.000000 0.000000 0.000000 0.080505
#
#
# Mechanical properties :
#
#
# Convention : Reuss Voigt Hill
#
# Bulk Modulus (GPa) = 74.20374 74.21000 74.20687
# Shear Modulus (GPa) = 20.70448 22.65658 21.68053
#
# Velocity S-wave (km/s) = 3.42840 3.58638 3.50828
# Velocity P-wave (km/s) = 7.60245 7.69925 7.65100
#
# Compressibility (1/GPa) = 0.01347641
#
# Stress axis : x y z
#
# Youngs Moduli (GPa) = 75.77072 75.77118 74.13470
#
# Poissons Ratio (x) = 0.32759 0.32918
# Poissons Ratio (y) = 0.32759 0.32918
# Poissons Ratio (z) = 0.33644 0.33644
#
# Static dielectric constant tensor:
#      x y z
#    x 3.194990 0.000000 0.000000 
#    y 0.000000 3.194990 0.000000 
#    z 0.000000 0.000000 3.525560 
# 
# 
# High freq. dielectric constant tensor:
#      x y z
#    x 1.667800 0.000000 0.000000 
#    y 0.000000 1.667800 0.000000 
#    z 0.000000 0.000000 1.699650 
# 
# From -- ./inp_files/2022.got.cif
#   From: 2010.03.12/outbox.cif.g09.slc.cpg/sg113_cif.got.tgz:2022.got - 2010.04.14 02:06:34.
