data_PCOD8308156
_publ_section_title
;
Structure prediction by ZEFSAII (Michael W. Deem and Ramdas Pophale) SiO2 
 PCOD8308156
Probable space group: P -4 2 M 
;
_chemical_formula_sum "Si O2"
_cell_formula_units_Z 56
_cell_length_a 12.575708
_cell_length_b 12.575708
_cell_length_c 20.748814
_cell_angle_alpha 90.000000
_cell_angle_beta 90.000000
_cell_angle_gamma 90.000000
_cell_volume 3281.392394
_symmetry_space_group_name_H-M "P -4 2 M "
_symmetry_group_IT_number 111
_symmetry_cell_setting 'tetragonal'
loop_
_space_group_symop_operation_xyz
x,y,z
y,-x,-z
-x,-y,z
-y,x,-z
x,-y,-z
-x,y,-z
-y,-x,z
y,x,z
loop_
_atom_site_type_symbol
_atom_site_label
_atom_site_fract_x
_atom_site_fract_y
_atom_site_fract_z
Si Si1 0.761266 0.071481 0.168854
Si Si2 0.879724 0.520179 0.339532
Si Si3 0.114182 0.279920 0.256408
Si Si4 0.328132 0.500420 0.423984
Si Si5 0.236434 0.598671 0.855217
Si Si6 0.602787 0.230635 0.225436
Si Si7 0.962392 0.388602 0.927064
O O1 0.879025 0.120976 0.155060
O O2 0.681658 0.166644 0.180719
O O3 0.763139 0.000240 0.233482
O O4 0.717311 0.006285 0.107621
O O5 0.888195 0.641129 0.316453
O O6 0.789464 0.506047 0.393773
O O7 0.845667 0.441958 0.281549
O O8 0.000000 0.500000 0.365531
O O9 0.178854 0.178854 0.280985
O O10 0.168830 0.336282 0.196426
O O11 0.312732 0.500000 0.500000
O O12 0.391996 0.608005 0.403447
O O13 0.398331 0.398331 0.401964
O O14 0.346747 0.653254 0.873148
O O15 0.268610 0.487039 0.824169
O O16 0.165444 0.600721 0.920357
O O17 0.665016 0.334985 0.253476
O O18 0.000000 0.500000 0.894182
O O19 0.000000 0.382337 0.000000
#
# Coordination Sequence:
#
# PCOD8308156 Si02
#       7
#     8   8   8   8   8   8   8
#     4  10  19  32  50  70  95 129 165 203 250 301
#     4  11  19  30  51  79 107 137 168 213 256 301
#     4   9  18  31  48  72  99 130 162 198 250 299
#     4   9  19  36  55  75 104 142 179 215 257 305
#     4   9  18  31  49  71  96 124 156 202 253 305
#     4  10  19  31  48  72 102 134 166 202 251 304
#     4  10  19  32  51  70  91 123 164 208 254 303
#
# _framework density 17.065926000000001
#
# number of rings (size 3 to 8) (size 9 to 14) (size 15 to 20)
#    0.000    2.286    2.857    1.286    0.000    2.000 
#    0.000    0.000    0.000    0.000    0.000    2.000 
#    0.000    0.000    0.000    6.571    0.000    0.000 
#
# Total GULP energy -693805.690892 kJ/mol
# GULP energy per Si atom -12389.387337 kJ/mol
# Density = 1.702708 g / cm^3
# Si number density = 17.065926 Si / 1000 Ang^3
#
#
#
# Elastic Constant Matrix: (Units=GPa)
#
#
# Indices 1 2 3 4 5 6 
#
# 1 101.4292 62.0438 28.6845 0.0000 0.0000 0.0000
# 2 62.0438 101.4313 28.6849 0.0000 0.0000 0.0000
# 3 28.6845 28.6849 55.6413 0.0000 0.0000 0.0000
# 4 0.0000 0.0000 0.0000 21.7951 0.0000 0.0000
# 5 0.0000 0.0000 0.0000 0.0000 21.7952 0.0000
# 6 0.0000 0.0000 0.0000 0.0000 0.0000 29.5378
#
#
#
# Elastic Compliance Matrix: (Units=1/GPa)
#
#
# Indices 1 2 3 4 5 6 
#
# 1 0.016429 -0.008961 -0.003850 0.000000 0.000000 0.000000
# 2 -0.008961 0.016429 -0.003850 0.000000 0.000000 0.000000
# 3 -0.003850 -0.003850 0.021942 0.000000 0.000000 0.000000
# 4 0.000000 0.000000 0.000000 0.045882 0.000000 0.000000
# 5 0.000000 0.000000 0.000000 0.000000 0.045882 0.000000
# 6 0.000000 0.000000 0.000000 0.000000 0.000000 0.033855
#
#
# Mechanical properties :
#
#
# Convention : Reuss Voigt Hill
#
# Bulk Modulus (GPa) = 46.55907 55.25868 50.90888
# Shear Modulus (GPa) = 22.63476 23.89821 23.26648
#
# Velocity S-wave (km/s) = 3.64581 3.74618 3.69634
# Velocity P-wave (km/s) = 6.71295 7.15274 6.93633
#
# Compressibility (1/GPa) = 0.02147809
#
# Stress axis : x y z
#
# Youngs Moduli (GPa) = 60.86779 60.86898 45.57476
#
# Poissons Ratio (x) = 0.54542 0.17547
# Poissons Ratio (y) = 0.54541 0.17547
# Poissons Ratio (z) = 0.23435 0.23435
#
# Static dielectric constant tensor:
#      x y z
#    x 3.435440 0.000000 0.000000 
#    y 0.000000 3.435440 0.000000 
#    z 0.000000 0.000000 2.825640 
# 
# 
# High freq. dielectric constant tensor:
#      x y z
#    x 1.661110 0.000000 0.000000 
#    y 0.000000 1.661110 0.000000 
#    z 0.000000 0.000000 1.622410 
# 
# From -- ./inp_files/3950.got.cif
#   From: 2010.03.12/outbox.cif.g09.slc.cpg/sg111_2_cif.got.tgz:3950.got - 2010.04.14 01:59:48.
