data_PCOD8308327
_publ_section_title
;
Structure prediction by ZEFSAII (Michael W. Deem and Ramdas Pophale) SiO2 
 PCOD8308327
Probable space group: P -4 2 C
;
_chemical_formula_sum "Si O2"
_cell_formula_units_Z 64
_cell_length_a 11.723235
_cell_length_b 11.723235
_cell_length_c 26.242079
_cell_angle_alpha 90.000000
_cell_angle_beta 90.000000
_cell_angle_gamma 90.000000
_cell_volume 3606.560154
_symmetry_space_group_name_H-M "P -4 2 C"
_symmetry_group_IT_number 112
_symmetry_cell_setting 'tetragonal'
loop_
_space_group_symop_operation_xyz
x,y,z
y,-x,-z
-x,-y,z
-y,x,-z
x,-y,1/2-z
-x,y,1/2-z
-y,-x,1/2+z
y,x,1/2+z
loop_
_atom_site_type_symbol
_atom_site_label
_atom_site_fract_x
_atom_site_fract_y
_atom_site_fract_z
Si Si1 0.056063 0.833607 0.014401
Si Si2 0.221951 0.130997 0.143177
Si Si3 0.185364 0.123253 0.384621
Si Si4 0.876104 0.454515 0.806292
Si Si5 0.343442 0.169422 0.045302
Si Si6 0.564294 0.786402 0.400171
Si Si7 0.863512 0.995177 0.806622
Si Si8 0.620411 0.616466 0.481484
O O1 0.108500 0.827213 0.070256
O O2 0.061220 0.712698 0.983921
O O3 0.925076 0.871644 0.019029
O O4 0.316485 0.119663 0.188893
O O5 0.276673 0.203326 0.097179
O O6 0.107230 0.187900 0.165165
O O7 0.183285 0.012167 0.118224
O O8 0.316595 0.152209 0.392172
O O9 0.123364 0.174357 0.333963
O O10 0.846374 0.500000 0.750000
O O11 0.780328 0.505150 0.844670
O O12 0.000000 0.500000 0.823641
O O13 0.476621 0.148283 0.060628
O O14 0.321961 0.270373 0.005001
O O15 0.589066 0.662670 0.425023
O O16 0.812206 0.000000 0.750000
O O17 0.000000 0.000000 0.805059
O O18 0.640722 0.481242 0.477977
#
# Coordination Sequence:
#
# PCOD8308327 Si02
#       8
#     8   8   8   8   8   8   8   8
#     4  11  21  31  48  69 101 143 176 203 249 311
#     4  10  19  32  45  67  99 132 172 207 251 310
#     4  11  19  31  47  69  98 132 173 208 251 305
#     4  10  20  29  46  70 103 138 168 207 261 306
#     4  10  19  32  47  73  99 130 166 206 254 306
#     4  10  20  32  50  72  99 133 167 209 254 313
#     4   9  20  31  47  66  95 134 172 216 253 298
#     4   9  18  34  54  75  99 128 163 207 262 312
#
# _framework density 17.745442000000001
#
# number of rings (size 3 to 8) (size 9 to 14) (size 15 to 20)
#    0.000    2.000    3.750    0.750    5.250    1.000 
#    0.000    0.000    0.000    0.000    0.000   15.750 
#    0.000    1.000    0.000    0.000    0.000    0.000 
#
# Total GULP energy -792850.457310 kJ/mol
# GULP energy per Si atom -12388.288395 kJ/mol
# Density = 1.770505 g / cm^3
# Si number density = 17.745442 Si / 1000 Ang^3
#
#
#
# Elastic Constant Matrix: (Units=GPa)
#
#
# Indices 1 2 3 4 5 6 
#
# 1 72.1380 15.0070 31.6036 0.0000 0.0000 0.0000
# 2 15.0070 72.1380 31.6036 0.0000 0.0000 0.0000
# 3 31.6036 31.6036 109.1610 0.0000 0.0000 0.0000
# 4 0.0000 0.0000 0.0000 22.0954 0.0000 0.0000
# 5 0.0000 0.0000 0.0000 0.0000 22.0954 0.0000
# 6 0.0000 0.0000 0.0000 0.0000 0.0000 14.7320
#
#
#
# Elastic Compliance Matrix: (Units=1/GPa)
#
#
# Indices 1 2 3 4 5 6 
#
# 1 0.016014 -0.001489 -0.004205 0.000000 0.000000 0.000000
# 2 -0.001489 0.016014 -0.004205 0.000000 0.000000 0.000000
# 3 -0.004205 -0.004205 0.011596 0.000000 0.000000 0.000000
# 4 0.000000 0.000000 0.000000 0.045258 0.000000 0.000000
# 5 0.000000 0.000000 0.000000 0.000000 0.045258 0.000000
# 6 0.000000 0.000000 0.000000 0.000000 0.000000 0.067880
#
#
# Mechanical properties :
#
#
# Convention : Reuss Voigt Hill
#
# Bulk Modulus (GPa) = 41.97236 45.54060 43.75648
# Shear Modulus (GPa) = 21.76166 23.46608 22.61387
#
# Velocity S-wave (km/s) = 3.50569 3.64039 3.57367
# Velocity P-wave (km/s) = 6.33169 6.58702 6.46062
#
# Compressibility (1/GPa) = 0.02382520
#
# Stress axis : x y z
#
# Youngs Moduli (GPa) = 62.44366 62.44366 86.23855
#
# Poissons Ratio (x) = 0.09299 0.36266
# Poissons Ratio (y) = 0.09299 0.36266
# Poissons Ratio (z) = 0.26259 0.26259
#
# Static dielectric constant tensor:
#      x y z
#    x 3.259010 0.000000 0.000000 
#    y 0.000000 3.259010 0.000000 
#    z 0.000000 0.000000 3.461730 
# 
# 
# High freq. dielectric constant tensor:
#      x y z
#    x 1.662620 0.000000 0.000000 
#    y 0.000000 1.662620 0.000000 
#    z 0.000000 0.000000 1.688570 
# 
# From -- ./inp_files/5977.got.cif
#   From: 2010.03.12/outbox.cif.g09.slc.cpg/sg112_3_cif.got.tgz:5977.got - 2010.04.14 02:02:48.
