data_PCOD8308912
_publ_section_title
;
Structure prediction by ZEFSAII (Michael W. Deem and Ramdas Pophale) SiO2 
 PCOD8308912
Probable space group: P -4 21 C
;
_chemical_formula_sum "Si O2"
_cell_formula_units_Z 56
_cell_length_a 15.520887
_cell_length_b 15.520887
_cell_length_c 11.258082
_cell_angle_alpha 90.000000
_cell_angle_beta 90.000000
_cell_angle_gamma 90.000000
_cell_volume 2712.048686
_symmetry_space_group_name_H-M "P -4 21 C"
_symmetry_group_IT_number 114
_symmetry_cell_setting 'tetragonal'
loop_
_space_group_symop_operation_xyz
x,y,z
y,-x,-z
-x,-y,z
-y,x,-z
1/2+x,1/2-y,1/2-z
1/2-x,1/2+y,1/2-z
1/2-y,1/2-x,1/2+z
1/2+y,1/2+x,1/2+z
loop_
_atom_site_type_symbol
_atom_site_label
_atom_site_fract_x
_atom_site_fract_y
_atom_site_fract_z
Si Si1 0.699847 0.025905 0.021139
Si Si2 0.684051 0.250951 0.677028
Si Si3 0.566937 0.823817 0.749502
Si Si4 0.989480 0.783720 0.427235
Si Si5 0.635276 0.676886 0.893679
Si Si6 0.597999 0.161327 0.888104
Si Si7 0.074866 0.734413 0.198765
O O1 0.750561 0.098833 0.094912
O O2 0.668801 0.948308 0.108031
O O3 0.622299 0.072766 0.952797
O O4 0.756243 0.978552 0.920524
O O5 0.766668 0.215312 0.603619
O O6 0.672555 0.197652 0.799921
O O7 0.694418 0.350768 0.712635
O O8 0.584734 0.723109 0.784665
O O9 0.482578 0.862497 0.808390
O O10 0.641359 0.881590 0.803895
O O11 0.927660 0.862969 0.384106
O O12 0.927076 0.731114 0.513730
O O13 0.080959 0.806200 0.486187
O O14 0.009988 0.731423 0.308838
#
# Coordination Sequence:
#
# PCOD8308912 Si02
#       7
#     8   8   8   8   8   8   8
#     4  11  23  40  66  93 129 176 214 265 330 394
#     4  10  22  43  66  91 130 185 217 264 322 408
#     4   9  24  41  59  94 134 168 210 274 332 389
#     4  11  22  40  66 101 124 173 224 271 323 386
#     4  10  21  41  67  92 132 169 221 271 321 390
#     4  10  21  41  63  92 129 174 221 263 328 397
#     4  11  25  38  64  99 129 171 226 269 324 391
#
# _framework density 20.648596000000001
#
# number of rings (size 3 to 8) (size 9 to 14) (size 15 to 20)
#    0.000    1.714    1.429    1.714    8.000    3.143 
#    0.000    0.000    0.000    5.571    0.000    0.000 
#    0.000    0.000    0.000    0.000    0.000    0.000 
#
# Total GULP energy -693919.573317 kJ/mol
# GULP energy per Si atom -12391.420952 kJ/mol
# Density = 2.060160 g / cm^3
# Si number density = 20.648596 Si / 1000 Ang^3
#
#
#
# Elastic Constant Matrix: (Units=GPa)
#
#
# Indices 1 2 3 4 5 6 
#
# 1 80.7770 28.8830 46.2908 0.0000 0.0000 0.0000
# 2 28.8830 80.7770 46.2908 0.0000 0.0000 0.0000
# 3 46.2908 46.2908 143.7290 0.0000 0.0000 0.0000
# 4 0.0000 0.0000 0.0000 33.2100 0.0000 0.0000
# 5 0.0000 0.0000 0.0000 0.0000 33.2100 0.0000
# 6 0.0000 0.0000 0.0000 0.0000 0.0000 24.9849
#
#
#
# Elastic Compliance Matrix: (Units=1/GPa)
#
#
# Indices 1 2 3 4 5 6 
#
# 1 0.015897 -0.003373 -0.004034 0.000000 0.000000 0.000000
# 2 -0.003373 0.015897 -0.004034 0.000000 0.000000 0.000000
# 3 -0.004034 -0.004034 0.009556 0.000000 0.000000 0.000000
# 4 0.000000 0.000000 0.000000 0.030111 0.000000 0.000000
# 5 0.000000 0.000000 0.000000 0.000000 0.030111 0.000000
# 6 0.000000 0.000000 0.000000 0.000000 0.000000 0.040024
#
#
# Mechanical properties :
#
#
# Convention : Reuss Voigt Hill
#
# Bulk Modulus (GPa) = 54.14195 60.91245 57.52720
# Shear Modulus (GPa) = 29.30231 30.53554 29.91892
#
# Velocity S-wave (km/s) = 3.77117 3.84971 3.81065
# Velocity P-wave (km/s) = 6.72606 7.02310 6.87619
#
# Compressibility (1/GPa) = 0.01846997
#
# Stress axis : x y z
#
# Youngs Moduli (GPa) = 62.90342 62.90342 104.64753
#
# Poissons Ratio (x) = 0.21215 0.42213
# Poissons Ratio (y) = 0.21215 0.42213
# Poissons Ratio (z) = 0.25374 0.25374
#
# Static dielectric constant tensor:
#      x y z
#    x 3.808720 0.000000 0.000000 
#    y 0.000000 3.808720 0.000000 
#    z 0.000000 0.000000 3.999500 
# 
# 
# High freq. dielectric constant tensor:
#      x y z
#    x 1.797910 0.000000 0.000000 
#    y 0.000000 1.797910 0.000000 
#    z 0.000000 0.000000 1.820530 
# 
# From -- ./inp_files/1770.got.cif
#   From: 2010.03.12/outbox.cif.g09.slc.cpg/sg114_1_cif.got.tgz:1770.got - 2010.04.14 02:08:34.
