data_PCOD8308998
_publ_section_title
;
Structure prediction by ZEFSAII (Michael W. Deem and Ramdas Pophale) SiO2 
 PCOD8308998
Probable space group: P -4 21 C
;
_chemical_formula_sum "Si O2"
_cell_formula_units_Z 58
_cell_length_a 16.714954
_cell_length_b 16.714954
_cell_length_c 9.620465
_cell_angle_alpha 90.000000
_cell_angle_beta 90.000000
_cell_angle_gamma 90.000000
_cell_volume 2687.858707
_symmetry_space_group_name_H-M "P -4 21 C"
_symmetry_group_IT_number 114
_symmetry_cell_setting 'tetragonal'
loop_
_space_group_symop_operation_xyz
x,y,z
y,-x,-z
-x,-y,z
-y,x,-z
1/2+x,1/2-y,1/2-z
1/2-x,1/2+y,1/2-z
1/2-y,1/2-x,1/2+z
1/2+y,1/2+x,1/2+z
loop_
_atom_site_type_symbol
_atom_site_label
_atom_site_fract_x
_atom_site_fract_y
_atom_site_fract_z
Si Si1 0.342181 0.575315 0.434700
Si Si2 0.259277 0.062187 0.483058
Si Si3 0.138650 0.370735 0.763330
Si Si4 0.798269 0.214719 0.716639
Si Si5 0.706732 0.554927 0.232356
Si Si6 0.119995 0.792781 0.238166
Si Si7 0.587453 0.034412 0.481874
Si Si8 0.500000 0.500000 0.500000
O O1 0.315016 0.652587 0.349350
O O2 0.305634 0.497564 0.367517
O O3 0.300474 0.582312 0.585614
O O4 0.439628 0.563539 0.425222
O O5 0.229850 0.147206 0.419968
O O6 0.246181 0.059457 0.649539
O O7 0.206743 0.993252 0.411507
O O8 0.351376 0.038892 0.446519
O O9 0.232181 0.355771 0.800867
O O10 0.097442 0.286361 0.780763
O O11 0.115318 0.400332 0.608755
O O12 0.101616 0.438412 0.861184
O O13 0.758442 0.299449 0.747661
O O14 0.635433 0.617101 0.211121
O O15 0.500000 0.000000 0.459942
#
# Coordination Sequence:
#
# PCOD8308998 Si02
#       8
#     8   8   8   8   8   8   8   2
#     4  11  23  43  67  96 138 173 228 284 338 411
#     4  10  24  42  64  98 135 173 224 281 343 399
#     4  10  24  41  70  94 133 180 230 272 348 400
#     4  10  24  42  68  97 133 175 230 287 333 397
#     4   9  22  44  60  94 135 172 216 294 327 400
#     4  11  22  41  70  95 129 176 233 273 338 401
#     4  11  25  44  66  99 141 178 225 280 348 413
#     4  12  24  40  60  98 132 180 216 262 360 392
#
# _framework density 21.578516
#
# number of rings (size 3 to 8) (size 9 to 14) (size 15 to 20)
#    0.000    1.655    1.379    1.241    9.655    7.724 
#    2.483    0.000    0.000    0.828    0.000    0.000 
#    0.000    0.000    0.000    0.000    0.000    0.000 
#
# Total GULP energy -718641.607279 kJ/mol
# GULP energy per Si atom -12390.372539 kJ/mol
# Density = 2.152940 g / cm^3
# Si number density = 21.578516 Si / 1000 Ang^3
#
#
#
# Elastic Constant Matrix: (Units=GPa)
#
#
# Indices 1 2 3 4 5 6 
#
# 1 242.5007 -162.8020 36.4939 0.0000 0.0000 0.0000
# 2 -162.8020 242.5007 36.4939 0.0000 0.0000 0.0000
# 3 36.4939 36.4939 118.1854 0.0000 0.0000 0.0000
# 4 0.0000 0.0000 0.0000 44.4640 0.0000 0.0000
# 5 0.0000 0.0000 0.0000 0.0000 44.4640 0.0000
# 6 0.0000 0.0000 0.0000 0.0000 0.0000 40.1841
#
#
#
# Elastic Compliance Matrix: (Units=1/GPa)
#
#
# Indices 1 2 3 4 5 6 
#
# 1 0.009981 0.007514 -0.005402 0.000000 0.000000 0.000000
# 2 0.007514 0.009981 -0.005402 0.000000 0.000000 0.000000
# 3 -0.005402 -0.005402 0.011797 0.000000 0.000000 0.000000
# 4 0.000000 0.000000 0.000000 0.022490 0.000000 0.000000
# 5 0.000000 0.000000 0.000000 0.000000 0.022490 0.000000
# 6 0.000000 0.000000 0.000000 0.000000 0.000000 0.024885
#
#
# Mechanical properties :
#
#
# Convention : Reuss Voigt Hill
#
# Bulk Modulus (GPa) = 39.71694 47.06201 43.38947
# Shear Modulus (GPa) = 42.88224 72.02250 57.45237
#
# Velocity S-wave (km/s) = 4.46271 5.78355 5.16552
# Velocity P-wave (km/s) = 6.70821 8.15207 7.46513
#
# Compressibility (1/GPa) = 0.02517818
#
# Stress axis : x y z
#
# Youngs Moduli (GPa) = 100.19192 100.19192 84.76447
#
# Poissons Ratio (x) = -0.75280 0.45790
# Poissons Ratio (y) = -0.75280 0.45790
# Poissons Ratio (z) = 0.54124 0.54124
#
# Static dielectric constant tensor:
#      x y z
#    x 4.111760 0.000000 0.000000 
#    y 0.000000 4.111760 0.000000 
#    z 0.000000 0.000000 3.810450 
# 
# 
# High freq. dielectric constant tensor:
#      x y z
#    x 1.851950 0.000000 0.000000 
#    y 0.000000 1.851950 0.000000 
#    z 0.000000 0.000000 1.845290 
# 
# From -- ./inp_files/1046.got.cif
#   From: 2010.03.12/outbox.cif.g09.slc.cpg/sg114_1_cif.got.tgz:1046.got - 2010.04.14 02:08:34.
