data_PCOD8308457
_publ_section_title
;
Structure prediction by ZEFSAII (Michael W. Deem and Ramdas Pophale) SiO2 
 PCOD8308457
Probable space group: P -4 2 C
;
_chemical_formula_sum "Si O2"
_cell_formula_units_Z 48
_cell_length_a 12.830235
_cell_length_b 12.830235
_cell_length_c 15.327792
_cell_angle_alpha 90.000000
_cell_angle_beta 90.000000
_cell_angle_gamma 90.000000
_cell_volume 2523.183410
_symmetry_space_group_name_H-M "P -4 2 C"
_symmetry_group_IT_number 112
_symmetry_cell_setting 'tetragonal'
loop_
_space_group_symop_operation_xyz
x,y,z
y,-x,-z
-x,-y,z
-y,x,-z
x,-y,1/2-z
-x,y,1/2-z
-y,-x,1/2+z
y,x,1/2+z
loop_
_atom_site_type_symbol
_atom_site_label
_atom_site_fract_x
_atom_site_fract_y
_atom_site_fract_z
Si Si1 0.000000 0.385248 0.646917
Si Si2 0.381353 0.617999 0.102567
Si Si3 0.381353 0.617999 0.397433
Si Si4 0.752167 0.192747 0.151361
Si Si5 0.807253 0.752167 0.651361
Si Si6 0.120256 0.879744 0.500000
O O1 0.895693 0.326836 0.616308
O O2 0.000000 0.500000 0.603790
O O3 0.000000 0.395085 0.750000
O O4 0.104308 0.326836 0.616308
O O5 0.353018 0.500000 0.130127
O O6 0.500000 0.643121 0.130335
O O7 0.303898 0.695536 0.151790
O O8 0.367525 0.632475 1.000000
O O9 0.303898 0.695536 0.348210
O O10 0.790954 0.169521 0.250000
O O11 0.849224 0.189245 0.084829
O O12 0.810755 0.849224 0.584829
O O13 1.000000 0.858635 0.521608
#
# Coordination Sequence:
#
# PCOD8308457 Si02
#       6
#     8   8   8   8   8   8
#     4   9  18  32  53  85 116 141 179 235 289 331
#     4   9  18  33  55  85 121 159 195 230 274 335
#     4   9  18  33  55  85 121 159 195 230 274 335
#     4  11  21  36  59  86 115 148 190 237 285 341
#     4  11  21  36  59  86 115 148 190 237 285 341
#     4  11  24  42  62  83 108 142 188 241 300 354
#
# _framework density 19.023586999999999
#
# number of rings (size 3 to 8) (size 9 to 14) (size 15 to 20)
#    0.000    2.000    3.333    2.000    0.000    3.333 
#    0.000    3.333    0.000    0.000    0.000    2.333 
#    0.000    0.000    0.000    0.000    0.000    0.000 
#
# Total GULP energy -595226.196603 kJ/mol
# GULP energy per Si atom -12400.545763 kJ/mol
# Density = 1.898029 g / cm^3
# Si number density = 19.023587 Si / 1000 Ang^3
#
#
#
# Elastic Constant Matrix: (Units=GPa)
#
#
# Indices 1 2 3 4 5 6 
#
# 1 86.5045 36.0829 28.3848 0.0000 0.0000 0.0000
# 2 36.0829 86.5045 28.3848 0.0000 0.0000 0.0000
# 3 28.3848 28.3848 91.0971 0.0000 0.0000 0.0000
# 4 0.0000 0.0000 0.0000 20.3817 0.0000 0.0000
# 5 0.0000 0.0000 0.0000 0.0000 20.3817 0.0000
# 6 0.0000 0.0000 0.0000 0.0000 0.0000 31.6362
#
#
#
# Elastic Compliance Matrix: (Units=1/GPa)
#
#
# Indices 1 2 3 4 5 6 
#
# 1 0.014683 -0.005150 -0.002970 0.000000 0.000000 0.000000
# 2 -0.005150 0.014683 -0.002970 0.000000 0.000000 0.000000
# 3 -0.002970 -0.002970 0.012828 0.000000 0.000000 0.000000
# 4 0.000000 0.000000 0.000000 0.049064 0.000000 0.000000
# 5 0.000000 0.000000 0.000000 0.000000 0.049064 0.000000
# 6 0.000000 0.000000 0.000000 0.000000 0.000000 0.031609
#
#
# Mechanical properties :
#
#
# Convention : Reuss Voigt Hill
#
# Bulk Modulus (GPa) = 49.96782 49.97902 49.97342
# Shear Modulus (GPa) = 24.90254 25.89685 25.39970
#
# Velocity S-wave (km/s) = 3.62198 3.69359 3.65796
# Velocity P-wave (km/s) = 6.61929 6.67228 6.64583
#
# Compressibility (1/GPa) = 0.02001288
#
# Stress axis : x y z
#
# Youngs Moduli (GPa) = 68.10646 68.10646 77.95222
#
# Poissons Ratio (x) = 0.35074 0.23155
# Poissons Ratio (y) = 0.35074 0.23155
# Poissons Ratio (z) = 0.20230 0.20230
#
# Static dielectric constant tensor:
#      x y z
#    x 3.466220 0.000000 0.000000 
#    y 0.000000 3.466220 0.000000 
#    z 0.000000 0.000000 3.230410 
# 
# 
# High freq. dielectric constant tensor:
#      x y z
#    x 1.731660 0.000000 0.000000 
#    y 0.000000 1.731660 0.000000 
#    z 0.000000 0.000000 1.727520 
# 
# From -- ./inp_files/4106.got.cif
#   From: 2010.03.12/outbox.cif.g09.slc.cpg/sg112_3_cif.got.tgz:4106.got - 2010.04.14 02:02:48.
