data_PCOD8308176
_publ_section_title
;
Structure prediction by ZEFSAII (Michael W. Deem and Ramdas Pophale) SiO2 
 PCOD8308176
Probable space group: P -4 2 M 
;
_chemical_formula_sum "Si O2"
_cell_formula_units_Z 64
_cell_length_a 14.635718
_cell_length_b 14.635718
_cell_length_c 17.354007
_cell_angle_alpha 90.000000
_cell_angle_beta 90.000000
_cell_angle_gamma 90.000000
_cell_volume 3717.301904
_symmetry_space_group_name_H-M "P -4 2 M "
_symmetry_group_IT_number 111
_symmetry_cell_setting 'tetragonal'
loop_
_space_group_symop_operation_xyz
x,y,z
y,-x,-z
-x,-y,z
-y,x,-z
x,-y,-z
-x,y,-z
-y,-x,z
y,x,z
loop_
_atom_site_type_symbol
_atom_site_label
_atom_site_fract_x
_atom_site_fract_y
_atom_site_fract_z
Si Si1 0.240408 0.392407 0.500231
Si Si2 0.749512 0.396988 0.910558
Si Si3 0.712171 0.143846 0.633928
Si Si4 0.604309 0.894239 0.212458
Si Si5 0.392383 0.244986 0.914775
Si Si6 0.901664 0.605620 0.793195
Si Si7 0.834161 0.023441 0.414086
Si Si8 0.837845 0.695119 0.641373
O O1 0.262836 0.500000 0.500000
O O2 0.333664 0.333664 0.489994
O O3 0.163769 0.355888 0.438768
O O4 0.200636 0.383048 0.586207
O O5 0.654405 0.345596 0.896559
O O6 0.824174 0.357410 0.851180
O O7 0.729709 0.503265 0.896710
O O8 0.786753 0.379726 0.996896
O O9 0.761507 0.238494 0.653898
O O10 0.651775 0.115224 0.705812
O O11 0.793144 0.068434 0.623806
O O12 0.497961 0.876083 0.225756
O O13 0.619121 0.995135 0.177842
O O14 0.335080 0.335080 0.895816
O O15 0.356642 0.163050 0.860839
O O16 0.892737 0.658941 0.713752
O O17 0.926412 0.073589 0.376942
O O18 0.753861 0.097012 0.413695
O O19 0.862217 0.000000 0.500000
O O20 0.755096 0.755096 0.674755
#
# Coordination Sequence:
#
# PCOD8308176 Si02
#       8
#     8   8   8   8   8   8   8   8
#     4  10  21  36  54  75 101 135 173 215 260 309
#     4   9  18  33  51  74 103 133 165 205 255 307
#     4  11  21  35  52  73 101 135 173 208 255 311
#     4  10  20  32  49  73 101 132 166 208 251 297
#     4   9  18  32  52  76 101 131 167 206 253 311
#     4  10  19  32  50  73 100 130 167 207 252 299
#     4  11  21  35  52  73 101 131 168 214 261 310
#     4  10  19  33  51  71  99 130 163 207 255 300
#
# _framework density 17.216788000000001
#
# number of rings (size 3 to 8) (size 9 to 14) (size 15 to 20)
#    0.000    2.000    2.500    1.875    0.000    1.750 
#    0.000    4.375    0.000    0.000    0.000    3.500 
#    0.000    0.000    0.000    5.750    0.000    0.250 
#
# Total GULP energy -793016.526819 kJ/mol
# GULP energy per Si atom -12390.883232 kJ/mol
# Density = 1.717760 g / cm^3
# Si number density = 17.216788 Si / 1000 Ang^3
#
#
#
# Elastic Constant Matrix: (Units=GPa)
#
#
# Indices 1 2 3 4 5 6 
#
# 1 80.9355 39.3833 42.3075 0.0000 0.0000 0.0000
# 2 39.3833 80.9327 42.3065 0.0000 0.0000 0.0000
# 3 42.3075 42.3065 86.0538 0.0000 0.0000 0.0000
# 4 0.0000 0.0000 0.0000 26.5303 0.0000 0.0000
# 5 0.0000 0.0000 0.0000 0.0000 26.5307 0.0000
# 6 0.0000 0.0000 0.0000 0.0000 0.0000 25.6945
#
#
#
# Elastic Compliance Matrix: (Units=1/GPa)
#
#
# Indices 1 2 3 4 5 6 
#
# 1 0.018385 -0.005682 -0.006245 0.000000 0.000000 0.000000
# 2 -0.005682 0.018386 -0.006245 0.000000 0.000000 0.000000
# 3 -0.006245 -0.006245 0.017762 0.000000 0.000000 0.000000
# 4 0.000000 0.000000 0.000000 0.037693 0.000000 0.000000
# 5 0.000000 0.000000 0.000000 0.000000 0.037692 0.000000
# 6 0.000000 0.000000 0.000000 0.000000 0.000000 0.038919
#
#
# Mechanical properties :
#
#
# Convention : Reuss Voigt Hill
#
# Bulk Modulus (GPa) = 54.98514 55.10183 55.04349
# Shear Modulus (GPa) = 23.66939 24.01277 23.84108
#
# Velocity S-wave (km/s) = 3.71183 3.73866 3.72527
# Velocity P-wave (km/s) = 7.09764 7.12116 7.10941
#
# Compressibility (1/GPa) = 0.01818673
#
# Stress axis : x y z
#
# Youngs Moduli (GPa) = 54.39235 54.39063 56.30121
#
# Poissons Ratio (x) = 0.30903 0.35163
# Poissons Ratio (y) = 0.30904 0.35163
# Poissons Ratio (z) = 0.33971 0.33970
#
# Static dielectric constant tensor:
#      x y z
#    x 3.275560 0.000000 0.000000 
#    y 0.000000 3.275550 0.000000 
#    z 0.000000 0.000000 3.168780 
# 
# 
# High freq. dielectric constant tensor:
#      x y z
#    x 1.665170 0.000000 0.000000 
#    y 0.000000 1.665170 0.000000 
#    z 0.000000 0.000000 1.656180 
# 
# From -- ./inp_files/3763.got.cif
#   From: 2010.03.12/outbox.cif.g09.slc.cpg/sg111_2_cif.got.tgz:3763.got - 2010.04.14 01:59:48.
