data_PCOD8308067
_publ_section_title
;
Structure prediction by ZEFSAII (Michael W. Deem and Ramdas Pophale) SiO2 
 PCOD8308067
Probable space group: I 41 C D
;
_chemical_formula_sum "Si O2"
_cell_formula_units_Z 96
_cell_length_a 16.372692
_cell_length_b 16.372692
_cell_length_c 17.817806
_cell_angle_alpha 90.000000
_cell_angle_beta 90.000000
_cell_angle_gamma 90.000000
_cell_volume 4776.330937
_symmetry_space_group_name_H-M "I 41 C D"
_symmetry_group_IT_number 110
_symmetry_cell_setting 'tetragonal'
loop_
_space_group_symop_operation_xyz
x,y,z
-y,1/2+x,1/4+z
-x,-y,z
y,1/2-x,1/4+z
-x,y,1/2+z
x,-y,1/2+z
1/2-y,-x,1/4+z
1/2+y,x,1/4+z
1/2+x,1/2+y,1/2+z
1/2-y,x,3/4+z
1/2-x,1/2-y,1/2+z
1/2+y,-x,3/4+z
1/2-x,1/2+y,z
1/2+x,1/2-y,z
-y,1/2-x,3/4+z
y,1/2+x,3/4+z
loop_
_atom_site_type_symbol
_atom_site_label
_atom_site_fract_x
_atom_site_fract_y
_atom_site_fract_z
Si Si1 0.175426 0.005092 0.745090
Si Si2 0.171631 0.425129 0.980097
Si Si3 0.078880 0.049719 0.987239
Si Si4 0.671900 0.577793 0.901893
Si Si5 0.553440 0.420217 0.144998
Si Si6 0.995900 0.172591 0.887451
O O1 0.135069 0.095529 0.744682
O O2 0.195202 0.973001 0.827853
O O3 0.119038 0.935225 0.709788
O O4 0.256350 0.007745 0.696619
O O5 0.198279 0.471712 0.056066
O O6 0.248606 0.378057 0.940242
O O7 0.153596 0.495697 0.919297
O O8 0.098667 0.099096 0.064826
O O9 0.000000 0.000000 0.010536
O O10 0.057888 0.102741 0.914459
O O11 0.150567 0.988457 0.965773
O O12 0.598325 0.641405 0.886566
O O13 0.500000 0.500000 0.139653
#
# Coordination Sequence:
#
# PCOD8308067 Si02
#       6
#    16  16  16  16  16  16
#     4  11  22  39  66  95 129 176 220 269 329 395
#     4  11  22  39  66  95 131 174 221 273 327 393
#     4   9  18  34  59  89 119 163 222 261 306 386
#     4  11  22  39  66  95 131 174 221 273 327 393
#     4   9  18  34  59  89 119 163 222 261 306 386
#     4  11  22  39  66  95 129 176 220 269 329 395
#
# _framework density 20.09911
#
# number of rings (size 3 to 8) (size 9 to 14) (size 15 to 20)
#    0.000    1.667    3.333    2.000    0.000    4.000 
#    0.000    1.667    7.333    0.000    0.000    0.000 
#    0.000    0.000    0.000    0.000    0.000    0.000 
#
# Total GULP energy -594658.498645 kJ/mol
# GULP energy per Si atom -12388.718722 kJ/mol
# Density = 2.005336 g / cm^3
# Si number density = 20.099110 Si / 1000 Ang^3
#
#
#
# Elastic Constant Matrix: (Units=GPa)
#
#
# Indices 1 2 3 4 5 6 
#
# 1 71.7279 24.2156 28.9628 0.0000 0.0000 0.0000
# 2 24.2156 71.7279 28.9628 0.0000 0.0000 0.0000
# 3 28.9628 28.9628 138.4937 0.0000 0.0000 0.0000
# 4 0.0000 0.0000 0.0000 39.0935 0.0000 0.0000
# 5 0.0000 0.0000 0.0000 0.0000 39.0935 0.0000
# 6 0.0000 0.0000 0.0000 0.0000 0.0000 16.1821
#
#
#
# Elastic Compliance Matrix: (Units=1/GPa)
#
#
# Indices 1 2 3 4 5 6 
#
# 1 0.016488 -0.004559 -0.002495 0.000000 0.000000 0.000000
# 2 -0.004559 0.016488 -0.002495 0.000000 0.000000 0.000000
# 3 -0.002495 -0.002495 0.008264 0.000000 0.000000 0.000000
# 4 0.000000 0.000000 0.000000 0.025580 0.000000 0.000000
# 5 0.000000 0.000000 0.000000 0.000000 0.025580 0.000000
# 6 0.000000 0.000000 0.000000 0.000000 0.000000 0.061797
#
#
# Mechanical properties :
#
#
# Convention : Reuss Voigt Hill
#
# Bulk Modulus (GPa) = 45.16063 49.58133 47.37098
# Shear Modulus (GPa) = 27.67415 32.19437 29.93426
#
# Velocity S-wave (km/s) = 3.71466 4.00657 3.86337
# Velocity P-wave (km/s) = 6.39657 6.79157 6.59703
#
# Compressibility (1/GPa) = 0.02214318
#
# Stress axis : x y z
#
# Youngs Moduli (GPa) = 60.64994 60.64996 121.00752
#
# Poissons Ratio (x) = 0.27651 0.30187
# Poissons Ratio (y) = 0.27651 0.30187
# Poissons Ratio (z) = 0.15130 0.15130
#
# Static dielectric constant tensor:
#      x y z
#    x 3.250090 0.000000 0.000000 
#    y 0.000000 3.250090 0.000000 
#    z 0.000000 0.000000 4.809190 
# 
# 
# High freq. dielectric constant tensor:
#      x y z
#    x 1.761830 0.000000 0.000000 
#    y 0.000000 1.761830 0.000000 
#    z 0.000000 0.000000 1.815790 
# 
# From -- ./inp_files/1711.got.cif
#   From: 2010.03.12/outbox.cif.g09.slc.cpg/sg110_1_cif.got.tgz:1711.got - 2010.04.14 01:58:01.
