data_PCOD8308370
_publ_section_title
;
Structure prediction by ZEFSAII (Michael W. Deem and Ramdas Pophale) SiO2 
 PCOD8308370
Probable space group: P -4 2 C
;
_chemical_formula_sum "Si O2"
_cell_formula_units_Z 48
_cell_length_a 9.722516
_cell_length_b 9.722516
_cell_length_c 27.456547
_cell_angle_alpha 90.000000
_cell_angle_beta 90.000000
_cell_angle_gamma 90.000000
_cell_volume 2595.393732
_symmetry_space_group_name_H-M "P -4 2 C"
_symmetry_group_IT_number 112
_symmetry_cell_setting 'tetragonal'
loop_
_space_group_symop_operation_xyz
x,y,z
y,-x,-z
-x,-y,z
-y,x,-z
x,-y,1/2-z
-x,y,1/2-z
-y,-x,1/2+z
y,x,1/2+z
loop_
_atom_site_type_symbol
_atom_site_label
_atom_site_fract_x
_atom_site_fract_y
_atom_site_fract_z
Si Si1 0.830588 0.736110 0.854907
Si Si2 0.989745 0.160855 0.303706
Si Si3 0.514040 0.342593 0.192577
Si Si4 0.288184 0.148188 0.146988
Si Si5 0.659981 0.159944 0.034566
Si Si6 0.154930 0.661201 0.964425
O O1 0.716199 0.660227 0.823010
O O2 0.807462 0.716148 0.911930
O O3 0.986194 0.688881 0.840824
O O4 0.796904 0.892604 0.841488
O O5 0.848668 0.206447 0.328454
O O6 0.000000 0.231224 0.250000
O O7 0.000000 0.000000 0.295920
O O8 0.500000 0.500000 0.174027
O O9 0.500000 0.335644 0.250000
O O10 0.408652 0.239678 0.167713
O O11 0.279637 0.170801 0.089558
O O12 0.498798 0.194598 0.033501
O O13 0.685390 0.002199 0.018850
O O14 0.740478 0.257132 0.997987
#
# Coordination Sequence:
#
# PCOD8308370 Si02
#       6
#     8   8   8   8   8   8
#     4  10  20  38  61  85 116 151 195 244 290 346
#     4   9  18  32  57  91 119 145 187 239 292 347
#     4  11  23  37  57  87 121 157 197 235 282 345
#     4  10  20  38  61  85 116 151 195 244 290 346
#     4  10  22  39  59  86 115 150 198 244 292 353
#     4  10  22  39  59  86 115 150 198 244 292 353
#
# _framework density 18.494305000000001
#
# number of rings (size 3 to 8) (size 9 to 14) (size 15 to 20)
#    0.000    2.000    1.667    1.500    2.333    4.667 
#    0.000    0.833    0.000    3.000    0.000    0.000 
#    0.000    0.000    0.000    0.000    0.000    0.000 
#
# Total GULP energy -595112.007848 kJ/mol
# GULP energy per Si atom -12398.166830 kJ/mol
# Density = 1.845221 g / cm^3
# Si number density = 18.494305 Si / 1000 Ang^3
#
#
#
# Elastic Constant Matrix: (Units=GPa)
#
#
# Indices 1 2 3 4 5 6 
#
# 1 70.9234 17.4122 43.0454 0.0000 0.0000 0.0000
# 2 17.4122 70.9234 43.0454 0.0000 0.0000 0.0000
# 3 43.0454 43.0454 105.3368 0.0000 0.0000 0.0000
# 4 0.0000 0.0000 0.0000 36.7616 0.0000 0.0000
# 5 0.0000 0.0000 0.0000 0.0000 36.7616 0.0000
# 6 0.0000 0.0000 0.0000 0.0000 0.0000 27.9138
#
#
#
# Elastic Compliance Matrix: (Units=1/GPa)
#
#
# Indices 1 2 3 4 5 6 
#
# 1 0.018750 0.000063 -0.007688 0.000000 0.000000 0.000000
# 2 0.000063 0.018750 -0.007688 0.000000 0.000000 0.000000
# 3 -0.007688 -0.007688 0.015777 0.000000 0.000000 0.000000
# 4 0.000000 0.000000 0.000000 0.027202 0.000000 0.000000
# 5 0.000000 0.000000 0.000000 0.000000 0.027202 0.000000
# 6 0.000000 0.000000 0.000000 0.000000 0.000000 0.035825
#
#
# Mechanical properties :
#
#
# Convention : Reuss Voigt Hill
#
# Bulk Modulus (GPa) = 44.14794 50.46552 47.30673
# Shear Modulus (GPa) = 27.52052 29.86612 28.69332
#
# Velocity S-wave (km/s) = 3.86171 4.02292 3.94314
# Velocity P-wave (km/s) = 6.61866 6.99463 6.80924
#
# Compressibility (1/GPa) = 0.02265111
#
# Stress axis : x y z
#
# Youngs Moduli (GPa) = 53.33250 53.33250 63.38522
#
# Poissons Ratio (x) = -0.00334 0.48729
# Poissons Ratio (y) = -0.00334 0.48729
# Poissons Ratio (z) = 0.41001 0.41001
#
# Static dielectric constant tensor:
#      x y z
#    x 3.201760 0.000000 0.000000 
#    y 0.000000 3.201760 0.000000 
#    z 0.000000 0.000000 3.319090 
# 
# 
# High freq. dielectric constant tensor:
#      x y z
#    x 1.713280 0.000000 0.000000 
#    y 0.000000 1.713280 0.000000 
#    z 0.000000 0.000000 1.727040 
# 
# From -- ./inp_files/6295.got.cif
#   From: 2010.03.12/outbox.cif.g09.slc.cpg/sg112_4_cif.got.tgz:6295.got - 2010.04.14 02:02:48.
