data_PCOD8308337
_publ_section_title
;
Structure prediction by ZEFSAII (Michael W. Deem and Ramdas Pophale) SiO2 
 PCOD8308337
Probable space group: P -4 2 C
;
_chemical_formula_sum "Si O2"
_cell_formula_units_Z 38
_cell_length_a 15.360692
_cell_length_b 15.360692
_cell_length_c 8.156698
_cell_angle_alpha 90.000000
_cell_angle_beta 90.000000
_cell_angle_gamma 90.000000
_cell_volume 1924.579897
_symmetry_space_group_name_H-M "P -4 2 C"
_symmetry_group_IT_number 112
_symmetry_cell_setting 'tetragonal'
loop_
_space_group_symop_operation_xyz
x,y,z
y,-x,-z
-x,-y,z
-y,x,-z
x,-y,1/2-z
-x,y,1/2-z
-y,-x,1/2+z
y,x,1/2+z
loop_
_atom_site_type_symbol
_atom_site_label
_atom_site_fract_x
_atom_site_fract_y
_atom_site_fract_z
Si Si1 0.139446 0.000000 0.750000
Si Si2 0.000000 0.000000 0.000000
Si Si3 0.592788 0.756456 0.255375
Si Si4 0.869126 0.277499 0.368175
Si Si5 0.053081 0.410987 0.900386
Si Si6 0.247091 0.700994 0.065988
O O1 0.193886 0.919558 0.811301
O O2 0.079369 0.962631 0.605837
O O3 0.500000 0.707329 0.250000
O O4 0.572310 0.848313 0.343430
O O5 0.655894 0.693486 0.358872
O O6 0.630759 0.771354 0.073791
O O7 0.938804 0.346380 0.444207
O O8 0.821828 0.318953 0.209818
O O9 0.799705 0.241518 0.499669
O O10 0.000000 0.500000 0.946095
O O11 0.000000 0.365692 0.750000
#
# Coordination Sequence:
#
# PCOD8308337 Si02
#       6
#     4   2   8   8   8   8
#     4  11  22  38  55  74 102 150 195 250 298 321
#     4  10  24  42  52  70 104 142 208 262 288 326
#     4  10  19  38  64  81 124 160 191 246 300 356
#     4  10  21  37  61  84 117 154 199 245 288 378
#     4  10  20  37  57  90 124 156 183 233 314 367
#     4   9  21  39  58  90 114 156 203 235 298 366
#
# _framework density 19.744568000000001
#
# number of rings (size 3 to 8) (size 9 to 14) (size 15 to 20)
#    0.000    2.105    2.105    1.263    2.947    0.000 
#    7.579   15.263    0.000    1.895    0.000    0.000 
#    0.000    0.000    0.000    0.000    0.000    0.000 
#
# Total GULP energy -470950.143845 kJ/mol
# GULP energy per Si atom -12393.424838 kJ/mol
# Density = 1.969963 g / cm^3
# Si number density = 19.744568 Si / 1000 Ang^3
#
#
#
# Elastic Constant Matrix: (Units=GPa)
#
#
# Indices 1 2 3 4 5 6 
#
# 1 100.1545 51.7142 52.9655 0.0000 0.0000 0.0000
# 2 51.7142 100.1545 52.9655 0.0000 0.0000 0.0000
# 3 52.9655 52.9655 112.3096 0.0000 0.0000 0.0000
# 4 0.0000 0.0000 0.0000 72.0576 0.0000 0.0000
# 5 0.0000 0.0000 0.0000 0.0000 72.0576 0.0000
# 6 0.0000 0.0000 0.0000 0.0000 0.0000 21.3914
#
#
#
# Elastic Compliance Matrix: (Units=1/GPa)
#
#
# Indices 1 2 3 4 5 6 
#
# 1 0.015228 -0.005416 -0.004628 0.000000 0.000000 0.000000
# 2 -0.005416 0.015228 -0.004628 0.000000 0.000000 0.000000
# 3 -0.004628 -0.004628 0.013269 0.000000 0.000000 0.000000
# 4 0.000000 0.000000 0.000000 0.013878 0.000000 0.000000
# 5 0.000000 0.000000 0.000000 0.000000 0.013878 0.000000
# 6 0.000000 0.000000 0.000000 0.000000 0.000000 0.046748
#
#
# Mechanical properties :
#
#
# Convention : Reuss Voigt Hill
#
# Bulk Modulus (GPa) = 69.52504 69.76766 69.64635
# Shear Modulus (GPa) = 32.81598 43.43287 38.12443
#
# Velocity S-wave (km/s) = 4.08122 4.69522 4.39895
# Velocity P-wave (km/s) = 7.58269 8.05018 7.81993
#
# Compressibility (1/GPa) = 0.01438331
#
# Stress axis : x y z
#
# Youngs Moduli (GPa) = 65.66761 65.66761 75.36528
#
# Poissons Ratio (x) = 0.35564 0.34876
# Poissons Ratio (y) = 0.35564 0.34876
# Poissons Ratio (z) = 0.30388 0.30388
#
# Static dielectric constant tensor:
#      x y z
#    x 3.397650 0.000000 0.000000 
#    y 0.000000 3.397650 0.000000 
#    z 0.000000 0.000000 3.889090 
# 
# 
# High freq. dielectric constant tensor:
#      x y z
#    x 1.755400 0.000000 0.000000 
#    y 0.000000 1.755400 0.000000 
#    z 0.000000 0.000000 1.783200 
# 
# From -- ./inp_files/1282.got.cif
#   From: 2010.03.12/outbox.cif.g09.slc.cpg/sg112_1_cif.got.tgz:1282.got - 2010.04.14 02:02:48.
