data_PCOD8308829
_publ_section_title
;
Structure prediction by ZEFSAII (Michael W. Deem and Ramdas Pophale) SiO2 
 PCOD8308829
Probable space group: P -4 21 C
;
_chemical_formula_sum "Si O2"
_cell_formula_units_Z 48
_cell_length_a 9.265576
_cell_length_b 9.265576
_cell_length_c 28.100448
_cell_angle_alpha 90.000000
_cell_angle_beta 90.000000
_cell_angle_gamma 90.000000
_cell_volume 2412.448712
_symmetry_space_group_name_H-M "P -4 21 C"
_symmetry_group_IT_number 114
_symmetry_cell_setting 'tetragonal'
loop_
_space_group_symop_operation_xyz
x,y,z
y,-x,-z
-x,-y,z
-y,x,-z
1/2+x,1/2-y,1/2-z
1/2-x,1/2+y,1/2-z
1/2-y,1/2-x,1/2+z
1/2+y,1/2+x,1/2+z
loop_
_atom_site_type_symbol
_atom_site_label
_atom_site_fract_x
_atom_site_fract_y
_atom_site_fract_z
Si Si1 0.143352 0.183786 0.491684
Si Si2 0.697582 0.231244 0.690937
Si Si3 0.142752 0.314985 0.080873
Si Si4 0.164505 0.995056 0.751819
Si Si5 0.311524 0.137321 0.401317
Si Si6 0.081288 0.855440 0.845313
O O1 0.208880 0.305326 0.526716
O O2 0.202932 0.210994 0.438824
O O3 0.971032 0.195073 0.488807
O O4 0.732166 0.072030 0.711326
O O5 0.715894 0.344319 0.734546
O O6 0.812842 0.273748 0.651220
O O7 0.536951 0.234049 0.668559
O O8 0.208466 0.465204 0.099412
O O9 0.204703 0.186122 0.113769
O O10 0.970726 0.315894 0.083037
O O11 0.174742 0.896503 0.799092
O O12 0.000000 0.000000 0.732939
O O13 0.000000 0.000000 0.863545
#
# Coordination Sequence:
#
# PCOD8308829 Si02
#       6
#     8   8   8   8   8   8
#     4   9  20  39  58  85 121 151 191 245 300 357
#     4  10  20  40  61  84 121 158 205 247 302 359
#     4  10  19  36  61  84 118 154 199 239 299 361
#     4   9  20  39  58  86 122 157 197 256 298 360
#     4  10  20  36  59  86 115 160 195 244 298 365
#     4   9  18  37  58  82 120 153 191 248 294 348
#
# _framework density 19.896796999999999
#
# number of rings (size 3 to 8) (size 9 to 14) (size 15 to 20)
#    0.000    2.833    3.333    0.000    0.000    4.000 
#    9.000    0.000    0.000    0.000    0.000    0.000 
#    0.000    0.000    0.000    0.000    0.000    0.000 
#
# Total GULP energy -595118.785342 kJ/mol
# GULP energy per Si atom -12398.308028 kJ/mol
# Density = 1.985151 g / cm^3
# Si number density = 19.896797 Si / 1000 Ang^3
#
#
#
# Elastic Constant Matrix: (Units=GPa)
#
#
# Indices 1 2 3 4 5 6 
#
# 1 68.8046 29.0352 49.9111 0.0000 0.0000 0.0000
# 2 29.0352 68.8046 49.9111 0.0000 0.0000 0.0000
# 3 49.9111 49.9111 74.2404 0.0000 0.0000 0.0000
# 4 0.0000 0.0000 0.0000 34.0497 0.0000 0.0000
# 5 0.0000 0.0000 0.0000 0.0000 34.0497 0.0000
# 6 0.0000 0.0000 0.0000 0.0000 0.0000 26.7067
#
#
#
# Elastic Compliance Matrix: (Units=1/GPa)
#
#
# Indices 1 2 3 4 5 6 
#
# 1 0.028843 0.003698 -0.021877 0.000000 0.000000 0.000000
# 2 0.003698 0.028843 -0.021877 0.000000 0.000000 0.000000
# 3 -0.021877 -0.021877 0.042885 0.000000 0.000000 0.000000
# 4 0.000000 0.000000 0.000000 0.029369 0.000000 0.000000
# 5 0.000000 0.000000 0.000000 0.000000 0.029369 0.000000
# 6 0.000000 0.000000 0.000000 0.000000 0.000000 0.037444
#
#
# Mechanical properties :
#
#
# Convention : Reuss Voigt Hill
#
# Bulk Modulus (GPa) = 48.87780 52.17380 50.52580
# Shear Modulus (GPa) = 17.62524 24.49405 21.05965
#
# Velocity S-wave (km/s) = 2.97952 3.51245 3.25690
# Velocity P-wave (km/s) = 6.03786 6.53673 6.29224
#
# Compressibility (1/GPa) = 0.02045919
#
# Stress axis : x y z
#
# Youngs Moduli (GPa) = 34.67048 34.67048 23.31813
#
# Poissons Ratio (x) = -0.12821 0.51013
# Poissons Ratio (y) = -0.12821 0.51013
# Poissons Ratio (z) = 0.75849 0.75849
#
# Static dielectric constant tensor:
#      x y z
#    x 3.526140 0.000000 0.000000 
#    y 0.000000 3.526140 0.000000 
#    z 0.000000 0.000000 3.522790 
# 
# 
# High freq. dielectric constant tensor:
#      x y z
#    x 1.763540 0.000000 0.000000 
#    y 0.000000 1.763540 0.000000 
#    z 0.000000 0.000000 1.767820 
# 
# From -- ./inp_files/3938.got.cif
#   From: 2010.03.12/outbox.cif.g09.slc.cpg/sg114_2_cif.got.tgz:3938.got - 2010.04.14 02:08:34.
