data_PCOD8308826
_publ_section_title
;
Structure prediction by ZEFSAII (Michael W. Deem and Ramdas Pophale) SiO2 
 PCOD8308826
Probable space group: P -4 21 C
;
_chemical_formula_sum "Si O2"
_cell_formula_units_Z 56
_cell_length_a 11.835070
_cell_length_b 11.835070
_cell_length_c 19.986695
_cell_angle_alpha 90.000000
_cell_angle_beta 90.000000
_cell_angle_gamma 90.000000
_cell_volume 2799.514022
_symmetry_space_group_name_H-M "P -4 21 C"
_symmetry_group_IT_number 114
_symmetry_cell_setting 'tetragonal'
loop_
_space_group_symop_operation_xyz
x,y,z
y,-x,-z
-x,-y,z
-y,x,-z
1/2+x,1/2-y,1/2-z
1/2-x,1/2+y,1/2-z
1/2-y,1/2-x,1/2+z
1/2+y,1/2+x,1/2+z
loop_
_atom_site_type_symbol
_atom_site_label
_atom_site_fract_x
_atom_site_fract_y
_atom_site_fract_z
Si Si1 0.531467 0.129420 0.577651
Si Si2 0.907326 0.847178 0.503502
Si Si3 0.194152 0.126819 0.145480
Si Si4 0.446081 0.668050 0.480689
Si Si5 0.670958 0.672339 0.147273
Si Si6 0.542450 0.625334 0.782887
Si Si7 0.251117 0.419655 0.863055
O O1 0.426437 0.197814 0.608011
O O2 0.570498 0.207220 0.513891
O O3 0.620468 0.118902 0.640539
O O4 0.500000 0.000000 0.554662
O O5 0.836041 0.807355 0.567355
O O6 0.901286 0.760705 0.443018
O O7 0.035914 0.861921 0.527761
O O8 0.093557 0.161995 0.095963
O O9 0.239249 0.241725 0.178658
O O10 0.145686 0.047444 0.203663
O O11 0.577347 0.629553 0.478133
O O12 0.700816 0.555141 0.183925
O O13 0.546662 0.722997 0.160022
O O14 0.500000 0.500000 0.799114
O O15 0.662182 0.654934 0.818938
#
# Coordination Sequence:
#
# PCOD8308826 Si02
#       7
#     8   8   8   8   8   8   8
#     4  11  22  39  62  91 122 157 200 257 324 370
#     4   9  15  28  56  83 115 144 187 249 300 350
#     4  11  23  38  62  87 125 166 204 259 305 371
#     4   9  21  41  65  89 115 162 216 253 297 366
#     4  10  19  36  55  89 118 156 206 251 308 362
#     4  10  23  38  59  85 119 169 215 249 298 374
#     4  10  19  36  56  85 119 158 198 251 312 371
#
# _framework density 20.003471000000001
#
# number of rings (size 3 to 8) (size 9 to 14) (size 15 to 20)
#    0.000    2.000    2.857    0.857    6.000    0.000 
#    0.000    0.000    0.000    0.857    0.000    0.000 
#    0.000    0.000    0.000    0.000    0.000    0.000 
#
# Total GULP energy -693787.352991 kJ/mol
# GULP energy per Si atom -12389.059875 kJ/mol
# Density = 1.995794 g / cm^3
# Si number density = 20.003471 Si / 1000 Ang^3
#
#
#
# Elastic Constant Matrix: (Units=GPa)
#
#
# Indices 1 2 3 4 5 6 
#
# 1 85.9676 31.4583 31.2672 0.0000 0.0000 0.0000
# 2 31.4583 85.9676 31.2672 0.0000 0.0000 0.0000
# 3 31.2672 31.2672 82.0523 0.0000 0.0000 0.0000
# 4 0.0000 0.0000 0.0000 22.4228 0.0000 0.0000
# 5 0.0000 0.0000 0.0000 0.0000 22.4228 0.0000
# 6 0.0000 0.0000 0.0000 0.0000 0.0000 20.0685
#
#
#
# Elastic Compliance Matrix: (Units=1/GPa)
#
#
# Indices 1 2 3 4 5 6 
#
# 1 0.014515 -0.003831 -0.004071 0.000000 0.000000 0.000000
# 2 -0.003831 0.014515 -0.004071 0.000000 0.000000 0.000000
# 3 -0.004071 -0.004071 0.015290 0.000000 0.000000 0.000000
# 4 0.000000 0.000000 0.000000 0.044597 0.000000 0.000000
# 5 0.000000 0.000000 0.000000 0.000000 0.044597 0.000000
# 6 0.000000 0.000000 0.000000 0.000000 0.000000 0.049829
#
#
# Mechanical properties :
#
#
# Convention : Reuss Voigt Hill
#
# Bulk Modulus (GPa) = 49.08414 49.10809 49.09611
# Shear Modulus (GPa) = 23.35554 23.64914 23.50234
#
# Velocity S-wave (km/s) = 3.42069 3.44212 3.43142
# Velocity P-wave (km/s) = 6.33976 6.35615 6.34796
#
# Compressibility (1/GPa) = 0.02037318
#
# Stress axis : x y z
#
# Youngs Moduli (GPa) = 68.89499 68.89499 65.40113
#
# Poissons Ratio (x) = 0.26391 0.26627
# Poissons Ratio (y) = 0.26391 0.26627
# Poissons Ratio (z) = 0.28050 0.28050
#
# Static dielectric constant tensor:
#      x y z
#    x 3.652860 0.000000 0.000000 
#    y 0.000000 3.652860 0.000000 
#    z 0.000000 0.000000 3.327550 
# 
# 
# High freq. dielectric constant tensor:
#      x y z
#    x 1.776000 0.000000 0.000000 
#    y 0.000000 1.776000 0.000000 
#    z 0.000000 0.000000 1.758610 
# 
# From -- ./inp_files/3164.got.cif
#   From: 2010.03.12/outbox.cif.g09.slc.cpg/sg114_2_cif.got.tgz:3164.got - 2010.04.14 02:08:34.
