data_PCOD8308053
_publ_section_title
;
Structure prediction by ZEFSAII (Michael W. Deem and Ramdas Pophale) SiO2 
 PCOD8308053
Probable space group: I 41 C D
;
_chemical_formula_sum "Si O2"
_cell_formula_units_Z 104
_cell_length_a 16.448849
_cell_length_b 16.448849
_cell_length_c 19.053218
_cell_angle_alpha 90.000000
_cell_angle_beta 90.000000
_cell_angle_gamma 90.000000
_cell_volume 5155.126944
_symmetry_space_group_name_H-M "I 41 C D"
_symmetry_group_IT_number 110
_symmetry_cell_setting 'tetragonal'
loop_
_space_group_symop_operation_xyz
x,y,z
-y,1/2+x,1/4+z
-x,-y,z
y,1/2-x,1/4+z
-x,y,1/2+z
x,-y,1/2+z
1/2-y,-x,1/4+z
1/2+y,x,1/4+z
1/2+x,1/2+y,1/2+z
1/2-y,x,3/4+z
1/2-x,1/2-y,1/2+z
1/2+y,-x,3/4+z
1/2-x,1/2+y,z
1/2+x,1/2-y,z
-y,1/2-x,3/4+z
y,1/2+x,3/4+z
loop_
_atom_site_type_symbol
_atom_site_label
_atom_site_fract_x
_atom_site_fract_y
_atom_site_fract_z
Si Si1 0.199200 0.899850 0.107100
Si Si2 0.500000 0.000000 0.055016
Si Si3 0.269659 0.168750 0.006488
Si Si4 0.032990 0.831057 0.851511
Si Si5 0.600150 0.699200 0.002933
Si Si6 0.467010 0.831057 0.008522
Si Si7 0.668750 0.230341 0.103545
O O1 0.167956 0.930178 0.181324
O O2 0.248335 0.817378 0.119199
O O3 0.258296 0.971636 0.079587
O O4 0.123072 0.876928 0.055016
O O5 0.417810 0.988181 0.099468
O O6 0.488181 0.082190 0.010565
O O7 0.326670 0.105627 0.046143
O O8 0.190498 0.190498 0.055016
O O9 0.317378 0.251665 0.990834
O O10 0.250000 0.131200 0.930016
O O11 0.069822 0.832044 0.928709
O O12 0.528364 0.758296 0.030446
O O13 0.394373 0.826670 0.063890
#
# Coordination Sequence:
#
# PCOD8308053 Si02
#       7
#    16   8  16  16  16  16  16
#     4  10  23  42  64  93 128 169 216 265 316 390
#     4  12  24  40  62  92 132 172 204 266 328 380
#     4  11  21  38  65  93 123 161 211 259 312 375
#     4  11  23  42  63  94 134 168 211 268 324 383
#     4  10  23  42  64  93 128 169 216 265 316 390
#     4  11  23  42  63  94 134 168 211 268 324 383
#     4  11  21  38  65  93 123 161 211 259 312 375
#
# _framework density 20.174091000000001
#
# number of rings (size 3 to 8) (size 9 to 14) (size 15 to 20)
#    0.000    1.231    6.154    0.000    0.000    2.462 
#    0.000    0.769    0.000    0.000    0.000    0.000 
#    0.000    0.000    0.000    0.000    0.000    0.000 
#
# Total GULP energy -644408.140447 kJ/mol
# GULP energy per Si atom -12392.464239 kJ/mol
# Density = 2.012817 g / cm^3
# Si number density = 20.174091 Si / 1000 Ang^3
#
#
#
# Elastic Constant Matrix: (Units=GPa)
#
#
# Indices 1 2 3 4 5 6 
#
# 1 98.8360 45.1278 57.7077 0.0000 0.0000 0.0000
# 2 45.1278 98.8360 57.7077 0.0000 0.0000 0.0000
# 3 57.7077 57.7077 119.2377 0.0000 0.0000 0.0000
# 4 0.0000 0.0000 0.0000 23.6002 0.0000 0.0000
# 5 0.0000 0.0000 0.0000 0.0000 23.6002 0.0000
# 6 0.0000 0.0000 0.0000 0.0000 0.0000 36.1305
#
#
#
# Elastic Compliance Matrix: (Units=1/GPa)
#
#
# Indices 1 2 3 4 5 6 
#
# 1 0.014985 -0.003635 -0.005493 0.000000 0.000000 0.000000
# 2 -0.003635 0.014985 -0.005493 0.000000 0.000000 0.000000
# 3 -0.005493 -0.005493 0.013704 0.000000 0.000000 0.000000
# 4 0.000000 0.000000 0.000000 0.042372 0.000000 0.000000
# 5 0.000000 0.000000 0.000000 0.000000 0.042372 0.000000
# 6 0.000000 0.000000 0.000000 0.000000 0.000000 0.027677
#
#
# Mechanical properties :
#
#
# Convention : Reuss Voigt Hill
#
# Bulk Modulus (GPa) = 69.29401 70.88845 70.09123
# Shear Modulus (GPa) = 26.29545 27.09062 26.69304
#
# Velocity S-wave (km/s) = 3.61422 3.66846 3.64144
# Velocity P-wave (km/s) = 7.19995 7.29096 7.24560
#
# Compressibility (1/GPa) = 0.01443126
#
# Stress axis : x y z
#
# Youngs Moduli (GPa) = 66.73538 66.73539 72.97354
#
# Poissons Ratio (x) = 0.24255 0.40085
# Poissons Ratio (y) = 0.24255 0.40085
# Poissons Ratio (z) = 0.36658 0.36658
#
# Static dielectric constant tensor:
#      x y z
#    x 3.663040 0.000000 0.000000 
#    y 0.000000 3.663040 0.000000 
#    z 0.000000 0.000000 3.714890 
# 
# 
# High freq. dielectric constant tensor:
#      x y z
#    x 1.785400 0.000000 0.000000 
#    y 0.000000 1.785400 0.000000 
#    z 0.000000 0.000000 1.784890 
# 
# From -- ./inp_files/1739.got.cif
#   From: 2010.03.12/outbox.cif.g09.slc.cpg/sg110_1_cif.got.tgz:1739.got - 2010.04.14 01:58:01.
