data_PCOD8308768
_publ_section_title
;
Structure prediction by ZEFSAII (Michael W. Deem and Ramdas Pophale) SiO2 
 PCOD8308768
Probable space group: P -4 21 M 
;
_chemical_formula_sum "Si O2"
_cell_formula_units_Z 24
_cell_length_a 12.814632
_cell_length_b 12.814632
_cell_length_c 6.773411
_cell_angle_alpha 90.000000
_cell_angle_beta 90.000000
_cell_angle_gamma 90.000000
_cell_volume 1112.294287
_symmetry_space_group_name_H-M "P -4 21 M "
_symmetry_group_IT_number 113
_symmetry_cell_setting 'tetragonal'
loop_
_space_group_symop_operation_xyz
x,y,z
y,-x,-z
-x,-y,z
-y,x,-z
1/2+x,1/2-y,-z
1/2-x,1/2+y,-z
1/2-y,1/2-x,z
1/2+y,1/2+x,z
loop_
_atom_site_type_symbol
_atom_site_label
_atom_site_fract_x
_atom_site_fract_y
_atom_site_fract_z
Si Si1 0.855571 0.644429 0.853212
Si Si2 0.500000 0.500000 0.000000
Si Si3 0.500000 0.000000 0.400254
Si Si4 0.355337 0.144664 0.643549
Si Si5 0.470083 0.722800 0.825683
Si Si6 0.215015 0.284986 0.449026
O O1 0.793595 0.706406 0.686366
O O2 0.932033 0.567968 0.742767
O O3 0.774552 0.577833 0.979869
O O4 0.599390 0.517828 0.141501
O O5 0.435804 0.064197 0.557162
O O6 0.417032 0.228120 0.779312
O O7 0.303856 0.196145 0.445996
O O8 0.392111 0.743913 0.643648
#
# Coordination Sequence:
#
# PCOD8308768 Si02
#       6
#     4   2   2   4   8   4
#     4  11  22  46  73 103 137 188 236 307 359 421
#     4  12  28  44  70 100 148 206 224 300 382 416
#     4  12  22  40  78 102 128 182 238 294 366 412
#     4  12  24  45  73 105 140 188 244 299 353 437
#     4  11  26  47  69 106 145 189 248 295 362 442
#     4  11  25  44  71 101 144 185 243 298 365 426
#
# _framework density 21.577024999999999
#
# number of rings (size 3 to 8) (size 9 to 14) (size 15 to 20)
#    0.000    0.667    3.333    4.000    4.667    4.000 
#    0.000    1.667    0.000    0.000    0.000    0.000 
#    0.000    0.000    0.000    0.000    0.000    0.000 
#
# Total GULP energy -297646.994711 kJ/mol
# GULP energy per Si atom -12401.958113 kJ/mol
# Density = 2.152791 g / cm^3
# Si number density = 21.577025 Si / 1000 Ang^3
#
#
#
# Elastic Constant Matrix: (Units=GPa)
#
#
# Indices 1 2 3 4 5 6 
#
# 1 140.4433 60.5442 42.9181 0.0000 0.0000 0.0000
# 2 60.5442 140.4449 42.9188 0.0000 0.0000 0.0000
# 3 42.9181 42.9188 112.6282 0.0000 0.0000 0.0000
# 4 0.0000 0.0000 0.0000 33.7157 0.0000 0.0000
# 5 0.0000 0.0000 0.0000 0.0000 33.7161 0.0000
# 6 0.0000 0.0000 0.0000 0.0000 0.0000 46.1971
#
#
#
# Elastic Compliance Matrix: (Units=1/GPa)
#
#
# Indices 1 2 3 4 5 6 
#
# 1 0.009229 -0.003287 -0.002264 0.000000 0.000000 0.000000
# 2 -0.003287 0.009229 -0.002264 0.000000 0.000000 0.000000
# 3 -0.002264 -0.002264 0.010605 0.000000 0.000000 0.000000
# 4 0.000000 0.000000 0.000000 0.029660 0.000000 0.000000
# 5 0.000000 0.000000 0.000000 0.000000 0.029659 0.000000
# 6 0.000000 0.000000 0.000000 0.000000 0.000000 0.021646
#
#
# Mechanical properties :
#
#
# Convention : Reuss Voigt Hill
#
# Bulk Modulus (GPa) = 74.45065 76.25319 75.35192
# Shear Modulus (GPa) = 38.42115 39.20146 38.81130
#
# Velocity S-wave (km/s) = 4.22435 4.26704 4.24575
# Velocity P-wave (km/s) = 7.64023 7.72616 7.68331
#
# Compressibility (1/GPa) = 0.01343172
#
# Stress axis : x y z
#
# Youngs Moduli (GPa) = 108.35259 108.35350 94.29882
#
# Poissons Ratio (x) = 0.35611 0.21353
# Poissons Ratio (y) = 0.35611 0.21354
# Poissons Ratio (z) = 0.24536 0.24537
#
# Static dielectric constant tensor:
#      x y z
#    x 4.138680 0.000000 0.000000 
#    y 0.000000 4.138670 0.000000 
#    z 0.000000 0.000000 3.980400 
# 
# 
# High freq. dielectric constant tensor:
#      x y z
#    x 1.865700 0.000000 0.000000 
#    y 0.000000 1.865700 0.000000 
#    z 0.000000 0.000000 1.847270 
# 
# From -- ./inp_files/164.got.cif
#   From: 2010.03.12/outbox.cif.g09.slc.cpg/sg113_cif.got.tgz:164.got - 2010.04.14 02:06:34.
