data_PCOD8308465
_publ_section_title
;
Structure prediction by ZEFSAII (Michael W. Deem and Ramdas Pophale) SiO2 
 PCOD8308465
Probable space group: P -4 2 C
;
_chemical_formula_sum "Si O2"
_cell_formula_units_Z 48
_cell_length_a 8.926930
_cell_length_b 8.926930
_cell_length_c 28.139013
_cell_angle_alpha 90.000000
_cell_angle_beta 90.000000
_cell_angle_gamma 90.000000
_cell_volume 2242.400175
_symmetry_space_group_name_H-M "P -4 2 C"
_symmetry_group_IT_number 112
_symmetry_cell_setting 'tetragonal'
loop_
_space_group_symop_operation_xyz
x,y,z
y,-x,-z
-x,-y,z
-y,x,-z
x,-y,1/2-z
-x,y,1/2-z
-y,-x,1/2+z
y,x,1/2+z
loop_
_atom_site_type_symbol
_atom_site_label
_atom_site_fract_x
_atom_site_fract_y
_atom_site_fract_z
Si Si1 0.334387 0.975013 0.102287
Si Si2 0.692144 0.845557 0.904509
Si Si3 0.184277 0.872983 0.848565
Si Si4 0.500000 0.757008 0.750000
Si Si5 0.455261 0.335973 0.648846
Si Si6 0.761762 0.938718 0.002917
Si Si7 0.259162 0.000000 0.750000
O O1 0.195548 0.025791 0.135898
O O2 0.331985 0.060914 0.051663
O O3 0.500000 0.000000 0.124639
O O4 0.299536 0.800077 0.096835
O O5 0.544023 0.797891 0.876956
O O6 0.762739 0.994430 0.882333
O O7 0.655983 0.883522 0.959659
O O8 0.285808 0.722716 0.855179
O O9 0.164932 0.940288 0.795285
O O10 0.517931 0.651358 0.704954
O O11 0.360652 0.860398 0.734917
O O12 0.500000 0.500000 0.627363
O O13 0.897702 0.823744 0.009345
#
# Coordination Sequence:
#
# PCOD8308465 Si02
#       7
#     8   8   8   4   8   8   4
#     4  11  23  39  61  90 129 162 201 262 327 374
#     4  11  21  39  63  89 119 164 212 256 303 376
#     4  11  21  39  64  88 121 163 211 256 306 377
#     4   9  17  34  58  88 116 158 202 256 304 370
#     4  11  22  36  60  91 127 158 202 258 322 371
#     4   9  18  36  61  86 114 157 212 253 298 369
#     4   9  18  34  61  88 114 153 215 254 294 369
#
# _framework density 21.405633000000002
#
# number of rings (size 3 to 8) (size 9 to 14) (size 15 to 20)
#    0.000    1.667    3.333    2.250    0.000    1.333 
#    0.000    1.667    0.000    1.000    0.000    0.000 
#    0.000    0.000    0.000    0.000    0.000    0.000 
#
# Total GULP energy -594779.417111 kJ/mol
# GULP energy per Si atom -12391.237856 kJ/mol
# Density = 2.135691 g / cm^3
# Si number density = 21.405633 Si / 1000 Ang^3
#
#
#
# Elastic Constant Matrix: (Units=GPa)
#
#
# Indices 1 2 3 4 5 6 
#
# 1 70.3867 3.4590 16.6297 0.0000 0.0000 0.0000
# 2 3.4590 70.3867 16.6297 0.0000 0.0000 0.0000
# 3 16.6297 16.6297 103.1304 0.0000 0.0000 0.0000
# 4 0.0000 0.0000 0.0000 28.2185 0.0000 0.0000
# 5 0.0000 0.0000 0.0000 0.0000 28.2185 0.0000
# 6 0.0000 0.0000 0.0000 0.0000 0.0000 26.4545
#
#
#
# Elastic Compliance Matrix: (Units=1/GPa)
#
#
# Indices 1 2 3 4 5 6 
#
# 1 0.014772 -0.000170 -0.002355 0.000000 0.000000 0.000000
# 2 -0.000170 0.014772 -0.002355 0.000000 0.000000 0.000000
# 3 -0.002355 -0.002355 0.010456 0.000000 0.000000 0.000000
# 4 0.000000 0.000000 0.000000 0.035438 0.000000 0.000000
# 5 0.000000 0.000000 0.000000 0.000000 0.035438 0.000000
# 6 0.000000 0.000000 0.000000 0.000000 0.000000 0.037801
#
#
# Mechanical properties :
#
#
# Convention : Reuss Voigt Hill
#
# Bulk Modulus (GPa) = 33.06670 35.26005 34.16338
# Shear Modulus (GPa) = 29.67111 30.39066 30.03089
#
# Velocity S-wave (km/s) = 3.72712 3.77205 3.74965
# Velocity P-wave (km/s) = 5.83122 5.95644 5.89416
#
# Compressibility (1/GPa) = 0.03024191
#
# Stress axis : x y z
#
# Youngs Moduli (GPa) = 67.69625 67.69625 95.64058
#
# Poissons Ratio (x) = 0.01148 0.22519
# Poissons Ratio (y) = 0.01148 0.22519
# Poissons Ratio (z) = 0.15940 0.15940
#
# Static dielectric constant tensor:
#      x y z
#    x 3.637160 0.000000 0.000000 
#    y 0.000000 3.637160 0.000000 
#    z 0.000000 0.000000 4.256510 
# 
# 
# High freq. dielectric constant tensor:
#      x y z
#    x 1.829010 0.000000 0.000000 
#    y 0.000000 1.829010 0.000000 
#    z 0.000000 0.000000 1.839580 
# 
# From -- ./inp_files/6349.got.cif
#   From: 2010.03.12/outbox.cif.g09.slc.cpg/sg112_4_cif.got.tgz:6349.got - 2010.04.14 02:02:48.
