data_PCOD8308058
_publ_section_title
;
Structure prediction by ZEFSAII (Michael W. Deem and Ramdas Pophale) SiO2 
 PCOD8308058
Probable space group: I 41 C D
;
_chemical_formula_sum "Si O2"
_cell_formula_units_Z 96
_cell_length_a 23.272535
_cell_length_b 23.272535
_cell_length_c 8.732816
_cell_angle_alpha 90.000000
_cell_angle_beta 90.000000
_cell_angle_gamma 90.000000
_cell_volume 4729.788205
_symmetry_space_group_name_H-M "I 41 C D"
_symmetry_group_IT_number 110
_symmetry_cell_setting 'tetragonal'
loop_
_space_group_symop_operation_xyz
x,y,z
-y,1/2+x,1/4+z
-x,-y,z
y,1/2-x,1/4+z
-x,y,1/2+z
x,-y,1/2+z
1/2-y,-x,1/4+z
1/2+y,x,1/4+z
1/2+x,1/2+y,1/2+z
1/2-y,x,3/4+z
1/2-x,1/2-y,1/2+z
1/2+y,-x,3/4+z
1/2-x,1/2+y,z
1/2+x,1/2-y,z
-y,1/2-x,3/4+z
y,1/2+x,3/4+z
loop_
_atom_site_type_symbol
_atom_site_label
_atom_site_fract_x
_atom_site_fract_y
_atom_site_fract_z
Si Si1 0.566426 0.958527 0.359040
Si Si2 0.750000 0.494381 0.147635
Si Si3 0.425929 0.691549 0.667368
Si Si4 0.433574 0.541473 0.936229
Si Si5 0.574071 0.808450 0.627901
Si Si6 0.201536 0.201536 0.772635
O O1 0.625053 0.923740 0.372261
O O2 0.523478 0.923859 0.246514
O O3 0.536398 0.963602 0.522634
O O4 0.576141 0.023478 0.298754
O O5 0.774943 0.452541 0.275300
O O6 0.701860 0.535405 0.225589
O O7 0.798140 0.535405 0.069680
O O8 0.725057 0.452541 0.019969
O O9 0.360823 0.710603 0.696098
O O10 0.374947 0.576260 0.923009
O O11 0.639177 0.789397 0.599172
O O12 0.250000 0.210946 0.647635
#
# Coordination Sequence:
#
# PCOD8308058 Si02
#       6
#    16  16  16  16  16  16
#     4  11  22  37  61  96 134 171 208 262 327 389
#     4  10  24  42  70  96 130 178 230 262 340 396
#     4  11  23  45  66  98 131 178 217 283 321 402
#     4  11  22  37  61  96 134 171 208 262 327 389
#     4  11  23  45  66  98 131 178 217 283 321 402
#     4  12  28  48  70  95 134 176 228 283 338 400
#
# _framework density 20.296893000000001
#
# number of rings (size 3 to 8) (size 9 to 14) (size 15 to 20)
#    0.000    1.000    3.333    4.000    2.333    0.000 
#    0.000    3.333    0.000    0.000    0.000    0.000 
#    0.000    0.000    0.000    0.000    0.000    0.000 
#
# Total GULP energy -595164.775911 kJ/mol
# GULP energy per Si atom -12399.266165 kJ/mol
# Density = 2.025070 g / cm^3
# Si number density = 20.296893 Si / 1000 Ang^3
#
#
#
# Elastic Constant Matrix: (Units=GPa)
#
#
# Indices 1 2 3 4 5 6 
#
# 1 128.4842 52.7912 68.7130 0.0000 0.0000 0.0000
# 2 52.7912 128.4842 68.7130 0.0000 0.0000 0.0000
# 3 68.7130 68.7130 142.5267 0.0000 0.0000 0.0000
# 4 0.0000 0.0000 0.0000 35.1006 0.0000 0.0000
# 5 0.0000 0.0000 0.0000 0.0000 35.1006 0.0000
# 6 0.0000 0.0000 0.0000 0.0000 0.0000 31.3585
#
#
#
# Elastic Compliance Matrix: (Units=1/GPa)
#
#
# Indices 1 2 3 4 5 6 
#
# 1 0.010953 -0.002259 -0.004191 0.000000 0.000000 0.000000
# 2 -0.002259 0.010953 -0.004191 0.000000 0.000000 0.000000
# 3 -0.004191 -0.004191 0.011058 0.000000 0.000000 0.000000
# 4 0.000000 0.000000 0.000000 0.028490 0.000000 0.000000
# 5 0.000000 0.000000 0.000000 0.000000 0.028490 0.000000
# 6 0.000000 0.000000 0.000000 0.000000 0.000000 0.031889
#
#
# Mechanical properties :
#
#
# Convention : Reuss Voigt Hill
#
# Bulk Modulus (GPa) = 85.61682 86.65884 86.13783
# Shear Modulus (GPa) = 34.01185 34.26381 34.13783
#
# Velocity S-wave (km/s) = 4.09799 4.11314 4.10558
# Velocity P-wave (km/s) = 8.04147 8.08366 8.06259
#
# Compressibility (1/GPa) = 0.01167995
#
# Stress axis : x y z
#
# Youngs Moduli (GPa) = 91.30219 91.30219 90.43503
#
# Poissons Ratio (x) = 0.20622 0.37905
# Poissons Ratio (y) = 0.20622 0.37905
# Poissons Ratio (z) = 0.38269 0.38269
#
# Static dielectric constant tensor:
#      x y z
#    x 3.787670 0.000000 0.000000 
#    y 0.000000 3.787670 0.000000 
#    z 0.000000 0.000000 3.975620 
# 
# 
# High freq. dielectric constant tensor:
#      x y z
#    x 1.794800 0.000000 0.000000 
#    y 0.000000 1.794800 0.000000 
#    z 0.000000 0.000000 1.809090 
# 
# From -- ./inp_files/442.got.cif
#   From: 2010.03.12/outbox.cif.g09.slc.cpg/sg110_1_cif.got.tgz:442.got - 2010.04.14 01:58:01.
