data_PCOD8308311
_publ_section_title
;
Structure prediction by ZEFSAII (Michael W. Deem and Ramdas Pophale) SiO2 
 PCOD8308311
Probable space group: P -4 2 C
;
_chemical_formula_sum "Si O2"
_cell_formula_units_Z 64
_cell_length_a 12.333875
_cell_length_b 12.333875
_cell_length_c 26.001571
_cell_angle_alpha 90.000000
_cell_angle_beta 90.000000
_cell_angle_gamma 90.000000
_cell_volume 3955.475273
_symmetry_space_group_name_H-M "P -4 2 C"
_symmetry_group_IT_number 112
_symmetry_cell_setting 'tetragonal'
loop_
_space_group_symop_operation_xyz
x,y,z
y,-x,-z
-x,-y,z
-y,x,-z
x,-y,1/2-z
-x,y,1/2-z
-y,-x,1/2+z
y,x,1/2+z
loop_
_atom_site_type_symbol
_atom_site_label
_atom_site_fract_x
_atom_site_fract_y
_atom_site_fract_z
Si Si1 0.766906 0.374789 0.037229
Si Si2 0.173409 0.374199 0.806051
Si Si3 0.374199 0.173409 0.193949
Si Si4 0.621532 0.377539 0.634193
Si Si5 0.766906 0.625212 0.037229
Si Si6 0.370783 1.000000 0.385521
Si Si7 1.000000 0.372202 0.001804
Si Si8 0.621532 0.377539 0.865807
O O1 0.717377 0.356651 0.093370
O O2 0.756895 0.500000 0.020486
O O3 0.695656 0.304345 1.000000
O O4 0.892505 0.335555 0.033254
O O5 0.144423 0.500000 0.801993
O O6 0.147720 0.320787 0.750000
O O7 0.299788 0.355759 0.817993
O O8 0.103294 0.326069 0.853277
O O9 0.355759 0.299788 0.182008
O O10 0.326069 0.103295 0.146723
O O11 0.642057 0.500000 0.611329
O O12 0.500000 0.369025 0.655554
O O13 0.717377 0.643349 0.093370
O O14 0.892505 0.664445 0.033254
O O15 0.500000 0.000000 0.389809
O O16 0.322260 1.000000 0.443541
O O17 0.000000 0.500000 0.996673
#
# Coordination Sequence:
#
# PCOD8308311 Si02
#       8
#     8   8   8   8   8   8   8   8
#     4  10  18  28  43  63  87 115 146 179 216 259
#     4   9  16  25  38  57  82 111 140 171 209 251
#     4   9  16  25  38  57  82 111 140 171 209 251
#     4   9  17  27  39  58  84 113 143 173 207 251
#     4  10  18  28  43  63  87 115 146 179 216 259
#     4   9  15  24  37  54  79 109 140 172 206 249
#     4   9  18  29  42  62  88 118 148 178 215 257
#     4   9  17  27  39  58  84 113 143 173 207 251
#
# _framework density 16.180102999999999
#
# number of rings (size 3 to 8) (size 9 to 14) (size 15 to 20)
#    0.000    2.750    0.000    2.625    0.000    7.250 
#    0.000    2.500    0.000    0.375    0.000    0.875 
#    0.000    5.000    0.000    5.625    0.000    2.375 
#
# Total GULP energy -792875.007262 kJ/mol
# GULP energy per Si atom -12388.671988 kJ/mol
# Density = 1.614328 g / cm^3
# Si number density = 16.180103 Si / 1000 Ang^3
#
#
#
# Elastic Constant Matrix: (Units=GPa)
#
#
# Indices 1 2 3 4 5 6 
#
# 1 49.0883 35.1632 30.2304 0.0000 0.0000 0.0000
# 2 35.1632 49.0883 30.2304 0.0000 0.0000 0.0000
# 3 30.2304 30.2304 72.0035 0.0000 0.0000 0.0000
# 4 0.0000 0.0000 0.0000 10.6740 0.0000 0.0000
# 5 0.0000 0.0000 0.0000 0.0000 10.6740 0.0000
# 6 0.0000 0.0000 0.0000 0.0000 0.0000 6.7433
#
#
#
# Elastic Compliance Matrix: (Units=1/GPa)
#
#
# Indices 1 2 3 4 5 6 
#
# 1 0.044400 -0.027413 -0.007132 0.000000 0.000000 0.000000
# 2 -0.027413 0.044400 -0.007132 0.000000 0.000000 0.000000
# 3 -0.007132 -0.007132 0.019877 0.000000 0.000000 0.000000
# 4 0.000000 0.000000 0.000000 0.093686 0.000000 0.000000
# 5 0.000000 0.000000 0.000000 0.000000 0.093686 0.000000
# 6 0.000000 0.000000 0.000000 0.000000 0.000000 0.148296
#
#
# Mechanical properties :
#
#
# Convention : Reuss Voigt Hill
#
# Bulk Modulus (GPa) = 39.48921 40.15869 39.82395
# Shear Modulus (GPa) = 9.32594 10.58866 9.95730
#
# Velocity S-wave (km/s) = 2.40340 2.56095 2.48343
# Velocity P-wave (km/s) = 5.67105 5.79813 5.73494
#
# Compressibility (1/GPa) = 0.02532337
#
# Stress axis : x y z
#
# Youngs Moduli (GPa) = 22.52251 22.52251 50.30947
#
# Poissons Ratio (x) = 0.61740 0.35881
# Poissons Ratio (y) = 0.61740 0.35881
# Poissons Ratio (z) = 0.16063 0.16063
#
# Static dielectric constant tensor:
#      x y z
#    x 3.058230 0.000000 0.000000 
#    y 0.000000 3.058230 0.000000 
#    z 0.000000 0.000000 3.271460 
# 
# 
# High freq. dielectric constant tensor:
#      x y z
#    x 1.591330 0.000000 0.000000 
#    y 0.000000 1.591330 0.000000 
#    z 0.000000 0.000000 1.616740 
# 
# From -- ./inp_files/5969.got.cif
#   From: 2010.03.12/outbox.cif.g09.slc.cpg/sg112_3_cif.got.tgz:5969.got - 2010.04.14 02:02:48.
