data_PCOD8308756
_publ_section_title
;
Structure prediction by ZEFSAII (Michael W. Deem and Ramdas Pophale) SiO2 
 PCOD8308756
Probable space group: P -4 21 M 
;
_chemical_formula_sum "Si O2"
_cell_formula_units_Z 48
_cell_length_a 14.422911
_cell_length_b 14.422911
_cell_length_c 12.308493
_cell_angle_alpha 90.000000
_cell_angle_beta 90.000000
_cell_angle_gamma 90.000000
_cell_volume 2560.417166
_symmetry_space_group_name_H-M "P -4 21 M "
_symmetry_group_IT_number 113
_symmetry_cell_setting 'tetragonal'
loop_
_space_group_symop_operation_xyz
x,y,z
y,-x,-z
-x,-y,z
-y,x,-z
1/2+x,1/2-y,-z
1/2-x,1/2+y,-z
1/2-y,1/2-x,z
1/2+y,1/2+x,z
loop_
_atom_site_type_symbol
_atom_site_label
_atom_site_fract_x
_atom_site_fract_y
_atom_site_fract_z
Si Si1 0.577685 0.922316 0.280120
Si Si2 0.938359 0.716441 0.637621
Si Si3 0.436109 0.781483 0.968307
Si Si4 0.352714 0.453867 0.831103
Si Si5 0.141133 0.963369 0.537237
Si Si6 0.544972 0.362067 0.792694
Si Si7 0.422861 0.077140 0.037722
O O1 0.537357 0.833378 0.342765
O O2 0.608214 0.891787 0.158727
O O3 0.500000 0.000000 0.272693
O O4 0.855214 0.644787 0.645938
O O5 0.921173 0.794886 0.727196
O O6 0.938999 0.761381 0.518499
O O7 0.350473 0.850473 0.986569
O O8 0.427718 0.733741 0.850986
O O9 0.433506 0.703592 0.060336
O O10 0.534252 0.835823 0.973446
O O11 0.446116 0.394572 0.837924
O O12 0.376893 0.562159 0.819520
O O13 0.155834 0.960073 0.665108
O O14 0.065016 0.888942 0.501075
O O15 0.500000 0.000000 0.051662
#
# Coordination Sequence:
#
# PCOD8308756 Si02
#       7
#     4   8   8   8   8   8   4
#     4   9  18  36  61  87 119 157 198 246 303 353
#     4  11  21  37  63  94 123 155 205 260 306 359
#     4  11  23  40  60  91 127 160 201 250 308 368
#     4  11  20  41  63  88 118 164 204 251 302 366
#     4  11  20  41  63  86 118 164 206 251 309 361
#     4  11  23  40  63  87 127 162 202 250 314 367
#     4   9  18  36  61  81 117 165 194 236 303 367
#
# _framework density 18.746943999999999
#
# number of rings (size 3 to 8) (size 9 to 14) (size 15 to 20)
#    0.000    1.333    5.000    2.500    0.000    2.000 
#   10.500    0.833    0.000    3.000    0.000    0.000 
#    0.000    0.000    0.000    0.000    0.000    0.000 
#
# Total GULP energy -595324.417144 kJ/mol
# GULP energy per Si atom -12402.592024 kJ/mol
# Density = 1.870428 g / cm^3
# Si number density = 18.746944 Si / 1000 Ang^3
#
#
#
# Elastic Constant Matrix: (Units=GPa)
#
#
# Indices 1 2 3 4 5 6 
#
# 1 96.1597 38.6697 48.2826 0.0000 0.0000 0.0000
# 2 38.6697 96.1602 48.2829 0.0000 0.0000 0.0000
# 3 48.2826 48.2829 141.1836 0.0000 0.0000 0.0000
# 4 0.0000 0.0000 0.0000 30.6081 0.0000 0.0000
# 5 0.0000 0.0000 0.0000 0.0000 30.6093 0.0000
# 6 0.0000 0.0000 0.0000 0.0000 0.0000 20.4186
#
#
#
# Elastic Compliance Matrix: (Units=1/GPa)
#
#
# Indices 1 2 3 4 5 6 
#
# 1 0.013608 -0.003786 -0.003359 0.000000 0.000000 0.000000
# 2 -0.003786 0.013608 -0.003359 0.000000 0.000000 0.000000
# 3 -0.003359 -0.003359 0.009381 0.000000 0.000000 0.000000
# 4 0.000000 0.000000 0.000000 0.032671 0.000000 0.000000
# 5 0.000000 0.000000 0.000000 0.000000 0.032670 0.000000
# 6 0.000000 0.000000 0.000000 0.000000 0.000000 0.048975
#
#
# Mechanical properties :
#
#
# Convention : Reuss Voigt Hill
#
# Bulk Modulus (GPa) = 64.14758 67.10819 65.62789
# Shear Modulus (GPa) = 28.22975 29.54508 28.88742
#
# Velocity S-wave (km/s) = 3.88472 3.97419 3.92971
# Velocity P-wave (km/s) = 7.37653 7.54543 7.46146
#
# Compressibility (1/GPa) = 0.01558905
#
# Stress axis : x y z
#
# Youngs Moduli (GPa) = 73.48360 73.48391 106.60335
#
# Poissons Ratio (x) = 0.27820 0.35810
# Poissons Ratio (y) = 0.27820 0.35810
# Poissons Ratio (z) = 0.24685 0.24685
#
# Static dielectric constant tensor:
#      x y z
#    x 3.501520 0.000000 0.000000 
#    y 0.000000 3.501520 0.000000 
#    z 0.000000 0.000000 3.481700 
# 
# 
# High freq. dielectric constant tensor:
#      x y z
#    x 1.725490 0.000000 0.000000 
#    y 0.000000 1.725490 0.000000 
#    z 0.000000 0.000000 1.730100 
# 
# From -- ./inp_files/1881.got.cif
#   From: 2010.03.12/outbox.cif.g09.slc.cpg/sg113_cif.got.tgz:1881.got - 2010.04.14 02:06:34.
