data_PCOD8308925
_publ_section_title
;
Structure prediction by ZEFSAII (Michael W. Deem and Ramdas Pophale) SiO2 
 PCOD8308925
Probable space group: P -4 21 C
;
_chemical_formula_sum "Si O2"
_cell_formula_units_Z 56
_cell_length_a 14.793417
_cell_length_b 14.793417
_cell_length_c 12.133650
_cell_angle_alpha 90.000000
_cell_angle_beta 90.000000
_cell_angle_gamma 90.000000
_cell_volume 2655.390898
_symmetry_space_group_name_H-M "P -4 21 C"
_symmetry_group_IT_number 114
_symmetry_cell_setting 'tetragonal'
loop_
_space_group_symop_operation_xyz
x,y,z
y,-x,-z
-x,-y,z
-y,x,-z
1/2+x,1/2-y,1/2-z
1/2-x,1/2+y,1/2-z
1/2-y,1/2-x,1/2+z
1/2+y,1/2+x,1/2+z
loop_
_atom_site_type_symbol
_atom_site_label
_atom_site_fract_x
_atom_site_fract_y
_atom_site_fract_z
Si Si1 0.241444 0.922636 0.307027
Si Si2 0.113767 0.808358 0.008059
Si Si3 0.086242 0.435192 0.799523
Si Si4 0.896118 0.024875 0.147750
Si Si5 0.222929 0.684358 0.856920
Si Si6 0.015954 0.673740 0.502600
Si Si7 0.580976 0.853545 0.343991
O O1 0.331282 0.930691 0.230380
O O2 0.205118 0.821523 0.313198
O O3 0.164155 0.988125 0.256765
O O4 0.252959 0.958273 0.430922
O O5 0.072952 0.718780 0.059767
O O6 0.137369 0.874453 0.109553
O O7 0.040235 0.868048 0.948604
O O8 0.189507 0.775356 0.920352
O O9 0.151578 0.481291 0.709367
O O10 0.000000 0.500000 0.798031
O O11 0.127538 0.443440 0.921590
O O12 0.000000 0.000000 0.175683
O O13 0.162969 0.658983 0.748923
O O14 0.221646 0.598854 0.939557
O O15 0.051972 0.602485 0.594494
#
# Coordination Sequence:
#
# PCOD8308925 Si02
#       7
#     8   8   8   8   8   8   8
#     4  12  26  44  69 104 135 183 236 288 349 421
#     4  11  22  40  70  93 132 173 227 285 337 401
#     4  11  25  39  67 104 138 182 224 278 361 425
#     4  12  25  45  67  99 130 180 239 283 344 405
#     4  10  24  43  66  99 134 181 227 279 346 412
#     4  10  24  43  65  99 140 177 221 282 354 417
#     4  10  21  44  63  94 141 175 216 282 341 422
#
# _framework density 21.089172999999999
#
# number of rings (size 3 to 8) (size 9 to 14) (size 15 to 20)
#    0.000    1.143    4.286    0.857   10.000    0.000 
#    2.571    0.000    0.000    0.000    0.000    0.000 
#    0.000    0.000    0.000    0.000    0.000    0.000 
#
# Total GULP energy -693980.626318 kJ/mol
# GULP energy per Si atom -12392.511184 kJ/mol
# Density = 2.104117 g / cm^3
# Si number density = 21.089173 Si / 1000 Ang^3
#
#
#
# Elastic Constant Matrix: (Units=GPa)
#
#
# Indices 1 2 3 4 5 6 
#
# 1 87.1029 37.1161 42.4268 0.0000 0.0000 0.0000
# 2 37.1161 87.1029 42.4268 0.0000 0.0000 0.0000
# 3 42.4268 42.4268 121.3256 0.0000 0.0000 0.0000
# 4 0.0000 0.0000 0.0000 19.2161 0.0000 0.0000
# 5 0.0000 0.0000 0.0000 0.0000 19.2161 0.0000
# 6 0.0000 0.0000 0.0000 0.0000 0.0000 25.6329
#
#
#
# Elastic Compliance Matrix: (Units=1/GPa)
#
#
# Indices 1 2 3 4 5 6 
#
# 1 0.015291 -0.004714 -0.003699 0.000000 0.000000 0.000000
# 2 -0.004714 0.015291 -0.003699 0.000000 0.000000 0.000000
# 3 -0.003699 -0.003699 0.010829 0.000000 0.000000 0.000000
# 4 0.000000 0.000000 0.000000 0.052040 0.000000 0.000000
# 5 0.000000 0.000000 0.000000 0.000000 0.052040 0.000000
# 6 0.000000 0.000000 0.000000 0.000000 0.000000 0.039012
#
#
# Mechanical properties :
#
#
# Convention : Reuss Voigt Hill
#
# Bulk Modulus (GPa) = 58.17969 59.94122 59.06046
# Shear Modulus (GPa) = 23.31487 24.38380 23.84933
#
# Velocity S-wave (km/s) = 3.32857 3.40402 3.36650
# Velocity P-wave (km/s) = 6.51305 6.62829 6.57092
#
# Compressibility (1/GPa) = 0.01718813
#
# Stress axis : x y z
#
# Youngs Moduli (GPa) = 65.39770 65.39770 92.34393
#
# Poissons Ratio (x) = 0.30830 0.34155
# Poissons Ratio (y) = 0.30830 0.34155
# Poissons Ratio (z) = 0.24188 0.24188
#
# Static dielectric constant tensor:
#      x y z
#    x 4.057250 0.000000 0.000000 
#    y 0.000000 4.057250 0.000000 
#    z 0.000000 0.000000 4.105340 
# 
# 
# High freq. dielectric constant tensor:
#      x y z
#    x 1.817430 0.000000 0.000000 
#    y 0.000000 1.817430 0.000000 
#    z 0.000000 0.000000 1.849270 
# 
# From -- ./inp_files/1736.got.cif
#   From: 2010.03.12/outbox.cif.g09.slc.cpg/sg114_1_cif.got.tgz:1736.got - 2010.04.14 02:08:34.
