data_PCOD8308367
_publ_section_title
;
Structure prediction by ZEFSAII (Michael W. Deem and Ramdas Pophale) SiO2 
 PCOD8308367
Probable space group: P -4 2 C
;
_chemical_formula_sum "Si O2"
_cell_formula_units_Z 40
_cell_length_a 11.703808
_cell_length_b 11.703808
_cell_length_c 14.433548
_cell_angle_alpha 90.000000
_cell_angle_beta 90.000000
_cell_angle_gamma 90.000000
_cell_volume 1977.094728
_symmetry_space_group_name_H-M "P -4 2 C"
_symmetry_group_IT_number 112
_symmetry_cell_setting 'tetragonal'
loop_
_space_group_symop_operation_xyz
x,y,z
y,-x,-z
-x,-y,z
-y,x,-z
x,-y,1/2-z
-x,y,1/2-z
-y,-x,1/2+z
y,x,1/2+z
loop_
_atom_site_type_symbol
_atom_site_label
_atom_site_fract_x
_atom_site_fract_y
_atom_site_fract_z
Si Si1 0.871158 1.000000 0.359633
Si Si2 0.632456 0.367544 0.000000
Si Si3 0.759701 0.223035 0.640767
Si Si4 1.000000 0.626621 0.359935
Si Si5 0.223035 0.240299 0.140767
O O1 0.798541 0.110018 0.390741
O O2 0.885918 0.000000 0.250000
O O3 0.798541 0.889982 0.390741
O O4 0.000000 0.000000 0.402447
O O5 0.667318 0.291810 0.088982
O O6 0.500000 0.344796 0.977815
O O7 0.708190 0.332682 0.911018
O O8 0.690779 0.112536 0.605829
O O9 0.748460 0.244606 0.750000
O O10 0.000000 0.500000 0.402580
O O11 0.000000 0.623753 0.250000
O O12 0.112536 0.690779 0.394171
#
# Coordination Sequence:
#
# PCOD8308367 Si02
#       5
#     8   8   8   8   8
#     4   9  16  33  61  93 125 154 183 227 295 367
#     4  11  26  44  59  80 112 156 211 256 292 347
#     4  10  20  37  61  89 120 153 192 241 299 357
#     4   9  16  28  53  87 117 148 189 235 284 339
#     4  10  20  37  61  89 120 153 192 241 299 357
#
# _framework density 20.231705999999999
#
# number of rings (size 3 to 8) (size 9 to 14) (size 15 to 20)
#    0.000    2.200    2.000    1.200    0.000    4.800 
#    0.000    5.000    0.000    3.600    0.000    0.000 
#    0.000    0.000    0.000    0.000    0.000    0.000 
#
# Total GULP energy -496006.856718 kJ/mol
# GULP energy per Si atom -12400.171418 kJ/mol
# Density = 2.018566 g / cm^3
# Si number density = 20.231706 Si / 1000 Ang^3
#
#
#
# Elastic Constant Matrix: (Units=GPa)
#
#
# Indices 1 2 3 4 5 6 
#
# 1 150.2586 67.2929 37.6166 0.0000 0.0000 0.0000
# 2 67.2929 150.2586 37.6166 0.0000 0.0000 0.0000
# 3 37.6166 37.6166 67.8192 0.0000 0.0000 0.0000
# 4 0.0000 0.0000 0.0000 27.0908 0.0000 0.0000
# 5 0.0000 0.0000 0.0000 0.0000 27.0908 0.0000
# 6 0.0000 0.0000 0.0000 0.0000 0.0000 33.2990
#
#
#
# Elastic Compliance Matrix: (Units=1/GPa)
#
#
# Indices 1 2 3 4 5 6 
#
# 1 0.008870 -0.003183 -0.003155 0.000000 0.000000 0.000000
# 2 -0.003183 0.008870 -0.003155 0.000000 0.000000 0.000000
# 3 -0.003155 -0.003155 0.018245 0.000000 0.000000 0.000000
# 4 0.000000 0.000000 0.000000 0.036913 0.000000 0.000000
# 5 0.000000 0.000000 0.000000 0.000000 0.036913 0.000000
# 6 0.000000 0.000000 0.000000 0.000000 0.000000 0.030031
#
#
# Mechanical properties :
#
#
# Convention : Reuss Voigt Hill
#
# Bulk Modulus (GPa) = 58.81976 72.59873 65.70924
# Shear Modulus (GPa) = 30.39636 32.55014 31.47325
#
# Velocity S-wave (km/s) = 3.88030 4.01542 3.94844
# Velocity P-wave (km/s) = 7.01511 7.58022 7.30313
#
# Compressibility (1/GPa) = 0.01700109
#
# Stress axis : x y z
#
# Youngs Moduli (GPa) = 112.73505 112.73505 54.81069
#
# Poissons Ratio (x) = 0.35881 0.17291
# Poissons Ratio (y) = 0.35881 0.17291
# Poissons Ratio (z) = 0.35564 0.35564
#
# Static dielectric constant tensor:
#      x y z
#    x 3.809920 0.000000 0.000000 
#    y 0.000000 3.809920 0.000000 
#    z 0.000000 0.000000 3.324020 
# 
# 
# High freq. dielectric constant tensor:
#      x y z
#    x 1.790230 0.000000 0.000000 
#    y 0.000000 1.790230 0.000000 
#    z 0.000000 0.000000 1.771870 
# 
# From -- ./inp_files/3305.got.cif
#   From: 2010.03.12/outbox.cif.g09.slc.cpg/sg112_2_cif.got.tgz:3305.got - 2010.04.14 02:02:48.
