data_PCOD8308849
_publ_section_title
;
Structure prediction by ZEFSAII (Michael W. Deem and Ramdas Pophale) SiO2 
 PCOD8308849
Probable space group: P -4 21 C
;
_chemical_formula_sum "Si O2"
_cell_formula_units_Z 48
_cell_length_a 16.393726
_cell_length_b 16.393726
_cell_length_c 8.680424
_cell_angle_alpha 90.000000
_cell_angle_beta 90.000000
_cell_angle_gamma 90.000000
_cell_volume 2332.900861
_symmetry_space_group_name_H-M "P -4 21 C"
_symmetry_group_IT_number 114
_symmetry_cell_setting 'tetragonal'
loop_
_space_group_symop_operation_xyz
x,y,z
y,-x,-z
-x,-y,z
-y,x,-z
1/2+x,1/2-y,1/2-z
1/2-x,1/2+y,1/2-z
1/2-y,1/2-x,1/2+z
1/2+y,1/2+x,1/2+z
loop_
_atom_site_type_symbol
_atom_site_label
_atom_site_fract_x
_atom_site_fract_y
_atom_site_fract_z
Si Si1 0.787268 0.910870 0.785070
Si Si2 0.213445 0.914149 0.271635
Si Si3 0.620046 0.480244 0.459380
Si Si4 0.111302 0.532290 0.692420
Si Si5 0.465904 0.886737 0.657641
Si Si6 0.127201 0.986351 0.533223
O O1 0.820659 0.819447 0.746690
O O2 0.690989 0.916678 0.760127
O O3 0.836881 0.977794 0.689146
O O4 0.803658 0.933770 0.963162
O O5 0.302304 0.921491 0.198228
O O6 0.205758 0.946059 0.446126
O O7 0.147950 0.973171 0.191445
O O8 0.548605 0.415794 0.421353
O O9 0.112209 0.498465 0.517515
O O10 0.100855 0.457778 0.813901
O O11 0.037963 0.596337 0.718926
O O12 0.060325 0.915491 0.562997
#
# Coordination Sequence:
#
# PCOD8308849 Si02
#       6
#     8   8   8   8   8   8
#     4  10  20  36  59  90 124 157 202 256 307 355
#     4  10  20  36  59  90 124 157 202 256 307 355
#     4   9  16  30  54  83 118 160 202 243 294 362
#     4  11  24  43  67  90 117 164 210 249 298 368
#     4  11  24  43  67  90 117 164 210 249 298 368
#     4   9  18  32  54  87 126 170 208 245 302 368
#
# _framework density 20.575244000000001
#
# number of rings (size 3 to 8) (size 9 to 14) (size 15 to 20)
#    0.000    2.000    1.667    3.000    4.667    4.000 
#    0.000    5.000    0.000    0.000    0.000    0.000 
#    0.000    0.000    0.000    0.000    0.000    0.000 
#
# Total GULP energy -594713.923451 kJ/mol
# GULP energy per Si atom -12389.873405 kJ/mol
# Density = 2.052841 g / cm^3
# Si number density = 20.575244 Si / 1000 Ang^3
#
#
#
# Elastic Constant Matrix: (Units=GPa)
#
#
# Indices 1 2 3 4 5 6 
#
# 1 110.9043 48.1099 27.1437 0.0000 0.0000 0.0000
# 2 48.1099 110.9043 27.1437 0.0000 0.0000 0.0000
# 3 27.1437 27.1437 63.0259 0.0000 0.0000 0.0000
# 4 0.0000 0.0000 0.0000 24.8248 0.0000 0.0000
# 5 0.0000 0.0000 0.0000 0.0000 24.8248 0.0000
# 6 0.0000 0.0000 0.0000 0.0000 0.0000 27.6361
#
#
#
# Elastic Compliance Matrix: (Units=1/GPa)
#
#
# Indices 1 2 3 4 5 6 
#
# 1 0.011649 -0.004276 -0.003175 0.000000 0.000000 0.000000
# 2 -0.004276 0.011649 -0.003175 0.000000 0.000000 0.000000
# 3 -0.003175 -0.003175 0.018602 0.000000 0.000000 0.000000
# 4 0.000000 0.000000 0.000000 0.040282 0.000000 0.000000
# 5 0.000000 0.000000 0.000000 0.000000 0.040282 0.000000
# 6 0.000000 0.000000 0.000000 0.000000 0.000000 0.036185
#
#
# Mechanical properties :
#
#
# Convention : Reuss Voigt Hill
#
# Bulk Modulus (GPa) = 48.43558 54.40324 51.41941
# Shear Modulus (GPa) = 26.76891 27.61961 27.19426
#
# Velocity S-wave (km/s) = 3.61089 3.66781 3.63946
# Velocity P-wave (km/s) = 6.40129 6.66601 6.53499
#
# Compressibility (1/GPa) = 0.02064598
#
# Stress axis : x y z
#
# Youngs Moduli (GPa) = 85.84512 85.84512 53.75903
#
# Poissons Ratio (x) = 0.36708 0.17070
# Poissons Ratio (y) = 0.36708 0.17070
# Poissons Ratio (z) = 0.27258 0.27258
#
# Static dielectric constant tensor:
#      x y z
#    x 3.628170 0.000000 0.000000 
#    y 0.000000 3.628170 0.000000 
#    z 0.000000 0.000000 3.587880 
# 
# 
# High freq. dielectric constant tensor:
#      x y z
#    x 1.790580 0.000000 0.000000 
#    y 0.000000 1.790580 0.000000 
#    z 0.000000 0.000000 1.801700 
# 
# From -- ./inp_files/933.got.cif
#   From: 2010.03.12/outbox.cif.g09.slc.cpg/sg114_1_cif.got.tgz:933.got - 2010.04.14 02:08:34.
