data_PCOD8308015
_publ_section_title
;
Structure prediction by ZEFSAII (Michael W. Deem and Ramdas Pophale) SiO2 
 PCOD8308015
Probable space group: I 41 C D
;
_chemical_formula_sum "Si O2"
_cell_formula_units_Z 120
_cell_length_a 17.789566
_cell_length_b 17.789566
_cell_length_c 18.143623
_cell_angle_alpha 90.000000
_cell_angle_beta 90.000000
_cell_angle_gamma 90.000000
_cell_volume 5741.888031
_symmetry_space_group_name_H-M "I 41 C D"
_symmetry_group_IT_number 110
_symmetry_cell_setting 'tetragonal'
loop_
_space_group_symop_operation_xyz
x,y,z
-y,1/2+x,1/4+z
-x,-y,z
y,1/2-x,1/4+z
-x,y,1/2+z
x,-y,1/2+z
1/2-y,-x,1/4+z
1/2+y,x,1/4+z
1/2+x,1/2+y,1/2+z
1/2-y,x,3/4+z
1/2-x,1/2-y,1/2+z
1/2+y,-x,3/4+z
1/2-x,1/2+y,z
1/2+x,1/2-y,z
-y,1/2-x,3/4+z
y,1/2+x,3/4+z
loop_
_atom_site_type_symbol
_atom_site_label
_atom_site_fract_x
_atom_site_fract_y
_atom_site_fract_z
Si Si1 0.247009 0.662230 0.413100
Si Si2 0.453329 0.822532 0.565691
Si Si3 0.899213 0.251407 0.915536
Si Si4 0.096145 0.465091 0.644074
Si Si5 0.366515 0.592368 0.884287
Si Si6 0.376693 0.245902 0.324856
Si Si7 0.533136 0.158016 0.296379
Si Si8 0.000000 0.000000 0.023930
O O1 0.273881 0.582873 0.381059
O O2 0.314314 0.722385 0.417542
O O3 0.220890 0.649653 0.496547
O O4 0.179413 0.685966 0.360150
O O5 0.422642 0.797451 0.487554
O O6 0.428147 0.908105 0.580321
O O7 0.544875 0.818510 0.573327
O O8 0.960048 0.185441 0.905478
O O9 0.901879 0.306818 0.846346
O O10 0.067267 0.547391 0.621773
O O11 0.059788 0.451433 0.724783
O O12 0.368221 0.682134 0.878427
O O13 0.336146 0.563441 0.963030
O O14 0.456835 0.204777 0.314467
O O15 0.531587 0.069484 0.321862
#
# Coordination Sequence:
#
# PCOD8308015 Si02
#       8
#    16  16  16  16  16  16  16   8
#     4  11  25  45  66  94 138 183 225 285 355 425
#     4  11  21  42  68  97 129 179 227 280 352 424
#     4  11  24  41  66  98 137 177 227 286 355 420
#     4  10  19  41  69  88 128 173 218 271 349 414
#     4  11  23  41  71  98 132 180 229 288 347 421
#     4  12  25  44  68 101 139 182 237 289 357 429
#     4  11  23  44  66 100 137 182 232 292 349 430
#     4  10  20  42  70  92 128 186 224 278 350 416
#
# _framework density 20.899049000000002
#
# number of rings (size 3 to 8) (size 9 to 14) (size 15 to 20)
#    0.000    1.067    6.667    0.800    3.733    0.000 
#    4.800    0.000    0.000    0.000    0.000    0.000 
#    0.000    0.000    0.000    0.000    0.000    0.000 
#
# Total GULP energy -743360.465239 kJ/mol
# GULP energy per Si atom -12389.341087 kJ/mol
# Density = 2.085148 g / cm^3
# Si number density = 20.899049 Si / 1000 Ang^3
#
#
#
# Elastic Constant Matrix: (Units=GPa)
#
#
# Indices 1 2 3 4 5 6 
#
# 1 104.4521 26.8655 36.2199 0.0000 0.0000 0.0000
# 2 26.8655 104.4521 36.2199 0.0000 0.0000 0.0000
# 3 36.2199 36.2199 82.5310 0.0000 0.0000 0.0000
# 4 0.0000 0.0000 0.0000 30.4018 0.0000 0.0000
# 5 0.0000 0.0000 0.0000 0.0000 30.4018 0.0000
# 6 0.0000 0.0000 0.0000 0.0000 0.0000 16.0756
#
#
#
# Elastic Compliance Matrix: (Units=1/GPa)
#
#
# Indices 1 2 3 4 5 6 
#
# 1 0.011468 -0.001421 -0.004410 0.000000 0.000000 0.000000
# 2 -0.001421 0.011468 -0.004410 0.000000 0.000000 0.000000
# 3 -0.004410 -0.004410 0.015987 0.000000 0.000000 0.000000
# 4 0.000000 0.000000 0.000000 0.032893 0.000000 0.000000
# 5 0.000000 0.000000 0.000000 0.000000 0.032893 0.000000
# 6 0.000000 0.000000 0.000000 0.000000 0.000000 0.062206
#
#
# Mechanical properties :
#
#
# Convention : Reuss Voigt Hill
#
# Bulk Modulus (GPa) = 54.21788 54.44952 54.33370
# Shear Modulus (GPa) = 25.83412 28.18449 27.00931
#
# Velocity S-wave (km/s) = 3.51969 3.67632 3.59885
# Velocity P-wave (km/s) = 6.52048 6.64308 6.58207
#
# Compressibility (1/GPa) = 0.01844410
#
# Stress axis : x y z
#
# Youngs Moduli (GPa) = 87.19758 87.19758 62.55073
#
# Poissons Ratio (x) = 0.12387 0.27582
# Poissons Ratio (y) = 0.12387 0.27582
# Poissons Ratio (z) = 0.38450 0.38450
#
# Static dielectric constant tensor:
#      x y z
#    x 3.985530 0.000000 0.000000 
#    y 0.000000 3.985530 0.000000 
#    z 0.000000 0.000000 3.679730 
# 
# 
# High freq. dielectric constant tensor:
#      x y z
#    x 1.825310 0.000000 0.000000 
#    y 0.000000 1.825310 0.000000 
#    z 0.000000 0.000000 1.802990 
# 
# From -- ./inp_files/1804.got.cif
#   From: 2010.03.12/outbox.cif.g09.slc.cpg/sg110_1_cif.got.tgz:1804.got - 2010.04.14 01:58:01.
