data_PCOD8308648
_publ_section_title
;
Structure prediction by ZEFSAII (Michael W. Deem and Ramdas Pophale) SiO2 
 PCOD8308648
Probable space group: P -4 21 M 
;
_chemical_formula_sum "Si O2"
_cell_formula_units_Z 48
_cell_length_a 12.578719
_cell_length_b 12.578719
_cell_length_c 15.417420
_cell_angle_alpha 90.000000
_cell_angle_beta 90.000000
_cell_angle_gamma 90.000000
_cell_volume 2439.408509
_symmetry_space_group_name_H-M "P -4 21 M "
_symmetry_group_IT_number 113
_symmetry_cell_setting 'tetragonal'
loop_
_space_group_symop_operation_xyz
x,y,z
y,-x,-z
-x,-y,z
-y,x,-z
1/2+x,1/2-y,-z
1/2-x,1/2+y,-z
1/2-y,1/2-x,z
1/2+y,1/2+x,z
loop_
_atom_site_type_symbol
_atom_site_label
_atom_site_fract_x
_atom_site_fract_y
_atom_site_fract_z
Si Si1 0.172787 0.015450 0.905700
Si Si2 0.586781 0.262936 0.586258
Si Si3 0.234628 0.092949 0.729118
Si Si4 0.559593 0.234344 0.257654
Si Si5 0.066648 0.738748 0.571981
Si Si6 0.526925 0.670732 0.093744
O O1 0.136215 0.893728 0.889523
O O2 0.249741 0.051070 0.827603
O O3 0.069848 0.089113 0.908847
O O4 0.230331 0.028737 0.999694
O O5 0.666345 0.166345 0.605635
O O6 0.505147 0.272332 0.664710
O O7 0.528141 0.243404 0.496145
O O8 0.648681 0.373986 0.578431
O O9 0.335234 0.164767 0.703774
O O10 0.125445 0.158900 0.720367
O O11 0.637772 0.137772 0.239968
O O12 0.481379 0.207279 0.335685
O O13 0.488495 0.245950 0.171246
O O14 0.148365 0.648365 0.541336
#
# Coordination Sequence:
#
# PCOD8308648 Si02
#       6
#     8   8   8   8   8   8
#     4   8  14  27  49  75 103 139 183 227 267 306
#     4  11  24  40  58  81 107 137 175 217 263 316
#     4  10  20  34  54  81 111 143 179 218 263 315
#     4  10  20  34  54  81 111 143 179 218 263 315
#     4  11  24  40  58  81 107 137 175 217 263 316
#     4   8  14  27  49  75 103 139 183 227 267 306
#
# _framework density 19.676902999999999
#
# number of rings (size 3 to 8) (size 9 to 14) (size 15 to 20)
#    0.000    2.333    0.000    4.000    0.000    8.667 
#    0.000    1.667    0.000    6.000    0.000    0.000 
#    0.000    0.000    0.000    0.000    0.000    0.000 
#
# Total GULP energy -595178.713779 kJ/mol
# GULP energy per Si atom -12399.556537 kJ/mol
# Density = 1.963212 g / cm^3
# Si number density = 19.676903 Si / 1000 Ang^3
#
#
#
# Elastic Constant Matrix: (Units=GPa)
#
#
# Indices 1 2 3 4 5 6 
#
# 1 34.4700 16.2510 3.1341 0.0000 0.0000 0.0000
# 2 16.2510 34.4656 3.1313 0.0000 0.0000 0.0000
# 3 3.1341 3.1313 98.7510 0.0000 0.0000 0.0000
# 4 0.0000 0.0000 0.0000 2.2410 0.0000 0.0000
# 5 0.0000 0.0000 0.0000 0.0000 2.2407 0.0000
# 6 0.0000 0.0000 0.0000 0.0000 0.0000 12.2413
#
#
#
# Elastic Compliance Matrix: (Units=1/GPa)
#
#
# Indices 1 2 3 4 5 6 
#
# 1 0.037342 -0.017550 -0.000629 0.000000 0.000000 0.000000
# 2 -0.017550 0.037347 -0.000627 0.000000 0.000000 0.000000
# 3 -0.000629 -0.000627 0.010166 0.000000 0.000000 0.000000
# 4 0.000000 0.000000 0.000000 0.446238 0.000000 0.000000
# 5 0.000000 0.000000 0.000000 0.000000 0.446284 0.000000
# 6 0.000000 0.000000 0.000000 0.000000 0.000000 0.081690
#
#
# Mechanical properties :
#
#
# Convention : Reuss Voigt Hill
#
# Bulk Modulus (GPa) = 21.16726 23.63551 22.40139
# Shear Modulus (GPa) = 4.49468 13.02262 8.75865
#
# Velocity S-wave (km/s) = 1.51301 2.57538 2.11208
# Velocity P-wave (km/s) = 3.71928 4.56961 4.16620
#
# Compressibility (1/GPa) = 0.04724277
#
# Stress axis : x y z
#
# Youngs Moduli (GPa) = 26.77954 26.77624 98.36401
#
# Poissons Ratio (x) = 0.46993 0.06184
# Poissons Ratio (y) = 0.46998 0.06170
# Poissons Ratio (z) = 0.01683 0.01679
#
# Static dielectric constant tensor:
#      x y z
#    x 3.447850 0.000000 0.000000 
#    y 0.000000 3.447850 0.000000 
#    z 0.000000 0.000000 3.963120 
# 
# 
# High freq. dielectric constant tensor:
#      x y z
#    x 1.746370 0.000000 0.000000 
#    y 0.000000 1.746370 0.000000 
#    z 0.000000 0.000000 1.786660 
# 
# From -- ./inp_files/2478.got.cif
#   From: 2010.03.12/outbox.cif.g09.slc.cpg/sg113_cif.got.tgz:2478.got - 2010.04.14 02:06:34.
