data_PCOD8308861
_publ_section_title
;
Structure prediction by ZEFSAII (Michael W. Deem and Ramdas Pophale) SiO2 
 PCOD8308861
Probable space group: P -4 21 C
;
_chemical_formula_sum "Si O2"
_cell_formula_units_Z 40
_cell_length_a 9.869690
_cell_length_b 9.869690
_cell_length_c 21.542797
_cell_angle_alpha 90.000000
_cell_angle_beta 90.000000
_cell_angle_gamma 90.000000
_cell_volume 2098.500674
_symmetry_space_group_name_H-M "P -4 21 C"
_symmetry_group_IT_number 114
_symmetry_cell_setting 'tetragonal'
loop_
_space_group_symop_operation_xyz
x,y,z
y,-x,-z
-x,-y,z
-y,x,-z
1/2+x,1/2-y,1/2-z
1/2-x,1/2+y,1/2-z
1/2-y,1/2-x,1/2+z
1/2+y,1/2+x,1/2+z
loop_
_atom_site_type_symbol
_atom_site_label
_atom_site_fract_x
_atom_site_fract_y
_atom_site_fract_z
Si Si1 0.756562 0.657605 0.386178
Si Si2 0.849432 0.284542 0.891196
Si Si3 0.657468 0.344796 0.003540
Si Si4 0.483377 0.848083 0.206142
Si Si5 0.844979 0.011775 0.820533
O O1 0.778755 0.506020 0.413083
O O2 0.812774 0.767550 0.433143
O O3 0.832065 0.672468 0.319968
O O4 0.598694 0.685565 0.373677
O O5 0.755713 0.285756 0.951316
O O6 0.820379 0.417840 0.851518
O O7 0.810659 0.156722 0.849121
O O8 0.503075 0.317009 0.983646
O O9 0.515213 0.745639 0.260792
O O10 0.500000 0.000000 0.232386
O O11 0.000000 0.000000 0.798427
#
# Coordination Sequence:
#
# PCOD8308861 Si02
#       5
#     8   8   8   8   8
#     4  10  22  40  59  88 121 156 197 244 292 345
#     4  10  22  40  59  88 121 156 197 244 292 345
#     4  11  24  40  59  84 116 152 201 248 298 349
#     4  10  20  38  62  86 122 158 193 244 291 343
#     4  10  22  38  60  92 120 156 197 236 293 351
#
# _framework density 19.061226999999999
#
# number of rings (size 3 to 8) (size 9 to 14) (size 15 to 20)
#    0.000    1.800    2.000    1.200    2.800    3.200 
#    0.000    0.000    0.000    0.000    0.000    0.000 
#    0.000    0.000    0.000    0.000    0.000    0.000 
#
# Total GULP energy -496193.542508 kJ/mol
# GULP energy per Si atom -12404.838563 kJ/mol
# Density = 1.901784 g / cm^3
# Si number density = 19.061227 Si / 1000 Ang^3
#
#
#
# Elastic Constant Matrix: (Units=GPa)
#
#
# Indices 1 2 3 4 5 6 
#
# 1 79.7948 42.3613 40.5037 0.0000 0.0000 0.0000
# 2 42.3613 79.7948 40.5037 0.0000 0.0000 0.0000
# 3 40.5037 40.5037 77.0091 0.0000 0.0000 0.0000
# 4 0.0000 0.0000 0.0000 18.7738 0.0000 0.0000
# 5 0.0000 0.0000 0.0000 0.0000 18.7738 0.0000
# 6 0.0000 0.0000 0.0000 0.0000 0.0000 24.8141
#
#
#
# Elastic Compliance Matrix: (Units=1/GPa)
#
#
# Indices 1 2 3 4 5 6 
#
# 1 0.019642 -0.007072 -0.006612 0.000000 0.000000 0.000000
# 2 -0.007072 0.019642 -0.006612 0.000000 0.000000 0.000000
# 3 -0.006612 -0.006612 0.019940 0.000000 0.000000 0.000000
# 4 0.000000 0.000000 0.000000 0.053266 0.000000 0.000000
# 5 0.000000 0.000000 0.000000 0.000000 0.053266 0.000000
# 6 0.000000 0.000000 0.000000 0.000000 0.000000 0.040300
#
#
# Mechanical properties :
#
#
# Convention : Reuss Voigt Hill
#
# Bulk Modulus (GPa) = 53.66203 53.70400 53.68301
# Shear Modulus (GPa) = 19.77394 20.02103 19.89749
#
# Velocity S-wave (km/s) = 3.22435 3.24443 3.23441
# Velocity P-wave (km/s) = 6.48656 6.50160 6.49408
#
# Compressibility (1/GPa) = 0.01863515
#
# Stress axis : x y z
#
# Youngs Moduli (GPa) = 50.91024 50.91024 50.14927
#
# Poissons Ratio (x) = 0.36002 0.33157
# Poissons Ratio (y) = 0.36002 0.33157
# Poissons Ratio (z) = 0.33660 0.33660
#
# Static dielectric constant tensor:
#      x y z
#    x 3.666860 0.000000 0.000000 
#    y 0.000000 3.666860 0.000000 
#    z 0.000000 0.000000 3.142180 
# 
# 
# High freq. dielectric constant tensor:
#      x y z
#    x 1.754150 0.000000 0.000000 
#    y 0.000000 1.754150 0.000000 
#    z 0.000000 0.000000 1.726620 
# 
# From -- ./inp_files/3331.got.cif
#   From: 2010.03.12/outbox.cif.g09.slc.cpg/sg114_2_cif.got.tgz:3331.got - 2010.04.14 02:08:34.
