data_PCOD8308892
_publ_section_title
;
Structure prediction by ZEFSAII (Michael W. Deem and Ramdas Pophale) SiO2 
 PCOD8308892
Probable space group: P -4 21 C
;
_chemical_formula_sum "Si O2"
_cell_formula_units_Z 40
_cell_length_a 8.192385
_cell_length_b 8.192385
_cell_length_c 28.612973
_cell_angle_alpha 90.000000
_cell_angle_beta 90.000000
_cell_angle_gamma 90.000000
_cell_volume 1920.364604
_symmetry_space_group_name_H-M "P -4 21 C"
_symmetry_group_IT_number 114
_symmetry_cell_setting 'tetragonal'
loop_
_space_group_symop_operation_xyz
x,y,z
y,-x,-z
-x,-y,z
-y,x,-z
1/2+x,1/2-y,1/2-z
1/2-x,1/2+y,1/2-z
1/2-y,1/2-x,1/2+z
1/2+y,1/2+x,1/2+z
loop_
_atom_site_type_symbol
_atom_site_label
_atom_site_fract_x
_atom_site_fract_y
_atom_site_fract_z
Si Si1 0.000000 0.000000 0.146232
Si Si2 0.903206 0.245668 0.508040
Si Si3 0.762791 0.749810 0.896433
Si Si4 0.246328 0.391035 0.715003
Si Si5 0.594631 0.758562 0.800942
Si Si6 0.000000 0.500000 0.939534
O O1 0.125867 0.105795 0.177850
O O2 0.902453 0.122404 0.113546
O O3 0.848262 0.297865 0.559583
O O4 0.876638 0.397262 0.472797
O O5 0.094461 0.202139 0.510637
O O6 0.642523 0.708702 0.853522
O O7 0.874329 0.593611 0.906425
O O8 0.324374 0.371291 0.766141
O O9 0.170121 0.569038 0.712798
O O10 0.102339 0.260783 0.703995
#
# Coordination Sequence:
#
# PCOD8308892 Si02
#       6
#     4   8   8   8   8   4
#     4  10  22  38  57  86 118 146 193 240 286 350
#     4   9  20  40  59  81 115 148 187 242 299 347
#     4  10  22  38  59  86 113 152 196 234 286 351
#     4  10  21  38  57  84 119 152 187 238 289 334
#     4  10  21  37  59  84 116 155 192 233 285 344
#     4  10  22  38  60  86 114 148 192 242 288 344
#
# _framework density 20.82938
#
# number of rings (size 3 to 8) (size 9 to 14) (size 15 to 20)
#    0.000    2.200    0.000    2.400    0.000   11.200 
#    0.000   10.000    0.000    0.000    0.000    0.000 
#    0.000    0.000    0.000    0.000    0.000    0.000 
#
# Total GULP energy -496044.870964 kJ/mol
# GULP energy per Si atom -12401.121774 kJ/mol
# Density = 2.078197 g / cm^3
# Si number density = 20.829380 Si / 1000 Ang^3
#
#
#
# Elastic Constant Matrix: (Units=GPa)
#
#
# Indices 1 2 3 4 5 6 
#
# 1 89.6029 25.8850 62.4444 0.0000 0.0000 0.0000
# 2 25.8850 89.6029 62.4444 0.0000 0.0000 0.0000
# 3 62.4444 62.4444 169.6534 0.0000 0.0000 0.0000
# 4 0.0000 0.0000 0.0000 31.8356 0.0000 0.0000
# 5 0.0000 0.0000 0.0000 0.0000 31.8356 0.0000
# 6 0.0000 0.0000 0.0000 0.0000 0.0000 20.9278
#
#
#
# Elastic Compliance Matrix: (Units=1/GPa)
#
#
# Indices 1 2 3 4 5 6 
#
# 1 0.015039 -0.000655 -0.005294 0.000000 0.000000 0.000000
# 2 -0.000655 0.015039 -0.005294 0.000000 0.000000 0.000000
# 3 -0.005294 -0.005294 0.009792 0.000000 0.000000 0.000000
# 4 0.000000 0.000000 0.000000 0.031411 0.000000 0.000000
# 5 0.000000 0.000000 0.000000 0.000000 0.031411 0.000000
# 6 0.000000 0.000000 0.000000 0.000000 0.000000 0.047783
#
#
# Mechanical properties :
#
#
# Convention : Reuss Voigt Hill
#
# Bulk Modulus (GPa) = 57.52846 72.26744 64.89795
# Shear Modulus (GPa) = 27.97075 30.12551 29.04813
#
# Velocity S-wave (km/s) = 3.66847 3.80715 3.73845
# Velocity P-wave (km/s) = 6.75444 7.35501 7.06111
#
# Compressibility (1/GPa) = 0.01738270
#
# Stress axis : x y z
#
# Youngs Moduli (GPa) = 66.49268 66.49268 102.12601
#
# Poissons Ratio (x) = 0.04355 0.54070
# Poissons Ratio (y) = 0.04355 0.54070
# Poissons Ratio (z) = 0.35204 0.35204
#
# Static dielectric constant tensor:
#      x y z
#    x 3.869040 0.000000 0.000000 
#    y 0.000000 3.869040 0.000000 
#    z 0.000000 0.000000 3.888180 
# 
# 
# High freq. dielectric constant tensor:
#      x y z
#    x 1.814710 0.000000 0.000000 
#    y 0.000000 1.814710 0.000000 
#    z 0.000000 0.000000 1.818770 
# 
# From -- ./inp_files/3673.got.cif
#   From: 2010.03.12/outbox.cif.g09.slc.cpg/sg114_2_cif.got.tgz:3673.got - 2010.04.14 02:08:34.
