data_PCOD8308779
_publ_section_title
;
Structure prediction by ZEFSAII (Michael W. Deem and Ramdas Pophale) SiO2 
 PCOD8308779
Probable space group: P -4 21 M 
;
_chemical_formula_sum "Si O2"
_cell_formula_units_Z 32
_cell_length_a 11.875569
_cell_length_b 11.875569
_cell_length_c 10.950970
_cell_angle_alpha 90.000000
_cell_angle_beta 90.000000
_cell_angle_gamma 90.000000
_cell_volume 1544.405871
_symmetry_space_group_name_H-M "P -4 21 M "
_symmetry_group_IT_number 113
_symmetry_cell_setting 'tetragonal'
loop_
_space_group_symop_operation_xyz
x,y,z
y,-x,-z
-x,-y,z
-y,x,-z
1/2+x,1/2-y,-z
1/2-x,1/2+y,-z
1/2-y,1/2-x,z
1/2+y,1/2+x,z
loop_
_atom_site_type_symbol
_atom_site_label
_atom_site_fract_x
_atom_site_fract_y
_atom_site_fract_z
Si Si1 0.174597 0.966496 0.040293
Si Si2 0.594717 0.094717 0.916100
Si Si3 0.905614 0.594387 0.359595
Si Si4 0.755822 0.929312 0.524871
Si Si5 0.122972 0.957814 0.309515
O O1 0.194135 0.952456 0.185476
O O2 0.294938 0.952710 0.979857
O O3 0.090395 0.871066 0.990896
O O4 0.627375 0.127375 0.777781
O O5 0.500000 0.000000 0.922538
O O6 0.796987 0.547806 0.430891
O O7 0.000000 0.500000 0.354490
O O8 0.659923 0.840078 0.493071
O O9 0.834583 0.880310 0.630978
O O10 0.826127 0.951310 0.402667
O O11 0.000000 0.000000 0.272111
#
# Coordination Sequence:
#
# PCOD8308779 Si02
#       5
#     8   4   4   8   8
#     4  11  25  45  68  99 134 184 233 284 343 411
#     4  11  26  45  71 102 138 180 232 283 346 412
#     4   9  22  43  65  95 132 170 218 272 332 410
#     4  11  24  40  66  97 131 176 218 276 345 398
#     4  12  23  43  64  95 133 172 229 278 332 410
#
# _framework density 20.719940000000001
#
# number of rings (size 3 to 8) (size 9 to 14) (size 15 to 20)
#    0.000    1.000    5.000    1.500    5.250    1.000 
#    0.000    1.250    0.000    0.000    0.000    0.000 
#    0.000    0.000    0.000    0.000    0.000    0.000 
#
# Total GULP energy -397009.826541 kJ/mol
# GULP energy per Si atom -12406.557079 kJ/mol
# Density = 2.067278 g / cm^3
# Si number density = 20.719940 Si / 1000 Ang^3
#
#
#
# Elastic Constant Matrix: (Units=GPa)
#
#
# Indices 1 2 3 4 5 6 
#
# 1 86.5069 18.5960 14.1676 0.0000 0.0000 0.0000
# 2 18.5960 86.5074 14.1683 0.0000 0.0000 0.0000
# 3 14.1676 14.1683 123.9733 0.0000 0.0000 0.0000
# 4 0.0000 0.0000 0.0000 24.1603 0.0000 0.0000
# 5 0.0000 0.0000 0.0000 0.0000 24.1589 0.0000
# 6 0.0000 0.0000 0.0000 0.0000 0.0000 30.5031
#
#
#
# Elastic Compliance Matrix: (Units=1/GPa)
#
#
# Indices 1 2 3 4 5 6 
#
# 1 0.012271 -0.002454 -0.001122 0.000000 0.000000 0.000000
# 2 -0.002454 0.012271 -0.001122 0.000000 0.000000 0.000000
# 3 -0.001122 -0.001122 0.008323 0.000000 0.000000 0.000000
# 4 0.000000 0.000000 0.000000 0.041390 0.000000 0.000000
# 5 0.000000 0.000000 0.000000 0.000000 0.041393 0.000000
# 6 0.000000 0.000000 0.000000 0.000000 0.000000 0.032784
#
#
# Mechanical properties :
#
#
# Convention : Reuss Voigt Hill
#
# Bulk Modulus (GPa) = 42.60952 43.42793 43.01873
# Shear Modulus (GPa) = 30.18414 32.43484 31.30949
#
# Velocity S-wave (km/s) = 3.82090 3.96080 3.89148
# Velocity P-wave (km/s) = 6.33047 6.47474 6.40301
#
# Compressibility (1/GPa) = 0.02346893
#
# Stress axis : x y z
#
# Youngs Moduli (GPa) = 81.49263 81.49301 120.15365
#
# Poissons Ratio (x) = 0.19999 0.13480
# Poissons Ratio (y) = 0.19999 0.13480
# Poissons Ratio (z) = 0.09142 0.09143
#
# Static dielectric constant tensor:
#      x y z
#    x 3.798050 0.000000 0.000000 
#    y 0.000000 3.798040 0.000000 
#    z 0.000000 0.000000 3.859940 
# 
# 
# High freq. dielectric constant tensor:
#      x y z
#    x 1.812520 0.000000 0.000000 
#    y 0.000000 1.812520 0.000000 
#    z 0.000000 0.000000 1.822610 
# 
# From -- ./inp_files/1571.got.cif
#   From: 2010.03.12/outbox.cif.g09.slc.cpg/sg113_cif.got.tgz:1571.got - 2010.04.14 02:06:34.
