data_PCOD8308913
_publ_section_title
;
Structure prediction by ZEFSAII (Michael W. Deem and Ramdas Pophale) SiO2 
 PCOD8308913
Probable space group: P -4 21 C
;
_chemical_formula_sum "Si O2"
_cell_formula_units_Z 32
_cell_length_a 8.628304
_cell_length_b 8.628304
_cell_length_c 19.191933
_cell_angle_alpha 90.000000
_cell_angle_beta 90.000000
_cell_angle_gamma 90.000000
_cell_volume 1428.793925
_symmetry_space_group_name_H-M "P -4 21 C"
_symmetry_group_IT_number 114
_symmetry_cell_setting 'tetragonal'
loop_
_space_group_symop_operation_xyz
x,y,z
y,-x,-z
-x,-y,z
-y,x,-z
1/2+x,1/2-y,1/2-z
1/2-x,1/2+y,1/2-z
1/2-y,1/2-x,1/2+z
1/2+y,1/2+x,1/2+z
loop_
_atom_site_type_symbol
_atom_site_label
_atom_site_fract_x
_atom_site_fract_y
_atom_site_fract_z
Si Si1 0.400681 0.846663 0.615937
Si Si2 0.499234 0.682654 0.223237
Si Si3 0.296818 0.296402 0.654777
Si Si4 0.356866 0.710941 0.988093
O O1 0.264694 0.876999 0.671306
O O2 0.519561 0.713611 0.639509
O O3 0.324543 0.783199 0.544973
O O4 0.500000 0.000000 0.600818
O O5 0.500000 0.500000 0.206635
O O6 0.457296 0.724584 0.303646
O O7 0.666745 0.753546 0.211268
O O8 0.187501 0.278846 0.587453
O O9 0.540807 0.712420 0.000896
#
# Coordination Sequence:
#
# PCOD8308913 Si02
#       4
#     8   8   8   8
#     4  10  21  41  63  95 136 165 221 278 323 394
#     4  11  22  44  69  96 132 180 219 272 338 398
#     4  11  24  43  69 101 137 171 223 286 328 402
#     4  11  21  41  72  92 128 181 228 268 331 407
#
# _framework density 22.396508999999998
#
# number of rings (size 3 to 8) (size 9 to 14) (size 15 to 20)
#    0.000    1.250    5.000    3.000    0.000    0.000 
#    9.000    6.250    0.000    0.000    0.000    0.000 
#    0.000    0.000    0.000    0.000    0.000    0.000 
#
# Total GULP energy -396760.616673 kJ/mol
# GULP energy per Si atom -12398.769271 kJ/mol
# Density = 2.234553 g / cm^3
# Si number density = 22.396509 Si / 1000 Ang^3
#
#
#
# Elastic Constant Matrix: (Units=GPa)
#
#
# Indices 1 2 3 4 5 6 
#
# 1 70.0181 18.6411 57.5396 0.0000 0.0000 0.0000
# 2 18.6411 70.0181 57.5396 0.0000 0.0000 0.0000
# 3 57.5396 57.5396 168.0603 0.0000 0.0000 0.0000
# 4 0.0000 0.0000 0.0000 30.9106 0.0000 0.0000
# 5 0.0000 0.0000 0.0000 0.0000 30.9106 0.0000
# 6 0.0000 0.0000 0.0000 0.0000 0.0000 14.9120
#
#
#
# Elastic Compliance Matrix: (Units=1/GPa)
#
#
# Indices 1 2 3 4 5 6 
#
# 1 0.019882 0.000418 -0.006951 0.000000 0.000000 0.000000
# 2 0.000418 0.019882 -0.006951 0.000000 0.000000 0.000000
# 3 -0.006951 -0.006951 0.010710 0.000000 0.000000 0.000000
# 4 0.000000 0.000000 0.000000 0.032351 0.000000 0.000000
# 5 0.000000 0.000000 0.000000 0.000000 0.032351 0.000000
# 6 0.000000 0.000000 0.000000 0.000000 0.000000 0.067060
#
#
# Mechanical properties :
#
#
# Convention : Reuss Voigt Hill
#
# Bulk Modulus (GPa) = 42.53635 63.94858 53.24246
# Shear Modulus (GPa) = 23.03736 26.97172 25.00454
#
# Velocity S-wave (km/s) = 3.21068 3.47404 3.34495
# Velocity P-wave (km/s) = 5.72523 6.68632 6.22435
#
# Compressibility (1/GPa) = 0.02350931
#
# Stress axis : x y z
#
# Youngs Moduli (GPa) = 50.29572 50.29572 93.37419
#
# Poissons Ratio (x) = -0.02105 0.64900
# Poissons Ratio (y) = -0.02105 0.64900
# Poissons Ratio (z) = 0.34958 0.34958
#
# Static dielectric constant tensor:
#      x y z
#    x 4.045900 0.000000 0.000000 
#    y 0.000000 4.045900 0.000000 
#    z 0.000000 0.000000 4.132380 
# 
# 
# High freq. dielectric constant tensor:
#      x y z
#    x 1.875030 0.000000 0.000000 
#    y 0.000000 1.875030 0.000000 
#    z 0.000000 0.000000 1.892220 
# 
# From -- ./inp_files/2823.got.cif
#   From: 2010.03.12/outbox.cif.g09.slc.cpg/sg114_2_cif.got.tgz:2823.got - 2010.04.14 02:08:34.
