data_PCOD8308136
_publ_section_title
;
Structure prediction by ZEFSAII (Michael W. Deem and Ramdas Pophale) SiO2 
 PCOD8308136
Probable space group: P -4 2 M 
;
_chemical_formula_sum "Si O2"
_cell_formula_units_Z 64
_cell_length_a 13.290402
_cell_length_b 13.290402
_cell_length_c 21.651073
_cell_angle_alpha 90.000000
_cell_angle_beta 90.000000
_cell_angle_gamma 90.000000
_cell_volume 3824.332631
_symmetry_space_group_name_H-M "P -4 2 M "
_symmetry_group_IT_number 111
_symmetry_cell_setting 'tetragonal'
loop_
_space_group_symop_operation_xyz
x,y,z
y,-x,-z
-x,-y,z
-y,x,-z
x,-y,-z
-x,y,-z
-y,-x,z
y,x,z
loop_
_atom_site_type_symbol
_atom_site_label
_atom_site_fract_x
_atom_site_fract_y
_atom_site_fract_z
Si Si1 0.079663 0.247425 0.946378
Si Si2 0.120817 0.715158 0.755276
Si Si3 0.504946 0.336361 0.432492
Si Si4 0.251315 0.086931 0.806134
Si Si5 0.742874 0.575515 0.312450
Si Si6 0.418648 0.253373 0.797074
Si Si7 0.227346 0.613216 0.862109
Si Si8 0.225932 0.614837 0.999761
O O1 0.164604 0.164604 0.956043
O O2 0.040043 0.245200 0.875827
O O3 0.131545 0.356706 0.956994
O O4 0.000000 0.225545 0.000000
O O5 0.179633 0.820368 0.755638
O O6 0.157804 0.645683 0.697494
O O7 0.140245 0.649890 0.816557
O O8 0.002348 0.740822 0.755571
O O9 0.500000 0.283065 0.500000
O O10 0.615641 0.384360 0.418840
O O11 0.426533 0.426533 0.433406
O O12 0.473614 0.255028 0.380641
O O13 0.150644 0.150644 0.792381
O O14 0.348549 0.155778 0.797074
O O15 0.643292 0.643292 0.302046
O O16 0.740854 0.483443 0.265101
O O17 0.353803 0.353803 0.804500
O O18 0.493451 0.245458 0.855656
O O19 0.331164 0.668837 0.843590
O O20 0.192486 0.643141 0.930263
O O21 0.324884 0.675117 0.020650
O O22 0.255668 0.500000 0.000000
#
# Coordination Sequence:
#
# PCOD8308136 Si02
#       8
#     8   8   8   8   8   8   8   8
#     4  10  21  36  52  68  86 107 135 180 238 300
#     4   9  18  33  49  65  86 112 147 187 225 272
#     4   8  13  22  39  67 104 140 168 191 213 244
#     4  10  21  34  48  67  87 110 144 189 243 290
#     4   9  17  28  45  70  98 131 163 185 213 256
#     4  10  19  30  44  64  91 119 150 187 221 261
#     4   9  18  30  45  63  82 110 144 177 217 263
#     4  10  20  33  46  61  83 110 141 177 217 265
#
# _framework density 16.734946999999998
#
# number of rings (size 3 to 8) (size 9 to 14) (size 15 to 20)
#    0.000    2.625    0.000    3.375    0.000    7.250 
#    0.000    6.250    0.000    0.000    0.000    1.750 
#    0.000    0.000    0.000    0.000    0.000   15.750 
#
# Total GULP energy -793171.329182 kJ/mol
# GULP energy per Si atom -12393.302018 kJ/mol
# Density = 1.669686 g / cm^3
# Si number density = 16.734947 Si / 1000 Ang^3
#
#
#
# Elastic Constant Matrix: (Units=GPa)
#
#
# Indices 1 2 3 4 5 6 
#
# 1 82.0928 28.5044 24.5979 0.0000 0.0000 0.0000
# 2 28.5044 82.0933 24.5977 0.0000 0.0000 0.0000
# 3 24.5979 24.5977 74.9234 0.0000 0.0000 0.0000
# 4 0.0000 0.0000 0.0000 19.0216 0.0000 0.0000
# 5 0.0000 0.0000 0.0000 0.0000 19.0215 0.0000
# 6 0.0000 0.0000 0.0000 0.0000 0.0000 12.0832
#
#
#
# Elastic Compliance Matrix: (Units=1/GPa)
#
#
# Indices 1 2 3 4 5 6 
#
# 1 0.014624 -0.004036 -0.003476 0.000000 0.000000 0.000000
# 2 -0.004036 0.014624 -0.003476 0.000000 0.000000 0.000000
# 3 -0.003476 -0.003476 0.015629 0.000000 0.000000 0.000000
# 4 0.000000 0.000000 0.000000 0.052572 0.000000 0.000000
# 5 0.000000 0.000000 0.000000 0.000000 0.052572 0.000000
# 6 0.000000 0.000000 0.000000 0.000000 0.000000 0.082760
#
#
# Mechanical properties :
#
#
# Convention : Reuss Voigt Hill
#
# Bulk Modulus (GPa) = 43.66616 43.83440 43.75028
# Shear Modulus (GPa) = 19.05542 20.78588 19.92065
#
# Velocity S-wave (km/s) = 3.37807 3.52812 3.45391
# Velocity P-wave (km/s) = 6.43153 6.54576 6.48890
#
# Compressibility (1/GPa) = 0.02290103
#
# Stress axis : x y z
#
# Youngs Moduli (GPa) = 68.37873 68.37935 63.98192
#
# Poissons Ratio (x) = 0.27600 0.22241
# Poissons Ratio (y) = 0.27600 0.22241
# Poissons Ratio (z) = 0.23770 0.23769
#
# Static dielectric constant tensor:
#      x y z
#    x 3.051800 0.000000 0.000000 
#    y 0.000000 3.051800 0.000000 
#    z 0.000000 0.000000 3.306270 
# 
# 
# High freq. dielectric constant tensor:
#      x y z
#    x 1.632710 0.000000 0.000000 
#    y 0.000000 1.632710 0.000000 
#    z 0.000000 0.000000 1.622890 
# 
# From -- ./inp_files/4282.got.cif
#   From: 2010.03.12/outbox.cif.g09.slc.cpg/sg111_3_cif.got.tgz:4282.got - 2010.04.14 01:59:48.
