data_PCOD8308423
_publ_section_title
;
Structure prediction by ZEFSAII (Michael W. Deem and Ramdas Pophale) SiO2 
 PCOD8308423
Probable space group: P -4 2 C
;
_chemical_formula_sum "Si O2"
_cell_formula_units_Z 40
_cell_length_a 13.173804
_cell_length_b 13.173804
_cell_length_c 9.905596
_cell_angle_alpha 90.000000
_cell_angle_beta 90.000000
_cell_angle_gamma 90.000000
_cell_volume 1719.107388
_symmetry_space_group_name_H-M "P -4 2 C"
_symmetry_group_IT_number 112
_symmetry_cell_setting 'tetragonal'
loop_
_space_group_symop_operation_xyz
x,y,z
y,-x,-z
-x,-y,z
-y,x,-z
x,-y,1/2-z
-x,y,1/2-z
-y,-x,1/2+z
y,x,1/2+z
loop_
_atom_site_type_symbol
_atom_site_label
_atom_site_fract_x
_atom_site_fract_y
_atom_site_fract_z
Si Si1 0.000000 0.000000 0.500000
Si Si2 0.775002 0.974753 0.902093
Si Si3 0.500000 0.809689 0.250000
Si Si4 0.708332 0.238911 0.631128
Si Si5 0.086229 0.315175 0.854240
Si Si6 0.500000 0.500000 0.500000
Si Si7 0.648404 0.352254 0.874612
O O1 0.032290 0.102047 0.418611
O O2 0.707118 0.873640 0.930380
O O3 0.750737 0.000000 0.750000
O O4 0.722169 0.058334 0.996039
O O5 0.434229 0.883170 0.152141
O O6 0.569628 0.739031 0.157040
O O7 0.819346 0.249075 0.698571
O O8 0.630894 0.270468 0.752717
O O9 0.703284 0.322562 0.513274
O O10 0.000000 0.285725 0.750000
O O11 0.543972 0.587423 0.598134
#
# Coordination Sequence:
#
# PCOD8308423 Si02
#       7
#     2   8   4   8   8   2   8
#     4  12  26  40  68 106 150 200 256 286 346 432
#     4  12  25  41  67 102 147 188 246 299 347 419
#     4  10  23  45  70 100 134 182 240 277 373 440
#     4  11  24  43  64  99 140 181 226 291 365 406
#     4  11  23  41  70  95 135 188 237 290 349 437
#     4  12  24  46  76 106 132 174 244 294 364 446
#     4  11  25  44  72  99 136 177 226 299 358 434
#
# _framework density 23.267887999999999
#
# number of rings (size 3 to 8) (size 9 to 14) (size 15 to 20)
#    0.000    0.800    2.000    6.600    2.800    3.600 
#    0.000    0.000    0.000    8.400    0.000    0.000 
#    0.000    0.000    0.000    0.000    0.000    0.000 
#
# Total GULP energy -495720.928778 kJ/mol
# GULP energy per Si atom -12393.023219 kJ/mol
# Density = 2.321493 g / cm^3
# Si number density = 23.267888 Si / 1000 Ang^3
#
#
#
# Elastic Constant Matrix: (Units=GPa)
#
#
# Indices 1 2 3 4 5 6 
#
# 1 82.9538 22.1284 14.4350 0.0000 0.0000 0.0000
# 2 22.1284 82.9538 14.4350 0.0000 0.0000 0.0000
# 3 14.4350 14.4350 106.2426 0.0000 0.0000 0.0000
# 4 0.0000 0.0000 0.0000 35.5339 0.0000 0.0000
# 5 0.0000 0.0000 0.0000 0.0000 35.5339 0.0000
# 6 0.0000 0.0000 0.0000 0.0000 0.0000 45.6137
#
#
#
# Elastic Compliance Matrix: (Units=1/GPa)
#
#
# Indices 1 2 3 4 5 6 
#
# 1 0.013163 -0.003278 -0.001343 0.000000 0.000000 0.000000
# 2 -0.003278 0.013163 -0.001343 0.000000 0.000000 0.000000
# 3 -0.001343 -0.001343 0.009777 0.000000 0.000000 0.000000
# 4 0.000000 0.000000 0.000000 0.028142 0.000000 0.000000
# 5 0.000000 0.000000 0.000000 0.000000 0.028142 0.000000
# 6 0.000000 0.000000 0.000000 0.000000 0.000000 0.021923
#
#
# Mechanical properties :
#
#
# Convention : Reuss Voigt Hill
#
# Bulk Modulus (GPa) = 41.36388 41.57190 41.46789
# Shear Modulus (GPa) = 37.23095 38.07976 37.65535
#
# Velocity S-wave (km/s) = 4.00446 4.04986 4.02722
# Velocity P-wave (km/s) = 6.26074 6.30665 6.28374
#
# Compressibility (1/GPa) = 0.02417568
#
# Stress axis : x y z
#
# Youngs Moduli (GPa) = 75.97096 75.97096 102.27672
#
# Poissons Ratio (x) = 0.24900 0.13737
# Poissons Ratio (y) = 0.24900 0.13737
# Poissons Ratio (z) = 0.10204 0.10204
#
# Static dielectric constant tensor:
#      x y z
#    x 4.529910 0.000000 0.000000 
#    y 0.000000 4.529910 0.000000 
#    z 0.000000 0.000000 4.204900 
# 
# 
# High freq. dielectric constant tensor:
#      x y z
#    x 1.921000 0.000000 0.000000 
#    y 0.000000 1.921000 0.000000 
#    z 0.000000 0.000000 1.918060 
# 
# From -- ./inp_files/1318.got.cif
#   From: 2010.03.12/outbox.cif.g09.slc.cpg/sg112_1_cif.got.tgz:1318.got - 2010.04.14 02:02:48.
