data_PCOD8308249
_publ_section_title
;
Structure prediction by ZEFSAII (Michael W. Deem and Ramdas Pophale) SiO2 
 PCOD8308249
Probable space group: P -4 2 M 
;
_chemical_formula_sum "Si O2"
_cell_formula_units_Z 64
_cell_length_a 12.937786
_cell_length_b 12.937786
_cell_length_c 21.919418
_cell_angle_alpha 90.000000
_cell_angle_beta 90.000000
_cell_angle_gamma 90.000000
_cell_volume 3669.010421
_symmetry_space_group_name_H-M "P -4 2 M "
_symmetry_group_IT_number 111
_symmetry_cell_setting 'tetragonal'
loop_
_space_group_symop_operation_xyz
x,y,z
y,-x,-z
-x,-y,z
-y,x,-z
x,-y,-z
-x,y,-z
-y,-x,z
y,x,z
loop_
_atom_site_type_symbol
_atom_site_label
_atom_site_fract_x
_atom_site_fract_y
_atom_site_fract_z
Si Si1 0.617305 0.217240 0.223786
Si Si2 0.617306 0.782762 0.223787
Si Si3 0.000000 0.622428 0.568933
Si Si4 0.883537 0.285581 0.113451
Si Si5 0.213312 0.383591 0.000000
Si Si6 0.208142 0.379458 0.635969
Si Si7 0.714420 0.883538 0.113453
Si Si8 0.379459 0.208143 0.364032
O O1 0.676034 0.323967 0.211321
O O2 0.499999 0.241281 0.207968
O O3 0.660079 0.129171 0.179147
O O4 0.631605 0.179711 0.293040
O O5 0.676037 0.676037 0.211321
O O6 0.660079 0.870833 0.179148
O O7 0.631605 0.820290 0.293041
O O8 0.894191 0.661020 0.600945
O O9 0.000000 0.500000 0.571125
O O10 0.000000 0.664809 0.500000
O O11 0.105810 0.661019 0.600944
O O12 0.817318 0.182683 0.107719
O O13 1.000000 0.249452 0.106044
O O14 0.854886 0.364876 0.060046
O O15 0.314872 0.314872 0.999998
O O16 0.145119 0.364873 0.060048
O O17 0.252508 0.500000 0.000000
O O18 0.306859 0.306859 0.618650
O O19 0.235008 0.499999 0.620048
O O20 0.817321 0.817321 0.107722
O O21 0.306861 0.306861 0.381350
#
# Coordination Sequence:
#
# PCOD8308249 Si02
#       8
#     8   8   8   8   8   8   8   8
#     4   9  18  31  48  73 101 130 164 202 246 296
#     4   9  18  31  48  73 101 130 164 202 246 296
#     4   9  18  32  50  73 101 134 170 205 245 297
#     4  10  21  35  51  72  98 129 168 212 254 297
#     4  10  21  36  52  74 102 130 165 204 246 300
#     4   9  18  32  51  76 105 135 170 211 255 305
#     4  10  21  35  51  72  98 129 168 212 254 297
#     4   9  18  32  51  76 105 135 170 211 255 305
#
# _framework density 17.443396
#
# number of rings (size 3 to 8) (size 9 to 14) (size 15 to 20)
#    0.000    2.625    0.000    1.125    1.750    3.875 
#    0.000    2.500    0.000    7.125    0.000    4.375 
#    0.000    0.000    0.000    0.000    0.000    0.000 
#
# Total GULP energy -793505.874389 kJ/mol
# GULP energy per Si atom -12398.529287 kJ/mol
# Density = 1.740369 g / cm^3
# Si number density = 17.443396 Si / 1000 Ang^3
#
#
#
# Elastic Constant Matrix: (Units=GPa)
#
#
# Indices 1 2 3 4 5 6 
#
# 1 99.5230 59.3754 49.6404 0.0000 0.0000 0.0000
# 2 59.3754 99.5193 49.6379 0.0000 0.0000 0.0000
# 3 49.6404 49.6379 92.4605 0.0000 0.0000 0.0000
# 4 0.0000 0.0000 0.0000 22.2007 0.0000 0.0000
# 5 0.0000 0.0000 0.0000 0.0000 22.2004 0.0000
# 6 0.0000 0.0000 0.0000 0.0000 0.0000 11.1935
#
#
#
# Elastic Compliance Matrix: (Units=1/GPa)
#
#
# Indices 1 2 3 4 5 6 
#
# 1 0.017189 -0.007720 -0.005084 0.000000 0.000000 0.000000
# 2 -0.007720 0.017190 -0.005084 0.000000 0.000000 0.000000
# 3 -0.005084 -0.005084 0.016274 0.000000 0.000000 0.000000
# 4 0.000000 0.000000 0.000000 0.045044 0.000000 0.000000
# 5 0.000000 0.000000 0.000000 0.000000 0.045044 0.000000
# 6 0.000000 0.000000 0.000000 0.000000 0.000000 0.089338
#
#
# Mechanical properties :
#
#
# Convention : Reuss Voigt Hill
#
# Bulk Modulus (GPa) = 67.21396 67.64557 67.42976
# Shear Modulus (GPa) = 18.46284 19.97552 19.21918
#
# Velocity S-wave (km/s) = 3.25690 3.38770 3.32294
# Velocity P-wave (km/s) = 7.26357 7.35977 7.31183
#
# Compressibility (1/GPa) = 0.01487786
#
# Stress axis : x y z
#
# Youngs Moduli (GPa) = 58.17516 58.17436 61.44605
#
# Poissons Ratio (x) = 0.44908 0.31242
# Poissons Ratio (y) = 0.44909 0.31238
# Poissons Ratio (z) = 0.29579 0.29575
#
# Static dielectric constant tensor:
#      x y z
#    x 3.128510 0.000000 0.000000 
#    y 0.000000 3.128510 0.000000 
#    z 0.000000 0.000000 3.475860 
# 
# 
# High freq. dielectric constant tensor:
#      x y z
#    x 1.663010 0.000000 0.000000 
#    y 0.000000 1.663010 0.000000 
#    z 0.000000 0.000000 1.684770 
# 
# From -- ./inp_files/4227.got.cif
#   From: 2010.03.12/outbox.cif.g09.slc.cpg/sg111_3_cif.got.tgz:4227.got - 2010.04.14 01:59:48.
