data_PCOD8308758
_publ_section_title
;
Structure prediction by ZEFSAII (Michael W. Deem and Ramdas Pophale) SiO2 
 PCOD8308758
Probable space group: P -4 21 M 
;
_chemical_formula_sum "Si O2"
_cell_formula_units_Z 48
_cell_length_a 16.004069
_cell_length_b 16.004069
_cell_length_c 9.932551
_cell_angle_alpha 90.000000
_cell_angle_beta 90.000000
_cell_angle_gamma 90.000000
_cell_volume 2544.026518
_symmetry_space_group_name_H-M "P -4 21 M "
_symmetry_group_IT_number 113
_symmetry_cell_setting 'tetragonal'
loop_
_space_group_symop_operation_xyz
x,y,z
y,-x,-z
-x,-y,z
-y,x,-z
1/2+x,1/2-y,-z
1/2-x,1/2+y,-z
1/2-y,1/2-x,z
1/2+y,1/2+x,z
loop_
_atom_site_type_symbol
_atom_site_label
_atom_site_fract_x
_atom_site_fract_y
_atom_site_fract_z
Si Si1 0.822857 0.184677 0.272642
Si Si2 0.942335 0.695874 0.643358
Si Si3 0.824916 0.815310 0.027360
Si Si4 0.692866 0.947696 0.613595
Si Si5 0.938548 0.303205 0.887912
Si Si6 0.948414 0.688291 0.130693
O O1 0.760686 0.260686 0.250946
O O2 0.779249 0.114113 0.364898
O O3 0.904009 0.218964 0.350355
O O4 0.845589 0.149887 0.123613
O O5 0.887128 0.612873 0.622945
O O6 0.015786 0.699858 0.535460
O O7 0.982096 0.695100 0.791233
O O8 0.754748 0.745253 0.016220
O O9 0.787132 0.892661 0.112813
O O10 0.905601 0.778627 0.104188
O O11 0.615485 0.884516 0.620458
O O12 0.678945 0.024643 0.714755
O O13 0.875219 0.375219 0.842187
O O14 0.969452 0.321383 0.039398
O O15 0.884726 0.615275 0.092747
#
# Coordination Sequence:
#
# PCOD8308758 Si02
#       6
#     8   8   8   8   8   8
#     4   9  18  37  59  78 109 155 198 232 276 337
#     4  11  23  38  58  85 119 155 188 233 290 346
#     4   9  18  35  57  82 111 149 200 238 270 337
#     4  11  23  38  58  85 119 155 188 233 290 346
#     4  11  21  34  57  85 114 150 190 237 288 337
#     4  11  21  34  57  85 114 150 190 237 288 337
#
# _framework density 18.867728
#
# number of rings (size 3 to 8) (size 9 to 14) (size 15 to 20)
#    0.000    1.667    3.333    2.000    0.000    5.333 
#    0.000    5.000    0.000    6.000    0.000    0.000 
#    0.000    0.000    0.000    0.000    0.000    0.000 
#
# Total GULP energy -595237.742353 kJ/mol
# GULP energy per Si atom -12400.786299 kJ/mol
# Density = 1.882478 g / cm^3
# Si number density = 18.867728 Si / 1000 Ang^3
#
#
#
# Elastic Constant Matrix: (Units=GPa)
#
#
# Indices 1 2 3 4 5 6 
#
# 1 64.9049 56.7355 23.0793 0.0000 0.0000 0.0000
# 2 56.7355 64.9042 23.0791 0.0000 0.0000 0.0000
# 3 23.0793 23.0791 69.2072 0.0000 0.0000 0.0000
# 4 0.0000 0.0000 0.0000 28.5386 0.0000 0.0000
# 5 0.0000 0.0000 0.0000 0.0000 28.5395 0.0000
# 6 0.0000 0.0000 0.0000 0.0000 0.0000 29.4693
#
#
#
# Elastic Compliance Matrix: (Units=1/GPa)
#
#
# Indices 1 2 3 4 5 6 
#
# 1 0.065912 -0.056501 -0.003139 0.000000 0.000000 0.000000
# 2 -0.056501 0.065913 -0.003139 0.000000 0.000000 0.000000
# 3 -0.003139 -0.003139 0.016543 0.000000 0.000000 0.000000
# 4 0.000000 0.000000 0.000000 0.035040 0.000000 0.000000
# 5 0.000000 0.000000 0.000000 0.000000 0.035039 0.000000
# 6 0.000000 0.000000 0.000000 0.000000 0.000000 0.033934
#
#
# Mechanical properties :
#
#
# Convention : Reuss Voigt Hill
#
# Bulk Modulus (GPa) = 43.83671 44.97823 44.40747
# Shear Modulus (GPa) = 12.96880 23.71765 18.34322
#
# Velocity S-wave (km/s) = 2.62459 3.54933 3.12140
# Velocity P-wave (km/s) = 5.69814 6.37867 6.04798
#
# Compressibility (1/GPa) = 0.02281193
#
# Stress axis : x y z
#
# Youngs Moduli (GPa) = 15.17169 15.17154 60.44943
#
# Poissons Ratio (x) = 0.85720 0.18974
# Poissons Ratio (y) = 0.85721 0.18973
# Poissons Ratio (z) = 0.04762 0.04762
#
# Static dielectric constant tensor:
#      x y z
#    x 3.449030 0.000000 0.000000 
#    y 0.000000 3.449030 0.000000 
#    z 0.000000 0.000000 3.312040 
# 
# 
# High freq. dielectric constant tensor:
#      x y z
#    x 1.722690 0.000000 0.000000 
#    y 0.000000 1.722690 0.000000 
#    z 0.000000 0.000000 1.729900 
# 
# From -- ./inp_files/1193.got.cif
#   From: 2010.03.12/outbox.cif.g09.slc.cpg/sg113_cif.got.tgz:1193.got - 2010.04.14 02:06:34.
