data_PCOD8308870
_publ_section_title
;
Structure prediction by ZEFSAII (Michael W. Deem and Ramdas Pophale) SiO2 
 PCOD8308870
Probable space group: P -4 21 C
;
_chemical_formula_sum "Si O2"
_cell_formula_units_Z 48
_cell_length_a 8.728426
_cell_length_b 8.728426
_cell_length_c 31.528646
_cell_angle_alpha 90.000000
_cell_angle_beta 90.000000
_cell_angle_gamma 90.000000
_cell_volume 2402.023151
_symmetry_space_group_name_H-M "P -4 21 C"
_symmetry_group_IT_number 114
_symmetry_cell_setting 'tetragonal'
loop_
_space_group_symop_operation_xyz
x,y,z
y,-x,-z
-x,-y,z
-y,x,-z
1/2+x,1/2-y,1/2-z
1/2-x,1/2+y,1/2-z
1/2-y,1/2-x,1/2+z
1/2+y,1/2+x,1/2+z
loop_
_atom_site_type_symbol
_atom_site_label
_atom_site_fract_x
_atom_site_fract_y
_atom_site_fract_z
Si Si1 0.465604 0.247162 0.568245
Si Si2 0.500000 0.500000 0.000000
Si Si3 0.170289 0.033567 0.162066
Si Si4 0.000000 0.000000 0.360711
Si Si5 0.117180 0.368090 0.280799
Si Si6 0.833224 0.178858 0.297238
Si Si7 0.000000 0.000000 0.000000
Si Si8 0.253708 0.461845 0.931341
O O1 0.448150 0.339720 0.611755
O O2 0.443024 0.360274 0.528916
O O3 0.634036 0.175509 0.567590
O O4 0.331946 0.123115 0.565946
O O5 0.360775 0.439496 0.971834
O O6 0.290863 0.900266 0.175371
O O7 0.234038 0.187128 0.182675
O O8 0.000000 0.000000 0.179543
O O9 0.047523 0.146245 0.388698
O O10 0.851388 0.043175 0.331740
O O11 0.245928 0.370515 0.244746
O O12 0.000000 0.500000 0.268173
O O13 0.012072 0.218313 0.286222
#
# Coordination Sequence:
#
# PCOD8308870 Si02
#       8
#     8   2   8   4   8   8   2   8
#     4  11  22  41  62  93 123 169 205 262 313 396
#     4  10  20  40  64  96 114 156 196 260 312 378
#     4  11  22  41  63  89 123 171 217 263 319 383
#     4  11  22  37  65  92 122 162 213 261 314 381
#     4  10  24  39  62  90 125 168 218 257 323 382
#     4  11  23  40  62  93 127 168 214 270 323 382
#     4  12  24  40  66  96 126 156 222 264 320 372
#     4  10  22  40  65  88 125 160 205 252 324 383
#
# _framework density 19.983153999999999
#
# number of rings (size 3 to 8) (size 9 to 14) (size 15 to 20)
#    0.000    1.333    2.500    3.000   10.500    0.000 
#    3.000    0.000    0.000    0.000    0.000    0.000 
#    0.000    0.000    0.000    0.000    0.000    0.000 
#
# Total GULP energy -595165.012065 kJ/mol
# GULP energy per Si atom -12399.271085 kJ/mol
# Density = 1.993767 g / cm^3
# Si number density = 19.983154 Si / 1000 Ang^3
#
#
#
# Elastic Constant Matrix: (Units=GPa)
#
#
# Indices 1 2 3 4 5 6 
#
# 1 62.9542 7.2640 11.4086 0.0000 0.0000 0.0000
# 2 7.2640 62.9542 11.4086 0.0000 0.0000 0.0000
# 3 11.4086 11.4086 99.4619 0.0000 0.0000 0.0000
# 4 0.0000 0.0000 0.0000 48.8447 0.0000 0.0000
# 5 0.0000 0.0000 0.0000 0.0000 48.8447 0.0000
# 6 0.0000 0.0000 0.0000 0.0000 0.0000 21.0365
#
#
#
# Elastic Compliance Matrix: (Units=1/GPa)
#
#
# Indices 1 2 3 4 5 6 
#
# 1 0.016375 -0.001582 -0.001697 0.000000 0.000000 0.000000
# 2 -0.001582 0.016375 -0.001697 0.000000 0.000000 0.000000
# 3 -0.001697 -0.001697 0.010443 0.000000 0.000000 0.000000
# 4 0.000000 0.000000 0.000000 0.020473 0.000000 0.000000
# 5 0.000000 0.000000 0.000000 0.000000 0.020473 0.000000
# 6 0.000000 0.000000 0.000000 0.000000 0.000000 0.047536
#
#
# Mechanical properties :
#
#
# Convention : Reuss Voigt Hill
#
# Bulk Modulus (GPa) = 30.08277 31.72587 30.90432
# Shear Modulus (GPa) = 32.74257 36.76448 34.75352
#
# Velocity S-wave (km/s) = 4.05224 4.29391 4.17483
# Velocity P-wave (km/s) = 6.08120 6.36352 6.22396
#
# Compressibility (1/GPa) = 0.03324162
#
# Stress axis : x y z
#
# Youngs Moduli (GPa) = 61.07031 61.07031 95.75475
#
# Poissons Ratio (x) = 0.09661 0.16247
# Poissons Ratio (y) = 0.09661 0.16247
# Poissons Ratio (z) = 0.10362 0.10362
#
# Static dielectric constant tensor:
#      x y z
#    x 3.666460 0.000000 0.000000 
#    y 0.000000 3.666460 0.000000 
#    z 0.000000 0.000000 3.733500 
# 
# 
# High freq. dielectric constant tensor:
#      x y z
#    x 1.780450 0.000000 0.000000 
#    y 0.000000 1.780450 0.000000 
#    z 0.000000 0.000000 1.792900 
# 
# From -- ./inp_files/4054.got.cif
#   From: 2010.03.12/outbox.cif.g09.slc.cpg/sg114_3_cif.got.tgz:4054.got - 2010.04.14 02:08:34.
