data_PCOD8308196
_publ_section_title
;
Structure prediction by ZEFSAII (Michael W. Deem and Ramdas Pophale) SiO2 
 PCOD8308196
Probable space group: P -4 2 M 
;
_chemical_formula_sum "Si O2"
_cell_formula_units_Z 56
_cell_length_a 25.417661
_cell_length_b 25.417661
_cell_length_c 5.094590
_cell_angle_alpha 90.000000
_cell_angle_beta 90.000000
_cell_angle_gamma 90.000000
_cell_volume 3291.398032
_symmetry_space_group_name_H-M "P -4 2 M "
_symmetry_group_IT_number 111
_symmetry_cell_setting 'tetragonal'
loop_
_space_group_symop_operation_xyz
x,y,z
y,-x,-z
-x,-y,z
-y,x,-z
x,-y,-z
-x,y,-z
-y,-x,z
y,x,z
loop_
_atom_site_type_symbol
_atom_site_label
_atom_site_fract_x
_atom_site_fract_y
_atom_site_fract_z
Si Si1 0.913359 0.301639 0.112896
Si Si2 0.224115 0.965748 0.762077
Si Si3 0.136459 0.221018 0.490105
Si Si4 0.780308 0.695820 0.376526
Si Si5 0.189498 0.361254 0.896057
Si Si6 0.033880 0.599066 0.256987
Si Si7 0.535452 0.859527 0.749851
O O1 0.892002 0.251012 0.270938
O O2 0.867609 0.340134 0.016745
O O3 0.951819 0.338951 0.281745
O O4 0.947142 0.281527 0.864260
O O5 0.195393 0.910190 0.690689
O O6 0.230094 0.000000 0.500000
O O7 0.196849 0.000000 0.000000
O O8 0.173808 0.173808 0.594646
O O9 0.171590 0.262816 0.324323
O O10 0.725059 0.725059 0.359716
O O11 0.785709 0.673070 0.666036
O O12 0.777572 0.648901 0.162217
O O13 0.186717 0.421689 0.804848
O O14 0.085707 0.564274 0.286532
O O15 0.000000 0.581299 0.500000
O O16 0.000000 0.585779 0.000000
O O17 0.500000 0.844123 0.500000
O O18 0.500000 0.863756 0.000000
#
# Coordination Sequence:
#
# PCOD8308196 Si02
#       7
#     8   8   8   8   8   8   8
#     4  10  22  35  53  72 102 128 165 200 252 308
#     4  12  23  35  52  75 103 134 160 191 229 290
#     4  10  22  37  54  76 105 137 162 191 241 315
#     4  10  19  33  54  78 104 132 163 205 264 327
#     4  10  20  35  52  74 101 131 173 215 261 311
#     4  11  25  35  53  74  95 126 168 221 270 313
#     4  11  23  39  54  69  96 136 182 228 269 299
#
# _framework density 17.014047000000001
#
# number of rings (size 3 to 8) (size 9 to 14) (size 15 to 20)
#    0.000    1.429    2.857    2.571    4.000    5.143 
#    0.000    0.000    0.000    0.000    0.000    0.000 
#    0.000    1.714    0.000    0.000    0.000    0.000 
#
# Total GULP energy -693865.802943 kJ/mol
# GULP energy per Si atom -12390.460767 kJ/mol
# Density = 1.697532 g / cm^3
# Si number density = 17.014047 Si / 1000 Ang^3
#
#
#
# Elastic Constant Matrix: (Units=GPa)
#
#
# Indices 1 2 3 4 5 6 
#
# 1 63.9436 25.1924 26.0148 0.0000 0.0000 0.0000
# 2 25.1924 63.9436 26.0148 0.0000 0.0000 0.0000
# 3 26.0148 26.0148 108.7484 0.0000 0.0000 0.0000
# 4 0.0000 0.0000 0.0000 25.6549 0.0000 0.0000
# 5 0.0000 0.0000 0.0000 0.0000 25.6549 0.0000
# 6 0.0000 0.0000 0.0000 0.0000 0.0000 21.7071
#
#
#
# Elastic Compliance Matrix: (Units=1/GPa)
#
#
# Indices 1 2 3 4 5 6 
#
# 1 0.019423 -0.006383 -0.003119 0.000000 0.000000 0.000000
# 2 -0.006383 0.019423 -0.003119 0.000000 0.000000 0.000000
# 3 -0.003119 -0.003119 0.010688 0.000000 0.000000 0.000000
# 4 0.000000 0.000000 0.000000 0.038979 0.000000 0.000000
# 5 0.000000 0.000000 0.000000 0.000000 0.038979 0.000000
# 6 0.000000 0.000000 0.000000 0.000000 0.000000 0.046068
#
#
# Mechanical properties :
#
#
# Convention : Reuss Voigt Hill
#
# Bulk Modulus (GPa) = 41.16955 43.45332 42.31144
# Shear Modulus (GPa) = 24.16638 25.23094 24.69866
#
# Velocity S-wave (km/s) = 3.77288 3.85508 3.81420
# Velocity P-wave (km/s) = 6.57491 6.73874 6.65733
#
# Compressibility (1/GPa) = 0.02428980
#
# Stress axis : x y z
#
# Youngs Moduli (GPa) = 51.48638 51.48638 93.56332
#
# Poissons Ratio (x) = 0.32864 0.29186
# Poissons Ratio (y) = 0.32864 0.29186
# Poissons Ratio (z) = 0.16060 0.16060
#
# Static dielectric constant tensor:
#      x y z
#    x 3.142040 0.000000 0.000000 
#    y 0.000000 3.142040 0.000000 
#    z 0.000000 0.000000 3.243150 
# 
# 
# High freq. dielectric constant tensor:
#      x y z
#    x 1.623510 0.000000 0.000000 
#    y 0.000000 1.623510 0.000000 
#    z 0.000000 0.000000 1.674000 
# 
# From -- ./inp_files/772.got.cif
#   From: 2010.03.12/outbox.cif.g09.slc.cpg/sg111_1_cif.got.tgz:772.got - 2010.04.14 01:59:48.
