data_PCOD8308840
_publ_section_title
;
Structure prediction by ZEFSAII (Michael W. Deem and Ramdas Pophale) SiO2 
 PCOD8308840
Probable space group: P -4 21 C
;
_chemical_formula_sum "Si O2"
_cell_formula_units_Z 32
_cell_length_a 14.627394
_cell_length_b 14.627394
_cell_length_c 8.408888
_cell_angle_alpha 90.000000
_cell_angle_beta 90.000000
_cell_angle_gamma 90.000000
_cell_volume 1799.171186
_symmetry_space_group_name_H-M "P -4 21 C"
_symmetry_group_IT_number 114
_symmetry_cell_setting 'tetragonal'
loop_
_space_group_symop_operation_xyz
x,y,z
y,-x,-z
-x,-y,z
-y,x,-z
1/2+x,1/2-y,1/2-z
1/2-x,1/2+y,1/2-z
1/2-y,1/2-x,1/2+z
1/2+y,1/2+x,1/2+z
loop_
_atom_site_type_symbol
_atom_site_label
_atom_site_fract_x
_atom_site_fract_y
_atom_site_fract_z
Si Si1 0.967440 0.177275 0.670928
Si Si2 0.822770 0.032752 0.670933
Si Si3 0.208135 0.207913 0.169698
Si Si4 0.658201 0.658377 0.315086
O O1 0.925379 0.074708 0.650522
O O2 0.887316 0.241075 0.746120
O O3 0.000114 0.214996 0.499993
O O4 0.051316 0.176898 0.793045
O O5 0.759050 0.112939 0.746121
O O6 0.823068 0.948885 0.793068
O O7 0.285216 0.284935 0.183022
O O8 0.190895 0.190688 0.985482
#
# Coordination Sequence:
#
# PCOD8308840 Si02
#       4
#     8   8   8   8
#     4  10  20  34  54  83 110 142 181 225 280 320
#     4  10  20  34  54  83 110 142 181 225 280 320
#     4  10  24  32  52  85 103 157 175 228 276 324
#     4  12  19  37  53  76 121 137 191 226 270 331
#
# _framework density 17.785966999999999
#
# number of rings (size 3 to 8) (size 9 to 14) (size 15 to 20)
#    1.500    0.000    2.500    5.250    0.000    0.000 
#    4.500    0.000    0.000    1.500    0.000   10.500 
#    0.000    0.000    0.000    0.000    0.000    0.000 
#
# Total GULP energy -396520.303824 kJ/mol
# GULP energy per Si atom -12391.259495 kJ/mol
# Density = 1.774549 g / cm^3
# Si number density = 17.785967 Si / 1000 Ang^3
#
#
#
# Elastic Constant Matrix: (Units=GPa)
#
#
# Indices 1 2 3 4 5 6 
#
# 1 35.8379 35.2195 -0.8144 0.0000 0.0000 0.0000
# 2 35.2195 35.8379 -0.8144 0.0000 0.0000 0.0000
# 3 -0.8144 -0.8144 90.0597 0.0000 0.0000 0.0000
# 4 0.0000 0.0000 0.0000 31.1954 0.0000 0.0000
# 5 0.0000 0.0000 0.0000 0.0000 31.1954 0.0000
# 6 0.0000 0.0000 0.0000 0.0000 0.0000 27.6929
#
#
#
# Elastic Compliance Matrix: (Units=1/GPa)
#
#
# Indices 1 2 3 4 5 6 
#
# 1 0.815647 -0.801571 0.000127 0.000000 0.000000 0.000000
# 2 -0.801571 0.815647 0.000127 0.000000 0.000000 0.000000
# 3 0.000127 0.000127 0.011106 0.000000 0.000000 0.000000
# 4 0.000000 0.000000 0.000000 0.032056 0.000000 0.000000
# 5 0.000000 0.000000 0.000000 0.000000 0.032056 0.000000
# 6 0.000000 0.000000 0.000000 0.000000 0.000000 0.036110
#
#
# Mechanical properties :
#
#
# Convention : Reuss Voigt Hill
#
# Bulk Modulus (GPa) = 25.14628 25.43520 25.29074
# Shear Modulus (GPa) = 1.48876 26.55973 14.02424
#
# Velocity S-wave (km/s) = 0.91589 3.86851 2.81107
# Velocity P-wave (km/s) = 3.90992 5.85539 4.97861
#
# Compressibility (1/GPa) = 0.03976731
#
# Stress axis : x y z
#
# Youngs Moduli (GPa) = 1.22602 1.22602 90.04102
#
# Poissons Ratio (x) = 0.98274 -0.01146
# Poissons Ratio (y) = 0.98274 -0.01146
# Poissons Ratio (z) = -0.00016 -0.00016
#
# Static dielectric constant tensor:
#      x y z
#    x 3.120340 0.000000 0.000000 
#    y 0.000000 3.120340 0.000000 
#    z 0.000000 0.000000 3.251700 
# 
# 
# High freq. dielectric constant tensor:
#      x y z
#    x 1.662170 0.000000 0.000000 
#    y 0.000000 1.662170 0.000000 
#    z 0.000000 0.000000 1.707590 
# 
# From -- ./inp_files/632.got.cif
#   From: 2010.03.12/outbox.cif.g09.slc.cpg/sg114_1_cif.got.tgz:632.got - 2010.04.14 02:08:34.
