data_PCOD8308220
_publ_section_title
;
Structure prediction by ZEFSAII (Michael W. Deem and Ramdas Pophale) SiO2 
 PCOD8308220
Probable space group: P -4 2 M 
;
_chemical_formula_sum "Si O2"
_cell_formula_units_Z 64
_cell_length_a 12.552196
_cell_length_b 12.552196
_cell_length_c 23.730490
_cell_angle_alpha 90.000000
_cell_angle_beta 90.000000
_cell_angle_gamma 90.000000
_cell_volume 3738.919631
_symmetry_space_group_name_H-M "P -4 2 M "
_symmetry_group_IT_number 111
_symmetry_cell_setting 'tetragonal'
loop_
_space_group_symop_operation_xyz
x,y,z
y,-x,-z
-x,-y,z
-y,x,-z
x,-y,-z
-x,y,-z
-y,-x,z
y,x,z
loop_
_atom_site_type_symbol
_atom_site_label
_atom_site_fract_x
_atom_site_fract_y
_atom_site_fract_z
Si Si1 0.621590 0.793933 0.130176
Si Si2 0.206070 0.621588 0.130176
Si Si3 0.702868 0.123056 0.632533
Si Si4 0.709396 0.121721 0.760603
Si Si5 0.123054 0.702869 0.367467
Si Si6 0.999999 0.626628 0.936373
Si Si7 0.290607 0.121722 0.760603
Si Si8 0.499999 0.873449 0.436444
O O1 0.691162 0.691162 0.114271
O O2 0.500002 0.767763 0.114439
O O3 0.628201 0.820841 0.196715
O O4 0.667579 0.893989 0.095011
O O5 0.308843 0.691157 0.114272
O O6 0.179159 0.628198 0.196715
O O7 0.106016 0.667577 0.095010
O O8 0.807700 0.192301 0.619294
O O9 0.665199 0.134660 0.697293
O O10 0.606082 0.167493 0.594799
O O11 0.730815 0.000001 0.618683
O O12 0.826074 0.173927 0.765632
O O13 0.721739 0.999999 0.778181
O O14 0.192298 0.807703 0.380704
O O15 0.134659 0.665197 0.302707
O O16 0.167492 0.606085 0.405202
O O17 0.000000 0.500000 0.934718
O O18 0.000000 0.670664 0.000000
O O19 0.173931 0.173931 0.765632
O O20 0.500000 0.828930 0.500000
O O21 0.500000 0.000000 0.435155
#
# Coordination Sequence:
#
# PCOD8308220 Si02
#       8
#     8   8   8   8   8   8   8   8
#     4  10  20  33  51  76 103 135 171 211 255 301
#     4  10  20  33  51  76 103 135 171 211 255 301
#     4   9  18  31  49  74 100 130 165 206 253 302
#     4   9  17  29  47  73 103 132 166 206 253 303
#     4   9  18  31  49  74 100 130 165 206 253 302
#     4   9  18  34  54  75  99 131 169 208 247 292
#     4   9  17  29  47  73 103 132 166 206 253 303
#     4   9  18  32  48  69  97 131 167 202 241 290
#
# _framework density 17.117243999999999
#
# number of rings (size 3 to 8) (size 9 to 14) (size 15 to 20)
#    0.000    2.750    1.250    0.000    1.750    1.750 
#    0.000    2.500    0.000    0.750    0.000    8.750 
#    0.000    0.000    0.000    0.000    0.000    0.000 
#
# Total GULP energy -793495.060835 kJ/mol
# GULP energy per Si atom -12398.360326 kJ/mol
# Density = 1.707828 g / cm^3
# Si number density = 17.117244 Si / 1000 Ang^3
#
#
#
# Elastic Constant Matrix: (Units=GPa)
#
#
# Indices 1 2 3 4 5 6 
#
# 1 92.0864 53.3604 41.3394 0.0000 0.0000 0.0000
# 2 53.3604 92.0875 41.3401 0.0000 0.0000 0.0000
# 3 41.3394 41.3401 96.0367 0.0000 0.0000 0.0000
# 4 0.0000 0.0000 0.0000 19.5417 0.0000 0.0000
# 5 0.0000 0.0000 0.0000 0.0000 19.5416 0.0000
# 6 0.0000 0.0000 0.0000 0.0000 0.0000 17.1420
#
#
#
# Elastic Compliance Matrix: (Units=1/GPa)
#
#
# Indices 1 2 3 4 5 6 
#
# 1 0.017462 -0.008360 -0.003918 0.000000 0.000000 0.000000
# 2 -0.008360 0.017462 -0.003918 0.000000 0.000000 0.000000
# 3 -0.003918 -0.003918 0.013786 0.000000 0.000000 0.000000
# 4 0.000000 0.000000 0.000000 0.051173 0.000000 0.000000
# 5 0.000000 0.000000 0.000000 0.000000 0.051173 0.000000
# 6 0.000000 0.000000 0.000000 0.000000 0.000000 0.058336
#
#
# Mechanical properties :
#
#
# Convention : Reuss Voigt Hill
#
# Bulk Modulus (GPa) = 61.28153 61.36561 61.32357
# Shear Modulus (GPa) = 20.22450 20.85643 20.54047
#
# Velocity S-wave (km/s) = 3.44107 3.49441 3.46784
# Velocity P-wave (km/s) = 7.18795 7.22559 7.20680
#
# Compressibility (1/GPa) = 0.01631813
#
# Stress axis : x y z
#
# Youngs Moduli (GPa) = 57.26572 57.26614 72.53712
#
# Poissons Ratio (x) = 0.47873 0.28422
# Poissons Ratio (y) = 0.47872 0.28423
# Poissons Ratio (z) = 0.22438 0.22439
#
# Static dielectric constant tensor:
#      x y z
#    x 3.038340 0.000000 0.000000 
#    y 0.000000 3.038340 0.000000 
#    z 0.000000 0.000000 3.356760 
# 
# 
# High freq. dielectric constant tensor:
#      x y z
#    x 1.643260 0.000000 0.000000 
#    y 0.000000 1.643260 0.000000 
#    z 0.000000 0.000000 1.665890 
# 
# From -- ./inp_files/4381.got.cif
#   From: 2010.03.12/outbox.cif.g09.slc.cpg/sg111_3_cif.got.tgz:4381.got - 2010.04.14 01:59:48.
