data_PCOD8308896
_publ_section_title
;
Structure prediction by ZEFSAII (Michael W. Deem and Ramdas Pophale) SiO2 
 PCOD8308896
Probable space group: P -4 21 C
;
_chemical_formula_sum "Si O2"
_cell_formula_units_Z 54
_cell_length_a 10.450662
_cell_length_b 10.450662
_cell_length_c 22.370818
_cell_angle_alpha 90.000000
_cell_angle_beta 90.000000
_cell_angle_gamma 90.000000
_cell_volume 2443.258781
_symmetry_space_group_name_H-M "P -4 21 C"
_symmetry_group_IT_number 114
_symmetry_cell_setting 'tetragonal'
loop_
_space_group_symop_operation_xyz
x,y,z
y,-x,-z
-x,-y,z
-y,x,-z
1/2+x,1/2-y,1/2-z
1/2-x,1/2+y,1/2-z
1/2-y,1/2-x,1/2+z
1/2+y,1/2+x,1/2+z
loop_
_atom_site_type_symbol
_atom_site_label
_atom_site_fract_x
_atom_site_fract_y
_atom_site_fract_z
Si Si1 0.786287 0.873605 0.369141
Si Si2 0.500000 0.500000 0.500000
Si Si3 0.507659 0.778382 0.531176
Si Si4 0.238466 0.503809 0.804088
Si Si5 0.847296 0.489655 0.670376
Si Si6 0.500000 0.000000 0.122167
Si Si7 0.274303 0.726064 0.006473
Si Si8 0.761444 0.166562 0.374339
O O1 0.897963 0.842815 0.322178
O O2 0.648032 0.805708 0.357856
O O3 0.838095 0.843497 0.436780
O O4 0.764901 0.020146 0.359039
O O5 0.504914 0.624499 0.544259
O O6 0.540381 0.871537 0.586233
O O7 0.622125 0.796291 0.483612
O O8 0.372789 0.822389 0.504902
O O9 0.222370 0.503865 0.733722
O O10 0.112746 0.451468 0.836304
O O11 0.265427 0.648292 0.825944
O O12 0.791573 0.611294 0.632110
O O13 0.000000 0.500000 0.677393
O O14 0.311750 0.678050 0.940555
#
# Coordination Sequence:
#
# PCOD8308896 Si02
#       8
#     8   2   8   8   8   4   8   8
#     4  11  25  41  65 100 133 176 215 274 340 404
#     4   8  20  40  60  80 132 168 208 292 332 394
#     4  10  21  38  61  90 124 169 223 267 330 393
#     4  12  23  45  66  93 131 173 226 273 323 402
#     4  10  23  46  71  94 127 173 225 281 326 387
#     4  12  22  38  62  94 118 166 228 262 318 388
#     4  11  22  39  65  93 134 168 212 275 328 404
#     4  11  25  41  65 100 133 176 215 274 340 404
#
# _framework density 22.101631000000001
#
# number of rings (size 3 to 8) (size 9 to 14) (size 15 to 20)
#    0.000    1.185    3.704    2.222    4.148    0.000 
#    0.000    0.000    3.259    0.000    0.000    0.000 
#    0.000    0.000    0.000    0.000    0.000    0.000 
#
# Total GULP energy -669026.653117 kJ/mol
# GULP energy per Si atom -12389.382465 kJ/mol
# Density = 2.205133 g / cm^3
# Si number density = 22.101631 Si / 1000 Ang^3
#
#
#
# Elastic Constant Matrix: (Units=GPa)
#
#
# Indices 1 2 3 4 5 6 
#
# 1 67.4872 13.2426 13.8965 0.0000 0.0000 0.0000
# 2 13.2426 67.4872 13.8965 0.0000 0.0000 0.0000
# 3 13.8965 13.8965 120.9755 0.0000 0.0000 0.0000
# 4 0.0000 0.0000 0.0000 30.7163 0.0000 0.0000
# 5 0.0000 0.0000 0.0000 0.0000 30.7163 0.0000
# 6 0.0000 0.0000 0.0000 0.0000 0.0000 26.4603
#
#
#
# Elastic Compliance Matrix: (Units=1/GPa)
#
#
# Indices 1 2 3 4 5 6 
#
# 1 0.015666 -0.002769 -0.001481 0.000000 0.000000 0.000000
# 2 -0.002769 0.015666 -0.001481 0.000000 0.000000 0.000000
# 3 -0.001481 -0.001481 0.008606 0.000000 0.000000 0.000000
# 4 0.000000 0.000000 0.000000 0.032556 0.000000 0.000000
# 5 0.000000 0.000000 0.000000 0.000000 0.032556 0.000000
# 6 0.000000 0.000000 0.000000 0.000000 0.000000 0.037792
#
#
# Mechanical properties :
#
#
# Convention : Reuss Voigt Hill
#
# Bulk Modulus (GPa) = 35.11900 37.55790 36.33845
# Shear Modulus (GPa) = 30.52532 31.90621 31.21577
#
# Velocity S-wave (km/s) = 3.72039 3.80361 3.76223
# Velocity P-wave (km/s) = 5.86339 6.02662 5.94557
#
# Compressibility (1/GPa) = 0.02847462
#
# Stress axis : x y z
#
# Youngs Moduli (GPa) = 63.83240 63.83240 116.19136
#
# Poissons Ratio (x) = 0.17675 0.17214
# Poissons Ratio (y) = 0.17675 0.17214
# Poissons Ratio (z) = 0.09457 0.09457
#
# Static dielectric constant tensor:
#      x y z
#    x 2.527160 0.000000 0.000000 
#    y 0.000000 2.527160 0.000000 
#    z 0.000000 0.000000 3.769700 
# 
# 
# High freq. dielectric constant tensor:
#      x y z
#    x 1.873250 0.000000 0.000000 
#    y 0.000000 1.873250 0.000000 
#    z 0.000000 0.000000 1.852120 
# 
# From -- ./inp_files/3208.got.cif
#   From: 2010.03.12/outbox.cif.g09.slc.cpg/sg114_2_cif.got.tgz:3208.got - 2010.04.14 02:08:34.
