data_PCOD8308234
_publ_section_title
;
Structure prediction by ZEFSAII (Michael W. Deem and Ramdas Pophale) SiO2 
 PCOD8308234
Probable space group: P -4 2 M 
;
_chemical_formula_sum "Si O2"
_cell_formula_units_Z 48
_cell_length_a 16.345397
_cell_length_b 16.345397
_cell_length_c 9.854003
_cell_angle_alpha 90.000000
_cell_angle_beta 90.000000
_cell_angle_gamma 90.000000
_cell_volume 2632.713720
_symmetry_space_group_name_H-M "P -4 2 M "
_symmetry_group_IT_number 111
_symmetry_cell_setting 'tetragonal'
loop_
_space_group_symop_operation_xyz
x,y,z
y,-x,-z
-x,-y,z
-y,x,-z
x,-y,-z
-x,y,-z
-y,-x,z
y,x,z
loop_
_atom_site_type_symbol
_atom_site_label
_atom_site_fract_x
_atom_site_fract_y
_atom_site_fract_z
Si Si1 0.104657 0.338831 0.754688
Si Si2 0.824336 0.690016 0.466158
Si Si3 0.918975 0.358677 0.788153
Si Si4 0.801578 0.494114 0.156579
Si Si5 0.438737 0.307033 0.384765
Si Si6 0.091366 0.223883 0.989292
O O1 0.121657 0.317852 0.599691
O O2 0.014581 0.377134 0.770387
O O3 0.171013 0.402318 0.810981
O O4 0.110900 0.253807 0.837031
O O5 0.773999 0.773999 0.467434
O O6 0.886203 0.691360 0.340605
O O7 0.765618 0.612036 0.454290
O O8 0.875954 0.445386 0.809214
O O9 0.900079 0.303843 0.918338
O O10 0.723402 0.515336 0.249540
O O11 0.774626 0.500000 0.000000
O O12 0.500000 0.339526 0.500000
O O13 0.380603 0.380603 0.337786
O O14 0.154112 0.154112 0.034985
O O15 0.000000 0.186972 0.000000
#
# Coordination Sequence:
#
# PCOD8308234 Si02
#       6
#     8   8   8   8   8   8
#     4  11  20  34  55  82 112 146 184 227 281 338
#     4  10  20  35  54  78 111 144 183 229 274 325
#     4  10  21  33  55  81 113 148 182 226 279 341
#     4  11  21  37  55  85 120 148 181 222 283 339
#     4  10  21  39  59  81 107 144 189 228 270 325
#     4  10  21  36  54  79 109 147 191 231 279 334
#
# _framework density 18.232137999999999
#
# number of rings (size 3 to 8) (size 9 to 14) (size 15 to 20)
#    0.000    1.667    3.333    2.000    0.000    1.667 
#    0.000    2.500    0.000    0.000    0.000    0.000 
#    0.000   12.000    0.000    0.000    0.000    0.000 
#
# Total GULP energy -595385.616319 kJ/mol
# GULP energy per Si atom -12403.867007 kJ/mol
# Density = 1.819064 g / cm^3
# Si number density = 18.232138 Si / 1000 Ang^3
#
#
#
# Elastic Constant Matrix: (Units=GPa)
#
#
# Indices 1 2 3 4 5 6 
#
# 1 60.1910 41.8987 24.6445 0.0000 0.0000 0.0000
# 2 41.8987 60.1910 24.6445 0.0000 0.0000 0.0000
# 3 24.6445 24.6445 118.8551 0.0000 0.0000 0.0000
# 4 0.0000 0.0000 0.0000 19.8503 0.0000 0.0000
# 5 0.0000 0.0000 0.0000 0.0000 19.8503 0.0000
# 6 0.0000 0.0000 0.0000 0.0000 0.0000 23.2941
#
#
#
# Elastic Compliance Matrix: (Units=1/GPa)
#
#
# Indices 1 2 3 4 5 6 
#
# 1 0.032776 -0.021891 -0.002257 0.000000 0.000000 0.000000
# 2 -0.021891 0.032776 -0.002257 0.000000 0.000000 0.000000
# 3 -0.002257 -0.002257 0.009350 0.000000 0.000000 0.000000
# 4 0.000000 0.000000 0.000000 0.050377 0.000000 0.000000
# 5 0.000000 0.000000 0.000000 0.000000 0.050377 0.000000
# 6 0.000000 0.000000 0.000000 0.000000 0.000000 0.042929
#
#
# Mechanical properties :
#
#
# Convention : Reuss Voigt Hill
#
# Bulk Modulus (GPa) = 45.26608 46.84580 46.05594
# Shear Modulus (GPa) = 17.93655 22.46890 20.20272
#
# Velocity S-wave (km/s) = 3.13994 3.51433 3.33240
# Velocity P-wave (km/s) = 6.16662 6.49748 6.33421
#
# Compressibility (1/GPa) = 0.02209160
#
# Stress axis : x y z
#
# Youngs Moduli (GPa) = 30.50975 30.50975 106.95672
#
# Poissons Ratio (x) = 0.66790 0.24140
# Poissons Ratio (y) = 0.66790 0.24140
# Poissons Ratio (z) = 0.06886 0.06886
#
# Static dielectric constant tensor:
#      x y z
#    x 3.239470 0.000000 0.000000 
#    y 0.000000 3.239470 0.000000 
#    z 0.000000 0.000000 3.477720 
# 
# 
# High freq. dielectric constant tensor:
#      x y z
#    x 1.696550 0.000000 0.000000 
#    y 0.000000 1.696550 0.000000 
#    z 0.000000 0.000000 1.720490 
# 
# From -- ./inp_files/1760.got.cif
#   From: 2010.03.12/outbox.cif.g09.slc.cpg/sg111_1_cif.got.tgz:1760.got - 2010.04.14 01:59:48.
