data_PCOD8308967
_publ_section_title
;
Structure prediction by ZEFSAII (Michael W. Deem and Ramdas Pophale) SiO2 
 PCOD8308967
Probable space group: P -4 21 C
;
_chemical_formula_sum "Si O2"
_cell_formula_units_Z 56
_cell_length_a 14.963378
_cell_length_b 14.963378
_cell_length_c 11.584866
_cell_angle_alpha 90.000000
_cell_angle_beta 90.000000
_cell_angle_gamma 90.000000
_cell_volume 2593.882558
_symmetry_space_group_name_H-M "P -4 21 C"
_symmetry_group_IT_number 114
_symmetry_cell_setting 'tetragonal'
loop_
_space_group_symop_operation_xyz
x,y,z
y,-x,-z
-x,-y,z
-y,x,-z
1/2+x,1/2-y,1/2-z
1/2-x,1/2+y,1/2-z
1/2-y,1/2-x,1/2+z
1/2+y,1/2+x,1/2+z
loop_
_atom_site_type_symbol
_atom_site_label
_atom_site_fract_x
_atom_site_fract_y
_atom_site_fract_z
Si Si1 0.602755 0.529984 0.218047
Si Si2 0.232809 0.737132 0.706562
Si Si3 0.254371 0.428201 0.393245
Si Si4 0.593180 0.234672 0.341393
Si Si5 0.533018 0.101040 0.769840
Si Si6 0.560286 0.753198 0.920559
Si Si7 0.772915 0.934935 0.679082
O O1 0.500000 0.500000 0.235150
O O2 0.659454 0.521164 0.337705
O O3 0.657705 0.477043 0.121430
O O4 0.606676 0.629306 0.167960
O O5 0.326727 0.741312 0.644778
O O6 0.223952 0.810785 0.808159
O O7 0.165277 0.753584 0.602194
O O8 0.210643 0.641035 0.763567
O O9 0.261214 0.436010 0.530120
O O10 0.159227 0.467600 0.348541
O O11 0.593498 0.129276 0.327217
O O12 0.522302 0.279292 0.256620
O O13 0.475714 0.157243 0.860829
O O14 0.500000 0.000000 0.745192
O O15 0.539189 0.765933 0.054992
#
# Coordination Sequence:
#
# PCOD8308967 Si02
#       7
#     8   8   8   8   8   8   8
#     4  10  23  44  64 102 131 177 223 275 340 399
#     4  10  22  44  66  97 131 176 223 265 343 405
#     4   9  22  44  67  92 139 173 223 272 337 412
#     4  11  23  43  69  96 130 182 213 277 338 399
#     4  10  23  43  65 100 131 175 223 274 339 393
#     4  11  24  42  70  99 134 172 224 286 322 403
#     4  11  25  42  67 102 130 175 231 267 345 405
#
# _framework density 21.589258000000001
#
# number of rings (size 3 to 8) (size 9 to 14) (size 15 to 20)
#    0.000    1.714    0.000    3.429    8.000    0.571 
#   28.286    0.000    0.000    0.000    0.000    0.000 
#    0.000    0.000    0.000    0.000    0.000    0.000 
#
# Total GULP energy -694331.817920 kJ/mol
# GULP energy per Si atom -12398.782463 kJ/mol
# Density = 2.154012 g / cm^3
# Si number density = 21.589258 Si / 1000 Ang^3
#
#
#
# Elastic Constant Matrix: (Units=GPa)
#
#
# Indices 1 2 3 4 5 6 
#
# 1 100.5682 22.5139 29.3695 0.0000 0.0000 0.0000
# 2 22.5139 100.5682 29.3695 0.0000 0.0000 0.0000
# 3 29.3695 29.3695 153.7455 0.0000 0.0000 0.0000
# 4 0.0000 0.0000 0.0000 21.2968 0.0000 0.0000
# 5 0.0000 0.0000 0.0000 0.0000 21.2968 0.0000
# 6 0.0000 0.0000 0.0000 0.0000 0.0000 37.2855
#
#
#
# Elastic Compliance Matrix: (Units=1/GPa)
#
#
# Indices 1 2 3 4 5 6 
#
# 1 0.010876 -0.001936 -0.001708 0.000000 0.000000 0.000000
# 2 -0.001936 0.010876 -0.001708 0.000000 0.000000 0.000000
# 3 -0.001708 -0.001708 0.007157 0.000000 0.000000 0.000000
# 4 0.000000 0.000000 0.000000 0.046955 0.000000 0.000000
# 5 0.000000 0.000000 0.000000 0.000000 0.046955 0.000000
# 6 0.000000 0.000000 0.000000 0.000000 0.000000 0.026820
#
#
# Mechanical properties :
#
#
# Convention : Reuss Voigt Hill
#
# Bulk Modulus (GPa) = 54.92956 57.48749 56.20853
# Shear Modulus (GPa) = 30.04627 34.21776 32.13202
#
# Velocity S-wave (km/s) = 3.73463 3.98545 3.86208
# Velocity P-wave (km/s) = 6.64039 6.91839 6.78082
#
# Compressibility (1/GPa) = 0.01820513
#
# Stress axis : x y z
#
# Youngs Moduli (GPa) = 91.94882 91.94882 139.72939
#
# Poissons Ratio (x) = 0.17801 0.23862
# Poissons Ratio (y) = 0.17801 0.23862
# Poissons Ratio (z) = 0.15702 0.15702
#
# Static dielectric constant tensor:
#      x y z
#    x 4.242500 0.000000 0.000000 
#    y 0.000000 4.242500 0.000000 
#    z 0.000000 0.000000 3.874240 
# 
# 
# High freq. dielectric constant tensor:
#      x y z
#    x 1.858310 0.000000 0.000000 
#    y 0.000000 1.858310 0.000000 
#    z 0.000000 0.000000 1.836800 
# 
# From -- ./inp_files/1753.got.cif
#   From: 2010.03.12/outbox.cif.g09.slc.cpg/sg114_1_cif.got.tgz:1753.got - 2010.04.14 02:08:34.
