data_PCOD8308557
_publ_section_title
;
Structure prediction by ZEFSAII (Michael W. Deem and Ramdas Pophale) SiO2 
 PCOD8308557
Probable space group: P -4 21 M 
;
_chemical_formula_sum "Si O2"
_cell_formula_units_Z 64
_cell_length_a 10.991059
_cell_length_b 10.991059
_cell_length_c 27.903781
_cell_angle_alpha 90.000000
_cell_angle_beta 90.000000
_cell_angle_gamma 90.000000
_cell_volume 3370.871002
_symmetry_space_group_name_H-M "P -4 21 M "
_symmetry_group_IT_number 113
_symmetry_cell_setting 'tetragonal'
loop_
_space_group_symop_operation_xyz
x,y,z
y,-x,-z
-x,-y,z
-y,x,-z
1/2+x,1/2-y,-z
1/2-x,1/2+y,-z
1/2-y,1/2-x,z
1/2+y,1/2+x,z
loop_
_atom_site_type_symbol
_atom_site_label
_atom_site_fract_x
_atom_site_fract_y
_atom_site_fract_z
Si Si1 0.805843 0.507002 0.291271
Si Si2 0.954087 0.737319 0.035645
Si Si3 0.821189 0.135725 0.544665
Si Si4 0.625769 0.448531 0.374725
Si Si5 0.752348 0.063453 0.442687
Si Si6 0.238210 0.064363 0.063478
Si Si7 0.330496 0.636813 0.109051
Si Si8 0.199905 0.495143 0.184972
O O1 0.916133 0.416133 0.286085
O O2 0.717644 0.457021 0.331446
O O3 0.744204 0.515257 0.238714
O O4 0.860475 0.639526 0.305806
O O5 0.884794 0.615207 0.054729
O O6 0.868402 0.853113 0.042657
O O7 0.080767 0.765736 0.061979
O O8 0.980587 0.714054 0.979747
O O9 0.688512 0.188512 0.556265
O O10 0.832096 0.105459 0.488505
O O11 0.918158 0.241810 0.557550
O O12 0.836292 0.019705 0.577635
O O13 0.500000 0.500000 0.354260
O O14 0.614925 0.310609 0.393374
O O15 0.614288 0.114288 0.445577
O O16 0.350685 0.149316 0.083452
O O17 0.177240 0.972302 0.102742
O O18 0.259398 0.759398 0.123344
O O19 0.312143 0.531290 0.149882
O O20 0.099924 0.599924 0.181152
O O21 0.133982 0.366019 0.171187
#
# Coordination Sequence:
#
# PCOD8308557 Si02
#       8
#     8   8   8   8   8   8   8   8
#     4   9  17  32  54  79 105 129 163 218 271 313
#     4  11  22  36  53  74 104 143 185 224 265 314
#     4  10  19  31  46  64  93 130 166 204 246 293
#     4  10  19  30  49  71 100 132 167 204 252 308
#     4  10  19  31  46  64  92 131 168 204 243 293
#     4  11  23  37  52  75 109 147 183 222 272 318
#     4  11  21  34  55  81 105 138 178 220 266 323
#     4   8  16  32  54  80 109 138 171 217 274 329
#
# _framework density 18.986191999999999
#
# number of rings (size 3 to 8) (size 9 to 14) (size 15 to 20)
#    0.000    2.000    2.500    3.000    0.000    2.500 
#    0.000    1.250    0.000    0.000    0.000    3.500 
#    0.000    9.000    0.000    0.000    0.000    0.750 
#
# Total GULP energy -792911.942933 kJ/mol
# GULP energy per Si atom -12389.249108 kJ/mol
# Density = 1.894298 g / cm^3
# Si number density = 18.986192 Si / 1000 Ang^3
#
#
#
# Elastic Constant Matrix: (Units=GPa)
#
#
# Indices 1 2 3 4 5 6 
#
# 1 56.6175 26.3791 19.8612 0.0000 0.0000 0.0000
# 2 26.3791 56.6174 19.8611 0.0000 0.0000 0.0000
# 3 19.8612 19.8611 90.1639 0.0000 0.0000 0.0000
# 4 0.0000 0.0000 0.0000 34.0694 0.0000 0.0000
# 5 0.0000 0.0000 0.0000 0.0000 34.0686 0.0000
# 6 0.0000 0.0000 0.0000 0.0000 0.0000 30.4399
#
#
#
# Elastic Compliance Matrix: (Units=1/GPa)
#
#
# Indices 1 2 3 4 5 6 
#
# 1 0.023270 -0.009801 -0.002967 0.000000 0.000000 0.000000
# 2 -0.009801 0.023270 -0.002967 0.000000 0.000000 0.000000
# 3 -0.002967 -0.002967 0.012398 0.000000 0.000000 0.000000
# 4 0.000000 0.000000 0.000000 0.029352 0.000000 0.000000
# 5 0.000000 0.000000 0.000000 0.000000 0.029353 0.000000
# 6 0.000000 0.000000 0.000000 0.000000 0.000000 0.032852
#
#
# Mechanical properties :
#
#
# Convention : Reuss Voigt Hill
#
# Bulk Modulus (GPa) = 36.40620 37.28907 36.84763
# Shear Modulus (GPa) = 26.16178 28.86873 27.51526
#
# Velocity S-wave (km/s) = 3.71608 3.90360 3.81100
# Velocity P-wave (km/s) = 6.13426 6.32457 6.23014
#
# Compressibility (1/GPa) = 0.02746785
#
# Stress axis : x y z
#
# Youngs Moduli (GPa) = 42.97453 42.97453 80.65833
#
# Poissons Ratio (x) = 0.42119 0.23930
# Poissons Ratio (y) = 0.42119 0.23930
# Poissons Ratio (z) = 0.12750 0.12750
#
# Static dielectric constant tensor:
#      x y z
#    x 3.271370 0.000000 0.000000 
#    y 0.000000 3.271360 0.000000 
#    z 0.000000 0.000000 3.382190 
# 
# 
# High freq. dielectric constant tensor:
#      x y z
#    x 1.728230 0.000000 0.000000 
#    y 0.000000 1.728230 0.000000 
#    z 0.000000 0.000000 1.714700 
# 
# From -- ./inp_files/2957.got.cif
#   From: 2010.03.12/outbox.cif.g09.slc.cpg/sg113_cif.got.tgz:2957.got - 2010.04.14 02:06:34.
