data_PCOD8308734
_publ_section_title
;
Structure prediction by ZEFSAII (Michael W. Deem and Ramdas Pophale) SiO2 
 PCOD8308734
Probable space group: P -4 21 M 
;
_chemical_formula_sum "Si O2"
_cell_formula_units_Z 40
_cell_length_a 11.025677
_cell_length_b 11.025677
_cell_length_c 16.145168
_cell_angle_alpha 90.000000
_cell_angle_beta 90.000000
_cell_angle_gamma 90.000000
_cell_volume 1962.696281
_symmetry_space_group_name_H-M "P -4 21 M "
_symmetry_group_IT_number 113
_symmetry_cell_setting 'tetragonal'
loop_
_space_group_symop_operation_xyz
x,y,z
y,-x,-z
-x,-y,z
-y,x,-z
1/2+x,1/2-y,-z
1/2-x,1/2+y,-z
1/2-y,1/2-x,z
1/2+y,1/2+x,z
loop_
_atom_site_type_symbol
_atom_site_label
_atom_site_fract_x
_atom_site_fract_y
_atom_site_fract_z
Si Si1 0.500001 0.803043 0.499994
Si Si2 0.306318 0.005275 0.089430
Si Si3 0.151481 0.848512 0.375792
Si Si4 0.494725 0.806317 0.910585
Si Si5 0.095328 0.095320 0.805682
O O1 0.612207 0.887794 0.469694
O O2 0.543077 0.715805 0.573789
O O3 0.456925 0.715800 0.426200
O O4 0.387795 0.887795 0.530291
O O5 0.358982 0.141019 0.111065
O O6 0.420370 0.920370 0.078340
O O7 0.224614 0.950382 0.161988
O O8 0.236898 0.000002 0.000008
O O9 0.249997 0.749997 0.348863
O O10 0.095671 0.904305 0.293401
O O11 0.579632 0.920369 0.921674
O O12 0.549616 0.724614 0.838027
O O13 0.358982 0.858982 0.888953
O O14 0.000000 0.000000 0.839525
#
# Coordination Sequence:
#
# PCOD8308734 Si02
#       5
#     8   8   8   8   8
#     4   9  20  39  64  90 116 153 198 243 296 356
#     4   9  20  40  63  84 114 162 210 251 296 348
#     4  10  22  40  62  86 115 156 196 238 295 353
#     4   9  20  40  63  84 114 162 210 251 296 348
#     4  12  26  36  56  94 127 158 194 245 306 358
#
# _framework density 20.380127000000002
#
# number of rings (size 3 to 8) (size 9 to 14) (size 15 to 20)
#    0.000    2.200    0.000    3.000    5.600    2.400 
#    0.000    4.000    0.000    0.000    0.000    0.000 
#    0.000    0.000    0.000    0.000    0.000    0.000 
#
# Total GULP energy -495725.748693 kJ/mol
# GULP energy per Si atom -12393.143717 kJ/mol
# Density = 2.033374 g / cm^3
# Si number density = 20.380127 Si / 1000 Ang^3
#
#
#
# Elastic Constant Matrix: (Units=GPa)
#
#
# Indices 1 2 3 4 5 6 
#
# 1 84.2777 46.6586 54.8487 0.0000 0.0000 0.0000
# 2 46.6586 84.2772 54.8485 0.0000 0.0000 0.0000
# 3 54.8487 54.8485 133.3795 0.0000 0.0000 0.0000
# 4 0.0000 0.0000 0.0000 32.3189 0.0000 0.0000
# 5 0.0000 0.0000 0.0000 0.0000 32.3192 0.0000
# 6 0.0000 0.0000 0.0000 0.0000 0.0000 34.0430
#
#
#
# Elastic Compliance Matrix: (Units=1/GPa)
#
#
# Indices 1 2 3 4 5 6 
#
# 1 0.019117 -0.007465 -0.004791 0.000000 0.000000 0.000000
# 2 -0.007465 0.019117 -0.004791 0.000000 0.000000 0.000000
# 3 -0.004791 -0.004791 0.011438 0.000000 0.000000 0.000000
# 4 0.000000 0.000000 0.000000 0.030942 0.000000 0.000000
# 5 0.000000 0.000000 0.000000 0.000000 0.030941 0.000000
# 6 0.000000 0.000000 0.000000 0.000000 0.000000 0.029375
#
#
# Mechanical properties :
#
#
# Convention : Reuss Voigt Hill
#
# Bulk Modulus (GPa) = 64.20308 68.29401 66.24854
# Shear Modulus (GPa) = 27.74423 29.44148 28.59285
#
# Velocity S-wave (km/s) = 3.69363 3.80493 3.74970
# Velocity P-wave (km/s) = 7.05420 7.27229 7.16408
#
# Compressibility (1/GPa) = 0.01557558
#
# Stress axis : x y z
#
# Youngs Moduli (GPa) = 52.30979 52.30940 87.42780
#
# Poissons Ratio (x) = 0.39052 0.41889
# Poissons Ratio (y) = 0.39052 0.41890
# Poissons Ratio (z) = 0.25063 0.25063
#
# Static dielectric constant tensor:
#      x y z
#    x 3.640250 0.000000 0.000000 
#    y 0.000000 3.640250 0.000000 
#    z 0.000000 0.000000 3.481400 
# 
# 
# High freq. dielectric constant tensor:
#      x y z
#    x 1.800940 0.000000 0.000000 
#    y 0.000000 1.800940 0.000000 
#    z 0.000000 0.000000 1.779950 
# 
# From -- ./inp_files/2165.got.cif
#   From: 2010.03.12/outbox.cif.g09.slc.cpg/sg113_cif.got.tgz:2165.got - 2010.04.14 02:06:34.
