data_PCOD8308141
_publ_section_title
;
Structure prediction by ZEFSAII (Michael W. Deem and Ramdas Pophale) SiO2 
 PCOD8308141
Probable space group: P -4 2 M 
;
_chemical_formula_sum "Si O2"
_cell_formula_units_Z 44
_cell_length_a 11.324517
_cell_length_b 11.324517
_cell_length_c 21.461606
_cell_angle_alpha 90.000000
_cell_angle_beta 90.000000
_cell_angle_gamma 90.000000
_cell_volume 2752.336907
_symmetry_space_group_name_H-M "P -4 2 M "
_symmetry_group_IT_number 111
_symmetry_cell_setting 'tetragonal'
loop_
_space_group_symop_operation_xyz
x,y,z
y,-x,-z
-x,-y,z
-y,x,-z
x,-y,-z
-x,y,-z
-y,-x,z
y,x,z
loop_
_atom_site_type_symbol
_atom_site_label
_atom_site_fract_x
_atom_site_fract_y
_atom_site_fract_z
Si Si1 0.710597 0.103052 0.282986
Si Si2 0.309314 0.505856 0.931179
Si Si3 0.741306 0.447255 0.367179
Si Si4 0.128489 0.530004 0.176686
Si Si5 0.835478 0.649109 0.284025
Si Si6 0.500000 0.311583 0.500000
O O1 0.845898 0.154103 0.280214
O O2 0.644507 0.167040 0.339129
O O3 0.651743 0.130434 0.215805
O O4 0.693977 0.966581 0.301263
O O5 0.363017 0.636984 0.917304
O O6 0.416367 0.416367 0.929252
O O7 0.214845 0.463665 0.881243
O O8 0.250617 0.500000 0.000000
O O9 0.607369 0.392632 0.356990
O O10 0.766140 0.574883 0.336845
O O11 0.767012 0.459902 0.441069
O O12 0.167409 0.425568 0.221599
O O13 0.000000 0.500000 0.149684
O O14 0.768297 0.768297 0.270280
O O15 0.392448 0.392448 0.475668
#
# Coordination Sequence:
#
# PCOD8308141 Si02
#       6
#     8   8   8   8   8   4
#     4   9  18  32  47  63  86 116 149 183 218 256
#     4   9  17  28  42  62  88 115 141 169 205 254
#     4   9  17  30  47  67  91 115 141 177 218 261
#     4   9  17  29  45  64  85 110 142 180 218 254
#     4  10  19  30  45  66  90 114 145 182 218 261
#     4   9  16  26  43  68  94 116 139 171 216 264
#
# _framework density 15.986414999999999
#
# number of rings (size 3 to 8) (size 9 to 14) (size 15 to 20)
#    0.000    2.818    0.000    3.818    0.000    2.545 
#    0.000    1.818    0.000    0.000    0.000    0.000 
#    0.000    4.364    0.000   33.818    0.000    1.455 
#
# Total GULP energy -545108.346272 kJ/mol
# GULP energy per Si atom -12388.826052 kJ/mol
# Density = 1.595003 g / cm^3
# Si number density = 15.986415 Si / 1000 Ang^3
#
#
#
# Elastic Constant Matrix: (Units=GPa)
#
#
# Indices 1 2 3 4 5 6 
#
# 1 65.2247 28.2608 18.8101 0.0000 0.0000 0.0000
# 2 28.2608 65.2242 18.8096 0.0000 0.0000 0.0000
# 3 18.8101 18.8096 72.5470 0.0000 0.0000 0.0000
# 4 0.0000 0.0000 0.0000 -41.4043 0.0000 0.0000
# 5 0.0000 0.0000 0.0000 0.0000 -41.3902 0.0000
# 6 0.0000 0.0000 0.0000 0.0000 0.0000 20.6372
#
#
#
# Elastic Compliance Matrix: (Units=1/GPa)
#
#
# Indices 1 2 3 4 5 6 
#
# 1 0.019498 -0.007555 -0.003097 0.000000 0.000000 0.000000
# 2 -0.007555 0.019498 -0.003096 0.000000 0.000000 0.000000
# 3 -0.003097 -0.003096 0.015390 0.000000 0.000000 0.000000
# 4 0.000000 0.000000 0.000000 -0.024152 0.000000 0.000000
# 5 0.000000 0.000000 0.000000 0.000000 -0.024160 0.000000
# 6 0.000000 0.000000 0.000000 0.000000 0.000000 0.048456
#
#
# Mechanical properties :
#
#
# Convention : Reuss Voigt Hill
#
# Bulk Modulus (GPa) = 37.18904 37.19520 37.19212
# Shear Modulus (GPa) = 54.95098 -3.29042 25.83028
#
# Velocity S-wave (km/s) = 5.86926 -1.43622 4.02402
# Velocity P-wave (km/s) = 8.32132 4.53508 6.70117
#
# Compressibility (1/GPa) = 0.02688964
#
# Stress axis : x y z
#
# Youngs Moduli (GPa) = 51.28672 51.28654 64.97763
#
# Poissons Ratio (x) = 0.38748 0.20121
# Poissons Ratio (y) = 0.38749 0.20120
# Poissons Ratio (z) = 0.15882 0.15881
#
# Static dielectric constant tensor:
#      x y z
#    x 3.197300 0.000000 0.000000 
#    y 0.000000 3.197260 0.000000 
#    z 0.000000 0.000000 3.018620 
# 
# 
# High freq. dielectric constant tensor:
#      x y z
#    x 1.604080 0.000000 0.000000 
#    y 0.000000 1.604080 0.000000 
#    z 0.000000 0.000000 1.609550 
# 
# From -- ./inp_files/3610.got.cif
#   From: 2010.03.12/outbox.cif.g09.slc.cpg/sg111_2_cif.got.tgz:3610.got - 2010.04.14 01:59:48.
