data_PCOD8308811
_publ_section_title
;
Structure prediction by ZEFSAII (Michael W. Deem and Ramdas Pophale) SiO2 
 PCOD8308811
Probable space group: P -4 21 C
;
_chemical_formula_sum "Si O2"
_cell_formula_units_Z 48
_cell_length_a 23.909054
_cell_length_b 23.909054
_cell_length_c 5.016518
_cell_angle_alpha 90.000000
_cell_angle_beta 90.000000
_cell_angle_gamma 90.000000
_cell_volume 2867.656713
_symmetry_space_group_name_H-M "P -4 21 C"
_symmetry_group_IT_number 114
_symmetry_cell_setting 'tetragonal'
loop_
_space_group_symop_operation_xyz
x,y,z
y,-x,-z
-x,-y,z
-y,x,-z
1/2+x,1/2-y,1/2-z
1/2-x,1/2+y,1/2-z
1/2-y,1/2-x,1/2+z
1/2+y,1/2+x,1/2+z
loop_
_atom_site_type_symbol
_atom_site_label
_atom_site_fract_x
_atom_site_fract_y
_atom_site_fract_z
Si Si1 0.939051 0.151835 0.958831
Si Si2 0.060949 0.151835 0.041170
Si Si3 0.730972 0.821216 0.434849
Si Si4 0.678786 0.230973 0.065151
Si Si5 0.775292 0.938156 0.541540
Si Si6 0.275293 0.438156 0.041542
O O1 0.932369 0.171875 0.655659
O O2 0.000000 0.124592 0.999999
O O3 0.893787 0.106213 0.032576
O O4 0.931655 0.204716 0.154592
O O5 0.068346 0.204715 0.845411
O O6 0.067630 0.171874 0.344344
O O7 0.688398 0.792703 0.640404
O O8 0.792598 0.792599 0.463939
O O9 0.732569 0.887814 0.482248
O O10 0.688400 0.207299 0.359597
O O11 0.612188 0.232570 0.017753
O O12 0.747357 0.000001 0.499998
#
# Coordination Sequence:
#
# PCOD8308811 Si02
#       6
#     8   8   8   8   8   8
#     4  10  19  30  45  63  86 120 157 193 228 261
#     4  10  19  30  45  63  86 120 157 193 228 261
#     4  10  19  30  47  70  94 119 148 187 231 274
#     4  10  19  30  47  70  94 119 148 187 231 274
#     4  10  20  33  48  66  91 122 154 187 228 278
#     4  10  20  33  48  66  91 122 154 187 228 278
#
# _framework density 16.738403000000002
#
# number of rings (size 3 to 8) (size 9 to 14) (size 15 to 20)
#    0.000    2.000    0.000    5.000    0.000    3.000 
#    0.000    0.000    0.000    6.000    0.000    0.000 
#    0.000    4.000    0.000    0.000    0.000    0.000 
#
# Total GULP energy -595177.509725 kJ/mol
# GULP energy per Si atom -12399.531453 kJ/mol
# Density = 1.670031 g / cm^3
# Si number density = 16.738403 Si / 1000 Ang^3
#
#
#
# Elastic Constant Matrix: (Units=GPa)
#
#
# Indices 1 2 3 4 5 6 
#
# 1 81.2355 29.5034 0.1331 0.0000 0.0000 0.0000
# 2 29.5034 81.2355 0.1331 0.0000 0.0000 0.0000
# 3 0.1331 0.1331 58.8564 0.0000 0.0000 0.0000
# 4 0.0000 0.0000 0.0000 15.8118 0.0000 0.0000
# 5 0.0000 0.0000 0.0000 0.0000 15.8118 0.0000
# 6 0.0000 0.0000 0.0000 0.0000 0.0000 19.6017
#
#
#
# Elastic Compliance Matrix: (Units=1/GPa)
#
#
# Indices 1 2 3 4 5 6 
#
# 1 0.014180 -0.005150 -0.000020 0.000000 0.000000 0.000000
# 2 -0.005150 0.014180 -0.000020 0.000000 0.000000 0.000000
# 3 -0.000020 -0.000020 0.016991 0.000000 0.000000 0.000000
# 4 0.000000 0.000000 0.000000 0.063244 0.000000 0.000000
# 5 0.000000 0.000000 0.000000 0.000000 0.063244 0.000000
# 6 0.000000 0.000000 0.000000 0.000000 0.000000 0.051016
#
#
# Mechanical properties :
#
#
# Convention : Reuss Voigt Hill
#
# Bulk Modulus (GPa) = 28.59634 31.20740 29.90187
# Shear Modulus (GPa) = 20.41702 23.01556 21.71629
#
# Velocity S-wave (km/s) = 3.49631 3.71214 3.60584
# Velocity P-wave (km/s) = 5.78103 6.08753 5.93626
#
# Compressibility (1/GPa) = 0.03496951
#
# Stress axis : x y z
#
# Youngs Moduli (GPa) = 70.52016 70.52016 58.85609
#
# Poissons Ratio (x) = 0.36318 0.00120
# Poissons Ratio (y) = 0.36318 0.00120
# Poissons Ratio (z) = 0.00144 0.00144
#
# Static dielectric constant tensor:
#      x y z
#    x 2.969170 0.000000 0.000000 
#    y 0.000000 2.969170 0.000000 
#    z 0.000000 0.000000 3.357620 
# 
# 
# High freq. dielectric constant tensor:
#      x y z
#    x 1.614930 0.000000 0.000000 
#    y 0.000000 1.614930 0.000000 
#    z 0.000000 0.000000 1.673450 
# 
# From -- ./inp_files/220.got.cif
#   From: 2010.03.12/outbox.cif.g09.slc.cpg/sg114_1_cif.got.tgz:220.got - 2010.04.14 02:08:34.
