data_PCOD8308883
_publ_section_title
;
Structure prediction by ZEFSAII (Michael W. Deem and Ramdas Pophale) SiO2 
 PCOD8308883
Probable space group: P -4 21 C
;
_chemical_formula_sum "Si O2"
_cell_formula_units_Z 36
_cell_length_a 10.565025
_cell_length_b 10.565025
_cell_length_c 17.154958
_cell_angle_alpha 90.000000
_cell_angle_beta 90.000000
_cell_angle_gamma 90.000000
_cell_volume 1914.832179
_symmetry_space_group_name_H-M "P -4 21 C"
_symmetry_group_IT_number 114
_symmetry_cell_setting 'tetragonal'
loop_
_space_group_symop_operation_xyz
x,y,z
y,-x,-z
-x,-y,z
-y,x,-z
1/2+x,1/2-y,1/2-z
1/2-x,1/2+y,1/2-z
1/2-y,1/2-x,1/2+z
1/2+y,1/2+x,1/2+z
loop_
_atom_site_type_symbol
_atom_site_label
_atom_site_fract_x
_atom_site_fract_y
_atom_site_fract_z
Si Si1 0.500000 0.500000 0.500000
Si Si2 0.295877 0.000489 0.240949
Si Si3 0.000000 0.000000 0.500000
Si Si4 0.655503 0.362050 0.627234
Si Si5 0.655503 0.362050 0.127234
Si Si6 0.204123 0.500489 0.759051
O O1 0.606562 0.431772 0.550987
O O2 0.205168 0.032083 0.312907
O O3 0.376707 0.123293 0.215946
O O4 0.214162 0.960061 0.166401
O O5 0.385766 0.885766 0.268227
O O6 0.068228 0.893438 0.550987
O O7 0.768304 0.268304 0.602478
O O8 0.705169 0.467917 0.687093
O O9 0.539939 0.285838 0.166401
#
# Coordination Sequence:
#
# PCOD8308883 Si02
#       6
#     2   8   2   8   8   8
#     4  12  24  34  48  76 112 142 164 196 252 314
#     4   9  18  35  58  78  96 127 174 219 252 288
#     4  12  24  34  48  76 112 142 164 196 252 314
#     4  10  21  35  53  77 103 134 170 208 252 300
#     4  10  21  35  53  77 103 134 170 208 252 300
#     4   9  18  35  58  78  96 127 174 219 252 288
#
# _framework density 18.800604
#
# number of rings (size 3 to 8) (size 9 to 14) (size 15 to 20)
#    0.000    2.222    0.000    2.667    0.000    3.556 
#    0.000    0.000    0.000    0.000    0.000    0.000 
#    0.000    0.000    0.000    0.000    0.000    0.000 
#
# Total GULP energy -446536.912542 kJ/mol
# GULP energy per Si atom -12403.803126 kJ/mol
# Density = 1.875781 g / cm^3
# Si number density = 18.800604 Si / 1000 Ang^3
#
#
#
# Elastic Constant Matrix: (Units=GPa)
#
#
# Indices 1 2 3 4 5 6 
#
# 1 54.6713 8.3977 12.1412 0.0000 0.0000 0.0000
# 2 8.3977 54.6713 12.1412 0.0000 0.0000 0.0000
# 3 12.1412 12.1412 50.9762 0.0000 0.0000 0.0000
# 4 0.0000 0.0000 0.0000 22.1745 0.0000 0.0000
# 5 0.0000 0.0000 0.0000 0.0000 22.1745 0.0000
# 6 0.0000 0.0000 0.0000 0.0000 0.0000 29.2378
#
#
#
# Elastic Compliance Matrix: (Units=1/GPa)
#
#
# Indices 1 2 3 4 5 6 
#
# 1 0.019533 -0.002077 -0.004158 0.000000 0.000000 0.000000
# 2 -0.002077 0.019533 -0.004158 0.000000 0.000000 0.000000
# 3 -0.004158 -0.004158 0.021597 0.000000 0.000000 0.000000
# 4 0.000000 0.000000 0.000000 0.045097 0.000000 0.000000
# 5 0.000000 0.000000 0.000000 0.000000 0.045097 0.000000
# 6 0.000000 0.000000 0.000000 0.000000 0.000000 0.034202
#
#
# Mechanical properties :
#
#
# Convention : Reuss Voigt Hill
#
# Bulk Modulus (GPa) = 25.07545 25.07546 25.07546
# Shear Modulus (GPa) = 22.81661 23.22659 23.02160
#
# Velocity S-wave (km/s) = 3.48747 3.51866 3.50310
# Velocity P-wave (km/s) = 5.43904 5.46576 5.45242
#
# Compressibility (1/GPa) = 0.03987964
#
# Stress axis : x y z
#
# Youngs Moduli (GPa) = 51.19412 51.19412 46.30174
#
# Poissons Ratio (x) = 0.10634 0.19251
# Poissons Ratio (y) = 0.10634 0.19251
# Poissons Ratio (z) = 0.21285 0.21285
#
# Static dielectric constant tensor:
#      x y z
#    x 3.638170 0.000000 0.000000 
#    y 0.000000 3.638170 0.000000 
#    z 0.000000 0.000000 3.131750 
# 
# 
# High freq. dielectric constant tensor:
#      x y z
#    x 1.747070 0.000000 0.000000 
#    y 0.000000 1.747070 0.000000 
#    z 0.000000 0.000000 1.702180 
# 
# From -- ./inp_files/1499.got.cif
#   From: 2010.03.12/outbox.cif.g09.slc.cpg/sg114_1_cif.got.tgz:1499.got - 2010.04.14 02:08:34.
