data_PCOD8308911
_publ_section_title
;
Structure prediction by ZEFSAII (Michael W. Deem and Ramdas Pophale) SiO2 
 PCOD8308911
Probable space group: P -4 21 C
;
_chemical_formula_sum "Si O2"
_cell_formula_units_Z 36
_cell_length_a 9.153662
_cell_length_b 9.153662
_cell_length_c 20.259522
_cell_angle_alpha 90.000000
_cell_angle_beta 90.000000
_cell_angle_gamma 90.000000
_cell_volume 1697.535786
_symmetry_space_group_name_H-M "P -4 21 C"
_symmetry_group_IT_number 114
_symmetry_cell_setting 'tetragonal'
loop_
_space_group_symop_operation_xyz
x,y,z
y,-x,-z
-x,-y,z
-y,x,-z
1/2+x,1/2-y,1/2-z
1/2-x,1/2+y,1/2-z
1/2-y,1/2-x,1/2+z
1/2+y,1/2+x,1/2+z
loop_
_atom_site_type_symbol
_atom_site_label
_atom_site_fract_x
_atom_site_fract_y
_atom_site_fract_z
Si Si1 0.477285 0.774570 0.094604
Si Si2 0.000000 0.000000 0.500000
Si Si3 0.656299 0.068288 0.738765
Si Si4 0.105873 0.120598 0.778515
Si Si5 0.000000 0.000000 0.000000
Si Si6 0.238507 0.521599 0.409863
O O1 0.429010 0.747677 0.170947
O O2 0.366103 0.892818 0.063476
O O3 0.643538 0.832305 0.098530
O O4 0.465406 0.633668 0.048623
O O5 0.638198 0.234796 0.766278
O O6 0.500000 0.000000 0.720881
O O7 0.740867 0.965974 0.791590
O O8 0.029238 0.180298 0.843619
O O9 0.000000 0.000000 0.744333
O O10 0.865048 0.936797 0.040262
#
# Coordination Sequence:
#
# PCOD8308911 Si02
#       6
#     8   2   8   8   2   8
#     4  10  22  43  60  90 130 171 203 275 323 385
#     4  12  24  40  66  92 124 172 236 254 320 412
#     4  11  22  41  65  91 133 167 208 275 334 394
#     4  11  22  39  64  95 126 169 214 265 327 408
#     4  12  20  32  70  88 112 176 212 278 300 392
#     4  10  21  41  63  89 129 161 216 262 333 374
#
# _framework density 21.207211999999998
#
# number of rings (size 3 to 8) (size 9 to 14) (size 15 to 20)
#    0.000    1.333    5.556    2.667    1.556    0.000 
#    0.000    0.000    4.889    0.000    0.000    0.000 
#    0.000    0.000    0.000    0.000    0.000    0.000 
#
# Total GULP energy -446033.194777 kJ/mol
# GULP energy per Si atom -12389.810966 kJ/mol
# Density = 2.115894 g / cm^3
# Si number density = 21.207212 Si / 1000 Ang^3
#
#
#
# Elastic Constant Matrix: (Units=GPa)
#
#
# Indices 1 2 3 4 5 6 
#
# 1 122.0573 36.5039 10.1131 0.0000 0.0000 0.0000
# 2 36.5039 122.0573 10.1131 0.0000 0.0000 0.0000
# 3 10.1131 10.1131 23.1186 0.0000 0.0000 0.0000
# 4 0.0000 0.0000 0.0000 22.1422 0.0000 0.0000
# 5 0.0000 0.0000 0.0000 0.0000 22.1422 0.0000
# 6 0.0000 0.0000 0.0000 0.0000 0.0000 44.2614
#
#
#
# Elastic Compliance Matrix: (Units=1/GPa)
#
#
# Indices 1 2 3 4 5 6 
#
# 1 0.009184 -0.002505 -0.002922 0.000000 0.000000 0.000000
# 2 -0.002505 0.009184 -0.002922 0.000000 0.000000 0.000000
# 3 -0.002922 -0.002922 0.045812 0.000000 0.000000 0.000000
# 4 0.000000 0.000000 0.000000 0.045163 0.000000 0.000000
# 5 0.000000 0.000000 0.000000 0.000000 0.045163 0.000000
# 6 0.000000 0.000000 0.000000 0.000000 0.000000 0.022593
#
#
# Mechanical properties :
#
#
# Convention : Reuss Voigt Hill
#
# Bulk Modulus (GPa) = 21.06020 42.29928 31.67974
# Shear Modulus (GPa) = 23.85240 31.74269 27.79754
#
# Velocity S-wave (km/s) = 3.35734 3.87303 3.62437
# Velocity P-wave (km/s) = 4.99812 6.32372 5.69959
#
# Compressibility (1/GPa) = 0.04748293
#
# Stress axis : x y z
#
# Youngs Moduli (GPa) = 108.88481 108.88481 21.82853
#
# Poissons Ratio (x) = 0.27271 0.06378
# Poissons Ratio (y) = 0.27271 0.06378
# Poissons Ratio (z) = 0.31815 0.31815
#
# Static dielectric constant tensor:
#      x y z
#    x 4.380500 0.000000 0.000000 
#    y 0.000000 4.380500 0.000000 
#    z 0.000000 0.000000 3.399290 
# 
# 
# High freq. dielectric constant tensor:
#      x y z
#    x 1.846920 0.000000 0.000000 
#    y 0.000000 1.846920 0.000000 
#    z 0.000000 0.000000 1.783950 
# 
# From -- ./inp_files/2993.got.cif
#   From: 2010.03.12/outbox.cif.g09.slc.cpg/sg114_2_cif.got.tgz:2993.got - 2010.04.14 02:08:34.
