data_PCOD8308860
_publ_section_title
;
Structure prediction by ZEFSAII (Michael W. Deem and Ramdas Pophale) SiO2 
 PCOD8308860
Probable space group: P -4 21 C
;
_chemical_formula_sum "Si O2"
_cell_formula_units_Z 48
_cell_length_a 13.406034
_cell_length_b 13.406034
_cell_length_c 12.993301
_cell_angle_alpha 90.000000
_cell_angle_beta 90.000000
_cell_angle_gamma 90.000000
_cell_volume 2335.178763
_symmetry_space_group_name_H-M "P -4 21 C"
_symmetry_group_IT_number 114
_symmetry_cell_setting 'tetragonal'
loop_
_space_group_symop_operation_xyz
x,y,z
y,-x,-z
-x,-y,z
-y,x,-z
1/2+x,1/2-y,1/2-z
1/2-x,1/2+y,1/2-z
1/2-y,1/2-x,1/2+z
1/2+y,1/2+x,1/2+z
loop_
_atom_site_type_symbol
_atom_site_label
_atom_site_fract_x
_atom_site_fract_y
_atom_site_fract_z
Si Si1 0.000000 0.500000 0.759720
Si Si2 0.846447 0.845051 0.306622
Si Si3 0.247340 0.760936 0.499601
Si Si4 0.813867 0.405206 0.353167
Si Si5 0.000000 0.000000 0.766483
Si Si6 0.190641 0.913590 0.142889
Si Si7 0.842960 0.649178 0.189030
O O1 0.065178 0.572129 0.832343
O O2 0.070038 0.432678 0.687779
O O3 0.825945 0.823131 0.426478
O O4 0.743713 0.881484 0.253725
O O5 0.884552 0.748404 0.244427
O O6 0.934167 0.926675 0.304093
O O7 0.180920 0.689871 0.427711
O O8 0.320428 0.692608 0.567007
O O9 0.312501 0.834655 0.429017
O O10 0.750958 0.493818 0.407861
O O11 0.062016 0.074698 0.839320
O O12 0.245541 0.889419 0.250574
#
# Coordination Sequence:
#
# PCOD8308860 Si02
#       7
#     4   8   8   8   4   8   8
#     4  10  20  40  64  86 118 156 194 242 294 344
#     4   9  20  38  60  87 120 156 194 241 292 344
#     4  10  20  38  62  86 118 156 194 242 294 344
#     4   9  20  37  58  87 119 153 196 242 290 346
#     4  10  20  40  64  86 118 156 194 242 294 344
#     4   9  20  38  58  86 120 153 196 242 288 346
#     4   9  20  39  60  86 121 156 194 241 290 344
#
# _framework density 20.555171999999999
#
# number of rings (size 3 to 8) (size 9 to 14) (size 15 to 20)
#    0.000    2.667    0.000    0.000    0.000    9.333 
#    0.000   32.500    0.000    2.000    0.000    0.000 
#    0.000    0.000    0.000    0.000    0.000    0.000 
#
# Total GULP energy -595187.484729 kJ/mol
# GULP energy per Si atom -12399.739265 kJ/mol
# Density = 2.050839 g / cm^3
# Si number density = 20.555172 Si / 1000 Ang^3
#
#
#
# Elastic Constant Matrix: (Units=GPa)
#
#
# Indices 1 2 3 4 5 6 
#
# 1 121.5710 60.2714 53.4874 0.0000 0.0000 0.0000
# 2 60.2714 121.5710 53.4874 0.0000 0.0000 0.0000
# 3 53.4874 53.4874 111.5168 0.0000 0.0000 0.0000
# 4 0.0000 0.0000 0.0000 12.3091 0.0000 0.0000
# 5 0.0000 0.0000 0.0000 0.0000 12.3091 0.0000
# 6 0.0000 0.0000 0.0000 0.0000 0.0000 43.2415
#
#
#
# Elastic Compliance Matrix: (Units=1/GPa)
#
#
# Indices 1 2 3 4 5 6 
#
# 1 0.011987 -0.004326 -0.003674 0.000000 0.000000 0.000000
# 2 -0.004326 0.011987 -0.003674 0.000000 0.000000 0.000000
# 3 -0.003674 -0.003674 0.012492 0.000000 0.000000 0.000000
# 4 0.000000 0.000000 0.000000 0.081241 0.000000 0.000000
# 5 0.000000 0.000000 0.000000 0.000000 0.081241 0.000000
# 6 0.000000 0.000000 0.000000 0.000000 0.000000 0.023126
#
#
# Mechanical properties :
#
#
# Convention : Reuss Voigt Hill
#
# Bulk Modulus (GPa) = 76.24237 76.57237 76.40737
# Shear Modulus (GPa) = 20.01630 26.06609 23.04120
#
# Velocity S-wave (km/s) = 3.12394 3.56491 3.35168
# Velocity P-wave (km/s) = 7.08407 7.36734 7.22710
#
# Compressibility (1/GPa) = 0.01311607
#
# Stress axis : x y z
#
# Youngs Moduli (GPa) = 83.42304 83.42304 80.05103
#
# Poissons Ratio (x) = 0.36091 0.29414
# Poissons Ratio (y) = 0.36091 0.29414
# Poissons Ratio (z) = 0.30653 0.30653
#
# Static dielectric constant tensor:
#      x y z
#    x 3.847190 0.000000 0.000000 
#    y 0.000000 3.847190 0.000000 
#    z 0.000000 0.000000 3.468240 
# 
# 
# High freq. dielectric constant tensor:
#      x y z
#    x 1.808510 0.000000 0.000000 
#    y 0.000000 1.808510 0.000000 
#    z 0.000000 0.000000 1.781240 
# 
# From -- ./inp_files/1684.got.cif
#   From: 2010.03.12/outbox.cif.g09.slc.cpg/sg114_1_cif.got.tgz:1684.got - 2010.04.14 02:08:34.
