data_PCOD8308661
_publ_section_title
;
Structure prediction by ZEFSAII (Michael W. Deem and Ramdas Pophale) SiO2 
 PCOD8308661
Probable space group: P -4 21 M 
;
_chemical_formula_sum "Si O2"
_cell_formula_units_Z 64
_cell_length_a 11.679008
_cell_length_b 11.679008
_cell_length_c 23.261610
_cell_angle_alpha 90.000000
_cell_angle_beta 90.000000
_cell_angle_gamma 90.000000
_cell_volume 3172.865643
_symmetry_space_group_name_H-M "P -4 21 M "
_symmetry_group_IT_number 113
_symmetry_cell_setting 'tetragonal'
loop_
_space_group_symop_operation_xyz
x,y,z
y,-x,-z
-x,-y,z
-y,x,-z
1/2+x,1/2-y,-z
1/2-x,1/2+y,-z
1/2-y,1/2-x,z
1/2+y,1/2+x,z
loop_
_atom_site_type_symbol
_atom_site_label
_atom_site_fract_x
_atom_site_fract_y
_atom_site_fract_z
Si Si1 0.181451 0.504610 0.682263
Si Si2 0.900196 0.214706 0.369483
Si Si3 0.559840 0.754083 0.060627
Si Si4 0.095851 0.090649 0.873326
Si Si5 0.648428 0.337238 0.250737
Si Si6 0.811960 0.994705 0.429100
Si Si7 0.251886 0.935930 0.943919
Si Si8 0.763328 0.081759 0.546884
O O1 0.107377 0.392624 0.667539
O O2 0.277777 0.469407 0.728092
O O3 0.231645 0.549922 0.622260
O O4 0.105186 0.605186 0.710085
O O5 0.782767 0.282767 0.373985
O O6 0.923277 0.189377 0.301849
O O7 0.884840 0.101298 0.406824
O O8 0.003941 0.282272 0.399802
O O9 0.635011 0.864990 0.082797
O O10 0.458292 0.712580 0.104914
O O11 0.645612 0.649896 0.046557
O O12 0.492817 0.789752 0.003477
O O13 0.121714 0.091836 0.805815
O O14 0.212790 0.042767 0.903127
O O15 0.000000 0.000000 0.887468
O O16 0.744540 0.244540 0.235241
O O17 0.736119 0.024932 0.485214
O O18 0.901243 0.898214 0.447063
O O19 0.361820 0.861820 0.920146
O O20 0.703206 0.203206 0.551385
#
# Coordination Sequence:
#
# PCOD8308661 Si02
#       8
#     8   8   8   8   8   8   8   8
#     4   9  18  34  56  80 110 150 195 247 303 356
#     4  10  22  41  61  81 113 154 196 238 290 351
#     4  10  20  35  59  89 122 160 200 249 306 360
#     4  10  21  36  59  87 123 159 199 249 303 351
#     4   9  20  38  58  80 110 155 199 239 293 351
#     4  11  21  36  55  82 115 147 186 237 295 357
#     4  10  20  36  59  87 121 162 203 245 300 363
#     4  12  24  36  57  87 116 148 187 239 297 355
#
# _framework density 20.171040999999999
#
# number of rings (size 3 to 8) (size 9 to 14) (size 15 to 20)
#    0.000    1.875    2.500    2.625    0.000    4.500 
#    0.000    0.625    0.000    2.250    0.000    0.000 
#    0.000    0.000    0.000    0.000    0.000    0.000 
#
# Total GULP energy -793096.066079 kJ/mol
# GULP energy per Si atom -12392.126032 kJ/mol
# Density = 2.012513 g / cm^3
# Si number density = 20.171041 Si / 1000 Ang^3
#
#
#
# Elastic Constant Matrix: (Units=GPa)
#
#
# Indices 1 2 3 4 5 6 
#
# 1 69.4193 29.7214 38.3110 0.0000 0.0000 0.0000
# 2 29.7214 69.4191 38.3110 0.0000 0.0000 0.0000
# 3 38.3110 38.3110 130.5217 0.0000 0.0000 0.0000
# 4 0.0000 0.0000 0.0000 22.5396 0.0000 0.0000
# 5 0.0000 0.0000 0.0000 0.0000 22.5395 0.0000
# 6 0.0000 0.0000 0.0000 0.0000 0.0000 21.1933
#
#
#
# Elastic Compliance Matrix: (Units=1/GPa)
#
#
# Indices 1 2 3 4 5 6 
#
# 1 0.019118 -0.006072 -0.003829 0.000000 0.000000 0.000000
# 2 -0.006072 0.019118 -0.003829 0.000000 0.000000 0.000000
# 3 -0.003829 -0.003829 0.009910 0.000000 0.000000 0.000000
# 4 0.000000 0.000000 0.000000 0.044366 0.000000 0.000000
# 5 0.000000 0.000000 0.000000 0.000000 0.044367 0.000000
# 6 0.000000 0.000000 0.000000 0.000000 0.000000 0.047185
#
#
# Mechanical properties :
#
#
# Convention : Reuss Voigt Hill
#
# Bulk Modulus (GPa) = 48.34511 53.56077 50.95294
# Shear Modulus (GPa) = 22.89163 24.12223 23.50693
#
# Velocity S-wave (km/s) = 3.37245 3.46191 3.41747
# Velocity P-wave (km/s) = 6.25972 6.52615 6.39433
#
# Compressibility (1/GPa) = 0.02068462
#
# Stress axis : x y z
#
# Youngs Moduli (GPa) = 52.30601 52.30581 100.91251
#
# Poissons Ratio (x) = 0.31760 0.38643
# Poissons Ratio (y) = 0.31760 0.38643
# Poissons Ratio (z) = 0.20030 0.20030
#
# Static dielectric constant tensor:
#      x y z
#    x 3.668320 0.000000 0.000000 
#    y 0.000000 3.668320 0.000000 
#    z 0.000000 0.000000 3.580810 
# 
# 
# High freq. dielectric constant tensor:
#      x y z
#    x 1.778240 0.000000 0.000000 
#    y 0.000000 1.778240 0.000000 
#    z 0.000000 0.000000 1.775910 
# 
# From -- ./inp_files/2905.got.cif
#   From: 2010.03.12/outbox.cif.g09.slc.cpg/sg113_cif.got.tgz:2905.got - 2010.04.14 02:06:34.
