data_PCOD8308902
_publ_section_title
;
Structure prediction by ZEFSAII (Michael W. Deem and Ramdas Pophale) SiO2 
 PCOD8308902
Probable space group: P -4 21 C
;
_chemical_formula_sum "Si O2"
_cell_formula_units_Z 40
_cell_length_a 17.926888
_cell_length_b 17.926888
_cell_length_c 5.122112
_cell_angle_alpha 90.000000
_cell_angle_beta 90.000000
_cell_angle_gamma 90.000000
_cell_volume 1646.110105
_symmetry_space_group_name_H-M "P -4 21 C"
_symmetry_group_IT_number 114
_symmetry_cell_setting 'tetragonal'
loop_
_space_group_symop_operation_xyz
x,y,z
y,-x,-z
-x,-y,z
-y,x,-z
1/2+x,1/2-y,1/2-z
1/2-x,1/2+y,1/2-z
1/2-y,1/2-x,1/2+z
1/2+y,1/2+x,1/2+z
loop_
_atom_site_type_symbol
_atom_site_label
_atom_site_fract_x
_atom_site_fract_y
_atom_site_fract_z
Si Si1 0.405075 0.955115 0.009233
Si Si2 0.844800 0.084334 0.237434
Si Si3 0.795286 0.665359 0.118950
Si Si4 0.911594 0.155158 0.737797
Si Si5 0.825347 0.395042 0.387257
O O1 0.471118 0.941222 0.225636
O O2 0.359765 0.877351 0.987714
O O3 0.353337 0.019798 0.121151
O O4 0.756514 0.097753 0.284125
O O5 0.885105 0.138390 0.444491
O O6 0.864051 0.998660 0.275468
O O7 0.869290 0.102798 0.943540
O O8 0.768665 0.701870 0.841576
O O9 0.896289 0.238661 0.827716
O O10 0.865230 0.342361 0.176437
#
# Coordination Sequence:
#
# PCOD8308902 Si02
#       5
#     8   8   8   8   8
#     4  10  21  39  65  97 137 184 232 275 330 409
#     4  12  27  47  75 104 141 185 239 303 364 429
#     4  10  21  39  68 100 133 177 232 282 331 411
#     4  12  28  49  73 105 139 185 239 300 368 429
#     4  12  27  46  69 105 152 189 232 296 361 425
#
# _framework density 24.299712
#
# number of rings (size 3 to 8) (size 9 to 14) (size 15 to 20)
#    0.000    0.800    0.000    7.200    0.000   16.000 
#    0.000    0.000    0.000    0.000    0.000    0.000 
#    0.000    0.000    0.000    0.000    0.000    0.000 
#
# Total GULP energy -495711.566200 kJ/mol
# GULP energy per Si atom -12392.789155 kJ/mol
# Density = 2.424440 g / cm^3
# Si number density = 24.299712 Si / 1000 Ang^3
#
#
#
# Elastic Constant Matrix: (Units=GPa)
#
#
# Indices 1 2 3 4 5 6 
#
# 1 95.1335 26.6644 9.4018 0.0000 0.0000 0.0000
# 2 26.6644 95.1335 9.4018 0.0000 0.0000 0.0000
# 3 9.4018 9.4018 166.6324 0.0000 0.0000 0.0000
# 4 0.0000 0.0000 0.0000 51.2238 0.0000 0.0000
# 5 0.0000 0.0000 0.0000 0.0000 51.2238 0.0000
# 6 0.0000 0.0000 0.0000 0.0000 0.0000 28.6458
#
#
#
# Elastic Compliance Matrix: (Units=1/GPa)
#
#
# Indices 1 2 3 4 5 6 
#
# 1 0.011444 -0.003161 -0.000467 0.000000 0.000000 0.000000
# 2 -0.003161 0.011444 -0.000467 0.000000 0.000000 0.000000
# 3 -0.000467 -0.000467 0.006054 0.000000 0.000000 0.000000
# 4 0.000000 0.000000 0.000000 0.019522 0.000000 0.000000
# 5 0.000000 0.000000 0.000000 0.000000 0.019522 0.000000
# 6 0.000000 0.000000 0.000000 0.000000 0.000000 0.034909
#
#
# Mechanical properties :
#
#
# Convention : Reuss Voigt Hill
#
# Bulk Modulus (GPa) = 48.19360 49.75947 48.97654
# Shear Modulus (GPa) = 42.37160 46.98077 44.67619
#
# Velocity S-wave (km/s) = 4.18030 4.40180 4.29248
# Velocity P-wave (km/s) = 6.57084 6.80855 6.69075
#
# Compressibility (1/GPa) = 0.02074964
#
# Stress axis : x y z
#
# Youngs Moduli (GPa) = 87.38353 87.38353 165.18096
#
# Poissons Ratio (x) = 0.27625 0.07719
# Poissons Ratio (y) = 0.27625 0.07719
# Poissons Ratio (z) = 0.04084 0.04084
#
# Static dielectric constant tensor:
#      x y z
#    x 4.423700 0.000000 0.000000 
#    y 0.000000 4.423700 0.000000 
#    z 0.000000 0.000000 5.643120 
# 
# 
# High freq. dielectric constant tensor:
#      x y z
#    x 1.964510 0.000000 0.000000 
#    y 0.000000 1.964510 0.000000 
#    z 0.000000 0.000000 2.003740 
# 
# From -- ./inp_files/161.got.cif
#   From: 2010.03.12/outbox.cif.g09.slc.cpg/sg114_1_cif.got.tgz:161.got - 2010.04.14 02:08:34.
