data_PCOD8308301
_publ_section_title
;
Structure prediction by ZEFSAII (Michael W. Deem and Ramdas Pophale) SiO2 
 PCOD8308301
Probable space group: P -4 2 C
;
_chemical_formula_sum "Si O2"
_cell_formula_units_Z 56
_cell_length_a 18.994804
_cell_length_b 18.994804
_cell_length_c 9.338915
_cell_angle_alpha 90.000000
_cell_angle_beta 90.000000
_cell_angle_gamma 90.000000
_cell_volume 3369.504617
_symmetry_space_group_name_H-M "P -4 2 C"
_symmetry_group_IT_number 112
_symmetry_cell_setting 'tetragonal'
loop_
_space_group_symop_operation_xyz
x,y,z
y,-x,-z
-x,-y,z
-y,x,-z
x,-y,1/2-z
-x,y,1/2-z
-y,-x,1/2+z
y,x,1/2+z
loop_
_atom_site_type_symbol
_atom_site_label
_atom_site_fract_x
_atom_site_fract_y
_atom_site_fract_z
Si Si1 0.366792 0.250693 0.469511
Si Si2 0.059318 0.542741 0.901277
Si Si3 0.294223 0.982786 0.406483
Si Si4 0.516808 0.211376 0.416400
Si Si5 0.157432 0.769266 0.865470
Si Si6 0.133191 0.747033 0.536862
Si Si7 0.275123 0.344176 0.645451
O O1 0.448693 0.237357 0.501606
O O2 0.324277 0.177880 0.483275
O O3 0.345182 0.307603 0.587608
O O4 0.354431 0.284197 0.314095
O O5 0.064278 0.500000 0.750000
O O6 0.035015 0.623374 0.893087
O O7 0.134961 0.539501 0.977338
O O8 0.000000 0.500000 0.992380
O O9 0.249452 0.913981 0.454200
O O10 0.266230 0.000000 0.250000
O O11 0.274885 0.052193 0.500433
O O12 0.500000 0.203398 0.250000
O O13 0.581339 0.265253 0.435442
O O14 0.143075 0.777728 0.696557
O O15 0.208672 0.703866 0.893779
O O16 0.192597 0.840666 0.926870
#
# Coordination Sequence:
#
# PCOD8308301 Si02
#       7
#     8   8   8   8   8   8   8
#     4   9  17  28  45  65  92 119 154 186 228 274
#     4  10  15  20  38  68 103 119 141 178 244 287
#     4  10  16  26  43  69  96 126 148 192 234 277
#     4   9  16  25  41  65  93 121 146 186 231 275
#     4   9  17  30  45  66  94 123 154 191 231 276
#     4   9  18  29  46  67  95 121 157 190 232 275
#     4   9  16  29  44  64  91 121 151 188 226 274
#
# _framework density 16.619655000000002
#
# number of rings (size 3 to 8) (size 9 to 14) (size 15 to 20)
#    0.000    2.714    2.857    0.857    4.000    0.000 
#    0.000    1.429    0.000    0.857    0.000    6.000 
#    0.000    0.000    0.000    0.000    0.000    0.000 
#
# Total GULP energy -693752.615840 kJ/mol
# GULP energy per Si atom -12388.439569 kJ/mol
# Density = 1.658183 g / cm^3
# Si number density = 16.619655 Si / 1000 Ang^3
#
#
#
# Elastic Constant Matrix: (Units=GPa)
#
#
# Indices 1 2 3 4 5 6 
#
# 1 96.3066 42.6806 19.1109 0.0000 0.0000 0.0000
# 2 42.6806 96.3066 19.1109 0.0000 0.0000 0.0000
# 3 19.1109 19.1109 20.7077 0.0000 0.0000 0.0000
# 4 0.0000 0.0000 0.0000 18.4799 0.0000 0.0000
# 5 0.0000 0.0000 0.0000 0.0000 18.4799 0.0000
# 6 0.0000 0.0000 0.0000 0.0000 0.0000 23.5120
#
#
#
# Elastic Compliance Matrix: (Units=1/GPa)
#
#
# Indices 1 2 3 4 5 6 
#
# 1 0.014145 -0.004503 -0.008898 0.000000 0.000000 0.000000
# 2 -0.004503 0.014145 -0.008898 0.000000 0.000000 0.000000
# 3 -0.008898 -0.008898 0.064716 0.000000 0.000000 0.000000
# 4 0.000000 0.000000 0.000000 0.054113 0.000000 0.000000
# 5 0.000000 0.000000 0.000000 0.000000 0.054113 0.000000
# 6 0.000000 0.000000 0.000000 0.000000 0.000000 0.042532
#
#
# Mechanical properties :
#
#
# Convention : Reuss Voigt Hill
#
# Bulk Modulus (GPa) = 20.65867 41.68063 31.16965
# Shear Modulus (GPa) = 16.42051 20.92227 18.67139
#
# Velocity S-wave (km/s) = 3.14668 3.55193 3.35543
# Velocity P-wave (km/s) = 5.06551 6.47728 5.81440
#
# Compressibility (1/GPa) = 0.04840583
#
# Stress axis : x y z
#
# Youngs Moduli (GPa) = 70.69723 70.69723 15.45221
#
# Poissons Ratio (x) = 0.31834 0.13750
# Poissons Ratio (y) = 0.31834 0.13750
# Poissons Ratio (z) = 0.62910 0.62910
#
# Static dielectric constant tensor:
#      x y z
#    x 3.332200 0.000000 0.000000 
#    y 0.000000 3.332200 0.000000 
#    z 0.000000 0.000000 2.731370 
# 
# 
# High freq. dielectric constant tensor:
#      x y z
#    x 1.638640 0.000000 0.000000 
#    y 0.000000 1.638640 0.000000 
#    z 0.000000 0.000000 1.586040 
# 
# From -- ./inp_files/2724.got.cif
#   From: 2010.03.12/outbox.cif.g09.slc.cpg/sg112_2_cif.got.tgz:2724.got - 2010.04.14 02:02:48.
