data_PCOD8308381
_publ_section_title
;
Structure prediction by ZEFSAII (Michael W. Deem and Ramdas Pophale) SiO2 
 PCOD8308381
Probable space group: P -4 2 C
;
_chemical_formula_sum "Si O2"
_cell_formula_units_Z 48
_cell_length_a 8.867202
_cell_length_b 8.867202
_cell_length_c 30.330729
_cell_angle_alpha 90.000000
_cell_angle_beta 90.000000
_cell_angle_gamma 90.000000
_cell_volume 2384.822458
_symmetry_space_group_name_H-M "P -4 2 C"
_symmetry_group_IT_number 112
_symmetry_cell_setting 'tetragonal'
loop_
_space_group_symop_operation_xyz
x,y,z
y,-x,-z
-x,-y,z
-y,x,-z
x,-y,1/2-z
-x,y,1/2-z
-y,-x,1/2+z
y,x,1/2+z
loop_
_atom_site_type_symbol
_atom_site_label
_atom_site_fract_x
_atom_site_fract_y
_atom_site_fract_z
Si Si1 0.172037 0.680938 0.662968
Si Si2 0.667813 0.180632 0.906674
Si Si3 0.675974 0.825509 0.756256
Si Si4 0.657849 0.311890 0.494939
Si Si5 0.823488 0.669868 0.675191
Si Si6 0.315930 0.835211 0.583494
O O1 0.276569 0.780875 0.694588
O O2 0.207819 0.506479 0.670322
O O3 0.210633 0.729271 0.613242
O O4 0.997529 0.713966 0.671421
O O5 0.729130 0.246031 0.861669
O O6 0.488892 0.200988 0.905585
O O7 0.721388 0.008910 0.908695
O O8 0.735747 0.268882 0.948583
O O9 0.500000 0.794646 0.750000
O O10 0.769349 0.722072 0.722963
O O11 0.716295 0.000000 0.750000
O O12 0.478916 0.295481 0.490087
O O13 0.718953 0.199764 0.532443
#
# Coordination Sequence:
#
# PCOD8308381 Si02
#       6
#     8   8   8   8   8   8
#     4  11  24  40  59  85 116 150 190 234 280 333
#     4  10  21  37  58  85 116 150 190 235 283 337
#     4  11  24  41  62  88 116 147 186 231 280 336
#     4   9  18  34  56  81 112 152 194 235 280 331
#     4  11  24  40  59  85 116 150 190 234 280 333
#     4  10  21  37  58  85 116 150 190 235 283 337
#
# _framework density 20.127286000000002
#
# number of rings (size 3 to 8) (size 9 to 14) (size 15 to 20)
#    0.000    1.667    0.000    4.000    0.000   13.333 
#    0.000    3.333    0.000    0.000    0.000    0.000 
#    0.000    0.000    0.000    0.000    0.000    0.000 
#
# Total GULP energy -595518.195746 kJ/mol
# GULP energy per Si atom -12406.629078 kJ/mol
# Density = 2.008148 g / cm^3
# Si number density = 20.127286 Si / 1000 Ang^3
#
#
#
# Elastic Constant Matrix: (Units=GPa)
#
#
# Indices 1 2 3 4 5 6 
#
# 1 51.3614 23.7315 4.0039 0.0000 0.0000 0.0000
# 2 23.7315 51.3614 4.0039 0.0000 0.0000 0.0000
# 3 4.0039 4.0039 70.2472 0.0000 0.0000 0.0000
# 4 0.0000 0.0000 0.0000 35.1085 0.0000 0.0000
# 5 0.0000 0.0000 0.0000 0.0000 35.1085 0.0000
# 6 0.0000 0.0000 0.0000 0.0000 0.0000 23.2146
#
#
#
# Elastic Compliance Matrix: (Units=1/GPa)
#
#
# Indices 1 2 3 4 5 6 
#
# 1 0.024795 -0.011397 -0.000764 0.000000 0.000000 0.000000
# 2 -0.011397 0.024795 -0.000764 0.000000 0.000000 0.000000
# 3 -0.000764 -0.000764 0.014322 0.000000 0.000000 0.000000
# 4 0.000000 0.000000 0.000000 0.028483 0.000000 0.000000
# 5 0.000000 0.000000 0.000000 0.000000 0.028483 0.000000
# 6 0.000000 0.000000 0.000000 0.000000 0.000000 0.043076
#
#
# Mechanical properties :
#
#
# Convention : Reuss Voigt Hill
#
# Bulk Modulus (GPa) = 26.27127 26.27206 26.27167
# Shear Modulus (GPa) = 24.69218 28.10169 26.39694
#
# Velocity S-wave (km/s) = 3.50637 3.74063 3.62539
# Velocity P-wave (km/s) = 5.42897 5.63362 5.53224
#
# Compressibility (1/GPa) = 0.03806439
#
# Stress axis : x y z
#
# Youngs Moduli (GPa) = 40.32994 40.32994 69.82023
#
# Poissons Ratio (x) = 0.45965 0.05332
# Poissons Ratio (y) = 0.45965 0.05332
# Poissons Ratio (z) = 0.03080 0.03080
#
# Static dielectric constant tensor:
#      x y z
#    x 3.682370 0.000000 0.000000 
#    y 0.000000 3.682370 0.000000 
#    z 0.000000 0.000000 3.718260 
# 
# 
# High freq. dielectric constant tensor:
#      x y z
#    x 1.787840 0.000000 0.000000 
#    y 0.000000 1.787840 0.000000 
#    z 0.000000 0.000000 1.801040 
# 
# From -- ./inp_files/6267.got.cif
#   From: 2010.03.12/outbox.cif.g09.slc.cpg/sg112_4_cif.got.tgz:6267.got - 2010.04.14 02:02:48.
