data_PCOD8308394
_publ_section_title
;
Structure prediction by ZEFSAII (Michael W. Deem and Ramdas Pophale) SiO2 
 PCOD8308394
Probable space group: P -4 2 C
;
_chemical_formula_sum "Si O2"
_cell_formula_units_Z 38
_cell_length_a 14.547364
_cell_length_b 14.547364
_cell_length_c 8.824973
_cell_angle_alpha 90.000000
_cell_angle_beta 90.000000
_cell_angle_gamma 90.000000
_cell_volume 1867.591965
_symmetry_space_group_name_H-M "P -4 2 C"
_symmetry_group_IT_number 112
_symmetry_cell_setting 'tetragonal'
loop_
_space_group_symop_operation_xyz
x,y,z
y,-x,-z
-x,-y,z
-y,x,-z
x,-y,1/2-z
-x,y,1/2-z
-y,-x,1/2+z
y,x,1/2+z
loop_
_atom_site_type_symbol
_atom_site_label
_atom_site_fract_x
_atom_site_fract_y
_atom_site_fract_z
Si Si1 0.595013 0.737255 0.826897
Si Si2 0.290106 0.110257 0.227610
Si Si3 0.719746 0.591698 0.665346
Si Si4 0.770583 0.840040 0.907505
Si Si5 0.000000 0.000000 0.500000
Si Si6 0.857276 0.000000 0.750000
O O1 0.500000 0.771875 0.750000
O O2 0.647009 0.667665 0.716733
O O3 0.666174 0.818538 0.861207
O O4 0.572039 0.695707 0.990782
O O5 0.380722 0.173073 0.198896
O O6 0.240811 0.153624 0.377250
O O7 0.310493 0.000000 0.250000
O O8 0.224151 0.126696 0.081847
O O9 0.695690 0.500000 0.750000
O O10 0.791692 0.918489 0.790486
O O11 0.083014 0.031858 0.605897
#
# Coordination Sequence:
#
# PCOD8308394 Si02
#       6
#     8   8   8   8   2   4
#     4  10  21  41  64  91 123 157 199 247 308 367
#     4  10  23  40  59  86 123 165 207 251 305 361
#     4  10  21  40  65  93 121 160 198 253 304 367
#     4  10  23  38  59  85 119 161 203 250 305 354
#     4  10  24  34  56  82 116 158 204 274 296 362
#     4  11  22  38  53  84 116 154 209 252 309 344
#
# _framework density 20.347057
#
# number of rings (size 3 to 8) (size 9 to 14) (size 15 to 20)
#    0.000    1.895    0.000    2.526    8.842    2.526 
#    0.000    2.632    0.000    0.000    0.000    0.000 
#    0.000    0.000    0.000    0.000    0.000    0.000 
#
# Total GULP energy -470779.448867 kJ/mol
# GULP energy per Si atom -12388.932865 kJ/mol
# Density = 2.030075 g / cm^3
# Si number density = 20.347057 Si / 1000 Ang^3
#
#
#
# Elastic Constant Matrix: (Units=GPa)
#
#
# Indices 1 2 3 4 5 6 
#
# 1 88.0614 2.5464 19.1595 0.0000 0.0000 0.0000
# 2 2.5464 88.0614 19.1595 0.0000 0.0000 0.0000
# 3 19.1595 19.1595 127.1099 0.0000 0.0000 0.0000
# 4 0.0000 0.0000 0.0000 23.0586 0.0000 0.0000
# 5 0.0000 0.0000 0.0000 0.0000 23.0586 0.0000
# 6 0.0000 0.0000 0.0000 0.0000 0.0000 14.3945
#
#
#
# Elastic Compliance Matrix: (Units=1/GPa)
#
#
# Indices 1 2 3 4 5 6 
#
# 1 0.011741 0.000047 -0.001777 0.000000 0.000000 0.000000
# 2 0.000047 0.011741 -0.001777 0.000000 0.000000 0.000000
# 3 -0.001777 -0.001777 0.008403 0.000000 0.000000 0.000000
# 4 0.000000 0.000000 0.000000 0.043368 0.000000 0.000000
# 5 0.000000 0.000000 0.000000 0.000000 0.043368 0.000000
# 6 0.000000 0.000000 0.000000 0.000000 0.000000 0.069471
#
#
# Mechanical properties :
#
#
# Convention : Reuss Voigt Hill
#
# Bulk Modulus (GPa) = 40.20655 42.77373 41.49014
# Shear Modulus (GPa) = 24.58273 29.59349 27.08811
#
# Velocity S-wave (km/s) = 3.47965 3.81784 3.65266
# Velocity P-wave (km/s) = 5.99560 6.36414 6.18262
#
# Compressibility (1/GPa) = 0.02487157
#
# Stress axis : x y z
#
# Youngs Moduli (GPa) = 85.17209 85.17209 119.00712
#
# Poissons Ratio (x) = -0.00401 0.21146
# Poissons Ratio (y) = -0.00401 0.21146
# Poissons Ratio (z) = 0.15134 0.15134
#
# Static dielectric constant tensor:
#      x y z
#    x 3.943900 0.000000 0.000000 
#    y 0.000000 3.943900 0.000000 
#    z 0.000000 0.000000 4.231330 
# 
# 
# High freq. dielectric constant tensor:
#      x y z
#    x 1.782980 0.000000 0.000000 
#    y 0.000000 1.782980 0.000000 
#    z 0.000000 0.000000 1.817360 
# 
# From -- ./inp_files/1178.got.cif
#   From: 2010.03.12/outbox.cif.g09.slc.cpg/sg112_1_cif.got.tgz:1178.got - 2010.04.14 02:02:48.
