data_PCOD8308544
_publ_section_title
;
Structure prediction by ZEFSAII (Michael W. Deem and Ramdas Pophale) SiO2 
 PCOD8308544
Probable space group: P -4 21 M 
;
_chemical_formula_sum "Si O2"
_cell_formula_units_Z 24
_cell_length_a 11.926643
_cell_length_b 11.926643
_cell_length_c 9.324584
_cell_angle_alpha 90.000000
_cell_angle_beta 90.000000
_cell_angle_gamma 90.000000
_cell_volume 1326.373710
_symmetry_space_group_name_H-M "P -4 21 M "
_symmetry_group_IT_number 113
_symmetry_cell_setting 'tetragonal'
loop_
_space_group_symop_operation_xyz
x,y,z
y,-x,-z
-x,-y,z
-y,x,-z
1/2+x,1/2-y,-z
1/2-x,1/2+y,-z
1/2-y,1/2-x,z
1/2+y,1/2+x,z
loop_
_atom_site_type_symbol
_atom_site_label
_atom_site_fract_x
_atom_site_fract_y
_atom_site_fract_z
Si Si1 0.263746 0.589116 0.153609
Si Si2 0.905695 0.405695 0.709518
Si Si3 0.405697 0.094304 0.615595
Si Si4 0.758679 0.555536 0.889631
O O1 0.177398 0.677398 0.078762
O O2 0.208206 0.550309 0.305001
O O3 0.381238 0.653005 0.182311
O O4 0.280249 0.485705 0.046553
O O5 0.874444 0.374444 0.546647
O O6 0.794150 0.452138 0.787677
O O7 0.000000 0.500000 0.708091
O O8 0.500000 0.000000 0.627568
O O9 0.864570 0.635431 0.911992
#
# Coordination Sequence:
#
# PCOD8308544 Si02
#       4
#     8   4   4   8
#     4   9  19  31  53  81 106 138 178 226 255 319
#     4   9  17  31  57  75 105 150 173 218 266 319
#     4   9  17  33  53  80 109 138 185 217 268 319
#     4  10  18  33  54  80 107 138 183 217 271 310
#
# _framework density 18.094448
#
# number of rings (size 3 to 8) (size 9 to 14) (size 15 to 20)
#    1.000    1.667    1.667    1.000    0.000    0.667 
#    0.000    3.333    0.000    0.000    0.000    0.000 
#    0.000    0.000    0.000    0.000    0.000    0.000 
#
# Total GULP energy -297382.370478 kJ/mol
# GULP energy per Si atom -12390.932103 kJ/mol
# Density = 1.805326 g / cm^3
# Si number density = 18.094448 Si / 1000 Ang^3
#
#
#
# Elastic Constant Matrix: (Units=GPa)
#
#
# Indices 1 2 3 4 5 6 
#
# 1 64.5880 36.7481 41.2344 0.0000 0.0000 0.0000
# 2 36.7481 64.5887 41.2347 0.0000 0.0000 0.0000
# 3 41.2344 41.2347 127.8133 0.0000 0.0000 0.0000
# 4 0.0000 0.0000 0.0000 11.6021 0.0000 0.0000
# 5 0.0000 0.0000 0.0000 0.0000 11.6019 0.0000
# 6 0.0000 0.0000 0.0000 0.0000 0.0000 30.0095
#
#
#
# Elastic Compliance Matrix: (Units=1/GPa)
#
#
# Indices 1 2 3 4 5 6 
#
# 1 0.024650 -0.011269 -0.004317 0.000000 0.000000 0.000000
# 2 -0.011269 0.024650 -0.004317 0.000000 0.000000 0.000000
# 3 -0.004317 -0.004317 0.010609 0.000000 0.000000 0.000000
# 4 0.000000 0.000000 0.000000 0.086191 0.000000 0.000000
# 5 0.000000 0.000000 0.000000 0.000000 0.086193 0.000000
# 6 0.000000 0.000000 0.000000 0.000000 0.000000 0.033323
#
#
# Mechanical properties :
#
#
# Convention : Reuss Voigt Hill
#
# Bulk Modulus (GPa) = 49.74130 55.04714 52.39422
# Shear Modulus (GPa) = 16.01926 19.82756 17.92341
#
# Velocity S-wave (km/s) = 2.97865 3.31385 3.15071
# Velocity P-wave (km/s) = 6.27529 6.71791 6.50037
#
# Compressibility (1/GPa) = 0.02010402
#
# Stress axis : x y z
#
# Youngs Moduli (GPa) = 40.56726 40.56773 94.25604
#
# Poissons Ratio (x) = 0.45715 0.40691
# Poissons Ratio (y) = 0.45715 0.40691
# Poissons Ratio (z) = 0.17513 0.17513
#
# Static dielectric constant tensor:
#      x y z
#    x 3.164990 0.000000 0.000000 
#    y 0.000000 3.164980 0.000000 
#    z 0.000000 0.000000 3.211450 
# 
# 
# High freq. dielectric constant tensor:
#      x y z
#    x 1.682660 0.000000 0.000000 
#    y 0.000000 1.682660 0.000000 
#    z 0.000000 0.000000 1.684690 
# 
# From -- ./inp_files/731.got.cif
#   From: 2010.03.12/outbox.cif.g09.slc.cpg/sg113_cif.got.tgz:731.got - 2010.04.14 02:06:34.
