data_PCOD8308197
_publ_section_title
;
Structure prediction by ZEFSAII (Michael W. Deem and Ramdas Pophale) SiO2 
 PCOD8308197
Probable space group: P -4 2 M 
;
_chemical_formula_sum "Si O2"
_cell_formula_units_Z 56
_cell_length_a 12.016730
_cell_length_b 12.016730
_cell_length_c 21.072917
_cell_angle_alpha 90.000000
_cell_angle_beta 90.000000
_cell_angle_gamma 90.000000
_cell_volume 3042.967144
_symmetry_space_group_name_H-M "P -4 2 M "
_symmetry_group_IT_number 111
_symmetry_cell_setting 'tetragonal'
loop_
_space_group_symop_operation_xyz
x,y,z
y,-x,-z
-x,-y,z
-y,x,-z
x,-y,-z
-x,y,-z
-y,-x,z
y,x,z
loop_
_atom_site_type_symbol
_atom_site_label
_atom_site_fract_x
_atom_site_fract_y
_atom_site_fract_z
Si Si1 0.756744 0.942041 0.931981
Si Si2 0.132609 0.684705 0.845124
Si Si3 0.520240 0.870576 0.931603
Si Si4 0.631984 0.809367 0.645837
Si Si5 0.205950 0.614388 0.621440
Si Si6 0.307215 0.872568 0.493919
Si Si7 0.977889 0.370608 0.712783
O O1 0.870094 0.870094 0.927710
O O2 0.651915 0.859913 0.914718
O O3 0.760160 0.047081 0.884994
O O4 0.741874 0.000000 0.000000
O O5 0.242884 0.757117 0.830826
O O6 0.173151 0.569180 0.879439
O O7 0.064060 0.654431 0.782717
O O8 0.500000 0.000000 0.938532
O O9 0.500000 0.811197 0.000000
O O10 0.698349 0.698349 0.659471
O O11 0.503895 0.776554 0.655252
O O12 0.640421 0.850710 0.574009
O O13 0.680997 0.901662 0.694955
O O14 0.321853 0.678148 0.626814
O O15 0.165853 0.605699 0.548359
O O16 0.111122 0.677141 0.662432
O O17 0.192781 0.807220 0.504197
O O18 0.276470 0.000000 0.500000
O O19 0.000000 0.500000 0.701543
#
# Coordination Sequence:
#
# PCOD8308197 Si02
#       7
#     8   8   8   8   8   8   8
#     4  11  21  34  54  82 112 142 177 217 266 324
#     4  11  22  36  57  84 114 145 181 228 279 331
#     4   9  16  33  55  77 105 138 179 213 255 318
#     4  10  21  35  54  81 112 148 189 234 285 340
#     4  10  20  34  56  82 109 144 188 239 289 335
#     4  10  19  33  54  81 112 146 190 237 287 342
#     4  10  20  36  57  78 107 146 192 234 270 327
#
# _framework density 18.403089999999999
#
# number of rings (size 3 to 8) (size 9 to 14) (size 15 to 20)
#    0.000    1.857    4.286    2.571    0.000    2.571 
#    0.000    0.000    0.000    4.286    0.000    1.000 
#    0.000    0.000    0.000    0.000    0.000    0.000 
#
# Total GULP energy -693899.492844 kJ/mol
# GULP energy per Si atom -12391.062372 kJ/mol
# Density = 1.836120 g / cm^3
# Si number density = 18.403090 Si / 1000 Ang^3
#
#
#
# Elastic Constant Matrix: (Units=GPa)
#
#
# Indices 1 2 3 4 5 6 
#
# 1 79.0200 35.5504 20.8067 0.0000 0.0000 0.0000
# 2 35.5504 79.0232 20.8064 0.0000 0.0000 0.0000
# 3 20.8067 20.8064 100.5415 0.0000 0.0000 0.0000
# 4 0.0000 0.0000 0.0000 7.8135 0.0000 0.0000
# 5 0.0000 0.0000 0.0000 0.0000 7.8065 0.0000
# 6 0.0000 0.0000 0.0000 0.0000 0.0000 8.2078
#
#
#
# Elastic Compliance Matrix: (Units=1/GPa)
#
#
# Indices 1 2 3 4 5 6 
#
# 1 0.016221 -0.006783 -0.001953 0.000000 0.000000 0.000000
# 2 -0.006783 0.016220 -0.001953 0.000000 0.000000 0.000000
# 3 -0.001953 -0.001953 0.010754 0.000000 0.000000 0.000000
# 4 0.000000 0.000000 0.000000 0.127983 0.000000 0.000000
# 5 0.000000 0.000000 0.000000 0.000000 0.128098 0.000000
# 6 0.000000 0.000000 0.000000 0.000000 0.000000 0.121835
#
#
# Mechanical properties :
#
#
# Convention : Reuss Voigt Hill
#
# Bulk Modulus (GPa) = 45.83518 45.87908 45.85713
# Shear Modulus (GPa) = 11.11698 16.86031 13.98864
#
# Velocity S-wave (km/s) = 2.46047 3.03011 2.76003
# Velocity P-wave (km/s) = 5.74737 6.10134 5.92699
#
# Compressibility (1/GPa) = 0.02181730
#
# Stress axis : x y z
#
# Youngs Moduli (GPa) = 61.64854 61.65128 92.98440
#
# Poissons Ratio (x) = 0.41819 0.18161
# Poissons Ratio (y) = 0.41817 0.18159
# Poissons Ratio (z) = 0.12041 0.12040
#
# Static dielectric constant tensor:
#      x y z
#    x 3.428580 0.000000 0.000000 
#    y 0.000000 3.428580 0.000000 
#    z 0.000000 0.000000 3.661300 
# 
# 
# High freq. dielectric constant tensor:
#      x y z
#    x 1.698090 0.000000 0.000000 
#    y 0.000000 1.698090 0.000000 
#    z 0.000000 0.000000 1.718770 
# 
# From -- ./inp_files/3993.got.cif
#   From: 2010.03.12/outbox.cif.g09.slc.cpg/sg111_2_cif.got.tgz:3993.got - 2010.04.14 01:59:48.
