data_PCOD8308057
_publ_section_title
;
Structure prediction by ZEFSAII (Michael W. Deem and Ramdas Pophale) SiO2 
 PCOD8308057
Probable space group: I 41 C D
;
_chemical_formula_sum "Si O2"
_cell_formula_units_Z 32
_cell_length_a 8.901875
_cell_length_b 8.901875
_cell_length_c 14.506021
_cell_angle_alpha 90.000000
_cell_angle_beta 90.000000
_cell_angle_gamma 90.000000
_cell_volume 1149.506113
_symmetry_space_group_name_H-M "I 41 C D"
_symmetry_group_IT_number 110
_symmetry_cell_setting 'tetragonal'
loop_
_space_group_symop_operation_xyz
x,y,z
-y,1/2+x,1/4+z
-x,-y,z
y,1/2-x,1/4+z
-x,y,1/2+z
x,-y,1/2+z
1/2-y,-x,1/4+z
1/2+y,x,1/4+z
1/2+x,1/2+y,1/2+z
1/2-y,x,3/4+z
1/2-x,1/2-y,1/2+z
1/2+y,-x,3/4+z
1/2-x,1/2+y,z
1/2+x,1/2-y,z
-y,1/2-x,3/4+z
y,1/2+x,3/4+z
loop_
_atom_site_type_symbol
_atom_site_label
_atom_site_fract_x
_atom_site_fract_y
_atom_site_fract_z
Si Si1 0.252305 0.388627 0.634230
Si Si2 0.642614 0.864063 0.509276
O O1 0.143313 0.298583 0.702655
O O2 0.363955 0.275041 0.581010
O O3 0.357666 0.503274 0.689601
O O4 0.143818 0.476251 0.562593
#
# Coordination Sequence:
#
# PCOD8308057 Si02
#       2
#    16  16
#     4  10  24  42  64  92 124 162 204 252 304 362
#     4  10  24  42  64  90 124 162 204 250 304 362
#
# _framework density 27.838039999999999
#
# number of rings (size 3 to 8) (size 9 to 14) (size 15 to 20)
#    0.000    2.000    0.000    0.000    0.000   28.000 
#    0.000    0.000    0.000    0.000    0.000    0.000 
#    0.000    0.000    0.000    0.000    0.000    0.000 
#
# Total GULP energy -198544.902572 kJ/mol
# GULP energy per Si atom -12409.056411 kJ/mol
# Density = 2.777468 g / cm^3
# Si number density = 27.838040 Si / 1000 Ang^3
#
#
#
# Elastic Constant Matrix: (Units=GPa)
#
#
# Indices 1 2 3 4 5 6 
#
# 1 125.6064 -2.8135 17.7344 0.0000 0.0000 0.0000
# 2 -2.8135 125.6064 17.7344 0.0000 0.0000 0.0000
# 3 17.7344 17.7344 91.0081 0.0000 0.0000 0.0000
# 4 0.0000 0.0000 0.0000 39.8814 0.0000 0.0000
# 5 0.0000 0.0000 0.0000 0.0000 39.8814 0.0000
# 6 0.0000 0.0000 0.0000 0.0000 0.0000 18.4584
#
#
#
# Elastic Compliance Matrix: (Units=1/GPa)
#
#
# Indices 1 2 3 4 5 6 
#
# 1 0.008208 0.000421 -0.001682 0.000000 0.000000 0.000000
# 2 0.000421 0.008208 -0.001682 0.000000 0.000000 0.000000
# 3 -0.001682 -0.001682 0.011643 0.000000 0.000000 0.000000
# 4 0.000000 0.000000 0.000000 0.025074 0.000000 0.000000
# 5 0.000000 0.000000 0.000000 0.000000 0.025074 0.000000
# 6 0.000000 0.000000 0.000000 0.000000 0.000000 0.054176
#
#
# Mechanical properties :
#
#
# Convention : Reuss Voigt Hill
#
# Bulk Modulus (GPa) = 45.09368 45.28127 45.18747
# Shear Modulus (GPa) = 34.32642 40.28193 37.30417
#
# Velocity S-wave (km/s) = 3.51533 3.80809 3.66463
# Velocity P-wave (km/s) = 5.71931 5.96964 5.84581
#
# Compressibility (1/GPa) = 0.02217605
#
# Stress axis : x y z
#
# Youngs Moduli (GPa) = 121.82879 121.82880 85.88553
#
# Poissons Ratio (x) = -0.05132 0.14442
# Poissons Ratio (y) = -0.05132 0.14442
# Poissons Ratio (z) = 0.20487 0.20487
#
# Static dielectric constant tensor:
#      x y z
#    x 5.003560 0.000000 0.000000 
#    y 0.000000 5.003560 0.000000 
#    z 0.000000 0.000000 5.845640 
# 
# 
# High freq. dielectric constant tensor:
#      x y z
#    x 2.129350 0.000000 0.000000 
#    y 0.000000 2.129350 0.000000 
#    z 0.000000 0.000000 2.152100 
# 
# From -- ./inp_files/592.got.cif
#   From: 2010.03.12/outbox.cif.g09.slc.cpg/sg110_1_cif.got.tgz:592.got - 2010.04.14 01:58:01.
