data_PCOD8308170
_publ_section_title
;
Structure prediction by ZEFSAII (Michael W. Deem and Ramdas Pophale) SiO2 
 PCOD8308170
Probable space group: P -4 2 M 
;
_chemical_formula_sum "Si O2"
_cell_formula_units_Z 64
_cell_length_a 12.667723
_cell_length_b 12.667723
_cell_length_c 22.255396
_cell_angle_alpha 90.000000
_cell_angle_beta 90.000000
_cell_angle_gamma 90.000000
_cell_volume 3571.350236
_symmetry_space_group_name_H-M "P -4 2 M "
_symmetry_group_IT_number 111
_symmetry_cell_setting 'tetragonal'
loop_
_space_group_symop_operation_xyz
x,y,z
y,-x,-z
-x,-y,z
-y,x,-z
x,-y,-z
-x,y,-z
-y,-x,z
y,x,z
loop_
_atom_site_type_symbol
_atom_site_label
_atom_site_fract_x
_atom_site_fract_y
_atom_site_fract_z
Si Si1 0.561039 0.732049 0.189598
Si Si2 0.615634 0.985342 0.645069
Si Si3 0.170474 0.000442 0.429144
Si Si4 0.828211 0.005633 0.935572
Si Si5 0.327914 0.505415 0.065017
Si Si6 0.799462 0.629877 0.736524
Si Si7 0.872931 0.292406 0.741393
Si Si8 0.938170 0.232883 0.186268
O O1 0.618731 0.618731 0.195567
O O2 0.517745 0.748263 0.121674
O O3 0.471428 0.734846 0.240835
O O4 0.640349 0.827768 0.202910
O O5 0.610235 0.874222 0.679643
O O6 0.500000 0.000000 0.613501
O O7 0.713425 0.990513 0.599308
O O8 0.629112 0.082717 0.691010
O O9 0.108247 0.108247 0.409905
O O10 0.186226 0.000000 0.500000
O O11 0.099852 0.900149 0.409021
O O12 0.921558 0.921558 0.939580
O O13 0.747673 0.977565 0.881910
O O14 0.878737 0.121264 0.923259
O O15 0.767615 0.000000 0.000000
O O16 0.379310 0.620691 0.075933
O O17 0.419406 0.419406 0.061027
O O18 0.267452 0.500000 0.000000
O O19 0.717910 0.717910 0.714697
O O20 0.866970 0.668294 0.794199
O O21 0.782573 0.217428 0.713201
O O22 0.965366 0.219467 0.767661
O O23 0.877018 0.122982 0.191122
#
# Coordination Sequence:
#
# PCOD8308170 Si02
#       8
#     8   8   8   8   8   8   8   8
#     4  10  19  32  48  67  93 128 167 211 264 318
#     4  11  20  34  53  79 113 149 172 212 261 304
#     4   9  19  37  61  88 117 149 186 226 262 300
#     4   8  13  23  40  60  83 114 152 194 242 301
#     4   8  14  26  45  66  86 113 157 215 272 320
#     4  10  20  33  49  72  97 130 172 210 253 309
#     4  10  20  32  48  71  98 132 172 208 250 307
#     4   9  18  30  45  65  91 121 157 205 257 310
#
# _framework density 17.920393000000001
#
# number of rings (size 3 to 8) (size 9 to 14) (size 15 to 20)
#    0.000    2.625    1.250    2.625    0.000    2.250 
#    0.000    1.250    0.000    6.000    0.000    2.625 
#    0.000    0.000    0.000    5.750    0.000    0.000 
#
# Total GULP energy -793052.436840 kJ/mol
# GULP energy per Si atom -12391.444326 kJ/mol
# Density = 1.787961 g / cm^3
# Si number density = 17.920393 Si / 1000 Ang^3
#
#
#
# Elastic Constant Matrix: (Units=GPa)
#
#
# Indices 1 2 3 4 5 6 
#
# 1 86.3278 37.9062 36.8180 0.0000 0.0000 0.0000
# 2 37.9062 86.3271 36.8183 0.0000 0.0000 0.0000
# 3 36.8180 36.8183 71.3873 0.0000 0.0000 0.0000
# 4 0.0000 0.0000 0.0000 25.2648 0.0000 0.0000
# 5 0.0000 0.0000 0.0000 0.0000 25.2650 0.0000
# 6 0.0000 0.0000 0.0000 0.0000 0.0000 16.1874
#
#
#
# Elastic Compliance Matrix: (Units=1/GPa)
#
#
# Indices 1 2 3 4 5 6 
#
# 1 0.016123 -0.004529 -0.005979 0.000000 0.000000 0.000000
# 2 -0.004529 0.016123 -0.005979 0.000000 0.000000 0.000000
# 3 -0.005979 -0.005979 0.020176 0.000000 0.000000 0.000000
# 4 0.000000 0.000000 0.000000 0.039581 0.000000 0.000000
# 5 0.000000 0.000000 0.000000 0.000000 0.039581 0.000000
# 6 0.000000 0.000000 0.000000 0.000000 0.000000 0.061776
#
#
# Mechanical properties :
#
#
# Convention : Reuss Voigt Hill
#
# Bulk Modulus (GPa) = 51.42621 51.90300 51.66461
# Shear Modulus (GPa) = 21.47612 22.17676 21.82644
#
# Velocity S-wave (km/s) = 3.46557 3.52165 3.49372
# Velocity P-wave (km/s) = 6.69126 6.74996 6.72067
#
# Compressibility (1/GPa) = 0.01944534
#
# Stress axis : x y z
#
# Youngs Moduli (GPa) = 62.02459 62.02359 49.56432
#
# Poissons Ratio (x) = 0.28092 0.29636
# Poissons Ratio (y) = 0.28093 0.29637
# Poissons Ratio (z) = 0.37086 0.37087
#
# Static dielectric constant tensor:
#      x y z
#    x 3.237790 0.000000 0.000000 
#    y 0.000000 3.237790 0.000000 
#    z 0.000000 0.000000 3.288320 
# 
# 
# High freq. dielectric constant tensor:
#      x y z
#    x 1.679890 0.000000 0.000000 
#    y 0.000000 1.679890 0.000000 
#    z 0.000000 0.000000 1.676660 
# 
# From -- ./inp_files/4257.got.cif
#   From: 2010.03.12/outbox.cif.g09.slc.cpg/sg111_3_cif.got.tgz:4257.got - 2010.04.14 01:59:48.
