data_PCOD8308164
_publ_section_title
;
Structure prediction by ZEFSAII (Michael W. Deem and Ramdas Pophale) SiO2 
 PCOD8308164
Probable space group: P -4 2 M 
;
_chemical_formula_sum "Si O2"
_cell_formula_units_Z 64
_cell_length_a 12.450074
_cell_length_b 12.450074
_cell_length_c 24.041788
_cell_angle_alpha 90.000000
_cell_angle_beta 90.000000
_cell_angle_gamma 90.000000
_cell_volume 3726.581544
_symmetry_space_group_name_H-M "P -4 2 M "
_symmetry_group_IT_number 111
_symmetry_cell_setting 'tetragonal'
loop_
_space_group_symop_operation_xyz
x,y,z
y,-x,-z
-x,-y,z
-y,x,-z
x,-y,-z
-x,y,-z
-y,-x,z
y,x,z
loop_
_atom_site_type_symbol
_atom_site_label
_atom_site_fract_x
_atom_site_fract_y
_atom_site_fract_z
Si Si1 0.381797 0.873792 0.000000
Si Si2 0.127328 0.500000 0.187818
Si Si3 0.876479 0.299270 0.616096
Si Si4 0.500000 0.127733 0.687146
Si Si5 0.625790 0.799140 0.500000
Si Si6 0.873720 0.295178 0.118349
Si Si7 0.704822 0.873720 0.118349
Si Si8 0.123521 0.700732 0.383903
O O1 0.317417 0.840037 0.945209
O O2 0.500000 0.819434 0.000000
O O3 0.317418 0.840037 0.054791
O O4 0.398782 0.000000 0.000000
O O5 0.174024 0.500000 0.250266
O O6 0.166906 0.605663 0.155672
O O7 0.166906 0.394337 0.155672
O O8 0.000000 0.500000 0.188706
O O9 0.807276 0.192725 0.626930
O O10 0.831157 0.393278 0.655970
O O11 0.868466 0.339523 0.552996
O O12 1.000000 0.271130 0.629490
O O13 0.393276 0.168843 0.655971
O O14 0.500000 0.000000 0.686291
O O15 0.500000 0.776783 0.500000
O O16 0.683606 0.683606 0.500000
O O17 0.660478 0.868465 0.552996
O O18 0.811346 0.188655 0.138257
O O19 0.000000 0.273872 0.125398
O O20 0.811346 0.811346 0.138257
O O21 0.192723 0.807278 0.373069
#
# Coordination Sequence:
#
# PCOD8308164 Si02
#       8
#     8   8   8   8   8   8   8   8
#     4   9  15  28  49  72  98 128 167 207 242 288
#     4   9  18  33  51  72  95 129 176 215 244 283
#     4  10  20  33  52  78 106 136 168 205 251 302
#     4   9  18  33  53  72  95 129 174 219 248 283
#     4  10  19  32  52  78 106 137 172 211 256 302
#     4  10  19  31  50  76 104 133 165 203 249 300
#     4  10  19  31  50  76 104 133 165 203 249 300
#     4  10  20  33  52  78 106 136 168 205 251 302
#
# _framework density 17.173916999999999
#
# number of rings (size 3 to 8) (size 9 to 14) (size 15 to 20)
#    0.000    2.375    2.500    0.750    0.000    2.125 
#    0.000    0.000    0.000    5.250    0.000    9.625 
#    0.000    0.000    0.000    0.000    0.000    0.000 
#
# Total GULP energy -793520.551900 kJ/mol
# GULP energy per Si atom -12398.758623 kJ/mol
# Density = 1.713483 g / cm^3
# Si number density = 17.173917 Si / 1000 Ang^3
#
#
#
# Elastic Constant Matrix: (Units=GPa)
#
#
# Indices 1 2 3 4 5 6 
#
# 1 97.2319 59.4897 37.9354 0.0000 0.0000 0.0000
# 2 59.4897 97.2330 37.9355 0.0000 0.0000 0.0000
# 3 37.9354 37.9355 128.1043 0.0000 0.0000 0.0000
# 4 0.0000 0.0000 0.0000 9.2307 0.0000 0.0000
# 5 0.0000 0.0000 0.0000 0.0000 9.2308 0.0000
# 6 0.0000 0.0000 0.0000 0.0000 0.0000 11.6127
#
#
#
# Elastic Compliance Matrix: (Units=1/GPa)
#
#
# Indices 1 2 3 4 5 6 
#
# 1 0.016972 -0.009523 -0.002206 0.000000 0.000000 0.000000
# 2 -0.009523 0.016972 -0.002206 0.000000 0.000000 0.000000
# 3 -0.002206 -0.002206 0.009112 0.000000 0.000000 0.000000
# 4 0.000000 0.000000 0.000000 0.108334 0.000000 0.000000
# 5 0.000000 0.000000 0.000000 0.000000 0.108333 0.000000
# 6 0.000000 0.000000 0.000000 0.000000 0.000000 0.086113
#
#
# Mechanical properties :
#
#
# Convention : Reuss Voigt Hill
#
# Bulk Modulus (GPa) = 65.84730 65.92116 65.88423
# Shear Modulus (GPa) = 13.20072 18.49542 15.84807
#
# Velocity S-wave (km/s) = 2.77546 3.28525 3.04106
# Velocity P-wave (km/s) = 6.97822 7.27037 7.12579
#
# Compressibility (1/GPa) = 0.01518665
#
# Stress axis : x y z
#
# Youngs Moduli (GPa) = 58.92073 58.92141 109.73937
#
# Poissons Ratio (x) = 0.56113 0.24206
# Poissons Ratio (y) = 0.56112 0.24205
# Poissons Ratio (z) = 0.12996 0.12996
#
# Static dielectric constant tensor:
#      x y z
#    x 3.000960 0.000000 0.000000 
#    y 0.000000 3.000960 0.000000 
#    z 0.000000 0.000000 3.471740 
# 
# 
# High freq. dielectric constant tensor:
#      x y z
#    x 1.645370 0.000000 0.000000 
#    y 0.000000 1.645370 0.000000 
#    z 0.000000 0.000000 1.671140 
# 
# From -- ./inp_files/4367.got.cif
#   From: 2010.03.12/outbox.cif.g09.slc.cpg/sg111_3_cif.got.tgz:4367.got - 2010.04.14 01:59:48.
