data_PCOD8308876
_publ_section_title
;
Structure prediction by ZEFSAII (Michael W. Deem and Ramdas Pophale) SiO2 
 PCOD8308876
Probable space group: P -4 21 C
;
_chemical_formula_sum "Si O2"
_cell_formula_units_Z 60
_cell_length_a 17.978552
_cell_length_b 17.978552
_cell_length_c 9.391298
_cell_angle_alpha 90.000000
_cell_angle_beta 90.000000
_cell_angle_gamma 90.000000
_cell_volume 3035.533588
_symmetry_space_group_name_H-M "P -4 21 C"
_symmetry_group_IT_number 114
_symmetry_cell_setting 'tetragonal'
loop_
_space_group_symop_operation_xyz
x,y,z
y,-x,-z
-x,-y,z
-y,x,-z
1/2+x,1/2-y,1/2-z
1/2-x,1/2+y,1/2-z
1/2-y,1/2-x,1/2+z
1/2+y,1/2+x,1/2+z
loop_
_atom_site_type_symbol
_atom_site_label
_atom_site_fract_x
_atom_site_fract_y
_atom_site_fract_z
Si Si1 0.801647 0.825410 0.649865
Si Si2 0.445352 0.086263 0.162984
Si Si3 0.630212 0.256174 0.594747
Si Si4 0.746582 0.133532 0.592259
Si Si5 0.782553 0.471563 0.286717
Si Si6 0.209613 0.178751 0.158913
Si Si7 0.966863 0.262913 0.447390
Si Si8 0.000000 0.500000 0.088231
O O1 0.826594 0.818502 0.812523
O O2 0.863338 0.776365 0.568438
O O3 0.722240 0.785751 0.622988
O O4 0.804078 0.910663 0.592621
O O5 0.369381 0.038856 0.173457
O O6 0.426101 0.171765 0.142359
O O7 0.495932 0.071191 0.304492
O O8 0.495394 0.069120 0.021238
O O9 0.666489 0.173692 0.608753
O O10 0.544869 0.248124 0.637301
O O11 0.641559 0.291640 0.438974
O O12 0.806347 0.179942 0.682939
O O13 0.744400 0.046546 0.629279
O O14 0.730098 0.407764 0.353027
O O15 0.775485 0.473374 0.115900
#
# Coordination Sequence:
#
# PCOD8308876 Si02
#       8
#     8   8   8   8   8   8   8   4
#     4  10  20  41  62  89 126 166 211 259 315 380
#     4  11  24  38  60  89 131 175 206 250 309 392
#     4  10  24  39  63  93 128 165 206 267 322 380
#     4  10  22  39  62  94 126 164 207 261 322 379
#     4  12  23  40  66  93 125 169 218 263 319 375
#     4  10  22  41  63  90 126 163 216 265 311 381
#     4  12  23  38  68  93 123 170 217 261 317 383
#     4  10  24  38  48  84 138 170 194 248 306 380
#
# _framework density 19.765881
#
# number of rings (size 3 to 8) (size 9 to 14) (size 15 to 20)
#    0.000    1.333    5.333    0.000    3.733    3.200 
#    0.000    0.000    0.000    4.800    0.000    0.000 
#    0.000    0.000    0.000    0.000    0.000    0.000 
#
# Total GULP energy -743421.732136 kJ/mol
# GULP energy per Si atom -12390.362202 kJ/mol
# Density = 1.972089 g / cm^3
# Si number density = 19.765881 Si / 1000 Ang^3
#
#
#
# Elastic Constant Matrix: (Units=GPa)
#
#
# Indices 1 2 3 4 5 6 
#
# 1 104.7359 39.1734 19.3206 0.0000 0.0000 0.0000
# 2 39.1734 104.7359 19.3206 0.0000 0.0000 0.0000
# 3 19.3206 19.3206 74.2702 0.0000 0.0000 0.0000
# 4 0.0000 0.0000 0.0000 23.6604 0.0000 0.0000
# 5 0.0000 0.0000 0.0000 0.0000 23.6604 0.0000
# 6 0.0000 0.0000 0.0000 0.0000 0.0000 19.9454
#
#
#
# Elastic Compliance Matrix: (Units=1/GPa)
#
#
# Indices 1 2 3 4 5 6 
#
# 1 0.011362 -0.003891 -0.001943 0.000000 0.000000 0.000000
# 2 -0.003891 0.011362 -0.001943 0.000000 0.000000 0.000000
# 3 -0.001943 -0.001943 0.014475 0.000000 0.000000 0.000000
# 4 0.000000 0.000000 0.000000 0.042265 0.000000 0.000000
# 5 0.000000 0.000000 0.000000 0.000000 0.042265 0.000000
# 6 0.000000 0.000000 0.000000 0.000000 0.000000 0.050137
#
#
# Mechanical properties :
#
#
# Convention : Reuss Voigt Hill
#
# Bulk Modulus (GPa) = 46.20402 48.81900 47.51151
# Shear Modulus (GPa) = 25.68912 27.18175 26.43543
#
# Velocity S-wave (km/s) = 3.60900 3.71237 3.66105
# Velocity P-wave (km/s) = 6.38694 6.56718 6.47768
#
# Compressibility (1/GPa) = 0.02164314
#
# Stress axis : x y z
#
# Youngs Moduli (GPa) = 88.01559 88.01559 69.08239
#
# Poissons Ratio (x) = 0.34247 0.13426
# Poissons Ratio (y) = 0.34247 0.13426
# Poissons Ratio (z) = 0.17105 0.17105
#
# Static dielectric constant tensor:
#      x y z
#    x 3.370710 0.000000 0.000000 
#    y 0.000000 3.370710 0.000000 
#    z 0.000000 0.000000 3.705650 
# 
# 
# High freq. dielectric constant tensor:
#      x y z
#    x 1.751870 0.000000 0.000000 
#    y 0.000000 1.751870 0.000000 
#    z 0.000000 0.000000 1.785170 
# 
# From -- ./inp_files/1012.got.cif
#   From: 2010.03.12/outbox.cif.g09.slc.cpg/sg114_1_cif.got.tgz:1012.got - 2010.04.14 02:08:34.
