data_PCOD8308693
_publ_section_title
;
Structure prediction by ZEFSAII (Michael W. Deem and Ramdas Pophale) SiO2 
 PCOD8308693
Probable space group: P -4 21 M 
;
_chemical_formula_sum "Si O2"
_cell_formula_units_Z 48
_cell_length_a 12.291676
_cell_length_b 12.291676
_cell_length_c 17.943556
_cell_angle_alpha 90.000000
_cell_angle_beta 90.000000
_cell_angle_gamma 90.000000
_cell_volume 2711.007521
_symmetry_space_group_name_H-M "P -4 21 M "
_symmetry_group_IT_number 113
_symmetry_cell_setting 'tetragonal'
loop_
_space_group_symop_operation_xyz
x,y,z
y,-x,-z
-x,-y,z
-y,x,-z
1/2+x,1/2-y,-z
1/2-x,1/2+y,-z
1/2-y,1/2-x,z
1/2+y,1/2+x,z
loop_
_atom_site_type_symbol
_atom_site_label
_atom_site_fract_x
_atom_site_fract_y
_atom_site_fract_z
Si Si1 0.969563 0.837766 0.474681
Si Si2 0.003816 0.671802 0.088000
Si Si3 0.660511 0.459874 0.973033
Si Si4 0.573684 0.606483 0.328512
Si Si5 0.997898 0.678285 0.596724
Si Si6 0.644914 0.325561 0.830432
O O1 0.917467 0.835193 0.392110
O O2 0.088612 0.893414 0.471132
O O3 0.977602 0.718149 0.511277
O O4 0.099635 0.599635 0.124915
O O5 0.901699 0.598302 0.065537
O O6 0.965972 0.763562 0.146369
O O7 0.048103 0.721815 0.010879
O O8 0.665603 0.425492 0.886760
O O9 0.583127 0.381475 0.021857
O O10 0.500000 0.500000 0.319637
O O11 0.506656 0.715343 0.350571
O O12 0.633093 0.629801 0.252143
O O13 0.108949 0.608949 0.599978
O O14 0.896189 0.603812 0.622458
O O15 0.748260 0.248260 0.834435
#
# Coordination Sequence:
#
# PCOD8308693 Si02
#       6
#     8   8   8   8   8   8
#     4   9  16  35  55  81 103 142 184 221 265 320
#     4   9  18  34  54  76 106 142 181 230 280 324
#     4   9  18  32  54  78 102 138 181 227 274 320
#     4  11  21  37  58  79 115 151 186 221 273 335
#     4  10  21  37  59  86 113 143 184 236 285 326
#     4  10  21  34  54  81 108 145 181 225 276 328
#
# _framework density 17.705596
#
# number of rings (size 3 to 8) (size 9 to 14) (size 15 to 20)
#    0.000    2.333    3.333    1.000    4.667    4.000 
#    0.000    2.500    0.000    5.000    0.000    0.000 
#    0.000    0.000    0.000    0.000    0.000    0.000 
#
# Total GULP energy -594934.996176 kJ/mol
# GULP energy per Si atom -12394.479087 kJ/mol
# Density = 1.766530 g / cm^3
# Si number density = 17.705596 Si / 1000 Ang^3
#
#
#
# Elastic Constant Matrix: (Units=GPa)
#
#
# Indices 1 2 3 4 5 6 
#
# 1 82.7333 35.3733 35.5052 0.0000 0.0000 0.0000
# 2 35.3733 82.7323 35.5050 0.0000 0.0000 0.0000
# 3 35.5052 35.5050 128.8445 0.0000 0.0000 0.0000
# 4 0.0000 0.0000 0.0000 19.1984 0.0000 0.0000
# 5 0.0000 0.0000 0.0000 0.0000 19.1982 0.0000
# 6 0.0000 0.0000 0.0000 0.0000 0.0000 13.1309
#
#
#
# Elastic Compliance Matrix: (Units=1/GPa)
#
#
# Indices 1 2 3 4 5 6 
#
# 1 0.015632 -0.005483 -0.002797 0.000000 0.000000 0.000000
# 2 -0.005483 0.015632 -0.002797 0.000000 0.000000 0.000000
# 3 -0.002797 -0.002797 0.009303 0.000000 0.000000 0.000000
# 4 0.000000 0.000000 0.000000 0.052088 0.000000 0.000000
# 5 0.000000 0.000000 0.000000 0.000000 0.052088 0.000000
# 6 0.000000 0.000000 0.000000 0.000000 0.000000 0.076156
#
#
# Mechanical properties :
#
#
# Convention : Reuss Voigt Hill
#
# Bulk Modulus (GPa) = 54.30912 56.34191 55.32552
# Shear Modulus (GPa) = 20.06511 22.83394 21.44952
#
# Velocity S-wave (km/s) = 3.37005 3.59506 3.48437
# Velocity P-wave (km/s) = 6.77370 7.00880 6.89225
#
# Compressibility (1/GPa) = 0.01841311
#
# Stress axis : x y z
#
# Youngs Moduli (GPa) = 63.97289 63.97211 107.49741
#
# Poissons Ratio (x) = 0.35078 0.30062
# Poissons Ratio (y) = 0.35079 0.30062
# Poissons Ratio (z) = 0.17890 0.17890
#
# Static dielectric constant tensor:
#      x y z
#    x 3.367110 0.000000 0.000000 
#    y 0.000000 3.367110 0.000000 
#    z 0.000000 0.000000 3.306100 
# 
# 
# High freq. dielectric constant tensor:
#      x y z
#    x 1.684620 0.000000 0.000000 
#    y 0.000000 1.684620 0.000000 
#    z 0.000000 0.000000 1.666770 
# 
# From -- ./inp_files/2444.got.cif
#   From: 2010.03.12/outbox.cif.g09.slc.cpg/sg113_cif.got.tgz:2444.got - 2010.04.14 02:06:34.
