data_PCOD8308561
_publ_section_title
;
Structure prediction by ZEFSAII (Michael W. Deem and Ramdas Pophale) SiO2 
 PCOD8308561
Probable space group: P -4 21 M 
;
_chemical_formula_sum "Si O2"
_cell_formula_units_Z 28
_cell_length_a 10.060859
_cell_length_b 10.060859
_cell_length_c 15.231002
_cell_angle_alpha 90.000000
_cell_angle_beta 90.000000
_cell_angle_gamma 90.000000
_cell_volume 1541.695484
_symmetry_space_group_name_H-M "P -4 21 M "
_symmetry_group_IT_number 113
_symmetry_cell_setting 'tetragonal'
loop_
_space_group_symop_operation_xyz
x,y,z
y,-x,-z
-x,-y,z
-y,x,-z
1/2+x,1/2-y,-z
1/2-x,1/2+y,-z
1/2-y,1/2-x,z
1/2+y,1/2+x,z
loop_
_atom_site_type_symbol
_atom_site_label
_atom_site_fract_x
_atom_site_fract_y
_atom_site_fract_z
Si Si1 0.284913 0.500001 0.500001
Si Si2 0.000000 0.500000 0.202347
Si Si3 0.864084 0.635917 0.953260
Si Si4 0.000000 0.500000 0.797653
Si Si5 0.864084 0.364084 0.046740
Si Si6 0.359314 0.140687 0.355431
Si Si7 0.140685 0.359316 0.355433
O O1 0.370242 0.629759 0.480449
O O2 0.198726 0.519259 0.587482
O O3 0.198725 0.480744 0.412520
O O4 0.904044 0.404044 0.145687
O O5 0.907815 0.592186 0.261744
O O6 0.904044 0.595957 0.854313
O O7 0.750000 0.750001 0.955159
O O8 0.812021 0.500000 1.000000
O O9 0.907814 0.407814 0.738257
O O10 0.249999 0.250002 0.334493
#
# Coordination Sequence:
#
# PCOD8308561 Si02
#       7
#     8   2   4   2   4   4   4
#     4   9  18  31  46  66  96 139 186 221 254 304
#     4  10  21  33  52  82 110 132 170 219 271 324
#     4   9  21  41  62  84 110 140 177 219 268 334
#     4  10  21  33  52  82 110 132 170 219 271 324
#     4   9  21  41  62  84 110 140 177 219 268 334
#     4  10  19  31  48  71 102 138 176 220 265 306
#     4  10  19  31  48  71 102 138 176 220 265 306
#
# _framework density 18.161821
#
# number of rings (size 3 to 8) (size 9 to 14) (size 15 to 20)
#    0.000    2.857    0.000    1.714    0.000    7.429 
#    0.000    0.000    0.000    0.000    0.000    0.000 
#    0.000    0.000    0.000    0.000    0.000    0.000 
#
# Total GULP energy -347016.455461 kJ/mol
# GULP energy per Si atom -12393.444838 kJ/mol
# Density = 1.812048 g / cm^3
# Si number density = 18.161821 Si / 1000 Ang^3
#
#
#
# Elastic Constant Matrix: (Units=GPa)
#
#
# Indices 1 2 3 4 5 6 
#
# 1 104.8100 79.6194 67.3548 0.0000 0.0000 0.0000
# 2 79.6194 104.8091 67.3546 0.0000 0.0000 0.0000
# 3 67.3548 67.3546 157.4572 0.0000 0.0000 0.0000
# 4 0.0000 0.0000 0.0000 33.0452 0.0000 0.0000
# 5 0.0000 0.0000 0.0000 0.0000 33.0458 0.0000
# 6 0.0000 0.0000 0.0000 0.0000 0.0000 42.9180
#
#
#
# Elastic Compliance Matrix: (Units=1/GPa)
#
#
# Indices 1 2 3 4 5 6 
#
# 1 0.023792 -0.015906 -0.003373 0.000000 0.000000 0.000000
# 2 -0.015906 0.023792 -0.003373 0.000000 0.000000 0.000000
# 3 -0.003373 -0.003373 0.009237 0.000000 0.000000 0.000000
# 4 0.000000 0.000000 0.000000 0.030262 0.000000 0.000000
# 5 0.000000 0.000000 0.000000 0.000000 0.030261 0.000000
# 6 0.000000 0.000000 0.000000 0.000000 0.000000 0.023300
#
#
# Mechanical properties :
#
#
# Convention : Reuss Voigt Hill
#
# Bulk Modulus (GPa) = 86.83873 88.41489 87.62681
# Shear Modulus (GPa) = 26.34519 31.98497 29.16508
#
# Velocity S-wave (km/s) = 3.81278 4.20111 4.01165
# Velocity P-wave (km/s) = 8.20370 8.50411 8.35526
#
# Compressibility (1/GPa) = 0.01151560
#
# Stress axis : x y z
#
# Youngs Moduli (GPa) = 42.03107 42.03067 108.26043
#
# Poissons Ratio (x) = 0.66854 0.36520
# Poissons Ratio (y) = 0.66854 0.36521
# Poissons Ratio (z) = 0.14179 0.14179
#
# Static dielectric constant tensor:
#      x y z
#    x 3.366430 0.000000 0.000000 
#    y 0.000000 3.366440 0.000000 
#    z 0.000000 0.000000 3.333930 
# 
# 
# High freq. dielectric constant tensor:
#      x y z
#    x 1.707900 0.000000 0.000000 
#    y 0.000000 1.707900 0.000000 
#    z 0.000000 0.000000 1.699190 
# 
# From -- ./inp_files/1524.got.cif
#   From: 2010.03.12/outbox.cif.g09.slc.cpg/sg113_cif.got.tgz:1524.got - 2010.04.14 02:06:34.
