data_PCOD8308846
_publ_section_title
;
Structure prediction by ZEFSAII (Michael W. Deem and Ramdas Pophale) SiO2 
 PCOD8308846
Probable space group: P -4 21 C
;
_chemical_formula_sum "Si O2"
_cell_formula_units_Z 48
_cell_length_a 16.469723
_cell_length_b 16.469723
_cell_length_c 8.489819
_cell_angle_alpha 90.000000
_cell_angle_beta 90.000000
_cell_angle_gamma 90.000000
_cell_volume 2302.878479
_symmetry_space_group_name_H-M "P -4 21 C"
_symmetry_group_IT_number 114
_symmetry_cell_setting 'tetragonal'
loop_
_space_group_symop_operation_xyz
x,y,z
y,-x,-z
-x,-y,z
-y,x,-z
1/2+x,1/2-y,1/2-z
1/2-x,1/2+y,1/2-z
1/2-y,1/2-x,1/2+z
1/2+y,1/2+x,1/2+z
loop_
_atom_site_type_symbol
_atom_site_label
_atom_site_fract_x
_atom_site_fract_y
_atom_site_fract_z
Si Si1 0.000000 0.500000 0.544522
Si Si2 0.732360 0.924786 0.759569
Si Si3 0.500000 0.500000 0.500000
Si Si4 0.083729 0.105734 0.754293
Si Si5 0.925341 0.658898 0.117713
Si Si6 0.849754 0.414106 0.051330
Si Si7 0.793320 0.562412 0.254658
Si Si8 0.500000 0.500000 0.000000
O O1 0.929034 0.535062 0.654948
O O2 0.957393 0.424652 0.452474
O O3 0.823198 0.902821 0.806404
O O4 0.671856 0.875882 0.874958
O O5 0.719674 0.899095 0.577605
O O6 0.722568 0.022938 0.778279
O O7 0.527357 0.423329 0.602864
O O8 0.065167 0.198638 0.720240
O O9 0.063730 0.051951 0.601549
O O10 0.832619 0.643399 0.172618
O O11 0.931351 0.685104 0.937549
O O12 0.822215 0.475307 0.188813
#
# Coordination Sequence:
#
# PCOD8308846 Si02
#       8
#     4   8   2   8   8   8   8   2
#     4   8  16  30  52  78 116 158 184 210 280 362
#     4  11  22  37  60  89 124 160 201 245 300 355
#     4  10  24  46  68  82 112 162 208 242 296 366
#     4  11  24  44  66  88 114 157 206 254 298 355
#     4  10  20  35  57  89 124 160 196 241 295 360
#     4  10  20  35  57  89 124 160 196 241 295 360
#     4  11  22  37  60  89 124 160 201 245 300 355
#     4  10  24  46  68  82 112 162 208 242 296 366
#
# _framework density 20.843477
#
# number of rings (size 3 to 8) (size 9 to 14) (size 15 to 20)
#    0.000    1.667    0.000    6.000    0.000    6.667 
#    0.000    3.333    0.000    0.000    0.000    0.000 
#    0.000    0.000    0.000    0.000    0.000    0.000 
#
# Total GULP energy -594814.490976 kJ/mol
# GULP energy per Si atom -12391.968562 kJ/mol
# Density = 2.079604 g / cm^3
# Si number density = 20.843477 Si / 1000 Ang^3
#
#
#
# Elastic Constant Matrix: (Units=GPa)
#
#
# Indices 1 2 3 4 5 6 
#
# 1 109.2094 25.6406 25.4014 0.0000 0.0000 0.0000
# 2 25.6406 109.2094 25.4014 0.0000 0.0000 0.0000
# 3 25.4014 25.4014 103.3361 0.0000 0.0000 0.0000
# 4 0.0000 0.0000 0.0000 19.4436 0.0000 0.0000
# 5 0.0000 0.0000 0.0000 0.0000 19.4436 0.0000
# 6 0.0000 0.0000 0.0000 0.0000 0.0000 23.5417
#
#
#
# Elastic Compliance Matrix: (Units=1/GPa)
#
#
# Indices 1 2 3 4 5 6 
#
# 1 0.010069 -0.001897 -0.002009 0.000000 0.000000 0.000000
# 2 -0.001897 0.010069 -0.002009 0.000000 0.000000 0.000000
# 3 -0.002009 -0.002009 0.010665 0.000000 0.000000 0.000000
# 4 0.000000 0.000000 0.000000 0.051431 0.000000 0.000000
# 5 0.000000 0.000000 0.000000 0.000000 0.051431 0.000000
# 6 0.000000 0.000000 0.000000 0.000000 0.000000 0.042478
#
#
# Mechanical properties :
#
#
# Convention : Reuss Voigt Hill
#
# Bulk Modulus (GPa) = 52.70336 52.73797 52.72067
# Shear Modulus (GPa) = 25.73384 28.83990 27.28687
#
# Velocity S-wave (km/s) = 3.51753 3.72377 3.62212
# Velocity P-wave (km/s) = 6.46820 6.62159 6.54534
#
# Compressibility (1/GPa) = 0.01897412
#
# Stress axis : x y z
#
# Youngs Moduli (GPa) = 99.31148 99.31148 93.76651
#
# Poissons Ratio (x) = 0.18838 0.18837
# Poissons Ratio (y) = 0.18838 0.18837
# Poissons Ratio (z) = 0.19951 0.19951
#
# Static dielectric constant tensor:
#      x y z
#    x 3.827480 0.000000 0.000000 
#    y 0.000000 3.827480 0.000000 
#    z 0.000000 0.000000 3.579710 
# 
# 
# High freq. dielectric constant tensor:
#      x y z
#    x 1.809880 0.000000 0.000000 
#    y 0.000000 1.809880 0.000000 
#    z 0.000000 0.000000 1.813110 
# 
# From -- ./inp_files/952.got.cif
#   From: 2010.03.12/outbox.cif.g09.slc.cpg/sg114_1_cif.got.tgz:952.got - 2010.04.14 02:08:34.
