data_PCOD8308784
_publ_section_title
;
Structure prediction by ZEFSAII (Michael W. Deem and Ramdas Pophale) SiO2 
 PCOD8308784
Probable space group: P -4 21 M 
;
_chemical_formula_sum "Si O2"
_cell_formula_units_Z 48
_cell_length_a 13.925460
_cell_length_b 13.925460
_cell_length_c 15.315150
_cell_angle_alpha 90.000000
_cell_angle_beta 90.000000
_cell_angle_gamma 90.000000
_cell_volume 2969.889938
_symmetry_space_group_name_H-M "P -4 21 M "
_symmetry_group_IT_number 113
_symmetry_cell_setting 'tetragonal'
loop_
_space_group_symop_operation_xyz
x,y,z
y,-x,-z
-x,-y,z
-y,x,-z
1/2+x,1/2-y,-z
1/2-x,1/2+y,-z
1/2-y,1/2-x,z
1/2+y,1/2+x,z
loop_
_atom_site_type_symbol
_atom_site_label
_atom_site_fract_x
_atom_site_fract_y
_atom_site_fract_z
Si Si1 0.748991 0.091953 0.439192
Si Si2 0.744506 0.594682 0.757872
Si Si3 0.591954 0.751009 0.560806
Si Si4 0.755495 0.905319 0.757869
Si Si5 0.494485 0.843549 0.903782
Si Si6 0.343549 0.005516 0.096214
O O1 0.652428 0.152428 0.457766
O O2 0.749620 0.052832 0.339892
O O3 0.841440 0.158560 0.456240
O O4 0.752467 0.999999 0.499998
O O5 0.822054 0.677947 0.768143
O O6 0.639271 0.639271 0.775345
O O7 0.763888 0.511710 0.829068
O O8 0.652429 0.847572 0.542233
O O9 0.552831 0.750378 0.660105
O O10 0.677947 0.822054 0.768137
O O11 0.736113 0.988290 0.829065
O O12 0.389790 0.889790 0.887431
O O13 0.573359 0.926642 0.899225
O O14 0.500001 0.795119 0.999998
O O15 0.426642 0.926642 0.100770
O O16 0.389789 0.110211 0.112566
#
# Coordination Sequence:
#
# PCOD8308784 Si02
#       6
#     8   8   8   8   8   8
#     4   9  18  31  46  66  90 115 147 185 221 260
#     4   8  14  25  40  58  82 111 140 170 206 250
#     4   9  18  31  46  66  90 115 147 185 221 260
#     4   8  14  25  40  58  82 111 140 170 206 250
#     4   8  13  21  35  57  82 106 135 170 204 241
#     4   8  13  21  35  57  82 106 135 170 204 241
#
# _framework density 16.162215
#
# number of rings (size 3 to 8) (size 9 to 14) (size 15 to 20)
#    0.000    3.667    0.000    3.000    0.000    2.000 
#    0.000    3.333    0.000    2.000    0.000    4.667 
#    0.000    0.000    0.000    0.000    0.000    0.000 
#
# Total GULP energy -594793.456749 kJ/mol
# GULP energy per Si atom -12391.530349 kJ/mol
# Density = 1.612543 g / cm^3
# Si number density = 16.162215 Si / 1000 Ang^3
#
#
#
# Elastic Constant Matrix: (Units=GPa)
#
#
# Indices 1 2 3 4 5 6 
#
# 1 64.9177 30.7159 68.3053 0.0000 0.0000 0.0000
# 2 30.7159 64.9170 68.3051 0.0000 0.0000 0.0000
# 3 68.3053 68.3051 160.7769 0.0000 0.0000 0.0000
# 4 0.0000 0.0000 0.0000 1.9881 0.0000 0.0000
# 5 0.0000 0.0000 0.0000 0.0000 1.9880 0.0000
# 6 0.0000 0.0000 0.0000 0.0000 0.0000 10.2970
#
#
#
# Elastic Compliance Matrix: (Units=1/GPa)
#
#
# Indices 1 2 3 4 5 6 
#
# 1 0.027919 -0.001320 -0.011301 0.000000 0.000000 0.000000
# 2 -0.001320 0.027919 -0.011301 0.000000 0.000000 0.000000
# 3 -0.011301 -0.011301 0.015822 0.000000 0.000000 0.000000
# 4 0.000000 0.000000 0.000000 0.502983 0.000000 0.000000
# 5 0.000000 0.000000 0.000000 0.000000 0.503025 0.000000
# 6 0.000000 0.000000 0.000000 0.000000 0.000000 0.097116
#
#
# Mechanical properties :
#
#
# Convention : Reuss Voigt Hill
#
# Bulk Modulus (GPa) = 41.98490 69.47380 55.72935
# Shear Modulus (GPa) = 4.06318 11.07364 7.56841
#
# Velocity S-wave (km/s) = 1.58728 2.62039 2.16632
# Velocity P-wave (km/s) = 5.42152 7.22730 6.38853
#
# Compressibility (1/GPa) = 0.02381809
#
# Stress axis : x y z
#
# Youngs Moduli (GPa) = 35.81828 35.81780 63.20405
#
# Poissons Ratio (x) = 0.04726 0.71424
# Poissons Ratio (y) = 0.04727 0.71425
# Poissons Ratio (z) = 0.40476 0.40476
#
# Static dielectric constant tensor:
#      x y z
#    x 2.921360 0.000000 0.000000 
#    y 0.000000 2.921360 0.000000 
#    z 0.000000 0.000000 3.334950 
# 
# 
# High freq. dielectric constant tensor:
#      x y z
#    x 1.585890 0.000000 0.000000 
#    y 0.000000 1.585890 0.000000 
#    z 0.000000 0.000000 1.634230 
# 
# From -- ./inp_files/2234.got.cif
#   From: 2010.03.12/outbox.cif.g09.slc.cpg/sg113_cif.got.tgz:2234.got - 2010.04.14 02:06:34.
