data_PCOD8308519
_publ_section_title
;
Structure prediction by ZEFSAII (Michael W. Deem and Ramdas Pophale) SiO2 
 PCOD8308519
Probable space group: P -4 21 M 
;
_chemical_formula_sum "Si O2"
_cell_formula_units_Z 48
_cell_length_a 21.851347
_cell_length_b 21.851347
_cell_length_c 5.202582
_cell_angle_alpha 90.000000
_cell_angle_beta 90.000000
_cell_angle_gamma 90.000000
_cell_volume 2484.135959
_symmetry_space_group_name_H-M "P -4 21 M "
_symmetry_group_IT_number 113
_symmetry_cell_setting 'tetragonal'
loop_
_space_group_symop_operation_xyz
x,y,z
y,-x,-z
-x,-y,z
-y,x,-z
1/2+x,1/2-y,-z
1/2-x,1/2+y,-z
1/2-y,1/2-x,z
1/2+y,1/2+x,z
loop_
_atom_site_type_symbol
_atom_site_label
_atom_site_fract_x
_atom_site_fract_y
_atom_site_fract_z
Si Si1 0.546853 0.363869 0.232776
Si Si2 0.002555 0.600726 0.294733
Si Si3 0.692158 0.287356 0.761943
Si Si4 0.623860 0.250255 0.265881
Si Si5 0.957363 0.638360 0.794926
Si Si6 0.884313 0.904887 0.271899
O O1 0.565078 0.293657 0.264282
O O2 0.577645 0.401972 0.463616
O O3 0.473974 0.362871 0.239801
O O4 0.570299 0.389170 0.960848
O O5 0.946289 0.553712 0.297758
O O6 0.999971 0.644671 0.543817
O O7 0.067301 0.567301 0.288696
O O8 0.998445 0.645921 0.049763
O O9 0.763927 0.263927 0.738232
O O10 0.654840 0.250464 0.545438
O O11 0.676073 0.359850 0.722858
O O12 0.671839 0.268987 0.047530
O O13 0.599799 0.183362 0.207326
O O14 0.930519 0.569482 0.798474
#
# Coordination Sequence:
#
# PCOD8308519 Si02
#       6
#     8   8   8   8   8   8
#     4  10  21  36  53  79 108 137 173 211 260 311
#     4   9  17  27  39  58  85 117 155 196 239 297
#     4  10  19  33  52  75 104 135 171 210 252 306
#     4  10  20  32  49  75 103 129 164 215 260 299
#     4  10  17  26  43  64  87 119 155 196 251 296
#     4  10  21  35  55  80 108 141 173 213 261 310
#
# _framework density 19.322614000000002
#
# number of rings (size 3 to 8) (size 9 to 14) (size 15 to 20)
#    0.000    2.167    0.000    4.000    0.000    5.333 
#    0.000    0.000    0.000    2.000    0.000    0.000 
#    0.000    0.000    0.000    0.000    0.000    0.000 
#
# Total GULP energy -594783.622407 kJ/mol
# GULP energy per Si atom -12391.325467 kJ/mol
# Density = 1.927864 g / cm^3
# Si number density = 19.322614 Si / 1000 Ang^3
#
#
#
# Elastic Constant Matrix: (Units=GPa)
#
#
# Indices 1 2 3 4 5 6 
#
# 1 58.9181 61.6937 10.1411 0.0000 0.0000 0.0000
# 2 61.6937 58.9149 10.1364 0.0000 0.0000 0.0000
# 3 10.1411 10.1364 112.4681 0.0000 0.0000 0.0000
# 4 0.0000 0.0000 0.0000 12.3807 0.0000 0.0000
# 5 0.0000 0.0000 0.0000 0.0000 12.3800 0.0000
# 6 0.0000 0.0000 0.0000 0.0000 0.0000 21.9861
#
#
#
# Elastic Compliance Matrix: (Units=1/GPa)
#
#
# Indices 1 2 3 4 5 6 
#
# 1 -0.175821 0.184243 -0.000752 0.000000 0.000000 0.000000
# 2 0.184243 -0.175828 -0.000766 0.000000 0.000000 0.000000
# 3 -0.000752 -0.000766 0.009028 0.000000 0.000000 0.000000
# 4 0.000000 0.000000 0.000000 0.080771 0.000000 0.000000
# 5 0.000000 0.000000 0.000000 0.000000 0.080775 0.000000
# 6 0.000000 0.000000 0.000000 0.000000 0.000000 0.045483
#
#
# Mechanical properties :
#
#
# Convention : Reuss Voigt Hill
#
# Bulk Modulus (GPa) = 43.80194 43.80485 43.80339
# Shear Modulus (GPa) = -10.13313 19.23800 4.55244
#
# Velocity S-wave (km/s) = -2.29250 3.15877 1.53660
# Velocity P-wave (km/s) = 3.96365 6.00194 5.08595
#
# Compressibility (1/GPa) = 0.02283004
#
# Stress axis : x y z
#
# Youngs Moduli (GPa) = -5.68761 -5.68738 110.76354
#
# Poissons Ratio (x) = 1.04786 0.08325
# Poissons Ratio (y) = 1.04790 0.08487
# Poissons Ratio (z) = -0.00427 -0.00436
#
# Static dielectric constant tensor:
#      x y z
#    x 3.341250 0.000000 0.000000 
#    y 0.000000 3.341250 0.000000 
#    z 0.000000 0.000000 4.033570 
# 
# 
# High freq. dielectric constant tensor:
#      x y z
#    x 1.722170 0.000000 0.000000 
#    y 0.000000 1.722170 0.000000 
#    z 0.000000 0.000000 1.783980 
# 
# From -- ./inp_files/460.got.cif
#   From: 2010.03.12/outbox.cif.g09.slc.cpg/sg113_cif.got.tgz:460.got - 2010.04.14 02:06:34.
