data_PCOD8308100
_publ_section_title
;
Structure prediction by ZEFSAII (Michael W. Deem and Ramdas Pophale) SiO2 
 PCOD8308100
Probable space group: P -4 2 M 
;
_chemical_formula_sum "Si O2"
_cell_formula_units_Z 48
_cell_length_a 26.992869
_cell_length_b 26.992869
_cell_length_c 5.227807
_cell_angle_alpha 90.000000
_cell_angle_beta 90.000000
_cell_angle_gamma 90.000000
_cell_volume 3809.058476
_symmetry_space_group_name_H-M "P -4 2 M "
_symmetry_group_IT_number 111
_symmetry_cell_setting 'tetragonal'
loop_
_space_group_symop_operation_xyz
x,y,z
y,-x,-z
-x,-y,z
-y,x,-z
x,-y,-z
-x,y,-z
-y,-x,z
y,x,z
loop_
_atom_site_type_symbol
_atom_site_label
_atom_site_fract_x
_atom_site_fract_y
_atom_site_fract_z
Si Si1 0.553391 0.294406 0.468355
Si Si2 0.331199 0.409285 0.031346
Si Si3 0.054870 0.558202 0.002633
Si Si4 0.115429 0.441002 0.498337
Si Si5 0.326937 0.246372 0.022925
Si Si6 0.208551 0.368554 0.522048
O O1 0.500000 0.268014 0.500000
O O2 0.553107 0.324122 0.202912
O O3 0.596915 0.255766 0.472848
O O4 0.561074 0.332046 0.703138
O O5 0.384004 0.384004 0.996086
O O6 0.287857 0.368786 0.028555
O O7 0.082435 0.574216 0.259887
O O8 0.048464 0.500000 0.000000
O O9 0.085880 0.574573 0.755466
O O10 0.000000 0.582701 0.000000
O O11 0.129356 0.500000 0.500000
O O12 0.162711 0.405864 0.511542
O O13 0.272837 0.272837 0.016814
O O14 0.334189 0.210523 0.775904
O O15 0.332660 0.211610 0.274532
#
# Coordination Sequence:
#
# PCOD8308100 Si02
#       6
#     8   8   8   8   8   8
#     4  10  18  27  39  55  74  88 100 120 151 186
#     4   9  17  28  40  52  68  88 106 123 141 171
#     4   9  17  28  40  52  68  93 122 148 172 202
#     4  10  18  27  39  55  74  93 116 145 177 207
#     4   9  17  28  40  52  68  93 117 132 153 190
#     4  10  18  27  39  55  74  93 111 134 163 195
#
# _framework density 12.601538
#
# number of rings (size 3 to 8) (size 9 to 14) (size 15 to 20)
#    0.000    2.500    0.000    3.500    0.000    6.000 
#    0.000    5.000    0.000    0.000    0.000    0.000 
#    0.000   23.333    0.000    0.000    0.000    0.000 
#
# Total GULP energy -594840.725119 kJ/mol
# GULP energy per Si atom -12392.515107 kJ/mol
# Density = 1.257286 g / cm^3
# Si number density = 12.601538 Si / 1000 Ang^3
#
#
#
# Elastic Constant Matrix: (Units=GPa)
#
#
# Indices 1 2 3 4 5 6 
#
# 1 37.9303 20.2571 27.2934 0.0000 0.0000 0.0000
# 2 20.2571 37.9303 27.2934 0.0000 0.0000 0.0000
# 3 27.2934 27.2934 117.3785 0.0000 0.0000 0.0000
# 4 0.0000 0.0000 0.0000 14.6598 0.0000 0.0000
# 5 0.0000 0.0000 0.0000 0.0000 14.6598 0.0000
# 6 0.0000 0.0000 0.0000 0.0000 0.0000 -11.0069
#
#
#
# Elastic Compliance Matrix: (Units=1/GPa)
#
#
# Indices 1 2 3 4 5 6 
#
# 1 0.039282 -0.017301 -0.005111 0.000000 0.000000 0.000000
# 2 -0.017301 0.039282 -0.005111 0.000000 0.000000 0.000000
# 3 -0.005111 -0.005111 0.010896 0.000000 0.000000 0.000000
# 4 0.000000 0.000000 0.000000 0.068214 0.000000 0.000000
# 5 0.000000 0.000000 0.000000 0.000000 0.068214 0.000000
# 6 0.000000 0.000000 0.000000 0.000000 0.000000 -0.090852
#
#
# Mechanical properties :
#
#
# Convention : Reuss Voigt Hill
#
# Bulk Modulus (GPa) = 29.05846 38.10301 33.58073
# Shear Modulus (GPa) = 24.80741 11.55556 18.18148
#
# Velocity S-wave (km/s) = 4.44171 3.03148 3.80254
# Velocity P-wave (km/s) = 7.02955 6.52346 6.78123
#
# Compressibility (1/GPa) = 0.03441339
#
# Stress axis : x y z
#
# Youngs Moduli (GPa) = 25.45712 25.45712 91.77396
#
# Poissons Ratio (x) = 0.44044 0.46906
# Poissons Ratio (y) = 0.44044 0.46906
# Poissons Ratio (z) = 0.13011 0.13011
#
# Static dielectric constant tensor:
#      x y z
#    x 2.364010 0.000000 0.000000 
#    y 0.000000 2.364010 0.000000 
#    z 0.000000 0.000000 3.771930 
# 
# 
# High freq. dielectric constant tensor:
#      x y z
#    x 1.436430 0.000000 0.000000 
#    y 0.000000 1.436430 0.000000 
#    z 0.000000 0.000000 1.507750 
# 
# From -- ./inp_files/723.got.cif
#   From: 2010.03.12/outbox.cif.g09.slc.cpg/sg111_1_cif.got.tgz:723.got - 2010.04.14 01:59:48.
