data_PCOD8308755
_publ_section_title
;
Structure prediction by ZEFSAII (Michael W. Deem and Ramdas Pophale) SiO2 
 PCOD8308755
Probable space group: P -4 21 M 
;
_chemical_formula_sum "Si O2"
_cell_formula_units_Z 56
_cell_length_a 15.185476
_cell_length_b 15.185476
_cell_length_c 12.345988
_cell_angle_alpha 90.000000
_cell_angle_beta 90.000000
_cell_angle_gamma 90.000000
_cell_volume 2846.968553
_symmetry_space_group_name_H-M "P -4 21 M "
_symmetry_group_IT_number 113
_symmetry_cell_setting 'tetragonal'
loop_
_space_group_symop_operation_xyz
x,y,z
y,-x,-z
-x,-y,z
-y,x,-z
1/2+x,1/2-y,-z
1/2-x,1/2+y,-z
1/2-y,1/2-x,z
1/2+y,1/2+x,z
loop_
_atom_site_type_symbol
_atom_site_label
_atom_site_fract_x
_atom_site_fract_y
_atom_site_fract_z
Si Si1 0.504611 0.861177 0.067078
Si Si2 0.907938 0.900400 0.791636
Si Si3 0.638426 0.003910 0.320630
Si Si4 0.596610 0.405977 0.459227
Si Si5 0.627561 0.726696 0.372603
Si Si6 0.723932 0.628166 0.976090
Si Si7 0.404344 0.609250 0.822230
O O1 0.603455 0.896546 0.032442
O O2 0.503311 0.842611 0.194055
O O3 0.468488 0.771520 0.012630
O O4 0.438521 0.938521 0.036436
O O5 0.912410 0.875608 0.664711
O O6 0.858174 0.825630 0.860850
O O7 0.005253 0.904216 0.841494
O O8 0.859959 0.994822 0.803259
O O9 0.603720 0.103720 0.350311
O O10 0.561065 0.938936 0.356018
O O11 0.728508 0.970805 0.377269
O O12 0.510034 0.384512 0.529372
O O13 0.678958 0.355079 0.512973
O O14 0.700208 0.799793 0.350052
O O15 0.635654 0.654428 0.279471
O O16 0.795109 0.704892 0.985172
O O17 0.654203 0.636834 0.072105
#
# Coordination Sequence:
#
# PCOD8308755 Si02
#       7
#     8   8   8   8   8   8   8
#     4   8  15  30  51  77 115 159 192 225 283 354
#     4  11  22  39  64  81 113 158 207 247 305 369
#     4   8  15  29  50  79 115 150 185 229 285 349
#     4  11  20  40  62  84 112 155 204 251 301 361
#     4  11  21  34  60  91 118 152 199 254 305 361
#     4  11  23  36  56  90 126 155 195 255 307 362
#     4  11  21  40  59  84 112 158 204 249 300 367
#
# _framework density 19.670044999999998
#
# number of rings (size 3 to 8) (size 9 to 14) (size 15 to 20)
#    0.000    1.857    2.857    3.857    0.000    1.714 
#    0.000    5.000    0.000    0.000    0.000    0.000 
#    0.000    0.000    0.000    0.571    0.000    0.000 
#
# Total GULP energy -693830.996163 kJ/mol
# GULP energy per Si atom -12389.839217 kJ/mol
# Density = 1.962527 g / cm^3
# Si number density = 19.670045 Si / 1000 Ang^3
#
#
#
# Elastic Constant Matrix: (Units=GPa)
#
#
# Indices 1 2 3 4 5 6 
#
# 1 87.0046 39.0396 45.2054 0.0000 0.0000 0.0000
# 2 39.0396 87.0042 45.2057 0.0000 0.0000 0.0000
# 3 45.2054 45.2057 108.3692 0.0000 0.0000 0.0000
# 4 0.0000 0.0000 0.0000 25.9445 0.0000 0.0000
# 5 0.0000 0.0000 0.0000 0.0000 25.9435 0.0000
# 6 0.0000 0.0000 0.0000 0.0000 0.0000 20.1901
#
#
#
# Elastic Compliance Matrix: (Units=1/GPa)
#
#
# Indices 1 2 3 4 5 6 
#
# 1 0.016085 -0.004764 -0.004723 0.000000 0.000000 0.000000
# 2 -0.004764 0.016085 -0.004723 0.000000 0.000000 0.000000
# 3 -0.004723 -0.004723 0.013168 0.000000 0.000000 0.000000
# 4 0.000000 0.000000 0.000000 0.038544 0.000000 0.000000
# 5 0.000000 0.000000 0.000000 0.000000 0.038545 0.000000
# 6 0.000000 0.000000 0.000000 0.000000 0.000000 0.049529
#
#
# Mechanical properties :
#
#
# Convention : Reuss Voigt Hill
#
# Bulk Modulus (GPa) = 59.10219 60.14214 59.62216
# Shear Modulus (GPa) = 24.27025 24.61078 24.44052
#
# Velocity S-wave (km/s) = 3.51646 3.54104 3.52877
# Velocity P-wave (km/s) = 6.82637 6.88190 6.85419
#
# Compressibility (1/GPa) = 0.01691985
#
# Stress axis : x y z
#
# Youngs Moduli (GPa) = 62.17037 62.16977 75.94334
#
# Poissons Ratio (x) = 0.29616 0.35864
# Poissons Ratio (y) = 0.29616 0.35865
# Poissons Ratio (z) = 0.29360 0.29361
#
# Static dielectric constant tensor:
#      x y z
#    x 3.749860 0.000000 0.000000 
#    y 0.000000 3.749870 0.000000 
#    z 0.000000 0.000000 3.361270 
# 
# 
# High freq. dielectric constant tensor:
#      x y z
#    x 1.763840 0.000000 0.000000 
#    y 0.000000 1.763840 0.000000 
#    z 0.000000 0.000000 1.737110 
# 
# From -- ./inp_files/1912.got.cif
#   From: 2010.03.12/outbox.cif.g09.slc.cpg/sg113_cif.got.tgz:1912.got - 2010.04.14 02:06:34.
