data_PCOD8308760
_publ_section_title
;
Structure prediction by ZEFSAII (Michael W. Deem and Ramdas Pophale) SiO2 
 PCOD8308760
Probable space group: P -4 21 M 
;
_chemical_formula_sum "Si O2"
_cell_formula_units_Z 32
_cell_length_a 12.710270
_cell_length_b 12.710270
_cell_length_c 9.833611
_cell_angle_alpha 90.000000
_cell_angle_beta 90.000000
_cell_angle_gamma 90.000000
_cell_volume 1588.629331
_symmetry_space_group_name_H-M "P -4 21 M "
_symmetry_group_IT_number 113
_symmetry_cell_setting 'tetragonal'
loop_
_space_group_symop_operation_xyz
x,y,z
y,-x,-z
-x,-y,z
-y,x,-z
1/2+x,1/2-y,-z
1/2-x,1/2+y,-z
1/2-y,1/2-x,z
1/2+y,1/2+x,z
loop_
_atom_site_type_symbol
_atom_site_label
_atom_site_fract_x
_atom_site_fract_y
_atom_site_fract_z
Si Si1 0.011137 0.172278 0.685669
Si Si2 0.327722 0.511144 0.185671
Si Si3 0.215351 0.114654 0.079817
Si Si4 0.784643 0.114646 0.579817
O O1 0.078037 0.078039 0.749998
O O2 0.078270 0.236626 0.574585
O O3 0.973484 0.250326 0.808147
O O4 0.908996 0.128170 0.606265
O O5 0.371828 0.409002 0.106265
O O6 0.249671 0.473492 0.308146
O O7 0.263379 0.578280 0.074585
O O8 0.277762 0.222239 0.105393
O O9 0.722229 0.222229 0.605392
#
# Coordination Sequence:
#
# PCOD8308760 Si02
#       4
#     8   8   8   8
#     4  11  21  37  63  91 121 154 203 249 300 350
#     4  11  21  37  63  91 121 154 203 249 300 350
#     4  11  23  38  61  93 125 154 199 256 308 354
#     4  11  23  38  61  93 125 154 199 256 308 354
#
# _framework density 20.143151
#
# number of rings (size 3 to 8) (size 9 to 14) (size 15 to 20)
#    0.000    1.000    5.000    6.000    0.000    1.000 
#    0.000    0.000    0.000   12.000    0.000    0.000 
#    0.000    0.000    0.000    0.000    0.000    0.000 
#
# Total GULP energy -396417.650531 kJ/mol
# GULP energy per Si atom -12388.051579 kJ/mol
# Density = 2.009730 g / cm^3
# Si number density = 20.143151 Si / 1000 Ang^3
#
#
#
# Elastic Constant Matrix: (Units=GPa)
#
#
# Indices 1 2 3 4 5 6 
#
# 1 66.3388 56.2350 54.0728 0.0000 0.0000 0.0000
# 2 56.2350 66.3359 54.0722 0.0000 0.0000 0.0000
# 3 54.0728 54.0722 164.6743 0.0000 0.0000 0.0000
# 4 0.0000 0.0000 0.0000 22.9608 0.0000 0.0000
# 5 0.0000 0.0000 0.0000 0.0000 22.9616 0.0000
# 6 0.0000 0.0000 0.0000 0.0000 0.0000 33.6807
#
#
#
# Elastic Compliance Matrix: (Units=1/GPa)
#
#
# Indices 1 2 3 4 5 6 
#
# 1 0.055235 -0.043750 -0.003771 0.000000 0.000000 0.000000
# 2 -0.043750 0.055238 -0.003772 0.000000 0.000000 0.000000
# 3 -0.003771 -0.003772 0.008549 0.000000 0.000000 0.000000
# 4 0.000000 0.000000 0.000000 0.043553 0.000000 0.000000
# 5 0.000000 0.000000 0.000000 0.000000 0.043551 0.000000
# 6 0.000000 0.000000 0.000000 0.000000 0.000000 0.029691
#
#
# Mechanical properties :
#
#
# Convention : Reuss Voigt Hill
#
# Bulk Modulus (GPa) = 60.84448 69.56767 65.20607
# Shear Modulus (GPa) = 14.53988 24.78522 19.66255
#
# Velocity S-wave (km/s) = 2.68960 3.51159 3.12771
# Velocity P-wave (km/s) = 6.31798 7.14516 6.74426
#
# Compressibility (1/GPa) = 0.01643535
#
# Stress axis : x y z
#
# Youngs Moduli (GPa) = 18.10447 18.10354 116.96640
#
# Poissons Ratio (x) = 0.79204 0.44112
# Poissons Ratio (y) = 0.79208 0.44118
# Poissons Ratio (z) = 0.06828 0.06828
#
# Static dielectric constant tensor:
#      x y z
#    x 3.305200 0.000000 0.000000 
#    y 0.000000 3.305200 0.000000 
#    z 0.000000 0.000000 4.704810 
# 
# 
# High freq. dielectric constant tensor:
#      x y z
#    x 1.746590 0.000000 0.000000 
#    y 0.000000 1.746590 0.000000 
#    z 0.000000 0.000000 1.826740 
# 
# From -- ./inp_files/1568.got.cif
#   From: 2010.03.12/outbox.cif.g09.slc.cpg/sg113_cif.got.tgz:1568.got - 2010.04.14 02:06:34.
