data_PCOD8308451
_publ_section_title
;
Structure prediction by ZEFSAII (Michael W. Deem and Ramdas Pophale) SiO2 
 PCOD8308451
Probable space group: P -4 2 C
;
_chemical_formula_sum "Si O2"
_cell_formula_units_Z 36
_cell_length_a 11.956809
_cell_length_b 11.956809
_cell_length_c 13.294578
_cell_angle_alpha 90.000000
_cell_angle_beta 90.000000
_cell_angle_gamma 90.000000
_cell_volume 1900.663086
_symmetry_space_group_name_H-M "P -4 2 C"
_symmetry_group_IT_number 112
_symmetry_cell_setting 'tetragonal'
loop_
_space_group_symop_operation_xyz
x,y,z
y,-x,-z
-x,-y,z
-y,x,-z
x,-y,1/2-z
-x,y,1/2-z
-y,-x,1/2+z
y,x,1/2+z
loop_
_atom_site_type_symbol
_atom_site_label
_atom_site_fract_x
_atom_site_fract_y
_atom_site_fract_z
Si Si1 0.925229 0.128957 0.937317
Si Si2 0.000000 0.500000 0.750000
Si Si3 0.176226 0.354037 0.629015
Si Si4 0.343487 0.431400 0.480497
Si Si5 0.000000 0.000000 0.250000
Si Si6 0.632161 0.624468 0.267144
O O1 0.869477 0.248654 0.931320
O O2 0.925985 0.077802 0.824125
O O3 0.050272 0.142097 0.983901
O O4 0.922765 0.579231 0.682504
O O5 0.229501 0.433575 0.543544
O O6 0.273904 0.312495 0.705056
O O7 0.379220 0.557802 0.447960
O O8 0.338663 0.351477 0.383602
O O9 0.682162 0.500000 0.250000
O O10 0.500000 0.629590 0.250000
#
# Coordination Sequence:
#
# PCOD8308451 Si02
#       6
#     8   2   8   8   2   8
#     4   9  21  39  61  87 110 159 219 256 306 371
#     4  12  26  40  54  98 126 160 210 262 352 370
#     4  12  23  38  61  90 132 162 198 276 314 382
#     4  11  19  34  59  87 123 166 206 245 301 379
#     4   8  16  40  64  76 110 144 220 276 280 378
#     4  11  19  36  59  89 124 162 212 246 302 384
#
# _framework density 18.940759
#
# number of rings (size 3 to 8) (size 9 to 14) (size 15 to 20)
#    0.000    1.556    5.556    2.000    0.000    7.111 
#    0.000    0.000    0.000    0.000    0.000    0.000 
#    0.000    0.000    0.000    0.000    0.000    0.000 
#
# Total GULP energy -446128.536355 kJ/mol
# GULP energy per Si atom -12392.459343 kJ/mol
# Density = 1.889765 g / cm^3
# Si number density = 18.940759 Si / 1000 Ang^3
#
#
#
# Elastic Constant Matrix: (Units=GPa)
#
#
# Indices 1 2 3 4 5 6 
#
# 1 110.9637 55.9590 40.4523 0.0000 0.0000 0.0000
# 2 55.9590 110.9637 40.4523 0.0000 0.0000 0.0000
# 3 40.4523 40.4523 109.6727 0.0000 0.0000 0.0000
# 4 0.0000 0.0000 0.0000 29.0182 0.0000 0.0000
# 5 0.0000 0.0000 0.0000 0.0000 29.0182 0.0000
# 6 0.0000 0.0000 0.0000 0.0000 0.0000 18.6554
#
#
#
# Elastic Compliance Matrix: (Units=1/GPa)
#
#
# Indices 1 2 3 4 5 6 
#
# 1 0.012738 -0.005443 -0.002691 0.000000 0.000000 0.000000
# 2 -0.005443 0.012738 -0.002691 0.000000 0.000000 0.000000
# 3 -0.002691 -0.002691 0.011103 0.000000 0.000000 0.000000
# 4 0.000000 0.000000 0.000000 0.034461 0.000000 0.000000
# 5 0.000000 0.000000 0.000000 0.000000 0.034461 0.000000
# 6 0.000000 0.000000 0.000000 0.000000 0.000000 0.053604
#
#
# Mechanical properties :
#
#
# Convention : Reuss Voigt Hill
#
# Bulk Modulus (GPa) = 66.97923 67.25858 67.11891
# Shear Modulus (GPa) = 26.92094 28.32079 27.62086
#
# Velocity S-wave (km/s) = 3.77413 3.87102 3.82288
# Velocity P-wave (km/s) = 7.37776 7.45431 7.41613
#
# Compressibility (1/GPa) = 0.01493000
#
# Stress axis : x y z
#
# Youngs Moduli (GPa) = 78.50776 78.50776 90.06620
#
# Poissons Ratio (x) = 0.42729 0.24234
# Poissons Ratio (y) = 0.42729 0.24234
# Poissons Ratio (z) = 0.21124 0.21124
#
# Static dielectric constant tensor:
#      x y z
#    x 3.320640 0.000000 0.000000 
#    y 0.000000 3.320640 0.000000 
#    z 0.000000 0.000000 3.693610 
# 
# 
# High freq. dielectric constant tensor:
#      x y z
#    x 1.711490 0.000000 0.000000 
#    y 0.000000 1.711490 0.000000 
#    z 0.000000 0.000000 1.759330 
# 
# From -- ./inp_files/3262.got.cif
#   From: 2010.03.12/outbox.cif.g09.slc.cpg/sg112_2_cif.got.tgz:3262.got - 2010.04.14 02:02:48.
