data_PCOD8308726
_publ_section_title
;
Structure prediction by ZEFSAII (Michael W. Deem and Ramdas Pophale) SiO2 
 PCOD8308726
Probable space group: P -4 21 M 
;
_chemical_formula_sum "Si O2"
_cell_formula_units_Z 30
_cell_length_a 13.012330
_cell_length_b 13.012330
_cell_length_c 8.784908
_cell_angle_alpha 90.000000
_cell_angle_beta 90.000000
_cell_angle_gamma 90.000000
_cell_volume 1487.467053
_symmetry_space_group_name_H-M "P -4 21 M "
_symmetry_group_IT_number 113
_symmetry_cell_setting 'tetragonal'
loop_
_space_group_symop_operation_xyz
x,y,z
y,-x,-z
-x,-y,z
-y,x,-z
1/2+x,1/2-y,-z
1/2-x,1/2+y,-z
1/2-y,1/2-x,z
1/2+y,1/2+x,z
loop_
_atom_site_type_symbol
_atom_site_label
_atom_site_fract_x
_atom_site_fract_y
_atom_site_fract_z
Si Si1 0.000000 0.500000 0.067883
Si Si2 0.879171 0.379171 0.318807
Si Si3 0.853416 0.065047 0.950695
Si Si4 0.282987 0.782987 0.393073
Si Si5 0.651372 0.151372 0.088520
Si Si6 0.764431 0.575657 0.348239
O O1 0.076018 0.576018 0.160778
O O2 0.068469 0.431532 0.958817
O O3 0.792154 0.292154 0.300539
O O4 0.824397 0.473383 0.406212
O O5 0.825925 0.050073 0.771308
O O6 0.764680 0.125196 0.033762
O O7 0.955925 0.132330 0.966566
O O8 0.347683 0.847683 0.271644
O O9 0.364335 0.721469 0.502713
O O10 0.851059 0.648942 0.265883
#
# Coordination Sequence:
#
# PCOD8308726 Si02
#       6
#     2   4   8   4   4   8
#     4  12  22  38  72 100 128 174 238 288 330 404
#     4  12  18  43  73  90 132 180 219 276 345 399
#     4  11  23  40  67  99 134 177 227 285 341 409
#     4  10  26  37  66  99 135 173 214 288 346 396
#     4  12  23  41  64 105 125 178 239 278 336 401
#     4  10  21  44  64  96 134 174 220 281 340 399
#
# _framework density 20.168516
#
# number of rings (size 3 to 8) (size 9 to 14) (size 15 to 20)
#    0.800    0.267    5.333    1.600    0.000    3.200 
#    0.000    0.000    0.000    3.200    0.000    0.000 
#    0.000    0.000    0.000    0.000    0.000    0.000 
#
# Total GULP energy -371756.105130 kJ/mol
# GULP energy per Si atom -12391.870171 kJ/mol
# Density = 2.012261 g / cm^3
# Si number density = 20.168516 Si / 1000 Ang^3
#
#
#
# Elastic Constant Matrix: (Units=GPa)
#
#
# Indices 1 2 3 4 5 6 
#
# 1 122.8144 72.4304 51.9848 0.0000 0.0000 0.0000
# 2 72.4304 122.8136 51.9847 0.0000 0.0000 0.0000
# 3 51.9848 51.9847 118.3625 0.0000 0.0000 0.0000
# 4 0.0000 0.0000 0.0000 20.1682 0.0000 0.0000
# 5 0.0000 0.0000 0.0000 0.0000 20.1680 0.0000
# 6 0.0000 0.0000 0.0000 0.0000 0.0000 45.5699
#
#
#
# Elastic Compliance Matrix: (Units=1/GPa)
#
#
# Indices 1 2 3 4 5 6 
#
# 1 0.013266 -0.006581 -0.002936 0.000000 0.000000 0.000000
# 2 -0.006581 0.013267 -0.002936 0.000000 0.000000 0.000000
# 3 -0.002936 -0.002936 0.011028 0.000000 0.000000 0.000000
# 4 0.000000 0.000000 0.000000 0.049583 0.000000 0.000000
# 5 0.000000 0.000000 0.000000 0.000000 0.049583 0.000000
# 6 0.000000 0.000000 0.000000 0.000000 0.000000 0.021944
#
#
# Mechanical properties :
#
#
# Convention : Reuss Voigt Hill
#
# Bulk Modulus (GPa) = 79.02849 79.64336 79.33592
# Shear Modulus (GPa) = 26.62454 29.68727 28.15590
#
# Velocity S-wave (km/s) = 3.63727 3.84078 3.74041
# Velocity P-wave (km/s) = 7.54379 7.69698 7.62077
#
# Compressibility (1/GPa) = 0.01265366
#
# Stress axis : x y z
#
# Youngs Moduli (GPa) = 75.37796 75.37740 90.68020
#
# Poissons Ratio (x) = 0.49607 0.26625
# Poissons Ratio (y) = 0.49608 0.26626
# Poissons Ratio (z) = 0.22132 0.22132
#
# Static dielectric constant tensor:
#      x y z
#    x 3.702830 0.000000 0.000000 
#    y 0.000000 3.702820 0.000000 
#    z 0.000000 0.000000 3.519460 
# 
# 
# High freq. dielectric constant tensor:
#      x y z
#    x 1.790260 0.000000 0.000000 
#    y 0.000000 1.790260 0.000000 
#    z 0.000000 0.000000 1.768860 
# 
# From -- ./inp_files/810.got.cif
#   From: 2010.03.12/outbox.cif.g09.slc.cpg/sg113_cif.got.tgz:810.got - 2010.04.14 02:06:34.
