data_PCOD8308471
_publ_section_title
;
Structure prediction by ZEFSAII (Michael W. Deem and Ramdas Pophale) SiO2 
 PCOD8308471
Probable space group: P -4 2 C
;
_chemical_formula_sum "Si O2"
_cell_formula_units_Z 48
_cell_length_a 17.568754
_cell_length_b 17.568754
_cell_length_c 8.910991
_cell_angle_alpha 90.000000
_cell_angle_beta 90.000000
_cell_angle_gamma 90.000000
_cell_volume 2750.476437
_symmetry_space_group_name_H-M "P -4 2 C"
_symmetry_group_IT_number 112
_symmetry_cell_setting 'tetragonal'
loop_
_space_group_symop_operation_xyz
x,y,z
y,-x,-z
-x,-y,z
-y,x,-z
x,-y,1/2-z
-x,y,1/2-z
-y,-x,1/2+z
y,x,1/2+z
loop_
_atom_site_type_symbol
_atom_site_label
_atom_site_fract_x
_atom_site_fract_y
_atom_site_fract_z
Si Si1 0.587716 0.087347 0.418270
Si Si2 0.914344 0.410851 0.569957
Si Si3 0.166212 0.054218 0.623245
Si Si4 0.052275 0.176398 0.621732
Si Si5 0.281241 0.827485 0.546085
Si Si6 0.715001 0.171865 0.904004
O O1 0.499696 0.101002 0.453745
O O2 0.608571 0.097609 0.244002
O O3 0.631391 0.154591 0.506270
O O4 0.609721 0.001779 0.474013
O O5 0.851293 0.367930 0.466873
O O6 0.104744 0.111419 0.696549
O O7 0.232534 0.102187 0.542843
O O8 0.201186 0.000000 0.750000
O O9 0.131417 0.002555 0.492412
O O10 0.101692 0.236727 0.528698
O O11 0.000000 0.216080 0.750000
O O12 0.277092 0.822188 0.725002
O O13 0.249986 0.747493 0.478290
#
# Coordination Sequence:
#
# PCOD8308471 Si02
#       6
#     8   8   8   8   8   8
#     4   9  19  35  56  83 105 139 171 214 270 319
#     4   9  19  35  57  80 109 136 173 215 265 324
#     4  11  22  37  46  67  90 124 175 219 270 313
#     4  11  24  33  50  66  90 129 170 225 272 318
#     4  11  23  36  53  75 100 137 174 216 267 318
#     4  11  23  36  53  74 102 136 173 219 262 320
#
# _framework density 17.451521
#
# number of rings (size 3 to 8) (size 9 to 14) (size 15 to 20)
#    0.000    1.667    1.667    4.000   11.667    2.667 
#    0.000    1.667    0.000    0.000    0.000    0.000 
#    0.000    0.667    0.000    7.000    0.000    3.000 
#
# Total GULP energy -594768.474453 kJ/mol
# GULP energy per Si atom -12391.009884 kJ/mol
# Density = 1.741180 g / cm^3
# Si number density = 17.451521 Si / 1000 Ang^3
#
#
#
# Elastic Constant Matrix: (Units=GPa)
#
#
# Indices 1 2 3 4 5 6 
#
# 1 77.1721 37.1804 36.8075 0.0000 0.0000 0.0000
# 2 37.1804 77.1721 36.8075 0.0000 0.0000 0.0000
# 3 36.8075 36.8075 93.2149 0.0000 0.0000 0.0000
# 4 0.0000 0.0000 0.0000 27.9719 0.0000 0.0000
# 5 0.0000 0.0000 0.0000 0.0000 27.9719 0.0000
# 6 0.0000 0.0000 0.0000 0.0000 0.0000 28.1513
#
#
#
# Elastic Compliance Matrix: (Units=1/GPa)
#
#
# Indices 1 2 3 4 5 6 
#
# 1 0.018365 -0.006640 -0.004630 0.000000 0.000000 0.000000
# 2 -0.006640 0.018365 -0.004630 0.000000 0.000000 0.000000
# 3 -0.004630 -0.004630 0.014384 0.000000 0.000000 0.000000
# 4 0.000000 0.000000 0.000000 0.035750 0.000000 0.000000
# 5 0.000000 0.000000 0.000000 0.000000 0.035750 0.000000
# 6 0.000000 0.000000 0.000000 0.000000 0.000000 0.035522
#
#
# Mechanical properties :
#
#
# Convention : Reuss Voigt Hill
#
# Bulk Modulus (GPa) = 51.77240 52.12775 51.95007
# Shear Modulus (GPa) = 25.46137 25.93660 25.69899
#
# Velocity S-wave (km/s) = 3.82380 3.85932 3.84160
# Velocity P-wave (km/s) = 7.01613 7.05649 7.03634
#
# Compressibility (1/GPa) = 0.01931531
#
# Stress axis : x y z
#
# Youngs Moduli (GPa) = 54.45035 54.45035 69.51994
#
# Poissons Ratio (x) = 0.36154 0.32188
# Poissons Ratio (y) = 0.36154 0.32188
# Poissons Ratio (z) = 0.25211 0.25211
#
# Static dielectric constant tensor:
#      x y z
#    x 3.121010 0.000000 0.000000 
#    y 0.000000 3.121010 0.000000 
#    z 0.000000 0.000000 3.277180 
# 
# 
# High freq. dielectric constant tensor:
#      x y z
#    x 1.647950 0.000000 0.000000 
#    y 0.000000 1.647950 0.000000 
#    z 0.000000 0.000000 1.685060 
# 
# From -- ./inp_files/1439.got.cif
#   From: 2010.03.12/outbox.cif.g09.slc.cpg/sg112_1_cif.got.tgz:1439.got - 2010.04.14 02:02:48.
