data_PCOD8308790
_publ_section_title
;
Structure prediction by ZEFSAII (Michael W. Deem and Ramdas Pophale) SiO2 
 PCOD8308790
Probable space group: P -4 21 M 
;
_chemical_formula_sum "Si O2"
_cell_formula_units_Z 40
_cell_length_a 13.665341
_cell_length_b 13.665341
_cell_length_c 12.827682
_cell_angle_alpha 90.000000
_cell_angle_beta 90.000000
_cell_angle_gamma 90.000000
_cell_volume 2395.461151
_symmetry_space_group_name_H-M "P -4 21 M "
_symmetry_group_IT_number 113
_symmetry_cell_setting 'tetragonal'
loop_
_space_group_symop_operation_xyz
x,y,z
y,-x,-z
-x,-y,z
-y,x,-z
1/2+x,1/2-y,-z
1/2-x,1/2+y,-z
1/2-y,1/2-x,z
1/2+y,1/2+x,z
loop_
_atom_site_type_symbol
_atom_site_label
_atom_site_fract_x
_atom_site_fract_y
_atom_site_fract_z
Si Si1 0.340061 0.000000 1.000000
Si Si2 0.505289 0.659327 0.614106
Si Si3 0.750149 0.589530 0.197095
Si Si4 0.750147 0.410469 0.802907
Si Si5 0.494712 0.659327 0.385893
O O1 0.406680 0.906680 0.028163
O O2 0.270092 0.977652 0.902812
O O3 0.406679 0.093322 0.971837
O O4 0.270090 0.022348 0.097187
O O5 0.481681 0.737468 0.703866
O O6 0.500001 0.710857 0.500000
O O7 0.612268 0.612268 0.634807
O O8 0.425848 0.574153 0.614539
O O9 0.842110 0.657891 0.222108
O O10 0.653319 0.653317 0.175084
O O11 0.842108 0.342108 0.777895
O O12 0.737467 0.481679 0.703867
#
# Coordination Sequence:
#
# PCOD8308790 Si02
#       5
#     8   8   8   8   8
#     4   9  18  32  46  59  82 116 144 167 206 256
#     4   8  14  26  44  64  86 112 139 167 204 250
#     4   9  17  29  45  64  85 109 139 175 210 243
#     4   9  17  29  45  64  85 109 139 175 210 243
#     4   8  14  26  44  64  86 112 139 167 204 250
#
# _framework density 16.698245
#
# number of rings (size 3 to 8) (size 9 to 14) (size 15 to 20)
#    0.000    3.400    0.000    1.200    0.000    1.600 
#    0.000    2.000    0.000    2.400    0.000    0.000 
#    0.000    0.000    0.000    0.000    0.000    0.000 
#
# Total GULP energy -495853.222642 kJ/mol
# GULP energy per Si atom -12396.330566 kJ/mol
# Density = 1.666024 g / cm^3
# Si number density = 16.698245 Si / 1000 Ang^3
#
#
#
# Elastic Constant Matrix: (Units=GPa)
#
#
# Indices 1 2 3 4 5 6 
#
# 1 57.0581 27.6978 71.4405 0.0000 0.0000 0.0000
# 2 27.6978 57.0580 71.4404 0.0000 0.0000 0.0000
# 3 71.4405 71.4404 191.2280 0.0000 0.0000 0.0000
# 4 0.0000 0.0000 0.0000 13.4799 0.0000 0.0000
# 5 0.0000 0.0000 0.0000 0.0000 13.4783 0.0000
# 6 0.0000 0.0000 0.0000 0.0000 0.0000 11.6025
#
#
#
# Elastic Compliance Matrix: (Units=1/GPa)
#
#
# Indices 1 2 3 4 5 6 
#
# 1 0.032965 -0.001095 -0.011906 0.000000 0.000000 0.000000
# 2 -0.001095 0.032965 -0.011906 0.000000 0.000000 0.000000
# 3 -0.011906 -0.011906 0.014126 0.000000 0.000000 0.000000
# 4 0.000000 0.000000 0.000000 0.074185 0.000000 0.000000
# 5 0.000000 0.000000 0.000000 0.000000 0.074193 0.000000
# 6 0.000000 0.000000 0.000000 0.000000 0.000000 0.086189
#
#
# Mechanical properties :
#
#
# Convention : Reuss Voigt Hill
#
# Bulk Modulus (GPa) = 33.06808 71.83351 52.45080
# Shear Modulus (GPa) = 13.35054 16.69649 15.02352
#
# Velocity S-wave (km/s) = 2.83064 3.16554 3.00276
# Velocity P-wave (km/s) = 5.52537 7.51484 6.59555
#
# Compressibility (1/GPa) = 0.03024064
#
# Stress axis : x y z
#
# Youngs Moduli (GPa) = 30.33523 30.33523 70.79394
#
# Poissons Ratio (x) = 0.03321 0.84290
# Poissons Ratio (y) = 0.03321 0.84290
# Poissons Ratio (z) = 0.36118 0.36118
#
# Static dielectric constant tensor:
#      x y z
#    x 3.024710 0.000000 0.000000 
#    y 0.000000 3.024710 0.000000 
#    z 0.000000 0.000000 3.443840 
# 
# 
# High freq. dielectric constant tensor:
#      x y z
#    x 1.620400 0.000000 0.000000 
#    y 0.000000 1.620400 0.000000 
#    z 0.000000 0.000000 1.653160 
# 
# From -- ./inp_files/1027.got.cif
#   From: 2010.03.12/outbox.cif.g09.slc.cpg/sg113_cif.got.tgz:1027.got - 2010.04.14 02:06:34.
