data_PCOD8308204
_publ_section_title
;
Structure prediction by ZEFSAII (Michael W. Deem and Ramdas Pophale) SiO2 
 PCOD8308204
Probable space group: P -4 2 M 
;
_chemical_formula_sum "Si O2"
_cell_formula_units_Z 48
_cell_length_a 11.727693
_cell_length_b 11.727693
_cell_length_c 18.114842
_cell_angle_alpha 90.000000
_cell_angle_beta 90.000000
_cell_angle_gamma 90.000000
_cell_volume 2491.493325
_symmetry_space_group_name_H-M "P -4 2 M "
_symmetry_group_IT_number 111
_symmetry_cell_setting 'tetragonal'
loop_
_space_group_symop_operation_xyz
x,y,z
y,-x,-z
-x,-y,z
-y,x,-z
x,-y,-z
-x,y,-z
-y,-x,z
y,x,z
loop_
_atom_site_type_symbol
_atom_site_label
_atom_site_fract_x
_atom_site_fract_y
_atom_site_fract_z
Si Si1 0.618104 0.203856 0.686078
Si Si2 0.715349 0.896629 0.859912
Si Si3 0.332687 0.152460 0.153531
Si Si4 0.172192 0.644479 0.301513
Si Si5 0.548120 0.270644 0.080518
Si Si6 0.011783 0.634996 0.581797
O O1 0.668814 0.331186 0.683359
O O2 0.662403 0.137402 0.758513
O O3 0.483588 0.211282 0.685690
O O4 0.665094 0.135183 0.615208
O O5 0.846989 0.846989 0.860072
O O6 0.659714 0.878528 0.779813
O O7 0.644932 0.826560 0.921283
O O8 0.695821 0.028754 0.881582
O O9 0.227556 0.227556 0.126762
O O10 0.447208 0.221105 0.131125
O O11 0.285449 0.714552 0.312682
O O12 0.082695 0.685681 0.363149
O O13 0.610881 0.389120 0.108952
O O14 0.500000 0.294558 0.000000
O O15 0.000000 0.500000 0.578534
O O16 0.000000 0.688792 0.500000
#
# Coordination Sequence:
#
# PCOD8308204 Si02
#       6
#     8   8   8   8   8   8
#     4  10  20  33  53  83 117 149 189 240 293 353
#     4  10  21  38  60  85 115 157 206 247 291 350
#     4  11  22  36  59  87 118 159 197 242 303 355
#     4  10  19  34  56  82 113 152 194 237 287 351
#     4  11  24  41  62  89 122 158 194 239 292 357
#     4   9  18  33  55  79 107 151 195 234 284 340
#
# _framework density 19.265554999999999
#
# number of rings (size 3 to 8) (size 9 to 14) (size 15 to 20)
#    0.000    1.833    3.333    1.000    0.000    3.833 
#    0.000    1.667    0.000    0.500    0.000    8.167 
#    0.000    0.000    0.000    0.000    0.000    0.000 
#
# Total GULP energy -594734.602989 kJ/mol
# GULP energy per Si atom -12390.304229 kJ/mol
# Density = 1.922171 g / cm^3
# Si number density = 19.265555 Si / 1000 Ang^3
#
#
#
# Elastic Constant Matrix: (Units=GPa)
#
#
# Indices 1 2 3 4 5 6 
#
# 1 105.7385 78.7416 25.4704 0.0000 0.0000 0.0000
# 2 78.7416 105.7371 25.4708 0.0000 0.0000 0.0000
# 3 25.4704 25.4708 55.8070 0.0000 0.0000 0.0000
# 4 0.0000 0.0000 0.0000 21.1549 0.0000 0.0000
# 5 0.0000 0.0000 0.0000 0.0000 21.1553 0.0000
# 6 0.0000 0.0000 0.0000 0.0000 0.0000 11.3566
#
#
#
# Elastic Compliance Matrix: (Units=1/GPa)
#
#
# Indices 1 2 3 4 5 6 
#
# 1 0.021622 -0.015420 -0.002831 0.000000 0.000000 0.000000
# 2 -0.015420 0.021623 -0.002831 0.000000 0.000000 0.000000
# 3 -0.002831 -0.002831 0.020503 0.000000 0.000000 0.000000
# 4 0.000000 0.000000 0.000000 0.047270 0.000000 0.000000
# 5 0.000000 0.000000 0.000000 0.000000 0.047270 0.000000
# 6 0.000000 0.000000 0.000000 0.000000 0.000000 0.088054
#
#
# Mechanical properties :
#
#
# Convention : Reuss Voigt Hill
#
# Bulk Modulus (GPa) = 46.32969 58.51647 52.42308
# Shear Modulus (GPa) = 16.90904 19.90666 18.40785
#
# Velocity S-wave (km/s) = 2.96578 3.21795 3.09444
# Velocity P-wave (km/s) = 5.98565 6.65180 6.32750
#
# Compressibility (1/GPa) = 0.02158443
#
# Stress axis : x y z
#
# Youngs Moduli (GPa) = 46.24889 46.24803 48.77363
#
# Poissons Ratio (x) = 0.71314 0.13806
# Poissons Ratio (y) = 0.71316 0.13808
# Poissons Ratio (z) = 0.13091 0.13093
#
# Static dielectric constant tensor:
#      x y z
#    x 3.515940 0.000000 0.000000 
#    y 0.000000 3.515940 0.000000 
#    z 0.000000 0.000000 3.701910 
# 
# 
# High freq. dielectric constant tensor:
#      x y z
#    x 1.742560 0.000000 0.000000 
#    y 0.000000 1.742560 0.000000 
#    z 0.000000 0.000000 1.742220 
# 
# From -- ./inp_files/3651.got.cif
#   From: 2010.03.12/outbox.cif.g09.slc.cpg/sg111_2_cif.got.tgz:3651.got - 2010.04.14 01:59:48.
