data_PCOD8308288
_publ_section_title
;
Structure prediction by ZEFSAII (Michael W. Deem and Ramdas Pophale) SiO2 
 PCOD8308288
Probable space group: P -4 2 M 
;
_chemical_formula_sum "Si O2"
_cell_formula_units_Z 48
_cell_length_a 23.889514
_cell_length_b 23.889514
_cell_length_c 7.702586
_cell_angle_alpha 90.000000
_cell_angle_beta 90.000000
_cell_angle_gamma 90.000000
_cell_volume 4395.934223
_symmetry_space_group_name_H-M "P -4 2 M "
_symmetry_group_IT_number 111
_symmetry_cell_setting 'tetragonal'
loop_
_space_group_symop_operation_xyz
x,y,z
y,-x,-z
-x,-y,z
-y,x,-z
x,-y,-z
-x,y,-z
-y,-x,z
y,x,z
loop_
_atom_site_type_symbol
_atom_site_label
_atom_site_fract_x
_atom_site_fract_y
_atom_site_fract_z
Si Si1 0.655429 0.564469 0.196826
Si Si2 0.937404 0.433452 0.807200
Si Si3 0.566203 0.735710 0.500000
Si Si4 0.564469 0.344571 0.196826
Si Si5 0.062596 0.433452 0.807200
Si Si6 0.432998 0.139141 0.500000
O O1 0.598951 0.598951 0.229652
O O2 0.703460 0.586364 0.326916
O O3 0.640410 0.500000 0.235063
O O4 0.677538 0.572424 1.000000
O O5 0.936943 0.500000 0.801353
O O6 0.892944 0.409490 0.669505
O O7 0.000000 0.412302 0.760299
O O8 0.920419 0.412657 1.000000
O O9 0.500000 0.740724 0.500000
O O10 0.586364 0.703460 0.673084
O O11 0.591928 0.798081 0.500000
O O12 0.598951 0.401049 0.229653
O O13 0.107056 0.409490 0.669505
O O14 0.500000 0.139702 0.500000
#
# Coordination Sequence:
#
# PCOD8308288 Si02
#       6
#     8   8   8   8   8   8
#     4   9  17  28  40  51  61  72  86 107 136 170
#     4   8  13  20  29  41  56  73  93 114 130 142
#     4   9  17  26  34  46  62  76  89 105 127 158
#     4   9  17  28  40  51  61  72  86 107 136 170
#     4   8  13  20  29  41  56  73  93 114 130 142
#     4   9  15  21  30  42  56  75  93 107 125 149
#
# _framework density 10.919181
#
# number of rings (size 3 to 8) (size 9 to 14) (size 15 to 20)
#    0.000    3.333    0.000    2.000    0.000    3.667 
#    0.000    8.333    0.000    3.000    0.000    0.000 
#    0.000    0.000    0.000    0.000    0.000    0.000 
#
# Total GULP energy -594873.209197 kJ/mol
# GULP energy per Si atom -12393.191858 kJ/mol
# Density = 1.089433 g / cm^3
# Si number density = 10.919181 Si / 1000 Ang^3
#
#
#
# Elastic Constant Matrix: (Units=GPa)
#
#
# Indices 1 2 3 4 5 6 
#
# 1 50.2571 19.0323 40.0901 0.0000 0.0000 0.0000
# 2 19.0323 50.2571 40.0901 0.0000 0.0000 0.0000
# 3 40.0901 40.0901 99.4738 0.0000 0.0000 0.0000
# 4 0.0000 0.0000 0.0000 11.4698 0.0000 0.0000
# 5 0.0000 0.0000 0.0000 0.0000 11.4698 0.0000
# 6 0.0000 0.0000 0.0000 0.0000 0.0000 0.4703
#
#
#
# Elastic Compliance Matrix: (Units=1/GPa)
#
#
# Indices 1 2 3 4 5 6 
#
# 1 0.029536 -0.002490 -0.010900 0.000000 0.000000 0.000000
# 2 -0.002490 0.029536 -0.010900 0.000000 0.000000 0.000000
# 3 -0.010900 -0.010900 0.018839 0.000000 0.000000 0.000000
# 4 0.000000 0.000000 0.000000 0.087185 0.000000 0.000000
# 5 0.000000 0.000000 0.000000 0.000000 0.087185 0.000000
# 6 0.000000 0.000000 0.000000 0.000000 0.000000 2.126204
#
#
# Mechanical properties :
#
#
# Convention : Reuss Voigt Hill
#
# Bulk Modulus (GPa) = 34.09495 44.26813 39.18154
# Shear Modulus (GPa) = 2.05184 11.40033 6.72608
#
# Velocity S-wave (km/s) = 1.37229 3.23470 2.48460
# Velocity P-wave (km/s) = 5.81408 7.38788 6.64772
#
# Compressibility (1/GPa) = 0.02932986
#
# Stress axis : x y z
#
# Youngs Moduli (GPa) = 33.85743 33.85743 53.08225
#
# Poissons Ratio (x) = 0.08431 0.57859
# Poissons Ratio (y) = 0.08431 0.57859
# Poissons Ratio (z) = 0.36904 0.36904
#
# Static dielectric constant tensor:
#      x y z
#    x 2.154180 0.000000 0.000000 
#    y 0.000000 2.154180 0.000000 
#    z 0.000000 0.000000 2.650200 
# 
# 
# High freq. dielectric constant tensor:
#      x y z
#    x 1.368820 0.000000 0.000000 
#    y 0.000000 1.368820 0.000000 
#    z 0.000000 0.000000 1.434680 
# 
# From -- ./inp_files/1868.got.cif
#   From: 2010.03.12/outbox.cif.g09.slc.cpg/sg111_1_cif.got.tgz:1868.got - 2010.04.14 01:59:48.
