data_PCOD8308257
_publ_section_title
;
Structure prediction by ZEFSAII (Michael W. Deem and Ramdas Pophale) SiO2 
 PCOD8308257
Probable space group: P -4 2 M 
;
_chemical_formula_sum "Si O2"
_cell_formula_units_Z 56
_cell_length_a 13.978124
_cell_length_b 13.978124
_cell_length_c 13.512918
_cell_angle_alpha 90.000000
_cell_angle_beta 90.000000
_cell_angle_gamma 90.000000
_cell_volume 2640.261354
_symmetry_space_group_name_H-M "P -4 2 M "
_symmetry_group_IT_number 111
_symmetry_cell_setting 'tetragonal'
loop_
_space_group_symop_operation_xyz
x,y,z
y,-x,-z
-x,-y,z
-y,x,-z
x,-y,-z
-x,y,-z
-y,-x,z
y,x,z
loop_
_atom_site_type_symbol
_atom_site_label
_atom_site_fract_x
_atom_site_fract_y
_atom_site_fract_z
Si Si1 0.808945 0.047808 0.091704
Si Si2 0.248360 0.402102 0.125200
Si Si3 0.616877 0.105026 0.040021
Si Si4 0.243284 0.596253 0.212049
Si Si5 0.890005 0.737112 0.233269
Si Si6 0.898728 0.260378 0.543480
Si Si7 0.241936 0.600117 0.445124
O O1 0.883494 0.116507 0.150178
O O2 0.731411 0.109460 0.029331
O O3 0.747365 0.984587 0.167077
O O4 0.866137 0.000000 0.000000
O O5 0.337364 0.337364 0.091475
O O6 0.292064 0.496934 0.176552
O O7 0.179861 0.347109 0.201144
O O8 0.183816 0.430538 0.031175
O O9 0.598831 0.140092 0.154161
O O10 0.580050 0.000000 0.000000
O O11 0.313323 0.686678 0.187587
O O12 0.224043 0.588559 0.328463
O O13 0.839902 0.839902 0.226906
O O14 0.918844 0.711205 0.343804
O O15 0.830592 0.169408 0.532630
O O16 0.853181 0.351325 0.488720
O O17 0.000000 0.231070 0.500000
O O18 0.259839 0.500000 0.500000
O O19 0.334871 0.665130 0.466349
#
# Coordination Sequence:
#
# PCOD8308257 Si02
#       7
#     8   8   8   8   8   8   8
#     4  11  21  35  58  88 126 167 214 267 320 378
#     4  11  22  41  65  90 132 174 210 263 329 402
#     4  11  23  41  62  92 130 174 217 259 312 388
#     4  11  25  42  67 100 130 166 222 281 339 400
#     4  10  21  38  58  88 122 164 214 264 325 390
#     4  10  23  41  62  88 126 170 218 271 329 390
#     4  10  23  45  70  99 130 168 218 280 348 408
#
# _framework density 21.210023
#
# number of rings (size 3 to 8) (size 9 to 14) (size 15 to 20)
#    0.000    1.429    2.857    3.000    2.000    5.286 
#    0.000    4.286    0.000    1.714    0.000    0.000 
#    0.000    0.000    0.000    0.000    0.000    0.000 
#
# Total GULP energy -693816.350533 kJ/mol
# GULP energy per Si atom -12389.577688 kJ/mol
# Density = 2.116175 g / cm^3
# Si number density = 21.210023 Si / 1000 Ang^3
#
#
#
# Elastic Constant Matrix: (Units=GPa)
#
#
# Indices 1 2 3 4 5 6 
#
# 1 107.8503 42.8362 54.3910 0.0000 0.0000 0.0000
# 2 42.8362 107.8470 54.3895 0.0000 0.0000 0.0000
# 3 54.3910 54.3895 153.6709 0.0000 0.0000 0.0000
# 4 0.0000 0.0000 0.0000 32.8031 0.0000 0.0000
# 5 0.0000 0.0000 0.0000 0.0000 32.8028 0.0000
# 6 0.0000 0.0000 0.0000 0.0000 0.0000 -188.1183
#
#
#
# Elastic Compliance Matrix: (Units=1/GPa)
#
#
# Indices 1 2 3 4 5 6 
#
# 1 0.012148 -0.003234 -0.003155 0.000000 0.000000 0.000000
# 2 -0.003234 0.012148 -0.003155 0.000000 0.000000 0.000000
# 3 -0.003155 -0.003155 0.008741 0.000000 0.000000 0.000000
# 4 0.000000 0.000000 0.000000 0.030485 0.000000 0.000000
# 5 0.000000 0.000000 0.000000 0.000000 0.030485 0.000000
# 6 0.000000 0.000000 0.000000 0.000000 0.000000 -0.005316
#
#
# Mechanical properties :
#
#
# Convention : Reuss Voigt Hill
#
# Bulk Modulus (GPa) = 71.69122 74.73350 73.21236
# Shear Modulus (GPa) = 44.47286 -9.98572 17.24357
#
# Velocity S-wave (km/s) = 4.58403 -2.17215 2.85439
# Velocity P-wave (km/s) = 7.86714 5.38707 6.74212
#
# Compressibility (1/GPa) = 0.01394871
#
# Stress axis : x y z
#
# Youngs Moduli (GPa) = 82.32017 82.31814 114.40617
#
# Poissons Ratio (x) = 0.26620 0.36096
# Poissons Ratio (y) = 0.26621 0.36095
# Poissons Ratio (z) = 0.25972 0.25971
#
# Static dielectric constant tensor:
#      x y z
#    x 3.870620 0.000000 0.000000 
#    y 0.000000 3.870620 0.000000 
#    z 0.000000 0.000000 4.030030 
# 
# 
# High freq. dielectric constant tensor:
#      x y z
#    x 1.833440 0.000000 0.000000 
#    y 0.000000 1.833440 0.000000 
#    z 0.000000 0.000000 1.836010 
# 
# From -- ./inp_files/2797.got.cif
#   From: 2010.03.12/outbox.cif.g09.slc.cpg/sg111_2_cif.got.tgz:2797.got - 2010.04.14 01:59:48.
