data_PCOD8308368
_publ_section_title
;
Structure prediction by ZEFSAII (Michael W. Deem and Ramdas Pophale) SiO2 
 PCOD8308368
Probable space group: P -4 2 C
;
_chemical_formula_sum "Si O2"
_cell_formula_units_Z 46
_cell_length_a 12.242898
_cell_length_b 12.242898
_cell_length_c 15.411541
_cell_angle_alpha 90.000000
_cell_angle_beta 90.000000
_cell_angle_gamma 90.000000
_cell_volume 2310.013556
_symmetry_space_group_name_H-M "P -4 2 C"
_symmetry_group_IT_number 112
_symmetry_cell_setting 'tetragonal'
loop_
_space_group_symop_operation_xyz
x,y,z
y,-x,-z
-x,-y,z
-y,x,-z
x,-y,1/2-z
-x,y,1/2-z
-y,-x,1/2+z
y,x,1/2+z
loop_
_atom_site_type_symbol
_atom_site_label
_atom_site_fract_x
_atom_site_fract_y
_atom_site_fract_z
Si Si1 0.370871 0.370459 0.618139
Si Si2 0.500000 0.000000 0.750000
Si Si3 0.824723 0.957914 0.491860
Si Si4 0.483278 0.150984 0.071770
Si Si5 0.500000 0.500000 0.000000
Si Si6 0.664662 0.028297 0.150281
Si Si7 0.500000 0.500000 0.250000
Si Si8 0.378115 0.877464 0.901867
O O1 0.272722 0.443327 0.581965
O O2 0.472911 0.391487 0.554352
O O3 0.414114 0.417646 0.707385
O O4 0.339310 0.244377 0.622380
O O5 0.422506 0.928678 0.812623
O O6 0.778889 0.940236 0.394351
O O7 0.729212 0.940338 0.563234
O O8 0.919536 0.869295 0.501479
O O9 0.580273 0.129339 0.141839
O O10 0.382993 0.071540 0.093680
O O11 0.526409 0.125455 0.974418
O O12 0.684471 0.000000 0.250000
#
# Coordination Sequence:
#
# PCOD8308368 Si02
#       8
#     8   2   8   8   2   8   2   8
#     4  11  21  40  60  92 130 171 205 258 319 384
#     4  12  26  44  64  96 138 160 226 272 324 424
#     4  10  22  45  66  90 127 168 221 270 329 390
#     4  10  20  37  67  88 130 164 220 254 323 386
#     4  10  20  38  60  90 124 166 216 242 296 390
#     4  10  21  38  63  97 121 161 213 272 315 380
#     4  10  26  34  56  98 140 162 206 270 316 378
#     4  11  23  42  66  93 126 183 212 270 331 393
#
# _framework density 19.913305000000001
#
# number of rings (size 3 to 8) (size 9 to 14) (size 15 to 20)
#    0.000    1.565    1.739    4.696    2.435    0.000 
#    6.261    0.870    0.000    0.000    0.000    0.000 
#    0.000    0.000    0.000    0.000    0.000    0.000 
#
# Total GULP energy -570069.768281 kJ/mol
# GULP energy per Si atom -12392.821050 kJ/mol
# Density = 1.986798 g / cm^3
# Si number density = 19.913305 Si / 1000 Ang^3
#
#
#
# Elastic Constant Matrix: (Units=GPa)
#
#
# Indices 1 2 3 4 5 6 
#
# 1 106.6408 47.0067 52.9986 0.0000 0.0000 0.0000
# 2 47.0067 106.6408 52.9986 0.0000 0.0000 0.0000
# 3 52.9986 52.9986 138.9469 0.0000 0.0000 0.0000
# 4 0.0000 0.0000 0.0000 -139.3527 0.0000 0.0000
# 5 0.0000 0.0000 0.0000 0.0000 -139.3527 0.0000
# 6 0.0000 0.0000 0.0000 0.0000 0.0000 17.3260
#
#
#
# Elastic Compliance Matrix: (Units=1/GPa)
#
#
# Indices 1 2 3 4 5 6 
#
# 1 0.012801 -0.003968 -0.003369 0.000000 0.000000 0.000000
# 2 -0.003968 0.012801 -0.003369 0.000000 0.000000 0.000000
# 3 -0.003369 -0.003369 0.009767 0.000000 0.000000 0.000000
# 4 0.000000 0.000000 0.000000 -0.007176 0.000000 0.000000
# 5 0.000000 0.000000 0.000000 0.000000 -0.007176 0.000000
# 6 0.000000 0.000000 0.000000 0.000000 0.000000 0.057717
#
#
# Mechanical properties :
#
#
# Convention : Reuss Voigt Hill
#
# Bulk Modulus (GPa) = 71.65274 73.13735 72.39505
# Shear Modulus (GPa) = 47.71095 -38.99422 4.35836
#
# Velocity S-wave (km/s) = 4.90014 -4.42996 1.48102
# Velocity P-wave (km/s) = 8.25079 3.26215 6.27364
#
# Compressibility (1/GPa) = 0.01395620
#
# Stress axis : x y z
#
# Youngs Moduli (GPa) = 78.12035 78.12035 102.38461
#
# Poissons Ratio (x) = 0.30999 0.34494
# Poissons Ratio (y) = 0.30999 0.34494
# Poissons Ratio (z) = 0.26319 0.26319
#
# Static dielectric constant tensor:
#      x y z
#    x 4.925690 0.000000 0.000000 
#    y 0.000000 4.925690 0.000000 
#    z 0.000000 0.000000 3.619650 
# 
# 
# High freq. dielectric constant tensor:
#      x y z
#    x 1.780440 0.000000 0.000000 
#    y 0.000000 1.780440 0.000000 
#    z 0.000000 0.000000 1.774680 
# 
# From -- ./inp_files/4189.got.cif
#   From: 2010.03.12/outbox.cif.g09.slc.cpg/sg112_3_cif.got.tgz:4189.got - 2010.04.14 02:02:48.
