data_PCOD8308159
_publ_section_title
;
Structure prediction by ZEFSAII (Michael W. Deem and Ramdas Pophale) SiO2 
 PCOD8308159
Probable space group: P -4 2 M 
;
_chemical_formula_sum "Si O2"
_cell_formula_units_Z 40
_cell_length_a 20.832883
_cell_length_b 20.832883
_cell_length_c 5.057341
_cell_angle_alpha 90.000000
_cell_angle_beta 90.000000
_cell_angle_gamma 90.000000
_cell_volume 2194.931581
_symmetry_space_group_name_H-M "P -4 2 M "
_symmetry_group_IT_number 111
_symmetry_cell_setting 'tetragonal'
loop_
_space_group_symop_operation_xyz
x,y,z
y,-x,-z
-x,-y,z
-y,x,-z
x,-y,-z
-x,y,-z
-y,-x,z
y,x,z
loop_
_atom_site_type_symbol
_atom_site_label
_atom_site_fract_x
_atom_site_fract_y
_atom_site_fract_z
Si Si1 0.303169 0.799584 0.348062
Si Si2 0.574767 0.069841 0.027712
Si Si3 0.856699 0.754629 0.134096
Si Si4 0.148285 0.042115 0.241260
Si Si5 0.849374 0.573911 0.476692
O O1 0.270807 0.729194 0.303712
O O2 0.266761 0.838012 0.574631
O O3 0.377781 0.791106 0.440646
O O4 0.300935 0.845246 0.085809
O O5 0.594799 0.122654 0.807713
O O6 0.500000 0.059035 0.000000
O O7 0.588967 0.093468 0.321438
O O8 0.609179 0.000000 0.000000
O O9 0.811368 0.811368 0.028456
O O10 0.928592 0.782868 0.149005
O O11 0.097933 0.097933 0.312580
O O12 0.159213 0.000000 0.500000
O O13 0.120957 0.000000 0.000000
O O14 0.825203 0.500000 0.500000
#
# Coordination Sequence:
#
# PCOD8308159 Si02
#       5
#     8   8   8   8   8
#     4  10  19  34  53  70  92 125 163 197 234 278
#     4   9  17  30  46  64  92 128 157 183 226 281
#     4   9  19  35  52  67  88 122 159 195 235 279
#     4  11  22  36  53  72  96 123 155 201 254 304
#     4  10  19  31  49  73  99 126 156 192 234 279
#
# _framework density 18.223804999999999
#
# number of rings (size 3 to 8) (size 9 to 14) (size 15 to 20)
#    0.000    2.200    0.000    3.600    0.000    6.800 
#    0.000   10.000    0.000    0.000    0.000    0.000 
#    0.000    0.400    0.000    0.000    0.000   31.200 
#
# Total GULP energy -495666.395925 kJ/mol
# GULP energy per Si atom -12391.659898 kJ/mol
# Density = 1.818233 g / cm^3
# Si number density = 18.223805 Si / 1000 Ang^3
#
#
#
# Elastic Constant Matrix: (Units=GPa)
#
#
# Indices 1 2 3 4 5 6 
#
# 1 74.7750 39.4255 22.5844 0.0000 0.0000 0.0000
# 2 39.4255 74.7754 22.5847 0.0000 0.0000 0.0000
# 3 22.5844 22.5847 107.3634 0.0000 0.0000 0.0000
# 4 0.0000 0.0000 0.0000 25.0774 0.0000 0.0000
# 5 0.0000 0.0000 0.0000 0.0000 25.0770 0.0000
# 6 0.0000 0.0000 0.0000 0.0000 0.0000 7.5172
#
#
#
# Elastic Compliance Matrix: (Units=1/GPa)
#
#
# Indices 1 2 3 4 5 6 
#
# 1 0.018920 -0.009369 -0.002009 0.000000 0.000000 0.000000
# 2 -0.009369 0.018920 -0.002009 0.000000 0.000000 0.000000
# 3 -0.002009 -0.002009 0.010159 0.000000 0.000000 0.000000
# 4 0.000000 0.000000 0.000000 0.039876 0.000000 0.000000
# 5 0.000000 0.000000 0.000000 0.000000 0.039877 0.000000
# 6 0.000000 0.000000 0.000000 0.000000 0.000000 0.133028
#
#
# Mechanical properties :
#
#
# Convention : Reuss Voigt Hill
#
# Bulk Modulus (GPa) = 47.11381 47.34477 47.22929
# Shear Modulus (GPa) = 16.97040 23.02227 19.99633
#
# Velocity S-wave (km/s) = 3.05490 3.55816 3.31609
# Velocity P-wave (km/s) = 6.19292 6.55108 6.37452
#
# Compressibility (1/GPa) = 0.02122520
#
# Stress axis : x y z
#
# Youngs Moduli (GPa) = 52.85413 52.85434 98.43066
#
# Poissons Ratio (x) = 0.49518 0.19776
# Poissons Ratio (y) = 0.49518 0.19777
# Poissons Ratio (z) = 0.10619 0.10619
#
# Static dielectric constant tensor:
#      x y z
#    x 3.353190 0.000000 0.000000 
#    y 0.000000 3.353190 0.000000 
#    z 0.000000 0.000000 3.654840 
# 
# 
# High freq. dielectric constant tensor:
#      x y z
#    x 1.677630 0.000000 0.000000 
#    y 0.000000 1.677630 0.000000 
#    z 0.000000 0.000000 1.732140 
# 
# From -- ./inp_files/554.got.cif
#   From: 2010.03.12/outbox.cif.g09.slc.cpg/sg111_1_cif.got.tgz:554.got - 2010.04.14 01:59:48.
