data_PCOD8308040
_publ_section_title
;
Structure prediction by ZEFSAII (Michael W. Deem and Ramdas Pophale) SiO2 
 PCOD8308040
Probable space group: I 41 C D
;
_chemical_formula_sum "Si O2"
_cell_formula_units_Z 88
_cell_length_a 13.898236
_cell_length_b 13.898236
_cell_length_c 21.314727
_cell_angle_alpha 90.000000
_cell_angle_beta 90.000000
_cell_angle_gamma 90.000000
_cell_volume 4117.173213
_symmetry_space_group_name_H-M "I 41 C D"
_symmetry_group_IT_number 110
_symmetry_cell_setting 'tetragonal'
loop_
_space_group_symop_operation_xyz
x,y,z
-y,1/2+x,1/4+z
-x,-y,z
y,1/2-x,1/4+z
-x,y,1/2+z
x,-y,1/2+z
1/2-y,-x,1/4+z
1/2+y,x,1/4+z
1/2+x,1/2+y,1/2+z
1/2-y,x,3/4+z
1/2-x,1/2-y,1/2+z
1/2+y,-x,3/4+z
1/2-x,1/2+y,z
1/2+x,1/2-y,z
-y,1/2-x,3/4+z
y,1/2+x,3/4+z
loop_
_atom_site_type_symbol
_atom_site_label
_atom_site_fract_x
_atom_site_fract_y
_atom_site_fract_z
Si Si1 0.989556 0.272696 0.181990
Si Si2 0.887313 0.165816 0.450522
Si Si3 0.000000 0.000000 0.770587
Si Si4 0.083532 0.617886 0.418575
Si Si5 0.170619 0.951057 0.560473
Si Si6 0.930939 0.861650 0.372660
O O1 0.966250 0.163500 0.163117
O O2 0.976651 0.287201 0.256998
O O3 0.914606 0.335500 0.143151
O O4 0.099739 0.305747 0.165274
O O5 0.869207 0.277040 0.432077
O O6 0.993212 0.134068 0.429288
O O7 0.884069 0.138301 0.525388
O O8 0.020450 0.907314 0.811883
O O9 0.905713 0.983146 0.727998
O O10 0.019342 0.607917 0.355826
O O11 0.253152 0.904424 0.603905
#
# Coordination Sequence:
#
# PCOD8308040 Si02
#       6
#    16  16   8  16  16  16
#     4  10  21  42  68  92 133 180 228 277 344 424
#     4   9  21  45  66  91 136 182 219 286 351 411
#     4  12  20  42  64  92 134 168 224 282 326 404
#     4  11  24  41  68 104 136 176 231 294 337 413
#     4   9  22  44  62  98 135 169 239 269 342 427
#     4  11  20  43  69  90 130 190 214 273 360 409
#
# _framework density 21.373888000000001
#
# number of rings (size 3 to 8) (size 9 to 14) (size 15 to 20)
#    1.091    0.727    3.636    0.000    0.000    2.909 
#   22.909    0.000    0.000    0.000    0.000    0.000 
#    0.000    0.000    0.000    0.000    0.000    0.000 
#
# Total GULP energy -545162.397666 kJ/mol
# GULP energy per Si atom -12390.054492 kJ/mol
# Density = 2.132524 g / cm^3
# Si number density = 21.373888 Si / 1000 Ang^3
#
#
#
# Elastic Constant Matrix: (Units=GPa)
#
#
# Indices 1 2 3 4 5 6 
#
# 1 75.7909 34.1006 28.7008 0.0000 0.0000 0.0000
# 2 34.1006 75.7909 28.7008 0.0000 0.0000 0.0000
# 3 28.7008 28.7008 95.6999 0.0000 0.0000 0.0000
# 4 0.0000 0.0000 0.0000 4.6436 0.0000 0.0000
# 5 0.0000 0.0000 0.0000 0.0000 4.6436 0.0000
# 6 0.0000 0.0000 0.0000 0.0000 0.0000 32.0206
#
#
#
# Elastic Compliance Matrix: (Units=1/GPa)
#
#
# Indices 1 2 3 4 5 6 
#
# 1 0.017388 -0.006598 -0.003236 0.000000 0.000000 0.000000
# 2 -0.006598 0.017388 -0.003236 0.000000 0.000000 0.000000
# 3 -0.003236 -0.003236 0.012390 0.000000 0.000000 0.000000
# 4 0.000000 0.000000 0.000000 0.215352 0.000000 0.000000
# 5 0.000000 0.000000 0.000000 0.000000 0.215352 0.000000
# 6 0.000000 0.000000 0.000000 0.000000 0.000000 0.031230
#
#
# Mechanical properties :
#
#
# Convention : Reuss Voigt Hill
#
# Bulk Modulus (GPa) = 47.55872 47.80958 47.68415
# Shear Modulus (GPa) = 9.22084 18.64685 13.93384
#
# Velocity S-wave (km/s) = 2.07929 2.95687 2.55602
# Velocity P-wave (km/s) = 5.29752 5.83731 5.57395
#
# Compressibility (1/GPa) = 0.02102664
#
# Stress axis : x y z
#
# Youngs Moduli (GPa) = 57.50988 57.50988 80.70809
#
# Poissons Ratio (x) = 0.37946 0.26117
# Poissons Ratio (y) = 0.37946 0.26117
# Poissons Ratio (z) = 0.18610 0.18610
#
# Static dielectric constant tensor:
#      x y z
#    x 3.701220 0.000000 0.000000 
#    y 0.000000 3.701220 0.000000 
#    z 0.000000 0.000000 3.858360 
# 
# 
# High freq. dielectric constant tensor:
#      x y z
#    x 1.827990 0.000000 0.000000 
#    y 0.000000 1.827990 0.000000 
#    z 0.000000 0.000000 1.840530 
# 
# From -- ./inp_files/2161.got.cif
#   From: 2010.03.12/outbox.cif.g09.slc.cpg/sg110_2_cif.got.tgz:2161.got - 2010.04.14 01:58:01.
