data_PCOD8308216
_publ_section_title
;
Structure prediction by ZEFSAII (Michael W. Deem and Ramdas Pophale) SiO2 
 PCOD8308216
Probable space group: P -4 2 M 
;
_chemical_formula_sum "Si O2"
_cell_formula_units_Z 48
_cell_length_a 13.460446
_cell_length_b 13.460446
_cell_length_c 15.657273
_cell_angle_alpha 90.000000
_cell_angle_beta 90.000000
_cell_angle_gamma 90.000000
_cell_volume 2836.841190
_symmetry_space_group_name_H-M "P -4 2 M "
_symmetry_group_IT_number 111
_symmetry_cell_setting 'tetragonal'
loop_
_space_group_symop_operation_xyz
x,y,z
y,-x,-z
-x,-y,z
-y,x,-z
x,-y,-z
-x,y,-z
-y,-x,z
y,x,z
loop_
_atom_site_type_symbol
_atom_site_label
_atom_site_fract_x
_atom_site_fract_y
_atom_site_fract_z
Si Si1 0.382152 0.110990 0.000000
Si Si2 0.729754 0.111999 0.500000
Si Si3 0.223407 0.384255 0.831344
Si Si4 0.719648 0.883870 0.685504
Si Si5 0.883869 0.280354 0.685503
Si Si6 0.384255 0.223408 0.168656
O O1 0.345143 0.168789 0.916315
O O2 0.500000 0.104025 0.000000
O O3 0.345143 0.168789 0.083686
O O4 0.336375 0.000000 0.000000
O O5 0.833208 0.166793 0.500001
O O6 0.673256 0.135553 0.410361
O O7 0.673254 0.135553 0.589637
O O8 0.763801 0.000000 0.500000
O O9 0.327104 0.327104 0.820475
O O10 0.151208 0.364213 0.751413
O O11 0.248709 0.500000 0.836512
O O12 0.820953 0.820953 0.699599
O O13 0.743670 0.000001 0.700031
O O14 0.820950 0.179051 0.699598
O O15 0.848791 0.364215 0.751412
O O16 0.327104 0.327104 0.179525
#
# Coordination Sequence:
#
# PCOD8308216 Si02
#       6
#     8   8   8   8   8   8
#     4   9  17  30  49  71  93 117 145 179 222 273
#     4   8  14  25  41  63  92 122 152 188 229 276
#     4  10  20  33  49  69  93 123 160 200 239 277
#     4   9  17  29  46  69  96 125 156 190 231 281
#     4   9  17  29  46  69  96 125 156 190 231 281
#     4  10  20  33  49  69  93 123 160 200 239 277
#
# _framework density 16.920228000000002
#
# number of rings (size 3 to 8) (size 9 to 14) (size 15 to 20)
#    0.000    2.833    0.000    1.500    0.000    2.833 
#    0.000    4.167    0.000    6.000    0.000    0.000 
#    0.000   18.667    0.000    0.000    0.000    0.000 
#
# Total GULP energy -594749.202242 kJ/mol
# GULP energy per Si atom -12390.608380 kJ/mol
# Density = 1.688172 g / cm^3
# Si number density = 16.920228 Si / 1000 Ang^3
#
#
#
# Elastic Constant Matrix: (Units=GPa)
#
#
# Indices 1 2 3 4 5 6 
#
# 1 70.7199 27.3068 41.9129 0.0000 0.0000 0.0000
# 2 27.3068 70.7202 41.9130 0.0000 0.0000 0.0000
# 3 41.9129 41.9130 155.9068 0.0000 0.0000 0.0000
# 4 0.0000 0.0000 0.0000 24.2389 0.0000 0.0000
# 5 0.0000 0.0000 0.0000 0.0000 24.2387 0.0000
# 6 0.0000 0.0000 0.0000 0.0000 0.0000 11.2691
#
#
#
# Elastic Compliance Matrix: (Units=1/GPa)
#
#
# Indices 1 2 3 4 5 6 
#
# 1 0.018140 -0.004894 -0.003561 0.000000 0.000000 0.000000
# 2 -0.004894 0.018140 -0.003561 0.000000 0.000000 0.000000
# 3 -0.003561 -0.003561 0.008329 0.000000 0.000000 0.000000
# 4 0.000000 0.000000 0.000000 0.041256 0.000000 0.000000
# 5 0.000000 0.000000 0.000000 0.000000 0.041256 0.000000
# 6 0.000000 0.000000 0.000000 0.000000 0.000000 0.088738
#
#
# Mechanical properties :
#
#
# Convention : Reuss Voigt Hill
#
# Bulk Modulus (GPa) = 48.59709 57.73470 53.16590
# Shear Modulus (GPa) = 20.26331 24.36364 22.31348
#
# Velocity S-wave (km/s) = 3.46436 3.79873 3.63539
# Velocity P-wave (km/s) = 6.69224 7.31001 7.00794
#
# Compressibility (1/GPa) = 0.02057736
#
# Stress axis : x y z
#
# Youngs Moduli (GPa) = 55.12528 55.12555 120.06573
#
# Poissons Ratio (x) = 0.26978 0.42757
# Poissons Ratio (y) = 0.26978 0.42756
# Poissons Ratio (z) = 0.19631 0.19631
#
# Static dielectric constant tensor:
#      x y z
#    x 2.922400 0.000000 0.000000 
#    y 0.000000 2.922400 0.000000 
#    z 0.000000 0.000000 3.736940 
# 
# 
# High freq. dielectric constant tensor:
#      x y z
#    x 1.630040 0.000000 0.000000 
#    y 0.000000 1.630040 0.000000 
#    z 0.000000 0.000000 1.680120 
# 
# From -- ./inp_files/3305.got.cif
#   From: 2010.03.12/outbox.cif.g09.slc.cpg/sg111_2_cif.got.tgz:3305.got - 2010.04.14 01:59:48.
