data_PCOD8308647
_publ_section_title
;
Structure prediction by ZEFSAII (Michael W. Deem and Ramdas Pophale) SiO2 
 PCOD8308647
Probable space group: P -4 21 M 
;
_chemical_formula_sum "Si O2"
_cell_formula_units_Z 22
_cell_length_a 8.852697
_cell_length_b 8.852697
_cell_length_c 15.048526
_cell_angle_alpha 90.000000
_cell_angle_beta 90.000000
_cell_angle_gamma 90.000000
_cell_volume 1179.356657
_symmetry_space_group_name_H-M "P -4 21 M "
_symmetry_group_IT_number 113
_symmetry_cell_setting 'tetragonal'
loop_
_space_group_symop_operation_xyz
x,y,z
y,-x,-z
-x,-y,z
-y,x,-z
1/2+x,1/2-y,-z
1/2-x,1/2+y,-z
1/2-y,1/2-x,z
1/2+y,1/2+x,z
loop_
_atom_site_type_symbol
_atom_site_label
_atom_site_fract_x
_atom_site_fract_y
_atom_site_fract_z
Si Si1 0.751057 0.499799 0.644727
Si Si2 0.500000 0.500000 0.789252
Si Si3 0.500000 0.500000 0.500000
Si Si4 0.804379 0.067038 0.949111
O O1 0.853400 0.646601 0.630728
O O2 0.648621 0.524925 0.730955
O O3 0.649026 0.476521 0.558288
O O4 0.851074 0.351074 0.659035
O O5 0.480943 0.649353 0.849679
O O6 0.637308 0.137308 0.947851
O O7 0.924214 0.192013 0.984916
#
# Coordination Sequence:
#
# PCOD8308647 Si02
#       4
#     8   4   2   8
#     4  10  20  34  54  77 101 133 169 204 248 301
#     4   9  19  33  51  74 104 132 165 211 253 293
#     4  10  20  36  54  76 106 132 162 208 252 294
#     4   9  19  34  51  73 101 133 170 211 252 295
#
# _framework density 18.654237999999999
#
# number of rings (size 3 to 8) (size 9 to 14) (size 15 to 20)
#    0.000    2.909    0.000    2.182    0.000    6.545 
#    0.000    0.000    0.000   20.727    0.000    0.000 
#    0.000    0.000    0.000    0.000    0.000    0.000 
#
# Total GULP energy -272776.869661 kJ/mol
# GULP energy per Si atom -12398.948621 kJ/mol
# Density = 1.861178 g / cm^3
# Si number density = 18.654238 Si / 1000 Ang^3
#
#
#
# Elastic Constant Matrix: (Units=GPa)
#
#
# Indices 1 2 3 4 5 6 
#
# 1 84.3832 41.6094 38.7129 0.0000 0.0000 0.0000
# 2 41.6094 84.3823 38.7127 0.0000 0.0000 0.0000
# 3 38.7129 38.7127 120.7090 0.0000 0.0000 0.0000
# 4 0.0000 0.0000 0.0000 12.3078 0.0000 0.0000
# 5 0.0000 0.0000 0.0000 0.0000 12.3087 0.0000
# 6 0.0000 0.0000 0.0000 0.0000 0.0000 41.0371
#
#
#
# Elastic Compliance Matrix: (Units=1/GPa)
#
#
# Indices 1 2 3 4 5 6 
#
# 1 0.016632 -0.006747 -0.003170 0.000000 0.000000 0.000000
# 2 -0.006747 0.016632 -0.003170 0.000000 0.000000 0.000000
# 3 -0.003170 -0.003170 0.010318 0.000000 0.000000 0.000000
# 4 0.000000 0.000000 0.000000 0.081249 0.000000 0.000000
# 5 0.000000 0.000000 0.000000 0.000000 0.081244 0.000000
# 6 0.000000 0.000000 0.000000 0.000000 0.000000 0.024368
#
#
# Mechanical properties :
#
#
# Convention : Reuss Voigt Hill
#
# Bulk Modulus (GPa) = 57.44772 58.61606 58.03189
# Shear Modulus (GPa) = 19.05338 24.49334 21.77336
#
# Velocity S-wave (km/s) = 3.19940 3.62749 3.42015
# Velocity P-wave (km/s) = 6.67167 7.00254 6.83910
#
# Compressibility (1/GPa) = 0.01740713
#
# Stress axis : x y z
#
# Youngs Moduli (GPa) = 60.12482 60.12422 96.91892
#
# Poissons Ratio (x) = 0.40565 0.30726
# Poissons Ratio (y) = 0.40566 0.30726
# Poissons Ratio (z) = 0.19061 0.19061
#
# Static dielectric constant tensor:
#      x y z
#    x 3.321200 0.000000 0.000000 
#    y 0.000000 3.321200 0.000000 
#    z 0.000000 0.000000 3.484460 
# 
# 
# High freq. dielectric constant tensor:
#      x y z
#    x 1.720430 0.000000 0.000000 
#    y 0.000000 1.720430 0.000000 
#    z 0.000000 0.000000 1.732030 
# 
# From -- ./inp_files/2077.got.cif
#   From: 2010.03.12/outbox.cif.g09.slc.cpg/sg113_cif.got.tgz:2077.got - 2010.04.14 02:06:34.
