data_PCOD8308151
_publ_section_title
;
Structure prediction by ZEFSAII (Michael W. Deem and Ramdas Pophale) SiO2 
 PCOD8308151
Probable space group: P -4 2 M 
;
_chemical_formula_sum "Si O2"
_cell_formula_units_Z 56
_cell_length_a 12.539610
_cell_length_b 12.539610
_cell_length_c 21.177700
_cell_angle_alpha 90.000000
_cell_angle_beta 90.000000
_cell_angle_gamma 90.000000
_cell_volume 3330.020069
_symmetry_space_group_name_H-M "P -4 2 M "
_symmetry_group_IT_number 111
_symmetry_cell_setting 'tetragonal'
loop_
_space_group_symop_operation_xyz
x,y,z
y,-x,-z
-x,-y,z
-y,x,-z
x,-y,-z
-x,y,-z
-y,-x,z
y,x,z
loop_
_atom_site_type_symbol
_atom_site_label
_atom_site_fract_x
_atom_site_fract_y
_atom_site_fract_z
Si Si1 0.500001 0.876447 0.340338
Si Si2 0.500000 0.327783 0.425492
Si Si3 0.705592 0.880152 0.256397
Si Si4 0.117445 0.626430 1.000000
Si Si5 0.705591 0.119850 0.256397
Si Si6 0.210351 0.625262 0.867850
Si Si7 0.625260 0.789648 0.867850
O O1 0.500000 0.791058 0.396781
O O2 0.603634 0.853133 0.298668
O O3 0.396368 0.853132 0.298667
O O4 0.500000 0.000000 0.365014
O O5 0.500000 0.312406 0.500000
O O6 0.605277 0.394724 0.404704
O O7 0.394725 0.394725 0.404704
O O8 0.800673 0.800673 0.274903
O O9 0.671924 0.871809 0.183128
O O10 0.746077 0.000001 0.268710
O O11 0.176355 0.665133 0.937078
O O12 0.110414 0.500000 0.000000
O O13 0.176355 0.665132 0.062922
O O14 0.000000 0.676884 0.000000
O O15 0.800671 0.199330 0.274905
O O16 0.671925 0.128195 0.183128
O O17 0.327790 0.672211 0.854056
O O18 0.216620 0.500001 0.861985
O O19 0.672208 0.672208 0.854058
#
# Coordination Sequence:
#
# PCOD8308151 Si02
#       7
#     8   8   8   8   8   8   8
#     4  10  19  32  52  75 103 132 164 205 243 284
#     4   9  18  33  53  77 106 137 166 198 236 282
#     4  10  20  33  50  71  97 129 164 205 249 292
#     4   9  17  28  45  63  81 113 157 203 248 294
#     4  10  20  33  50  71  97 129 164 205 249 292
#     4  10  19  31  46  66  93 123 159 203 249 299
#     4  10  19  31  46  66  93 123 159 203 249 299
#
# _framework density 16.816716
#
# number of rings (size 3 to 8) (size 9 to 14) (size 15 to 20)
#    0.000    2.286    1.429    2.571    0.000    2.000 
#    0.000    0.000    0.000    2.571    0.000    0.000 
#    0.000   10.286    0.000   26.571    0.000    0.000 
#
# Total GULP energy -694176.119297 kJ/mol
# GULP energy per Si atom -12396.002130 kJ/mol
# Density = 1.677844 g / cm^3
# Si number density = 16.816716 Si / 1000 Ang^3
#
#
#
# Elastic Constant Matrix: (Units=GPa)
#
#
# Indices 1 2 3 4 5 6 
#
# 1 108.1712 68.7994 36.8554 0.0000 0.0000 0.0000
# 2 68.7994 108.1727 36.8562 0.0000 0.0000 0.0000
# 3 36.8554 36.8562 66.5015 0.0000 0.0000 0.0000
# 4 0.0000 0.0000 0.0000 23.6986 0.0000 0.0000
# 5 0.0000 0.0000 0.0000 0.0000 23.6983 0.0000
# 6 0.0000 0.0000 0.0000 0.0000 0.0000 21.4615
#
#
#
# Elastic Compliance Matrix: (Units=1/GPa)
#
#
# Indices 1 2 3 4 5 6 
#
# 1 0.016373 -0.009026 -0.004071 0.000000 0.000000 0.000000
# 2 -0.009026 0.016372 -0.004072 0.000000 0.000000 0.000000
# 3 -0.004071 -0.004072 0.019550 0.000000 0.000000 0.000000
# 4 0.000000 0.000000 0.000000 0.042197 0.000000 0.000000
# 5 0.000000 0.000000 0.000000 0.000000 0.042197 0.000000
# 6 0.000000 0.000000 0.000000 0.000000 0.000000 0.046595
#
#
# Mechanical properties :
#
#
# Convention : Reuss Voigt Hill
#
# Bulk Modulus (GPa) = 55.68804 63.09636 59.39220
# Shear Modulus (GPa) = 22.36062 23.12731 22.74396
#
# Velocity S-wave (km/s) = 3.65041 3.71247 3.68157
# Velocity P-wave (km/s) = 7.13820 7.48185 7.31204
#
# Compressibility (1/GPa) = 0.01795718
#
# Stress axis : x y z
#
# Youngs Moduli (GPa) = 61.07802 61.07850 51.15043
#
# Poissons Ratio (x) = 0.55129 0.20825
# Poissons Ratio (y) = 0.55129 0.20826
# Poissons Ratio (z) = 0.24867 0.24869
#
# Static dielectric constant tensor:
#      x y z
#    x 3.102390 0.000000 0.000000 
#    y 0.000000 3.102390 0.000000 
#    z 0.000000 0.000000 3.079280 
# 
# 
# High freq. dielectric constant tensor:
#      x y z
#    x 1.644950 0.000000 0.000000 
#    y 0.000000 1.644950 0.000000 
#    z 0.000000 0.000000 1.639860 
# 
# From -- ./inp_files/3963.got.cif
#   From: 2010.03.12/outbox.cif.g09.slc.cpg/sg111_2_cif.got.tgz:3963.got - 2010.04.14 01:59:48.
