data_PCOD8308160
_publ_section_title
;
Structure prediction by ZEFSAII (Michael W. Deem and Ramdas Pophale) SiO2 
 PCOD8308160
Probable space group: P -4 2 M 
;
_chemical_formula_sum "Si O2"
_cell_formula_units_Z 64
_cell_length_a 12.099903
_cell_length_b 12.099903
_cell_length_c 26.344159
_cell_angle_alpha 90.000000
_cell_angle_beta 90.000000
_cell_angle_gamma 90.000000
_cell_volume 3856.986479
_symmetry_space_group_name_H-M "P -4 2 M "
_symmetry_group_IT_number 111
_symmetry_cell_setting 'tetragonal'
loop_
_space_group_symop_operation_xyz
x,y,z
y,-x,-z
-x,-y,z
-y,x,-z
x,-y,-z
-x,y,-z
-y,-x,z
y,x,z
loop_
_atom_site_type_symbol
_atom_site_label
_atom_site_fract_x
_atom_site_fract_y
_atom_site_fract_z
Si Si1 0.373381 0.806395 0.371909
Si Si2 0.373384 0.193608 0.371910
Si Si3 0.500000 0.869548 0.077882
Si Si4 0.868643 0.685342 0.000000
Si Si5 0.693573 0.126604 0.262399
Si Si6 0.000002 0.368380 0.442901
Si Si7 0.500001 0.868226 0.808755
Si Si8 0.873394 0.693570 0.262399
O O1 0.306840 0.693160 0.375567
O O2 0.499998 0.776664 0.382767
O O3 0.362562 0.862530 0.317153
O O4 0.325812 0.891129 0.413826
O O5 0.306845 0.306845 0.375566
O O6 0.325814 0.108877 0.413828
O O7 0.362563 0.137470 0.317154
O O8 0.611932 0.834081 0.048835
O O9 0.500000 0.818273 0.134372
O O10 0.500000 0.000000 0.080976
O O11 0.388068 0.834081 0.048835
O O12 0.799325 0.799325 1.000000
O O13 0.000000 0.713636 0.000000
O O14 0.806758 0.193243 0.258690
O O15 0.608822 0.173926 0.220466
O O16 0.723507 0.999999 0.251609
O O17 0.000000 0.500000 0.442239
O O18 0.000000 0.320980 0.500000
O O19 0.391183 0.826073 0.779532
O O20 0.500000 0.000000 0.808572
O O21 0.806753 0.806753 0.258691
#
# Coordination Sequence:
#
# PCOD8308160 Si02
#       8
#     8   8   8   8   8   8   8   8
#     4  10  19  32  51  73 100 130 164 205 251 298
#     4  10  19  32  51  73 100 130 164 205 251 298
#     4   8  16  31  48  70  96 132 176 206 239 288
#     4   9  17  30  50  74 103 135 168 210 254 295
#     4  10  19  31  49  73  99 130 163 202 250 299
#     4   9  18  32  52  73  95 127 165 202 243 293
#     4   9  17  30  51  71  94 130 170 210 243 287
#     4  10  19  31  49  73  99 130 163 202 250 299
#
# _framework density 16.593264000000001
#
# number of rings (size 3 to 8) (size 9 to 14) (size 15 to 20)
#    0.000    2.625    2.500    0.750    0.000    2.125 
#    0.000    0.000    0.000    3.750    0.000   14.875 
#    0.000    0.000    0.000    0.000    0.000    0.000 
#
# Total GULP energy -793453.644264 kJ/mol
# GULP energy per Si atom -12397.713192 kJ/mol
# Density = 1.655550 g / cm^3
# Si number density = 16.593264 Si / 1000 Ang^3
#
#
#
# Elastic Constant Matrix: (Units=GPa)
#
#
# Indices 1 2 3 4 5 6 
#
# 1 81.6580 45.7526 36.7681 0.0000 0.0000 0.0000
# 2 45.7526 81.6593 36.7686 0.0000 0.0000 0.0000
# 3 36.7681 36.7686 144.1877 0.0000 0.0000 0.0000
# 4 0.0000 0.0000 0.0000 12.8035 0.0000 0.0000
# 5 0.0000 0.0000 0.0000 0.0000 12.8042 0.0000
# 6 0.0000 0.0000 0.0000 0.0000 0.0000 9.8337
#
#
#
# Elastic Compliance Matrix: (Units=1/GPa)
#
#
# Indices 1 2 3 4 5 6 
#
# 1 0.018527 -0.009324 -0.002347 0.000000 0.000000 0.000000
# 2 -0.009324 0.018527 -0.002347 0.000000 0.000000 0.000000
# 3 -0.002347 -0.002347 0.008132 0.000000 0.000000 0.000000
# 4 0.000000 0.000000 0.000000 0.078104 0.000000 0.000000
# 5 0.000000 0.000000 0.000000 0.000000 0.078099 0.000000
# 6 0.000000 0.000000 0.000000 0.000000 0.000000 0.101691
#
#
# Mechanical properties :
#
#
# Convention : Reuss Voigt Hill
#
# Bulk Modulus (GPa) = 58.30493 60.67594 59.49044
# Shear Modulus (GPa) = 14.84421 19.63598 17.24010
#
# Velocity S-wave (km/s) = 2.99422 3.44375 3.22682
# Velocity P-wave (km/s) = 6.86788 7.24283 7.05784
#
# Compressibility (1/GPa) = 0.01715121
#
# Stress axis : x y z
#
# Youngs Moduli (GPa) = 53.97555 53.97633 122.96641
#
# Poissons Ratio (x) = 0.50326 0.28858
# Poissons Ratio (y) = 0.50325 0.28858
# Poissons Ratio (z) = 0.12667 0.12667
#
# Static dielectric constant tensor:
#      x y z
#    x 2.872050 0.000000 0.000000 
#    y 0.000000 2.872050 0.000000 
#    z 0.000000 0.000000 3.561580 
# 
# 
# High freq. dielectric constant tensor:
#      x y z
#    x 1.620480 0.000000 0.000000 
#    y 0.000000 1.620480 0.000000 
#    z 0.000000 0.000000 1.648260 
# 
# From -- ./inp_files/4376.got.cif
#   From: 2010.03.12/outbox.cif.g09.slc.cpg/sg111_3_cif.got.tgz:4376.got - 2010.04.14 01:59:48.
