data_PCOD8308345
_publ_section_title
;
Structure prediction by ZEFSAII (Michael W. Deem and Ramdas Pophale) SiO2 
 PCOD8308345
Probable space group: P -4 2 C
;
_chemical_formula_sum "Si O2"
_cell_formula_units_Z 40
_cell_length_a 15.511993
_cell_length_b 15.511993
_cell_length_c 8.792053
_cell_angle_alpha 90.000000
_cell_angle_beta 90.000000
_cell_angle_gamma 90.000000
_cell_volume 2115.560734
_symmetry_space_group_name_H-M "P -4 2 C"
_symmetry_group_IT_number 112
_symmetry_cell_setting 'tetragonal'
loop_
_space_group_symop_operation_xyz
x,y,z
y,-x,-z
-x,-y,z
-y,x,-z
x,-y,1/2-z
-x,y,1/2-z
-y,-x,1/2+z
y,x,1/2+z
loop_
_atom_site_type_symbol
_atom_site_label
_atom_site_fract_x
_atom_site_fract_y
_atom_site_fract_z
Si Si1 0.638941 0.000000 0.250000
Si Si2 0.122612 0.047072 0.006410
Si Si3 0.000000 0.254027 0.250000
Si Si4 0.317620 0.820637 0.690681
Si Si5 0.500000 0.145962 0.750000
Si Si6 0.000000 0.500000 0.005000
Si Si7 0.744305 0.842217 0.147851
O O1 0.584895 0.998033 0.403188
O O2 0.694645 0.087694 0.250096
O O3 0.197721 0.019370 0.895863
O O4 0.160084 0.117221 0.123466
O O5 0.041939 0.089858 0.915147
O O6 0.084229 0.313285 0.231107
O O7 0.415210 0.792151 0.735407
O O8 0.246901 0.755541 0.760410
O O9 0.304807 0.822757 0.509234
O O10 0.499314 0.086977 0.899178
#
# Coordination Sequence:
#
# PCOD8308345 Si02
#       7
#     4   8   4   8   4   4   8
#     4  11  24  40  60  91 128 162 206 263 320 374
#     4  10  21  33  46  70 107 160 204 250 288 345
#     4  10  20  34  48  74 106 152 208 244 298 344
#     4  11  24  40  59  85 119 164 212 262 315 377
#     4  11  22  42  64  86 120 169 216 259 326 388
#     4  10  22  40  64  88 120 164 210 254 322 392
#     4  11  25  38  58  86 123 164 210 263 313 371
#
# _framework density 18.907516000000001
#
# number of rings (size 3 to 8) (size 9 to 14) (size 15 to 20)
#    0.000    1.400    4.000    1.200   11.200    1.600 
#    0.000    0.000    0.000    0.000    0.000    0.000 
#    0.000   12.000    0.000    0.000    0.000    0.000 
#
# Total GULP energy -495766.675574 kJ/mol
# GULP energy per Si atom -12394.166889 kJ/mol
# Density = 1.886448 g / cm^3
# Si number density = 18.907516 Si / 1000 Ang^3
#
#
#
# Elastic Constant Matrix: (Units=GPa)
#
#
# Indices 1 2 3 4 5 6 
#
# 1 118.6506 43.0764 32.5281 0.0000 0.0000 0.0000
# 2 43.0764 118.6506 32.5281 0.0000 0.0000 0.0000
# 3 32.5281 32.5281 77.5397 0.0000 0.0000 0.0000
# 4 0.0000 0.0000 0.0000 -23.3734 0.0000 0.0000
# 5 0.0000 0.0000 0.0000 0.0000 -23.3734 0.0000
# 6 0.0000 0.0000 0.0000 0.0000 0.0000 13.3563
#
#
#
# Elastic Compliance Matrix: (Units=1/GPa)
#
#
# Indices 1 2 3 4 5 6 
#
# 1 0.010335 -0.002897 -0.003120 0.000000 0.000000 0.000000
# 2 -0.002897 0.010335 -0.003120 0.000000 0.000000 0.000000
# 3 -0.003120 -0.003120 0.015515 0.000000 0.000000 0.000000
# 4 0.000000 0.000000 0.000000 -0.042784 0.000000 0.000000
# 5 0.000000 0.000000 0.000000 0.000000 -0.042784 0.000000
# 6 0.000000 0.000000 0.000000 0.000000 0.000000 0.074871
#
#
# Mechanical properties :
#
#
# Convention : Reuss Voigt Hill
#
# Bulk Modulus (GPa) = 55.83528 59.01179 57.42353
# Shear Modulus (GPa) = 100.53402 7.10245 53.81824
#
# Velocity S-wave (km/s) = 7.29979 1.94025 5.34095
# Velocity P-wave (km/s) = 10.03215 6.02478 8.27472
#
# Compressibility (1/GPa) = 0.01790982
#
# Stress axis : x y z
#
# Youngs Moduli (GPa) = 96.75608 96.75608 64.45496
#
# Poissons Ratio (x) = 0.28028 0.20113
# Poissons Ratio (y) = 0.28028 0.20113
# Poissons Ratio (z) = 0.30192 0.30192
#
# Static dielectric constant tensor:
#      x y z
#    x 3.591680 0.000000 0.000000 
#    y 0.000000 3.591680 0.000000 
#    z 0.000000 0.000000 3.506000 
# 
# 
# High freq. dielectric constant tensor:
#      x y z
#    x 1.715200 0.000000 0.000000 
#    y 0.000000 1.715200 0.000000 
#    z 0.000000 0.000000 1.737880 
# 
# From -- ./inp_files/1313.got.cif
#   From: 2010.03.12/outbox.cif.g09.slc.cpg/sg112_1_cif.got.tgz:1313.got - 2010.04.14 02:02:48.
