data_PCOD8308609
_publ_section_title
;
Structure prediction by ZEFSAII (Michael W. Deem and Ramdas Pophale) SiO2 
 PCOD8308609
Probable space group: P -4 21 M 
;
_chemical_formula_sum "Si O2"
_cell_formula_units_Z 64
_cell_length_a 12.066119
_cell_length_b 12.066119
_cell_length_c 22.540243
_cell_angle_alpha 90.000000
_cell_angle_beta 90.000000
_cell_angle_gamma 90.000000
_cell_volume 3281.661652
_symmetry_space_group_name_H-M "P -4 21 M "
_symmetry_group_IT_number 113
_symmetry_cell_setting 'tetragonal'
loop_
_space_group_symop_operation_xyz
x,y,z
y,-x,-z
-x,-y,z
-y,x,-z
1/2+x,1/2-y,-z
1/2-x,1/2+y,-z
1/2-y,1/2-x,z
1/2+y,1/2+x,z
loop_
_atom_site_type_symbol
_atom_site_label
_atom_site_fract_x
_atom_site_fract_y
_atom_site_fract_z
Si Si1 0.870361 0.008010 0.850523
Si Si2 0.499415 0.827288 0.079354
Si Si3 0.584340 0.731340 0.196133
Si Si4 0.529521 0.329807 0.981214
Si Si5 0.030002 0.872809 0.357578
Si Si6 0.670708 0.643357 0.757407
Si Si7 0.175806 0.144837 0.425416
Si Si8 0.892381 0.787805 0.553819
O O1 0.831970 0.895457 0.818101
O O2 0.849386 0.114604 0.807546
O O3 0.000000 0.000000 0.866877
O O4 0.801111 0.017851 0.911564
O O5 0.410892 0.910892 0.108459
O O6 0.531046 0.742020 0.130840
O O7 0.443072 0.776789 0.020631
O O8 0.608948 0.891053 0.058135
O O9 0.666699 0.833302 0.212977
O O10 0.482038 0.722200 0.242914
O O11 0.415720 0.372235 0.009752
O O12 0.076871 0.845320 0.292888
O O13 0.121799 0.832014 0.404644
O O14 0.910576 0.818570 0.373205
O O15 0.000000 0.000000 0.366510
O O16 0.768777 0.731224 0.748389
O O17 0.284654 0.215346 0.415608
O O18 0.113710 0.170419 0.486728
O O19 0.220158 0.018902 0.424400
O O20 0.830388 0.669613 0.561525
#
# Coordination Sequence:
#
# PCOD8308609 Si02
#       8
#     8   8   8   8   8   8   8   8
#     4  10  19  35  57  80 113 148 198 239 281 340
#     4  10  21  34  50  78 112 141 177 231 297 359
#     4  10  20  37  60  85 112 146 188 242 302 353
#     4  11  18  31  52  79 105 143 186 233 274 335
#     4  10  20  37  62  85 115 157 200 239 285 343
#     4  11  23  39  59  86 115 152 195 242 290 346
#     4  10  20  35  60  91 122 158 199 242 290 337
#     4  10  19  34  58  90 126 161 197 242 288 338
#
# _framework density 19.502314999999999
#
# number of rings (size 3 to 8) (size 9 to 14) (size 15 to 20)
#    0.000    1.750    3.750    2.625    0.000    2.500 
#    0.000    5.625    0.000    5.625    0.000    0.000 
#    0.000    0.000    0.000    0.000    0.000    0.000 
#
# Total GULP energy -793193.255402 kJ/mol
# GULP energy per Si atom -12393.644616 kJ/mol
# Density = 1.945793 g / cm^3
# Si number density = 19.502315 Si / 1000 Ang^3
#
#
#
# Elastic Constant Matrix: (Units=GPa)
#
#
# Indices 1 2 3 4 5 6 
#
# 1 87.3246 43.3365 27.5419 0.0000 0.0000 0.0000
# 2 43.3365 87.3264 27.5423 0.0000 0.0000 0.0000
# 3 27.5419 27.5423 69.7236 0.0000 0.0000 0.0000
# 4 0.0000 0.0000 0.0000 25.2220 0.0000 0.0000
# 5 0.0000 0.0000 0.0000 0.0000 25.2216 0.0000
# 6 0.0000 0.0000 0.0000 0.0000 0.0000 14.6865
#
#
#
# Elastic Compliance Matrix: (Units=1/GPa)
#
#
# Indices 1 2 3 4 5 6 
#
# 1 0.015958 -0.006775 -0.003627 0.000000 0.000000 0.000000
# 2 -0.006775 0.015958 -0.003627 0.000000 0.000000 0.000000
# 3 -0.003627 -0.003627 0.017208 0.000000 0.000000 0.000000
# 4 0.000000 0.000000 0.000000 0.039648 0.000000 0.000000
# 5 0.000000 0.000000 0.000000 0.000000 0.039649 0.000000
# 6 0.000000 0.000000 0.000000 0.000000 0.000000 0.068090
#
#
# Mechanical properties :
#
#
# Convention : Reuss Voigt Hill
#
# Bulk Modulus (GPa) = 47.47439 49.02400 48.24919
# Shear Modulus (GPa) = 21.58980 22.75626 22.17303
#
# Velocity S-wave (km/s) = 3.33083 3.41962 3.37552
# Velocity P-wave (km/s) = 6.26006 6.38622 6.32346
#
# Compressibility (1/GPa) = 0.02106399
#
# Stress axis : x y z
#
# Youngs Moduli (GPa) = 62.66492 62.66615 58.11246
#
# Poissons Ratio (x) = 0.42458 0.21079
# Poissons Ratio (y) = 0.42457 0.21079
# Poissons Ratio (z) = 0.22730 0.22731
#
# Static dielectric constant tensor:
#      x y z
#    x 3.502650 0.000000 0.000000 
#    y 0.000000 3.502650 0.000000 
#    z 0.000000 0.000000 3.508390 
# 
# 
# High freq. dielectric constant tensor:
#      x y z
#    x 1.746310 0.000000 0.000000 
#    y 0.000000 1.746310 0.000000 
#    z 0.000000 0.000000 1.755360 
# 
# From -- ./inp_files/2919.got.cif
#   From: 2010.03.12/outbox.cif.g09.slc.cpg/sg113_cif.got.tgz:2919.got - 2010.04.14 02:06:34.
