data_PCOD8308639
_publ_section_title
;
Structure prediction by ZEFSAII (Michael W. Deem and Ramdas Pophale) SiO2 
 PCOD8308639
Probable space group: P -4 21 M 
;
_chemical_formula_sum "Si O2"
_cell_formula_units_Z 64
_cell_length_a 12.284222
_cell_length_b 12.284222
_cell_length_c 22.411178
_cell_angle_alpha 90.000000
_cell_angle_beta 90.000000
_cell_angle_gamma 90.000000
_cell_volume 3381.894051
_symmetry_space_group_name_H-M "P -4 21 M "
_symmetry_group_IT_number 113
_symmetry_cell_setting 'tetragonal'
loop_
_space_group_symop_operation_xyz
x,y,z
y,-x,-z
-x,-y,z
-y,x,-z
1/2+x,1/2-y,-z
1/2-x,1/2+y,-z
1/2-y,1/2-x,z
1/2+y,1/2+x,z
loop_
_atom_site_type_symbol
_atom_site_label
_atom_site_fract_x
_atom_site_fract_y
_atom_site_fract_z
Si Si1 0.977708 0.874605 0.252810
Si Si2 0.365429 0.692361 0.193363
Si Si3 0.837641 0.053762 0.510951
Si Si4 0.336043 0.660073 0.635829
Si Si5 0.882559 0.207918 0.066402
Si Si6 0.174132 0.496945 0.588004
Si Si7 0.389440 0.286635 0.172919
Si Si8 0.870295 0.806679 0.055028
O O1 0.938464 0.853279 0.320169
O O2 0.884375 0.829895 0.208575
O O3 0.094235 0.821700 0.236084
O O4 0.000000 0.000000 0.239499
O O5 0.296276 0.796276 0.212412
O O6 0.351399 0.662958 0.124316
O O7 0.490949 0.726654 0.200842
O O8 0.809820 0.114565 0.572018
O O9 0.729985 0.051837 0.470866
O O10 0.931488 0.120430 0.475806
O O11 0.257757 0.757757 0.657343
O O12 0.266364 0.546423 0.632663
O O13 0.824167 0.324167 0.056406
O O14 0.009588 0.226917 0.074316
O O15 0.862279 0.130286 0.009665
O O16 0.100710 0.399291 0.617202
O O17 0.096193 0.596193 0.568173
O O18 0.325302 0.174699 0.184460
O O19 0.390014 0.317495 0.102922
O O20 0.805451 0.694549 0.054376
#
# Coordination Sequence:
#
# PCOD8308639 Si02
#       8
#     8   8   8   8   8   8   8   8
#     4  10  21  36  59  77 109 149 191 232 274 325
#     4  10  21  38  57  82 113 148 188 234 288 336
#     4   9  18  31  54  80 111 145 188 226 271 327
#     4  10  20  34  56  83 110 147 187 230 274 324
#     4  10  20  34  54  81 113 145 185 237 288 344
#     4   9  18  33  53  80 114 145 176 225 285 336
#     4  10  20  36  57  82 111 147 189 232 283 340
#     4  10  20  33  54  83 111 144 188 235 288 347
#
# _framework density 18.924306999999999
#
# number of rings (size 3 to 8) (size 9 to 14) (size 15 to 20)
#    0.000    2.250    1.250    1.500    3.500    2.250 
#    0.000    3.125    0.000    9.750    0.000    0.000 
#    0.000    0.000    0.000    0.000    0.000    0.000 
#
# Total GULP energy -793369.315311 kJ/mol
# GULP energy per Si atom -12396.395552 kJ/mol
# Density = 1.888123 g / cm^3
# Si number density = 18.924307 Si / 1000 Ang^3
#
#
#
# Elastic Constant Matrix: (Units=GPa)
#
#
# Indices 1 2 3 4 5 6 
#
# 1 98.1015 52.5236 29.3943 0.0000 0.0000 0.0000
# 2 52.5236 98.1022 29.3947 0.0000 0.0000 0.0000
# 3 29.3943 29.3947 74.9094 0.0000 0.0000 0.0000
# 4 0.0000 0.0000 0.0000 25.9982 0.0000 0.0000
# 5 0.0000 0.0000 0.0000 0.0000 25.9978 0.0000
# 6 0.0000 0.0000 0.0000 0.0000 0.0000 19.7621
#
#
#
# Elastic Compliance Matrix: (Units=1/GPa)
#
#
# Indices 1 2 3 4 5 6 
#
# 1 0.014890 -0.007050 -0.003076 0.000000 0.000000 0.000000
# 2 -0.007050 0.014890 -0.003076 0.000000 0.000000 0.000000
# 3 -0.003076 -0.003076 0.015764 0.000000 0.000000 0.000000
# 4 0.000000 0.000000 0.000000 0.038464 0.000000 0.000000
# 5 0.000000 0.000000 0.000000 0.000000 0.038465 0.000000
# 6 0.000000 0.000000 0.000000 0.000000 0.000000 0.050602
#
#
# Mechanical properties :
#
#
# Convention : Reuss Voigt Hill
#
# Bulk Modulus (GPa) = 52.25233 54.85981 53.55607
# Shear Modulus (GPa) = 24.28841 25.00500 24.64671
#
# Velocity S-wave (km/s) = 3.58641 3.63894 3.61277
# Velocity P-wave (km/s) = 6.69485 6.83431 6.76494
#
# Compressibility (1/GPa) = 0.01913790
#
# Stress axis : x y z
#
# Youngs Moduli (GPa) = 67.15912 67.15947 63.43674
#
# Poissons Ratio (x) = 0.47350 0.19515
# Poissons Ratio (y) = 0.47349 0.19515
# Poissons Ratio (z) = 0.20660 0.20660
#
# Static dielectric constant tensor:
#      x y z
#    x 3.501570 0.000000 0.000000 
#    y 0.000000 3.501560 0.000000 
#    z 0.000000 0.000000 3.330490 
# 
# 
# High freq. dielectric constant tensor:
#      x y z
#    x 1.730930 0.000000 0.000000 
#    y 0.000000 1.730930 0.000000 
#    z 0.000000 0.000000 1.726640 
# 
# From -- ./inp_files/2924.got.cif
#   From: 2010.03.12/outbox.cif.g09.slc.cpg/sg113_cif.got.tgz:2924.got - 2010.04.14 02:06:34.
