data_PCOD8308418
_publ_section_title
;
Structure prediction by ZEFSAII (Michael W. Deem and Ramdas Pophale) SiO2 
 PCOD8308418
Probable space group: P -4 2 C
;
_chemical_formula_sum "Si O2"
_cell_formula_units_Z 48
_cell_length_a 9.548735
_cell_length_b 9.548735
_cell_length_c 26.987076
_cell_angle_alpha 90.000000
_cell_angle_beta 90.000000
_cell_angle_gamma 90.000000
_cell_volume 2460.636794
_symmetry_space_group_name_H-M "P -4 2 C"
_symmetry_group_IT_number 112
_symmetry_cell_setting 'tetragonal'
loop_
_space_group_symop_operation_xyz
x,y,z
y,-x,-z
-x,-y,z
-y,x,-z
x,-y,1/2-z
-x,y,1/2-z
-y,-x,1/2+z
y,x,1/2+z
loop_
_atom_site_type_symbol
_atom_site_label
_atom_site_fract_x
_atom_site_fract_y
_atom_site_fract_z
Si Si1 0.836275 0.746898 0.850934
Si Si2 0.000000 0.335333 0.308894
Si Si3 0.500000 0.341288 0.191887
Si Si4 0.253102 0.163725 0.149066
Si Si5 0.662478 0.158676 0.037238
Si Si6 0.158676 0.662478 0.962762
O O1 0.753512 0.626392 0.824257
O O2 0.826628 0.734975 0.909828
O O3 1.000000 0.752178 0.834375
O O4 0.747485 0.875967 0.833443
O O5 0.875968 0.252515 0.333443
O O6 0.000000 0.500000 0.323532
O O7 0.000000 0.319135 0.250000
O O8 0.500000 0.500000 0.168507
O O9 0.500000 0.360719 0.250000
O O10 0.373608 0.246488 0.175743
O O11 0.265025 0.173372 0.090172
O O12 0.500000 0.199452 0.042088
O O13 0.679534 0.000000 0.017488
O O14 0.735464 0.264536 0.000000
#
# Coordination Sequence:
#
# PCOD8308418 Si02
#       6
#     8   8   8   8   8   8
#     4  11  23  42  65  92 126 167 217 267 319 386
#     4  11  25  43  63  93 133 171 213 265 324 387
#     4  11  23  39  63  95 131 169 209 259 320 379
#     4  11  23  42  65  92 126 167 217 267 319 386
#     4  10  23  43  64  92 126 162 207 261 317 378
#     4  10  23  43  64  92 126 162 207 261 317 378
#
# _framework density 19.507144
#
# number of rings (size 3 to 8) (size 9 to 14) (size 15 to 20)
#    0.000    1.333    1.667    3.000    2.333   10.000 
#    0.000    0.000    0.000    0.000    0.000    0.000 
#    0.000    0.000    0.000    0.000    0.000    0.000 
#
# Total GULP energy -594864.260009 kJ/mol
# GULP energy per Si atom -12393.005417 kJ/mol
# Density = 1.946275 g / cm^3
# Si number density = 19.507144 Si / 1000 Ang^3
#
#
#
# Elastic Constant Matrix: (Units=GPa)
#
#
# Indices 1 2 3 4 5 6 
#
# 1 184.3744 102.8392 62.0689 0.0000 0.0000 0.0000
# 2 102.8392 184.3744 62.0689 0.0000 0.0000 0.0000
# 3 62.0689 62.0689 84.9515 0.0000 0.0000 0.0000
# 4 0.0000 0.0000 0.0000 40.3138 0.0000 0.0000
# 5 0.0000 0.0000 0.0000 0.0000 40.3138 0.0000
# 6 0.0000 0.0000 0.0000 0.0000 0.0000 46.9936
#
#
#
# Elastic Compliance Matrix: (Units=1/GPa)
#
#
# Indices 1 2 3 4 5 6 
#
# 1 0.008677 -0.003588 -0.003718 0.000000 0.000000 0.000000
# 2 -0.003588 0.008677 -0.003718 0.000000 0.000000 0.000000
# 3 -0.003718 -0.003718 0.017204 0.000000 0.000000 0.000000
# 4 0.000000 0.000000 0.000000 0.024805 0.000000 0.000000
# 5 0.000000 0.000000 0.000000 0.000000 0.024805 0.000000
# 6 0.000000 0.000000 0.000000 0.000000 0.000000 0.021279
#
#
# Mechanical properties :
#
#
# Convention : Reuss Voigt Hill
#
# Bulk Modulus (GPa) = 79.93702 100.85046 90.39374
# Shear Modulus (GPa) = 37.97488 40.63914 39.30701
#
# Velocity S-wave (km/s) = 4.41695 4.56926 4.49375
# Velocity P-wave (km/s) = 8.19023 8.92463 8.56531
#
# Compressibility (1/GPa) = 0.01250985
#
# Stress axis : x y z
#
# Youngs Moduli (GPa) = 115.25150 115.25150 58.12449
#
# Poissons Ratio (x) = 0.41352 0.21611
# Poissons Ratio (y) = 0.41352 0.21611
# Poissons Ratio (z) = 0.42851 0.42851
#
# Static dielectric constant tensor:
#      x y z
#    x 3.773280 0.000000 0.000000 
#    y 0.000000 3.773280 0.000000 
#    z 0.000000 0.000000 3.634530 
# 
# 
# High freq. dielectric constant tensor:
#      x y z
#    x 1.780300 0.000000 0.000000 
#    y 0.000000 1.780300 0.000000 
#    z 0.000000 0.000000 1.761900 
# 
# From -- ./inp_files/6296.got.cif
#   From: 2010.03.12/outbox.cif.g09.slc.cpg/sg112_4_cif.got.tgz:6296.got - 2010.04.14 02:02:48.
