data_PCOD8308147
_publ_section_title
;
Structure prediction by ZEFSAII (Michael W. Deem and Ramdas Pophale) SiO2 
 PCOD8308147
Probable space group: P -4 2 M 
;
_chemical_formula_sum "Si O2"
_cell_formula_units_Z 64
_cell_length_a 12.737694
_cell_length_b 12.737694
_cell_length_c 23.677959
_cell_angle_alpha 90.000000
_cell_angle_beta 90.000000
_cell_angle_gamma 90.000000
_cell_volume 3841.721581
_symmetry_space_group_name_H-M "P -4 2 M "
_symmetry_group_IT_number 111
_symmetry_cell_setting 'tetragonal'
loop_
_space_group_symop_operation_xyz
x,y,z
y,-x,-z
-x,-y,z
-y,x,-z
x,-y,-z
-x,y,-z
-y,-x,z
y,x,z
loop_
_atom_site_type_symbol
_atom_site_label
_atom_site_fract_x
_atom_site_fract_y
_atom_site_fract_z
Si Si1 0.120851 0.706292 0.711686
Si Si2 0.283722 0.883843 0.838626
Si Si3 0.122257 0.500000 0.361365
Si Si4 0.500000 0.669724 0.566767
Si Si5 0.212914 0.382773 0.062096
Si Si6 0.120851 0.706293 0.288314
Si Si7 0.787087 0.617228 0.937903
Si Si8 0.283720 0.883845 0.161374
O O1 0.197643 0.802358 0.693715
O O2 0.143711 0.671849 0.776447
O O3 0.143479 0.603742 0.675011
O O4 0.000000 0.743773 0.703728
O O5 0.185527 0.814474 0.855668
O O6 0.370705 0.871934 0.887715
O O7 0.239385 0.999999 0.838446
O O8 0.210964 0.500000 0.409837
O O9 0.143479 0.603743 0.324989
O O10 0.000000 0.500000 0.383927
O O11 0.500000 0.681202 0.500000
O O12 0.396061 0.603940 0.585950
O O13 0.603941 0.603941 0.585950
O O14 0.313224 0.313224 0.076124
O O15 0.255178 0.500001 0.062324
O O16 0.164452 0.355021 0.000000
O O17 0.197643 0.802358 0.306285
O O18 0.143710 0.671850 0.223553
O O19 0.686778 0.686778 0.923876
O O20 0.871936 0.629297 0.887715
O O21 0.185524 0.814477 0.144333
#
# Coordination Sequence:
#
# PCOD8308147 Si02
#       8
#     8   8   8   8   8   8   8   8
#     4   9  18  31  47  68  93 125 161 195 235 279
#     4   9  18  31  46  64  87 114 145 184 225 269
#     4  10  19  30  48  74 102 130 157 193 241 284
#     4   9  18  33  53  75  99 131 168 200 230 268
#     4   9  18  31  46  64  84 109 143 182 226 275
#     4   9  18  31  47  68  93 125 161 195 235 279
#     4   9  18  31  46  64  84 109 143 182 226 275
#     4   9  18  31  46  64  87 114 145 184 225 269
#
# _framework density 16.659199000000001
#
# number of rings (size 3 to 8) (size 9 to 14) (size 15 to 20)
#    0.000    2.875    0.000    1.125    1.750    2.000 
#    0.000    5.000    0.000    0.000    0.000    3.500 
#    0.000    0.000    0.000   23.250    0.000    0.250 
#
# Total GULP energy -792886.855587 kJ/mol
# GULP energy per Si atom -12388.857119 kJ/mol
# Density = 1.662128 g / cm^3
# Si number density = 16.659199 Si / 1000 Ang^3
#
#
#
# Elastic Constant Matrix: (Units=GPa)
#
#
# Indices 1 2 3 4 5 6 
#
# 1 94.1703 44.4499 43.2275 0.0000 0.0000 0.0000
# 2 44.4499 94.1683 43.2273 0.0000 0.0000 0.0000
# 3 43.2275 43.2273 67.5483 0.0000 0.0000 0.0000
# 4 0.0000 0.0000 0.0000 25.2913 0.0000 0.0000
# 5 0.0000 0.0000 0.0000 0.0000 25.2914 0.0000
# 6 0.0000 0.0000 0.0000 0.0000 0.0000 18.0748
#
#
#
# Elastic Compliance Matrix: (Units=1/GPa)
#
#
# Indices 1 2 3 4 5 6 
#
# 1 0.016059 -0.004054 -0.007683 0.000000 0.000000 0.000000
# 2 -0.004054 0.016060 -0.007683 0.000000 0.000000 0.000000
# 3 -0.007683 -0.007683 0.024638 0.000000 0.000000 0.000000
# 4 0.000000 0.000000 0.000000 0.039539 0.000000 0.000000
# 5 0.000000 0.000000 0.000000 0.000000 0.039539 0.000000
# 6 0.000000 0.000000 0.000000 0.000000 0.000000 0.055326
#
#
# Mechanical properties :
#
#
# Convention : Reuss Voigt Hill
#
# Bulk Modulus (GPa) = 55.81281 57.52183 56.66732
# Shear Modulus (GPa) = 21.18889 22.06363 21.62626
#
# Velocity S-wave (km/s) = 3.57024 3.64319 3.60690
# Velocity P-wave (km/s) = 7.11133 7.23192 7.17188
#
# Compressibility (1/GPa) = 0.01791703
#
# Stress axis : x y z
#
# Youngs Moduli (GPa) = 62.26971 62.26811 40.58802
#
# Poissons Ratio (x) = 0.25240 0.31184
# Poissons Ratio (y) = 0.25241 0.31185
# Poissons Ratio (z) = 0.47842 0.47842
#
# Static dielectric constant tensor:
#      x y z
#    x 3.131400 0.000000 0.000000 
#    y 0.000000 3.131400 0.000000 
#    z 0.000000 0.000000 3.191580 
# 
# 
# High freq. dielectric constant tensor:
#      x y z
#    x 1.637240 0.000000 0.000000 
#    y 0.000000 1.637240 0.000000 
#    z 0.000000 0.000000 1.635700 
# 
# From -- ./inp_files/4238.got.cif
#   From: 2010.03.12/outbox.cif.g09.slc.cpg/sg111_3_cif.got.tgz:4238.got - 2010.04.14 01:59:48.
