data_PCOD8308386
_publ_section_title
;
Structure prediction by ZEFSAII (Michael W. Deem and Ramdas Pophale) SiO2 
 PCOD8308386
Probable space group: P -4 2 C
;
_chemical_formula_sum "Si O2"
_cell_formula_units_Z 52
_cell_length_a 16.515809
_cell_length_b 16.515809
_cell_length_c 9.316968
_cell_angle_alpha 90.000000
_cell_angle_beta 90.000000
_cell_angle_gamma 90.000000
_cell_volume 2541.407501
_symmetry_space_group_name_H-M "P -4 2 C"
_symmetry_group_IT_number 112
_symmetry_cell_setting 'tetragonal'
loop_
_space_group_symop_operation_xyz
x,y,z
y,-x,-z
-x,-y,z
-y,x,-z
x,-y,1/2-z
-x,y,1/2-z
-y,-x,1/2+z
y,x,1/2+z
loop_
_atom_site_type_symbol
_atom_site_label
_atom_site_fract_x
_atom_site_fract_y
_atom_site_fract_z
Si Si1 0.780945 0.737114 0.030087
Si Si2 0.283554 0.040298 0.985165
Si Si3 0.500000 0.162015 0.750000
Si Si4 0.000000 0.827362 0.750000
Si Si5 0.610122 0.802400 0.000839
Si Si6 0.106010 0.397764 0.004674
Si Si7 0.140583 0.825124 0.202607
Si Si8 0.500000 0.148651 0.250000
O O1 0.683130 0.739037 0.022578
O O2 0.804818 0.643098 0.012357
O O3 0.820434 0.778152 0.166803
O O4 0.824616 0.785870 0.906354
O O5 0.223166 0.061790 0.853918
O O6 0.328590 0.957173 0.956527
O O7 0.230009 0.031456 0.124944
O O8 0.351671 0.108279 0.003699
O O9 0.564673 0.214228 0.653390
O O10 0.538640 0.101675 0.866485
O O11 0.079412 0.882923 0.719954
O O12 0.549053 0.795270 0.136448
O O13 0.092992 0.440162 0.848562
#
# Coordination Sequence:
#
# PCOD8308386 Si02
#       8
#     8   8   4   4   8   8   8   4
#     4  11  21  39  64  91 121 166 212 259 314 392
#     4  11  23  37  63  89 121 166 210 263 323 389
#     4  10  24  37  54  90 130 157 198 258 304 387
#     4  12  20  42  62  88 122 152 220 292 312 375
#     4  10  21  38  56  90 126 161 208 249 320 373
#     4  11  22  39  61  88 128 161 204 254 317 378
#     4  11  22  38  62  94 115 160 224 271 331 368
#     4  10  22  37  60  90 122 165 204 254 306 397
#
# _framework density 20.461103000000001
#
# number of rings (size 3 to 8) (size 9 to 14) (size 15 to 20)
#    0.000    1.231    4.615    3.692    0.000    6.154 
#    0.000    0.000    0.000    6.923    0.000    0.000 
#    0.000   43.077    0.000    0.000    0.000    0.000 
#
# Total GULP energy -644302.602336 kJ/mol
# GULP energy per Si atom -12390.434660 kJ/mol
# Density = 2.041453 g / cm^3
# Si number density = 20.461103 Si / 1000 Ang^3
#
#
#
# Elastic Constant Matrix: (Units=GPa)
#
#
# Indices 1 2 3 4 5 6 
#
# 1 106.3810 53.0633 45.8664 0.0000 0.0000 0.0000
# 2 53.0633 106.3810 45.8664 0.0000 0.0000 0.0000
# 3 45.8664 45.8664 156.0946 0.0000 0.0000 0.0000
# 4 0.0000 0.0000 0.0000 36.9320 0.0000 0.0000
# 5 0.0000 0.0000 0.0000 0.0000 36.9320 0.0000
# 6 0.0000 0.0000 0.0000 0.0000 0.0000 9.0288
#
#
#
# Elastic Compliance Matrix: (Units=1/GPa)
#
#
# Indices 1 2 3 4 5 6 
#
# 1 0.013152 -0.005604 -0.002218 0.000000 0.000000 0.000000
# 2 -0.005604 0.013152 -0.002218 0.000000 0.000000 0.000000
# 3 -0.002218 -0.002218 0.007710 0.000000 0.000000 0.000000
# 4 0.000000 0.000000 0.000000 0.027077 0.000000 0.000000
# 5 0.000000 0.000000 0.000000 0.000000 0.027077 0.000000
# 6 0.000000 0.000000 0.000000 0.000000 0.000000 0.110757
#
#
# Mechanical properties :
#
#
# Convention : Reuss Voigt Hill
#
# Bulk Modulus (GPa) = 71.76699 73.16098 72.46399
# Shear Modulus (GPa) = 22.35665 31.51592 26.93629
#
# Velocity S-wave (km/s) = 3.30910 3.92890 3.63225
# Velocity P-wave (km/s) = 7.05345 7.51102 7.28583
#
# Compressibility (1/GPa) = 0.01393398
#
# Stress axis : x y z
#
# Youngs Moduli (GPa) = 76.03620 76.03620 129.70630
#
# Poissons Ratio (x) = 0.42610 0.28766
# Poissons Ratio (y) = 0.42610 0.28766
# Poissons Ratio (z) = 0.16863 0.16863
#
# Static dielectric constant tensor:
#      x y z
#    x 3.607500 0.000000 0.000000 
#    y 0.000000 3.607500 0.000000 
#    z 0.000000 0.000000 3.949920 
# 
# 
# High freq. dielectric constant tensor:
#      x y z
#    x 1.778540 0.000000 0.000000 
#    y 0.000000 1.778540 0.000000 
#    z 0.000000 0.000000 1.827950 
# 
# From -- ./inp_files/1513.got.cif
#   From: 2010.03.12/outbox.cif.g09.slc.cpg/sg112_1_cif.got.tgz:1513.got - 2010.04.14 02:02:48.
