data_PCOD8308245
_publ_section_title
;
Structure prediction by ZEFSAII (Michael W. Deem and Ramdas Pophale) SiO2 
 PCOD8308245
Probable space group: P -4 2 M 
;
_chemical_formula_sum "Si O2"
_cell_formula_units_Z 48
_cell_length_a 12.870530
_cell_length_b 12.870530
_cell_length_c 16.934644
_cell_angle_alpha 90.000000
_cell_angle_beta 90.000000
_cell_angle_gamma 90.000000
_cell_volume 2805.232965
_symmetry_space_group_name_H-M "P -4 2 M "
_symmetry_group_IT_number 111
_symmetry_cell_setting 'tetragonal'
loop_
_space_group_symop_operation_xyz
x,y,z
y,-x,-z
-x,-y,z
-y,x,-z
x,-y,-z
-x,y,-z
-y,-x,z
y,x,z
loop_
_atom_site_type_symbol
_atom_site_label
_atom_site_fract_x
_atom_site_fract_y
_atom_site_fract_z
Si Si1 0.716138 0.116914 0.358801
Si Si2 0.121542 0.293289 0.178649
Si Si3 0.116913 0.716139 0.641197
Si Si4 0.214317 0.614148 0.499998
Si Si5 0.706715 0.121538 0.178647
Si Si6 0.500001 0.876875 0.910797
O O1 0.817879 0.182122 0.378260
O O2 0.626988 0.145230 0.421231
O O3 0.675690 0.135992 0.270100
O O4 0.751585 0.000001 0.370914
O O5 0.192808 0.192808 0.156784
O O6 0.135992 0.324314 0.270103
O O7 0.162164 0.394132 0.130970
O O8 0.000003 0.266719 0.159830
O O9 0.182119 0.817882 0.621741
O O10 0.145229 0.626992 0.578765
O O11 0.261075 0.500000 0.500000
O O12 0.311450 0.688551 0.499998
O O13 0.807199 0.192802 0.156781
O O14 0.605874 0.162162 0.130966
O O15 0.500000 0.000000 0.908080
O O16 0.500000 0.834183 0.000000
#
# Coordination Sequence:
#
# PCOD8308245 Si02
#       6
#     8   8   8   8   8   8
#     4   9  18  31  47  71 100 129 161 196 237 286
#     4   9  18  32  51  75 103 133 166 205 248 296
#     4   9  18  31  47  71 100 129 161 196 237 286
#     4  10  21  34  48  68  94 126 167 210 248 286
#     4   9  18  32  51  75 103 133 166 205 248 296
#     4   9  18  32  50  72  98 130 165 200 245 301
#
# _framework density 17.110880000000002
#
# number of rings (size 3 to 8) (size 9 to 14) (size 15 to 20)
#    0.000    2.833    0.000    0.500    2.333    2.833 
#    0.000    3.333    0.000    3.500    0.000    5.833 
#    0.000    0.000    0.000    0.000    0.000    0.000 
#
# Total GULP energy -594984.014394 kJ/mol
# GULP energy per Si atom -12395.500300 kJ/mol
# Density = 1.707193 g / cm^3
# Si number density = 17.110880 Si / 1000 Ang^3
#
#
#
# Elastic Constant Matrix: (Units=GPa)
#
#
# Indices 1 2 3 4 5 6 
#
# 1 96.4635 43.6294 52.8642 0.0000 0.0000 0.0000
# 2 43.6294 96.4606 52.8635 0.0000 0.0000 0.0000
# 3 52.8642 52.8635 107.2096 0.0000 0.0000 0.0000
# 4 0.0000 0.0000 0.0000 23.4192 0.0000 0.0000
# 5 0.0000 0.0000 0.0000 0.0000 23.4190 0.0000
# 6 0.0000 0.0000 0.0000 0.0000 0.0000 11.7328
#
#
#
# Elastic Compliance Matrix: (Units=1/GPa)
#
#
# Indices 1 2 3 4 5 6 
#
# 1 0.015148 -0.003779 -0.005606 0.000000 0.000000 0.000000
# 2 -0.003779 0.015149 -0.005606 0.000000 0.000000 0.000000
# 3 -0.005606 -0.005606 0.014856 0.000000 0.000000 0.000000
# 4 0.000000 0.000000 0.000000 0.042700 0.000000 0.000000
# 5 0.000000 0.000000 0.000000 0.000000 0.042700 0.000000
# 6 0.000000 0.000000 0.000000 0.000000 0.000000 0.085231
#
#
# Mechanical properties :
#
#
# Convention : Reuss Voigt Hill
#
# Bulk Modulus (GPa) = 65.91841 66.53865 66.22853
# Shear Modulus (GPa) = 19.93433 21.76597 20.85015
#
# Velocity S-wave (km/s) = 3.41693 3.57046 3.49453
# Velocity P-wave (km/s) = 7.36037 7.48122 7.42104
#
# Compressibility (1/GPa) = 0.01517027
#
# Stress axis : x y z
#
# Youngs Moduli (GPa) = 66.01484 66.01279 67.31302
#
# Poissons Ratio (x) = 0.24948 0.37735
# Poissons Ratio (y) = 0.24949 0.37736
# Poissons Ratio (z) = 0.37007 0.37007
#
# Static dielectric constant tensor:
#      x y z
#    x 3.080900 0.000000 0.000000 
#    y 0.000000 3.080900 0.000000 
#    z 0.000000 0.000000 3.490750 
# 
# 
# High freq. dielectric constant tensor:
#      x y z
#    x 1.645650 0.000000 0.000000 
#    y 0.000000 1.645650 0.000000 
#    z 0.000000 0.000000 1.669870 
# 
# From -- ./inp_files/3607.got.cif
#   From: 2010.03.12/outbox.cif.g09.slc.cpg/sg111_2_cif.got.tgz:3607.got - 2010.04.14 01:59:48.
