data_PCOD8308338
_publ_section_title
;
Structure prediction by ZEFSAII (Michael W. Deem and Ramdas Pophale) SiO2 
 PCOD8308338
Probable space group: P -4 2 C
;
_chemical_formula_sum "Si O2"
_cell_formula_units_Z 36
_cell_length_a 11.093569
_cell_length_b 11.093569
_cell_length_c 13.772171
_cell_angle_alpha 90.000000
_cell_angle_beta 90.000000
_cell_angle_gamma 90.000000
_cell_volume 1694.903530
_symmetry_space_group_name_H-M "P -4 2 C"
_symmetry_group_IT_number 112
_symmetry_cell_setting 'tetragonal'
loop_
_space_group_symop_operation_xyz
x,y,z
y,-x,-z
-x,-y,z
-y,x,-z
x,-y,1/2-z
-x,y,1/2-z
-y,-x,1/2+z
y,x,1/2+z
loop_
_atom_site_type_symbol
_atom_site_label
_atom_site_fract_x
_atom_site_fract_y
_atom_site_fract_z
Si Si1 0.222589 0.000000 0.250000
Si Si2 0.549526 0.123275 0.942355
Si Si3 0.242870 0.123002 0.695172
Si Si4 0.399242 0.303616 0.819517
Si Si5 0.584531 0.838990 0.342276
O O1 0.145010 0.902064 0.312530
O O2 0.296857 0.919776 0.173521
O O3 0.691288 0.129978 0.910661
O O4 0.467992 0.232694 0.903867
O O5 0.500000 0.000000 0.895624
O O6 0.528137 0.116649 0.057437
O O7 0.309383 0.222912 0.757303
O O8 0.267298 0.000000 0.750000
O O9 0.500000 0.363823 0.750000
O O10 0.305349 0.400891 0.861303
O O11 0.500000 0.864179 0.250000
#
# Coordination Sequence:
#
# PCOD8308338 Si02
#       5
#     4   8   8   8   8
#     4  10  22  40  60  90 130 164 210 260 328 400
#     4  11  21  36  67  92 125 168 218 266 327 403
#     4  10  19  38  64  91 124 161 206 262 321 384
#     4   9  21  38  61  91 118 158 216 269 315 381
#     4  11  24  41  60  87 130 174 210 265 336 388
#
# _framework density 21.240148000000001
#
# number of rings (size 3 to 8) (size 9 to 14) (size 15 to 20)
#    0.000    1.778    2.222    2.000    0.000    7.556 
#    0.000    0.000    0.000    0.000    0.000    0.000 
#    0.000    0.000    0.000    0.000    0.000    0.000 
#
# Total GULP energy -445976.093014 kJ/mol
# GULP energy per Si atom -12388.224806 kJ/mol
# Density = 2.119180 g / cm^3
# Si number density = 21.240148 Si / 1000 Ang^3
#
#
#
# Elastic Constant Matrix: (Units=GPa)
#
#
# Indices 1 2 3 4 5 6 
#
# 1 107.4693 24.3808 27.3190 0.0000 0.0000 0.0000
# 2 24.3808 107.4693 27.3190 0.0000 0.0000 0.0000
# 3 27.3190 27.3190 120.2177 0.0000 0.0000 0.0000
# 4 0.0000 0.0000 0.0000 24.2874 0.0000 0.0000
# 5 0.0000 0.0000 0.0000 0.0000 24.2874 0.0000
# 6 0.0000 0.0000 0.0000 0.0000 0.0000 80.1417
#
#
#
# Elastic Compliance Matrix: (Units=1/GPa)
#
#
# Indices 1 2 3 4 5 6 
#
# 1 0.010204 -0.001831 -0.001903 0.000000 0.000000 0.000000
# 2 -0.001831 0.010204 -0.001903 0.000000 0.000000 0.000000
# 3 -0.001903 -0.001903 0.009183 0.000000 0.000000 0.000000
# 4 0.000000 0.000000 0.000000 0.041174 0.000000 0.000000
# 5 0.000000 0.000000 0.000000 0.000000 0.041174 0.000000
# 6 0.000000 0.000000 0.000000 0.000000 0.000000 0.012478
#
#
# Mechanical properties :
#
#
# Convention : Reuss Voigt Hill
#
# Bulk Modulus (GPa) = 54.59141 54.79933 54.69537
# Shear Modulus (GPa) = 35.26206 42.81914 39.04060
#
# Velocity S-wave (km/s) = 4.07893 4.49481 4.29191
# Velocity P-wave (km/s) = 6.92397 7.26592 7.09700
#
# Compressibility (1/GPa) = 0.01831790
#
# Stress axis : x y z
#
# Youngs Moduli (GPa) = 97.99981 97.99981 108.89680
#
# Poissons Ratio (x) = 0.17946 0.20720
# Poissons Ratio (y) = 0.17946 0.20720
# Poissons Ratio (z) = 0.18646 0.18646
#
# Static dielectric constant tensor:
#      x y z
#    x 4.013110 0.000000 0.000000 
#    y 0.000000 4.013110 0.000000 
#    z 0.000000 0.000000 3.458950 
# 
# 
# High freq. dielectric constant tensor:
#      x y z
#    x 1.838300 0.000000 0.000000 
#    y 0.000000 1.838300 0.000000 
#    z 0.000000 0.000000 1.809000 
# 
# From -- ./inp_files/3239.got.cif
#   From: 2010.03.12/outbox.cif.g09.slc.cpg/sg112_2_cif.got.tgz:3239.got - 2010.04.14 02:02:48.
