data_PCOD8308796
_publ_section_title
;
Structure prediction by ZEFSAII (Michael W. Deem and Ramdas Pophale) SiO2 
 PCOD8308796
Probable space group: P -4 21 M 
;
_chemical_formula_sum "Si O2"
_cell_formula_units_Z 48
_cell_length_a 18.291607
_cell_length_b 18.291607
_cell_length_c 9.231880
_cell_angle_alpha 90.000000
_cell_angle_beta 90.000000
_cell_angle_gamma 90.000000
_cell_volume 3088.829060
_symmetry_space_group_name_H-M "P -4 21 M "
_symmetry_group_IT_number 113
_symmetry_cell_setting 'tetragonal'
loop_
_space_group_symop_operation_xyz
x,y,z
y,-x,-z
-x,-y,z
-y,x,-z
1/2+x,1/2-y,-z
1/2-x,1/2+y,-z
1/2-y,1/2-x,z
1/2+y,1/2+x,z
loop_
_atom_site_type_symbol
_atom_site_label
_atom_site_fract_x
_atom_site_fract_y
_atom_site_fract_z
Si Si1 0.184479 0.195691 0.836388
Si Si2 0.916234 0.184379 0.411799
Si Si3 0.796989 0.415886 0.659679
Si Si4 0.916231 0.815623 0.411797
Si Si5 0.796987 0.584117 0.659679
Si Si6 0.815524 0.195693 0.836389
O O1 0.259096 0.240904 0.823441
O O2 0.194637 0.123703 0.740533
O O3 0.116330 0.244507 0.784053
O O4 0.169991 0.169987 0.999999
O O5 0.906663 0.258350 0.504265
O O6 0.883581 0.116421 0.500001
O O7 0.000001 0.166545 0.379565
O O8 0.873836 0.373836 0.655012
O O9 0.812716 0.500002 0.697062
O O10 0.744510 0.383673 0.784053
O O11 0.906660 0.741652 0.504265
O O12 0.876294 0.805366 0.259466
O O13 0.873834 0.626167 0.655011
O O14 0.740907 0.240907 0.823443
#
# Coordination Sequence:
#
# PCOD8308796 Si02
#       6
#     8   8   8   8   8   8
#     4   9  17  29  45  65  88 113 143 179 215 252
#     4   9  17  29  45  63  84 112 144 177 214 256
#     4   9  17  29  45  65  88 114 144 177 214 256
#     4   9  17  29  45  63  84 112 144 177 214 256
#     4   9  17  29  45  65  88 114 144 177 214 256
#     4   9  17  29  45  65  88 113 143 179 215 252
#
# _framework density 15.539868999999999
#
# number of rings (size 3 to 8) (size 9 to 14) (size 15 to 20)
#    0.000    3.000    0.000    1.000    0.000    6.000 
#    0.000    0.000    0.000    0.000    0.000    4.667 
#    0.000    8.000    0.000    0.000    0.000    0.000 
#
# Total GULP energy -595240.559381 kJ/mol
# GULP energy per Si atom -12400.844987 kJ/mol
# Density = 1.550450 g / cm^3
# Si number density = 15.539869 Si / 1000 Ang^3
#
#
#
# Elastic Constant Matrix: (Units=GPa)
#
#
# Indices 1 2 3 4 5 6 
#
# 1 114.7488 54.1816 57.3530 0.0000 0.0000 0.0000
# 2 54.1816 114.7503 57.3527 0.0000 0.0000 0.0000
# 3 57.3530 57.3527 132.9023 0.0000 0.0000 0.0000
# 4 0.0000 0.0000 0.0000 17.5675 0.0000 0.0000
# 5 0.0000 0.0000 0.0000 0.0000 17.5674 0.0000
# 6 0.0000 0.0000 0.0000 0.0000 0.0000 17.1092
#
#
#
# Elastic Compliance Matrix: (Units=1/GPa)
#
#
# Indices 1 2 3 4 5 6 
#
# 1 0.012442 -0.004069 -0.003613 0.000000 0.000000 0.000000
# 2 -0.004069 0.012442 -0.003613 0.000000 0.000000 0.000000
# 3 -0.003613 -0.003613 0.010643 0.000000 0.000000 0.000000
# 4 0.000000 0.000000 0.000000 0.056923 0.000000 0.000000
# 5 0.000000 0.000000 0.000000 0.000000 0.056923 0.000000
# 6 0.000000 0.000000 0.000000 0.000000 0.000000 0.058448
#
#
# Mechanical properties :
#
#
# Convention : Reuss Voigt Hill
#
# Bulk Modulus (GPa) = 77.30521 77.79735 77.55128
# Shear Modulus (GPa) = 21.30162 23.34976 22.32569
#
# Velocity S-wave (km/s) = 3.70641 3.88051 3.79446
# Velocity P-wave (km/s) = 8.25657 8.38150 8.31927
#
# Compressibility (1/GPa) = 0.01293574
#
# Stress axis : x y z
#
# Youngs Moduli (GPa) = 80.37401 80.37557 93.95926
#
# Poissons Ratio (x) = 0.32702 0.33951
# Poissons Ratio (y) = 0.32702 0.33950
# Poissons Ratio (z) = 0.29042 0.29042
#
# Static dielectric constant tensor:
#      x y z
#    x 2.916660 0.000000 0.000000 
#    y 0.000000 2.916660 0.000000 
#    z 0.000000 0.000000 2.990670 
# 
# 
# High freq. dielectric constant tensor:
#      x y z
#    x 1.591470 0.000000 0.000000 
#    y 0.000000 1.591470 0.000000 
#    z 0.000000 0.000000 1.593180 
# 
# From -- ./inp_files/1160.got.cif
#   From: 2010.03.12/outbox.cif.g09.slc.cpg/sg113_cif.got.tgz:1160.got - 2010.04.14 02:06:34.
