data_PCOD8308872
_publ_section_title
;
Structure prediction by ZEFSAII (Michael W. Deem and Ramdas Pophale) SiO2 
 PCOD8308872
Probable space group: P -4 21 C
;
_chemical_formula_sum "Si O2"
_cell_formula_units_Z 48
_cell_length_a 12.988064
_cell_length_b 12.988064
_cell_length_c 13.222891
_cell_angle_alpha 90.000000
_cell_angle_beta 90.000000
_cell_angle_gamma 90.000000
_cell_volume 2230.566924
_symmetry_space_group_name_H-M "P -4 21 C"
_symmetry_group_IT_number 114
_symmetry_cell_setting 'tetragonal'
loop_
_space_group_symop_operation_xyz
x,y,z
y,-x,-z
-x,-y,z
-y,x,-z
1/2+x,1/2-y,1/2-z
1/2-x,1/2+y,1/2-z
1/2-y,1/2-x,1/2+z
1/2+y,1/2+x,1/2+z
loop_
_atom_site_type_symbol
_atom_site_label
_atom_site_fract_x
_atom_site_fract_y
_atom_site_fract_z
Si Si1 0.000000 0.000000 0.500000
Si Si2 0.343981 0.141030 0.437914
Si Si3 0.454103 0.295187 0.093698
Si Si4 0.500000 0.500000 0.500000
Si Si5 0.336002 0.336568 0.549583
Si Si6 0.781161 0.263151 0.258795
Si Si7 0.500000 0.000000 0.033234
Si Si8 0.846577 0.651507 0.898527
O O1 0.963314 0.084479 0.420724
O O2 0.241555 0.117150 0.501148
O O3 0.391343 0.248390 0.481069
O O4 0.312862 0.148891 0.321292
O O5 0.419280 0.046450 0.455099
O O6 0.389191 0.275916 0.195796
O O7 0.567471 0.244762 0.094227
O O8 0.413832 0.434019 0.561629
O O9 0.314850 0.296069 0.662051
O O10 0.225557 0.358500 0.496295
O O11 0.721626 0.170091 0.200991
O O12 0.586285 0.047722 0.107547
#
# Coordination Sequence:
#
# PCOD8308872 Si02
#       8
#     2   8   8   2   8   8   4   8
#     4  12  20  40  62  88 124 158 204 256 306 376
#     4   9  20  42  63  88 124 162 206 259 313 376
#     4  10  22  40  65  91 123 167 208 256 318 374
#     4  12  24  40  66  92 128 174 208 260 338 384
#     4  10  22  42  63  89 128 168 209 262 316 381
#     4  10  21  42  66  90 125 165 208 263 319 376
#     4  10  20  40  68  92 122 162 206 258 318 378
#     4  10  22  43  65  91 128 166 209 262 314 378
#
# _framework density 21.519193000000001
#
# number of rings (size 3 to 8) (size 9 to 14) (size 15 to 20)
#    0.000    2.000    0.000    4.000    0.000    4.000 
#    0.000   50.000    0.000    0.000    0.000    0.000 
#    0.000    0.000    0.000    0.000    0.000    0.000 
#
# Total GULP energy -594771.078364 kJ/mol
# GULP energy per Si atom -12391.064133 kJ/mol
# Density = 2.147021 g / cm^3
# Si number density = 21.519193 Si / 1000 Ang^3
#
#
#
# Elastic Constant Matrix: (Units=GPa)
#
#
# Indices 1 2 3 4 5 6 
#
# 1 131.0428 59.6412 54.1550 0.0000 0.0000 0.0000
# 2 59.6412 131.0428 54.1550 0.0000 0.0000 0.0000
# 3 54.1550 54.1550 138.2781 0.0000 0.0000 0.0000
# 4 0.0000 0.0000 0.0000 18.1063 0.0000 0.0000
# 5 0.0000 0.0000 0.0000 0.0000 18.1063 0.0000
# 6 0.0000 0.0000 0.0000 0.0000 0.0000 45.8599
#
#
#
# Elastic Compliance Matrix: (Units=1/GPa)
#
#
# Indices 1 2 3 4 5 6 
#
# 1 0.010375 -0.003630 -0.002641 0.000000 0.000000 0.000000
# 2 -0.003630 0.010375 -0.002641 0.000000 0.000000 0.000000
# 3 -0.002641 -0.002641 0.009301 0.000000 0.000000 0.000000
# 4 0.000000 0.000000 0.000000 0.055229 0.000000 0.000000
# 5 0.000000 0.000000 0.000000 0.000000 0.055229 0.000000
# 6 0.000000 0.000000 0.000000 0.000000 0.000000 0.021806
#
#
# Mechanical properties :
#
#
# Convention : Reuss Voigt Hill
#
# Bulk Modulus (GPa) = 81.80463 81.80734 81.80598
# Shear Modulus (GPa) = 27.14199 31.90865 29.52532
#
# Velocity S-wave (km/s) = 3.55532 3.85489 3.70813
# Velocity P-wave (km/s) = 7.41289 7.61000 7.51209
#
# Compressibility (1/GPa) = 0.01222425
#
# Stress axis : x y z
#
# Youngs Moduli (GPa) = 96.38580 96.38580 107.51757
#
# Poissons Ratio (x) = 0.34991 0.28400
# Poissons Ratio (y) = 0.34991 0.28400
# Poissons Ratio (z) = 0.25460 0.25460
#
# Static dielectric constant tensor:
#      x y z
#    x 4.111730 0.000000 0.000000 
#    y 0.000000 4.111730 0.000000 
#    z 0.000000 0.000000 3.653320 
# 
# 
# High freq. dielectric constant tensor:
#      x y z
#    x 1.854640 0.000000 0.000000 
#    y 0.000000 1.854640 0.000000 
#    z 0.000000 0.000000 1.822470 
# 
# From -- ./inp_files/1717.got.cif
#   From: 2010.03.12/outbox.cif.g09.slc.cpg/sg114_1_cif.got.tgz:1717.got - 2010.04.14 02:08:34.
