data_PCOD8308294
_publ_section_title
;
Structure prediction by ZEFSAII (Michael W. Deem and Ramdas Pophale) SiO2 
 PCOD8308294
Probable space group: P -4 2 M 
;
_chemical_formula_sum "Si O2"
_cell_formula_units_Z 24
_cell_length_a 10.138715
_cell_length_b 10.138715
_cell_length_c 10.526017
_cell_angle_alpha 90.000000
_cell_angle_beta 90.000000
_cell_angle_gamma 90.000000
_cell_volume 1082.006569
_symmetry_space_group_name_H-M "P -4 2 M "
_symmetry_group_IT_number 111
_symmetry_cell_setting 'tetragonal'
loop_
_space_group_symop_operation_xyz
x,y,z
y,-x,-z
-x,-y,z
-y,x,-z
x,-y,-z
-x,y,-z
-y,-x,z
y,x,z
loop_
_atom_site_type_symbol
_atom_site_label
_atom_site_fract_x
_atom_site_fract_y
_atom_site_fract_z
Si Si1 0.000000 0.217258 0.000000
Si Si2 0.491585 0.712421 0.857044
Si Si3 0.000000 0.217810 0.500000
Si Si4 0.098571 0.320934 0.751052
O O1 0.996807 0.306562 0.126818
O O2 0.869646 0.130355 0.988728
O O3 0.345346 0.654655 0.824554
O O4 0.593319 0.593319 0.847273
O O5 0.536473 0.827975 0.759857
O O6 0.500000 0.769881 0.000000
O O7 0.983769 0.313014 0.378563
O O8 0.127740 0.127740 0.476556
O O9 0.202131 0.202131 0.753970
#
# Coordination Sequence:
#
# PCOD8308294 Si02
#       4
#     4   8   4   8
#     4   9  16  26  41  66 104 146 185 221 256 308
#     4   8  14  26  45  70 100 134 177 230 280 320
#     4   9  16  26  42  70 113 158 188 211 251 314
#     4   9  16  26  43  70 105 144 181 218 264 316
#
# _framework density 22.181011000000002
#
# number of rings (size 3 to 8) (size 9 to 14) (size 15 to 20)
#    0.000    3.333    0.000    2.000    0.000    4.000 
#    0.000    0.833    0.000    0.000    0.000    7.000 
#    0.000   37.333    0.000   44.667    0.000    4.000 
#
# Total GULP energy -297454.293926 kJ/mol
# GULP energy per Si atom -12393.928914 kJ/mol
# Density = 2.213053 g / cm^3
# Si number density = 22.181011 Si / 1000 Ang^3
#
#
#
# Elastic Constant Matrix: (Units=GPa)
#
#
# Indices 1 2 3 4 5 6 
#
# 1 63.0732 37.9276 72.2996 0.0000 0.0000 0.0000
# 2 37.9276 63.0722 72.2995 0.0000 0.0000 0.0000
# 3 72.2996 72.2995 201.4363 0.0000 0.0000 0.0000
# 4 0.0000 0.0000 0.0000 23.1363 0.0000 0.0000
# 5 0.0000 0.0000 0.0000 0.0000 23.1366 0.0000
# 6 0.0000 0.0000 0.0000 0.0000 0.0000 6.7163
#
#
#
# Elastic Compliance Matrix: (Units=1/GPa)
#
#
# Indices 1 2 3 4 5 6 
#
# 1 0.030067 -0.009701 -0.007310 0.000000 0.000000 0.000000
# 2 -0.009701 0.030068 -0.007310 0.000000 0.000000 0.000000
# 3 -0.007310 -0.007310 0.010212 0.000000 0.000000 0.000000
# 4 0.000000 0.000000 0.000000 0.043222 0.000000 0.000000
# 5 0.000000 0.000000 0.000000 0.000000 0.043222 0.000000
# 6 0.000000 0.000000 0.000000 0.000000 0.000000 0.148891
#
#
# Mechanical properties :
#
#
# Convention : Reuss Voigt Hill
#
# Bulk Modulus (GPa) = 46.07283 76.95945 61.51614
# Shear Modulus (GPa) = 13.82901 20.26818 17.04859
#
# Velocity S-wave (km/s) = 2.49963 3.02613 2.77539
# Velocity P-wave (km/s) = 5.39882 6.85430 6.16963
#
# Compressibility (1/GPa) = 0.02170476
#
# Stress axis : x y z
#
# Youngs Moduli (GPa) = 33.25868 33.25778 97.92712
#
# Poissons Ratio (x) = 0.32265 0.71582
# Poissons Ratio (y) = 0.32266 0.71585
# Poissons Ratio (z) = 0.24311 0.24312
#
# Static dielectric constant tensor:
#      x y z
#    x 4.054700 0.000000 0.000000 
#    y 0.000000 4.054710 0.000000 
#    z 0.000000 0.000000 4.049880 
# 
# 
# High freq. dielectric constant tensor:
#      x y z
#    x 1.863430 0.000000 0.000000 
#    y 0.000000 1.863430 0.000000 
#    z 0.000000 0.000000 1.847020 
# 
# From -- ./inp_files/1091.got.cif
#   From: 2010.03.12/outbox.cif.g09.slc.cpg/sg111_1_cif.got.tgz:1091.got - 2010.04.14 01:59:48.
