data_PCOD8308785
_publ_section_title
;
Structure prediction by ZEFSAII (Michael W. Deem and Ramdas Pophale) SiO2 
 PCOD8308785
Probable space group: P -4 21 M 
;
_chemical_formula_sum "Si O2"
_cell_formula_units_Z 40
_cell_length_a 13.274105
_cell_length_b 13.274105
_cell_length_c 13.002594
_cell_angle_alpha 90.000000
_cell_angle_beta 90.000000
_cell_angle_gamma 90.000000
_cell_volume 2291.081294
_symmetry_space_group_name_H-M "P -4 21 M "
_symmetry_group_IT_number 113
_symmetry_cell_setting 'tetragonal'
loop_
_space_group_symop_operation_xyz
x,y,z
y,-x,-z
-x,-y,z
-y,x,-z
1/2+x,1/2-y,-z
1/2-x,1/2+y,-z
1/2-y,1/2-x,z
1/2+y,1/2+x,z
loop_
_atom_site_type_symbol
_atom_site_label
_atom_site_fract_x
_atom_site_fract_y
_atom_site_fract_z
Si Si1 0.664370 0.005383 0.613164
Si Si2 0.245328 0.914932 0.197517
Si Si3 0.994617 0.335631 0.613167
Si Si4 0.665735 0.000001 0.999998
Si Si5 0.245328 0.085069 0.802480
O O1 0.576597 0.923404 0.617693
O O2 0.747735 0.983767 0.700257
O O3 0.615200 0.115200 0.633084
O O4 0.715688 0.000001 0.499998
O O5 0.330118 0.830118 0.201576
O O6 0.252266 0.983768 0.299739
O O7 0.135042 0.864958 0.192598
O O8 0.262385 0.984012 0.097799
O O9 0.076596 0.423405 0.617698
O O10 0.884799 0.384799 0.633085
O O11 0.596966 0.096966 0.977276
O O12 0.596963 0.903037 0.022720
O O13 0.737614 0.984012 0.902197
O O14 0.330117 0.169883 0.798420
#
# Coordination Sequence:
#
# PCOD8308785 Si02
#       5
#     8   8   8   8   8
#     4   8  13  22  38  60  84 109 137 168 203 246
#     4   9  16  25  39  61  87 111 137 173 212 245
#     4   8  13  22  38  60  84 109 137 168 203 246
#     4   9  16  26  42  63  86 112 140 169 204 248
#     4   9  16  25  39  61  87 111 137 173 212 245
#
# _framework density 17.459007
#
# number of rings (size 3 to 8) (size 9 to 14) (size 15 to 20)
#    0.000    3.400    0.000    2.400    0.000    4.800 
#    0.000    0.000    0.000    3.000    0.000   11.200 
#    0.000    0.000    0.000    0.000    0.000    0.000 
#
# Total GULP energy -495783.021338 kJ/mol
# GULP energy per Si atom -12394.575533 kJ/mol
# Density = 1.741927 g / cm^3
# Si number density = 17.459007 Si / 1000 Ang^3
#
#
#
# Elastic Constant Matrix: (Units=GPa)
#
#
# Indices 1 2 3 4 5 6 
#
# 1 47.2959 36.3939 62.3280 0.0000 0.0000 0.0000
# 2 36.3939 47.2961 62.3277 0.0000 0.0000 0.0000
# 3 62.3280 62.3277 199.2579 0.0000 0.0000 0.0000
# 4 0.0000 0.0000 0.0000 4.1355 0.0000 0.0000
# 5 0.0000 0.0000 0.0000 0.0000 4.1356 0.0000
# 6 0.0000 0.0000 0.0000 0.0000 0.0000 19.7656
#
#
#
# Elastic Compliance Matrix: (Units=1/GPa)
#
#
# Indices 1 2 3 4 5 6 
#
# 1 0.057050 -0.034677 -0.006998 0.000000 0.000000 0.000000
# 2 -0.034677 0.057049 -0.006998 0.000000 0.000000 0.000000
# 3 -0.006998 -0.006998 0.009397 0.000000 0.000000 0.000000
# 4 0.000000 0.000000 0.000000 0.241811 0.000000 0.000000
# 5 0.000000 0.000000 0.000000 0.000000 0.241805 0.000000
# 6 0.000000 0.000000 0.000000 0.000000 0.000000 0.050593
#
#
# Mechanical properties :
#
#
# Convention : Reuss Voigt Hill
#
# Bulk Modulus (GPa) = 38.24202 68.43880 53.34041
# Shear Modulus (GPa) = 6.54650 14.46066 10.50358
#
# Velocity S-wave (km/s) = 1.93850 2.88108 2.45544
# Velocity P-wave (km/s) = 5.19248 7.09594 6.21748
#
# Compressibility (1/GPa) = 0.02614925
#
# Stress axis : x y z
#
# Youngs Moduli (GPa) = 17.52856 17.52879 106.42073
#
# Poissons Ratio (x) = 0.60784 0.74477
# Poissons Ratio (y) = 0.60783 0.74473
# Poissons Ratio (z) = 0.12267 0.12267
#
# Static dielectric constant tensor:
#      x y z
#    x 2.940550 0.000000 0.000000 
#    y 0.000000 2.940550 0.000000 
#    z 0.000000 0.000000 3.625250 
# 
# 
# High freq. dielectric constant tensor:
#      x y z
#    x 1.625260 0.000000 0.000000 
#    y 0.000000 1.625260 0.000000 
#    z 0.000000 0.000000 1.695600 
# 
# From -- ./inp_files/1714.got.cif
#   From: 2010.03.12/outbox.cif.g09.slc.cpg/sg113_cif.got.tgz:1714.got - 2010.04.14 02:06:34.
