data_PCOD8308378
_publ_section_title
;
Structure prediction by ZEFSAII (Michael W. Deem and Ramdas Pophale) SiO2 
 PCOD8308378
Probable space group: P -4 2 C
;
_chemical_formula_sum "Si O2"
_cell_formula_units_Z 14
_cell_length_a 7.227430
_cell_length_b 7.227430
_cell_length_c 15.784800
_cell_angle_alpha 90.000000
_cell_angle_beta 90.000000
_cell_angle_gamma 90.000000
_cell_volume 824.530778
_symmetry_space_group_name_H-M "P -4 2 C"
_symmetry_group_IT_number 112
_symmetry_cell_setting 'tetragonal'
loop_
_space_group_symop_operation_xyz
x,y,z
y,-x,-z
-x,-y,z
-y,x,-z
x,-y,1/2-z
-x,y,1/2-z
-y,-x,1/2+z
y,x,1/2+z
loop_
_atom_site_type_symbol
_atom_site_label
_atom_site_fract_x
_atom_site_fract_y
_atom_site_fract_z
Si Si1 0.645541 0.854459 0.087780
Si Si2 0.500000 0.500000 0.000000
Si Si3 0.000000 0.000000 0.000000
Si Si4 0.000000 0.500000 0.750000
O O1 0.598140 0.647579 0.060364
O O2 0.500000 0.000000 0.045783
O O3 0.629473 0.870527 0.190307
O O4 0.852421 0.901860 0.060364
#
# Coordination Sequence:
#
# PCOD8308378 Si02
#       4
#     8   2   2   2
#     4  10  21  36  57  88 111 149 184 240 269 344
#     4  12  20  38  64  80 116 150 196 220 292 326
#     4  12  20  38  64  80 116 150 196 220 292 326
#     4   8  20  40  52  88 120 138 192 236 284 324
#
# _framework density 16.979353
#
# number of rings (size 3 to 8) (size 9 to 14) (size 15 to 20)
#    1.714    0.000    5.714    0.000    0.000    2.286 
#    0.000    0.000    0.000    0.000    0.000    0.000 
#    0.000    0.000    0.000    0.000    0.000    0.000 
#
# Total GULP energy -173491.726652 kJ/mol
# GULP energy per Si atom -12392.266189 kJ/mol
# Density = 1.694071 g / cm^3
# Si number density = 16.979353 Si / 1000 Ang^3
#
#
#
# Elastic Constant Matrix: (Units=GPa)
#
#
# Indices 1 2 3 4 5 6 
#
# 1 116.3477 54.9544 58.9197 0.0000 0.0000 0.0000
# 2 54.9544 116.3477 58.9197 0.0000 0.0000 0.0000
# 3 58.9197 58.9197 139.5417 0.0000 0.0000 0.0000
# 4 0.0000 0.0000 0.0000 13.9328 0.0000 0.0000
# 5 0.0000 0.0000 0.0000 0.0000 13.9328 0.0000
# 6 0.0000 0.0000 0.0000 0.0000 0.0000 37.3540
#
#
#
# Elastic Compliance Matrix: (Units=1/GPa)
#
#
# Indices 1 2 3 4 5 6 
#
# 1 0.012258 -0.004031 -0.003474 0.000000 0.000000 0.000000
# 2 -0.004031 0.012258 -0.003474 0.000000 0.000000 0.000000
# 3 -0.003474 -0.003474 0.010100 0.000000 0.000000 0.000000
# 4 0.000000 0.000000 0.000000 0.071773 0.000000 0.000000
# 5 0.000000 0.000000 0.000000 0.000000 0.071773 0.000000
# 6 0.000000 0.000000 0.000000 0.000000 0.000000 0.026771
#
#
# Mechanical properties :
#
#
# Convention : Reuss Voigt Hill
#
# Bulk Modulus (GPa) = 78.99486 79.75830 79.37658
# Shear Modulus (GPa) = 21.63484 26.34016 23.98750
#
# Velocity S-wave (km/s) = 3.57345 3.94293 3.76273
# Velocity P-wave (km/s) = 7.97816 8.23436 8.10727
#
# Compressibility (1/GPa) = 0.01265905
#
# Stress axis : x y z
#
# Youngs Moduli (GPa) = 81.58019 81.58019 99.01066
#
# Poissons Ratio (x) = 0.32881 0.34395
# Poissons Ratio (y) = 0.32881 0.34395
# Poissons Ratio (z) = 0.28340 0.28340
#
# Static dielectric constant tensor:
#      x y z
#    x 3.081690 0.000000 0.000000 
#    y 0.000000 3.081690 0.000000 
#    z 0.000000 0.000000 2.951250 
# 
# 
# High freq. dielectric constant tensor:
#      x y z
#    x 1.655230 0.000000 0.000000 
#    y 0.000000 1.655230 0.000000 
#    z 0.000000 0.000000 1.638720 
# 
# From -- ./inp_files/577.got.cif
#   From: 2010.03.12/outbox.cif.g09.slc.cpg/sg112_1_cif.got.tgz:577.got - 2010.04.14 02:02:48.
