data_PCOD8308794
_publ_section_title
;
Structure prediction by ZEFSAII (Michael W. Deem and Ramdas Pophale) SiO2 
 PCOD8308794
Probable space group: P -4 21 M 
;
_chemical_formula_sum "Si O2"
_cell_formula_units_Z 56
_cell_length_a 13.834928
_cell_length_b 13.834928
_cell_length_c 17.232023
_cell_angle_alpha 90.000000
_cell_angle_beta 90.000000
_cell_angle_gamma 90.000000
_cell_volume 3298.299373
_symmetry_space_group_name_H-M "P -4 21 M "
_symmetry_group_IT_number 113
_symmetry_cell_setting 'tetragonal'
loop_
_space_group_symop_operation_xyz
x,y,z
y,-x,-z
-x,-y,z
-y,x,-z
1/2+x,1/2-y,-z
1/2-x,1/2+y,-z
1/2-y,1/2-x,z
1/2+y,1/2+x,z
loop_
_atom_site_type_symbol
_atom_site_label
_atom_site_fract_x
_atom_site_fract_y
_atom_site_fract_z
Si Si1 0.283749 0.372143 0.339097
Si Si2 0.250719 0.086660 0.098587
Si Si3 0.228034 0.887440 0.834749
Si Si4 0.006152 0.343767 0.766322
Si Si5 0.845324 0.012403 0.516156
Si Si6 0.658287 0.000388 0.954812
Si Si7 0.784304 0.438119 0.612064
O O1 0.177360 0.322641 0.348965
O O2 0.299620 0.418016 0.253094
O O3 0.301722 0.458099 0.400540
O O4 0.364037 0.292015 0.352519
O O5 0.336783 0.163218 0.097046
O O6 0.146307 0.137721 0.110694
O O7 0.260766 0.014009 0.171120
O O8 0.261264 0.023993 0.019989
O O9 0.293644 0.793644 0.824710
O O10 0.283554 0.974948 0.876417
O O11 0.917871 0.417871 0.766838
O O12 0.016257 0.302889 0.679522
O O13 0.105560 0.394441 0.790632
O O14 0.753518 0.997140 0.461278
O O15 0.905104 0.912676 0.522350
O O16 0.591771 0.091771 0.981294
O O17 0.591129 0.908872 0.935891
O O18 0.881394 0.381394 0.586983
#
# Coordination Sequence:
#
# PCOD8308794 Si02
#       7
#     8   8   8   8   8   8   8
#     4   9  16  29  49  69  87 118 161 192 218 269
#     4   9  15  26  45  67  90 119 153 186 226 278
#     4   9  16  28  48  68  89 122 159 188 223 274
#     4   9  15  23  40  68  97 118 142 185 234 275
#     4   9  18  31  48  67  90 120 155 189 228 273
#     4   9  17  28  45  70  95 119 152 194 232 266
#     4   9  16  28  45  66  90 118 154 189 227 273
#
# _framework density 16.978446999999999
#
# number of rings (size 3 to 8) (size 9 to 14) (size 15 to 20)
#    0.000    3.000    1.429    0.429    0.000    2.286 
#    0.000    0.714    3.143    1.286    0.000    0.000 
#    0.000    0.000    0.000    0.000    0.000    0.000 
#
# Total GULP energy -693995.745944 kJ/mol
# GULP energy per Si atom -12392.781178 kJ/mol
# Density = 1.693980 g / cm^3
# Si number density = 16.978447 Si / 1000 Ang^3
#
#
#
# Elastic Constant Matrix: (Units=GPa)
#
#
# Indices 1 2 3 4 5 6 
#
# 1 45.6729 25.5544 45.9585 0.0000 0.0000 0.0000
# 2 25.5544 45.6718 45.9584 0.0000 0.0000 0.0000
# 3 45.9585 45.9584 135.0416 0.0000 0.0000 0.0000
# 4 0.0000 0.0000 0.0000 24.4716 0.0000 0.0000
# 5 0.0000 0.0000 0.0000 0.0000 24.4715 0.0000
# 6 0.0000 0.0000 0.0000 0.0000 0.0000 19.3304
#
#
#
# Elastic Compliance Matrix: (Units=1/GPa)
#
#
# Indices 1 2 3 4 5 6 
#
# 1 0.037370 -0.012336 -0.008520 0.000000 0.000000 0.000000
# 2 -0.012336 0.037371 -0.008520 0.000000 0.000000 0.000000
# 3 -0.008520 -0.008520 0.013204 0.000000 0.000000 0.000000
# 4 0.000000 0.000000 0.000000 0.040864 0.000000 0.000000
# 5 0.000000 0.000000 0.000000 0.000000 0.040864 0.000000
# 6 0.000000 0.000000 0.000000 0.000000 0.000000 0.051732
#
#
# Mechanical properties :
#
#
# Convention : Reuss Voigt Hill
#
# Bulk Modulus (GPa) = 34.25415 51.25876 42.75645
# Shear Modulus (GPa) = 17.24800 20.91568 19.08184
#
# Velocity S-wave (km/s) = 3.19074 3.51365 3.35608
# Velocity P-wave (km/s) = 5.81320 6.83498 6.34469
#
# Compressibility (1/GPa) = 0.02919354
#
# Stress axis : x y z
#
# Youngs Moduli (GPa) = 26.75940 26.75851 75.73299
#
# Poissons Ratio (x) = 0.33010 0.64523
# Poissons Ratio (y) = 0.33011 0.64526
# Poissons Ratio (z) = 0.22798 0.22799
#
# Static dielectric constant tensor:
#      x y z
#    x 3.005380 0.000000 0.000000 
#    y 0.000000 3.005380 0.000000 
#    z 0.000000 0.000000 3.271790 
# 
# 
# High freq. dielectric constant tensor:
#      x y z
#    x 1.626050 0.000000 0.000000 
#    y 0.000000 1.626050 0.000000 
#    z 0.000000 0.000000 1.658940 
# 
# From -- ./inp_files/2545.got.cif
#   From: 2010.03.12/outbox.cif.g09.slc.cpg/sg113_cif.got.tgz:2545.got - 2010.04.14 02:06:34.
