data_PCOD8308462
_publ_section_title
;
Structure prediction by ZEFSAII (Michael W. Deem and Ramdas Pophale) SiO2 
 PCOD8308462
Probable space group: P -4 2 C
;
_chemical_formula_sum "Si O2"
_cell_formula_units_Z 40
_cell_length_a 19.900043
_cell_length_b 19.900043
_cell_length_c 4.919409
_cell_angle_alpha 90.000000
_cell_angle_beta 90.000000
_cell_angle_gamma 90.000000
_cell_volume 1948.143577
_symmetry_space_group_name_H-M "P -4 2 C"
_symmetry_group_IT_number 112
_symmetry_cell_setting 'tetragonal'
loop_
_space_group_symop_operation_xyz
x,y,z
y,-x,-z
-x,-y,z
-y,x,-z
x,-y,1/2-z
-x,y,1/2-z
-y,-x,1/2+z
y,x,1/2+z
loop_
_atom_site_type_symbol
_atom_site_label
_atom_site_fract_x
_atom_site_fract_y
_atom_site_fract_z
Si Si1 0.821918 0.758868 0.666413
Si Si2 0.128891 0.574374 0.237089
Si Si3 0.638575 0.423875 0.776786
Si Si4 0.212151 0.609899 0.760624
Si Si5 0.044253 0.695578 0.008631
O O1 0.787632 0.813502 0.468960
O O2 0.783638 0.687773 0.649412
O O3 0.899794 0.748999 0.587439
O O4 0.096061 0.500000 0.250000
O O5 0.157897 0.601379 0.521311
O O6 0.189270 0.567140 0.021190
O O7 0.074444 0.626775 0.127605
O O8 0.614023 0.500000 0.750000
O O9 0.595883 0.373725 0.588357
O O10 0.715338 0.417081 0.680304
O O11 0.000000 0.675573 0.750000
O O12 0.000000 0.728874 0.250000
#
# Coordination Sequence:
#
# PCOD8308462 Si02
#       5
#     8   8   8   8   8
#     4  11  21  38  63  89 116 149 193 239 287 340
#     4  11  22  38  60  86 119 162 203 240 286 348
#     4  12  25  40  58  79 107 146 193 251 318 382
#     4  11  22  39  61  86 113 144 194 257 308 346
#     4  11  23  40  59  87 127 163 195 239 287 340
#
# _framework density 20.532367000000001
#
# number of rings (size 3 to 8) (size 9 to 14) (size 15 to 20)
#    0.000    0.800    0.000   10.800    0.000    1.600 
#    0.000    3.000    0.000    0.000    0.000    0.000 
#    0.000   28.000    0.000    0.000    0.000    0.000 
#
# Total GULP energy -496158.897955 kJ/mol
# GULP energy per Si atom -12403.972449 kJ/mol
# Density = 2.048563 g / cm^3
# Si number density = 20.532367 Si / 1000 Ang^3
#
#
#
# Elastic Constant Matrix: (Units=GPa)
#
#
# Indices 1 2 3 4 5 6 
#
# 1 87.4602 29.3608 24.8618 0.0000 0.0000 0.0000
# 2 29.3608 87.4602 24.8618 0.0000 0.0000 0.0000
# 3 24.8618 24.8618 107.7503 0.0000 0.0000 0.0000
# 4 0.0000 0.0000 0.0000 36.0044 0.0000 0.0000
# 5 0.0000 0.0000 0.0000 0.0000 36.0044 0.0000
# 6 0.0000 0.0000 0.0000 0.0000 0.0000 12.6222
#
#
#
# Elastic Compliance Matrix: (Units=1/GPa)
#
#
# Indices 1 2 3 4 5 6 
#
# 1 0.013352 -0.003860 -0.002190 0.000000 0.000000 0.000000
# 2 -0.003860 0.013352 -0.002190 0.000000 0.000000 0.000000
# 3 -0.002190 -0.002190 0.010291 0.000000 0.000000 0.000000
# 4 0.000000 0.000000 0.000000 0.027774 0.000000 0.000000
# 5 0.000000 0.000000 0.000000 0.000000 0.027774 0.000000
# 6 0.000000 0.000000 0.000000 0.000000 0.000000 0.079226
#
#
# Mechanical properties :
#
#
# Convention : Reuss Voigt Hill
#
# Bulk Modulus (GPa) = 48.74420 48.98215 48.86317
# Shear Modulus (GPa) = 25.62934 30.49860 28.06397
#
# Velocity S-wave (km/s) = 3.53688 3.85826 3.70106
# Velocity P-wave (km/s) = 6.36169 6.61484 6.48950
#
# Compressibility (1/GPa) = 0.02051526
#
# Stress axis : x y z
#
# Youngs Moduli (GPa) = 74.89448 74.89448 97.16814
#
# Poissons Ratio (x) = 0.28908 0.21282
# Poissons Ratio (y) = 0.28908 0.21282
# Poissons Ratio (z) = 0.16404 0.16404
#
# Static dielectric constant tensor:
#      x y z
#    x 3.635670 0.000000 0.000000 
#    y 0.000000 3.635670 0.000000 
#    z 0.000000 0.000000 3.969850 
# 
# 
# High freq. dielectric constant tensor:
#      x y z
#    x 1.788020 0.000000 0.000000 
#    y 0.000000 1.788020 0.000000 
#    z 0.000000 0.000000 1.828420 
# 
# From -- ./inp_files/277.got.cif
#   From: 2010.03.12/outbox.cif.g09.slc.cpg/sg112_1_cif.got.tgz:277.got - 2010.04.14 02:02:48.
