data_PCOD8308252
_publ_section_title
;
Structure prediction by ZEFSAII (Michael W. Deem and Ramdas Pophale) SiO2 
 PCOD8308252
Probable space group: P -4 2 M 
;
_chemical_formula_sum "Si O2"
_cell_formula_units_Z 48
_cell_length_a 17.638739
_cell_length_b 17.638739
_cell_length_c 8.748693
_cell_angle_alpha 90.000000
_cell_angle_beta 90.000000
_cell_angle_gamma 90.000000
_cell_volume 2721.938103
_symmetry_space_group_name_H-M "P -4 2 M "
_symmetry_group_IT_number 111
_symmetry_cell_setting 'tetragonal'
loop_
_space_group_symop_operation_xyz
x,y,z
y,-x,-z
-x,-y,z
-y,x,-z
x,-y,-z
-x,y,-z
-y,-x,z
y,x,z
loop_
_atom_site_type_symbol
_atom_site_label
_atom_site_fract_x
_atom_site_fract_y
_atom_site_fract_z
Si Si1 0.942225 0.824423 0.887345
Si Si2 0.712952 0.167160 0.588182
Si Si3 0.950820 0.833039 0.368799
Si Si4 0.582597 0.919120 0.564359
Si Si5 0.831942 0.288953 0.949945
Si Si6 0.581542 0.921066 0.928210
O O1 0.883118 0.883118 0.815469
O O2 0.992920 0.791308 0.749892
O O3 0.901578 0.760401 0.986979
O O4 0.000000 0.867765 0.000000
O O5 0.751415 0.248586 0.542517
O O6 0.770475 0.100109 0.547495
O O7 0.637269 0.149885 0.490760
O O8 0.698926 0.164494 0.769272
O O9 0.896268 0.896268 0.289254
O O10 0.000000 0.873413 0.500000
O O11 0.500000 0.899395 0.500000
O O12 0.578263 0.926089 0.746197
O O13 0.611418 0.000000 0.500000
O O14 0.751977 0.248024 0.994970
O O15 0.845937 0.369985 0.028224
O O16 0.500000 0.906454 0.000000
O O17 0.614417 0.000000 0.000000
#
# Coordination Sequence:
#
# PCOD8308252 Si02
#       6
#     8   8   8   8   8   8
#     4  11  21  33  49  67  90 129 178 225 271 314
#     4  10  21  37  54  74 104 137 171 214 266 323
#     4  11  23  35  46  65  94 132 176 224 274 316
#     4  11  22  36  56  81 107 138 178 220 269 320
#     4  10  21  36  53  75 103 136 173 216 267 322
#     4  11  22  36  57  81 107 138 175 221 270 319
#
# _framework density 17.634494
#
# number of rings (size 3 to 8) (size 9 to 14) (size 15 to 20)
#    0.000    1.333    1.667    6.000    4.667    2.667 
#    0.000    0.000    0.000    0.000    0.000    0.000 
#    0.000    0.667    0.000    7.000    0.000    3.000 
#
# Total GULP energy -594715.735233 kJ/mol
# GULP energy per Si atom -12389.911151 kJ/mol
# Density = 1.759436 g / cm^3
# Si number density = 17.634494 Si / 1000 Ang^3
#
#
#
# Elastic Constant Matrix: (Units=GPa)
#
#
# Indices 1 2 3 4 5 6 
#
# 1 88.3005 44.4050 42.1562 0.0000 0.0000 0.0000
# 2 44.4050 88.2996 42.1561 0.0000 0.0000 0.0000
# 3 42.1562 42.1561 122.2914 0.0000 0.0000 0.0000
# 4 0.0000 0.0000 0.0000 26.7080 0.0000 0.0000
# 5 0.0000 0.0000 0.0000 0.0000 26.7082 0.0000
# 6 0.0000 0.0000 0.0000 0.0000 0.0000 28.0063
#
#
#
# Elastic Compliance Matrix: (Units=1/GPa)
#
#
# Indices 1 2 3 4 5 6 
#
# 1 0.016215 -0.006566 -0.003326 0.000000 0.000000 0.000000
# 2 -0.006566 0.016215 -0.003326 0.000000 0.000000 0.000000
# 3 -0.003326 -0.003326 0.010470 0.000000 0.000000 0.000000
# 4 0.000000 0.000000 0.000000 0.037442 0.000000 0.000000
# 5 0.000000 0.000000 0.000000 0.000000 0.037442 0.000000
# 6 0.000000 0.000000 0.000000 0.000000 0.000000 0.035706
#
#
# Mechanical properties :
#
#
# Convention : Reuss Voigt Hill
#
# Bulk Modulus (GPa) = 60.74094 61.81400 61.27747
# Shear Modulus (GPa) = 26.96644 27.62944 27.29794
#
# Velocity S-wave (km/s) = 3.91472 3.96256 3.93871
# Velocity P-wave (km/s) = 7.41300 7.48764 7.45042
#
# Compressibility (1/GPa) = 0.01646336
#
# Stress axis : x y z
#
# Youngs Moduli (GPa) = 61.67103 61.67035 95.50807
#
# Poissons Ratio (x) = 0.40496 0.31767
# Poissons Ratio (y) = 0.40496 0.31767
# Poissons Ratio (z) = 0.20512 0.20512
#
# Static dielectric constant tensor:
#      x y z
#    x 3.205040 0.000000 0.000000 
#    y 0.000000 3.205050 0.000000 
#    z 0.000000 0.000000 3.341080 
# 
# 
# High freq. dielectric constant tensor:
#      x y z
#    x 1.654370 0.000000 0.000000 
#    y 0.000000 1.654370 0.000000 
#    z 0.000000 0.000000 1.700390 
# 
# From -- ./inp_files/1767.got.cif
#   From: 2010.03.12/outbox.cif.g09.slc.cpg/sg111_1_cif.got.tgz:1767.got - 2010.04.14 01:59:48.
