data_PCOD8308702
_publ_section_title
;
Structure prediction by ZEFSAII (Michael W. Deem and Ramdas Pophale) SiO2 
 PCOD8308702
Probable space group: P -4 21 M 
;
_chemical_formula_sum "Si O2"
_cell_formula_units_Z 40
_cell_length_a 15.349567
_cell_length_b 15.349567
_cell_length_c 9.162621
_cell_angle_alpha 90.000000
_cell_angle_beta 90.000000
_cell_angle_gamma 90.000000
_cell_volume 2158.797869
_symmetry_space_group_name_H-M "P -4 21 M "
_symmetry_group_IT_number 113
_symmetry_cell_setting 'tetragonal'
loop_
_space_group_symop_operation_xyz
x,y,z
y,-x,-z
-x,-y,z
-y,x,-z
1/2+x,1/2-y,-z
1/2-x,1/2+y,-z
1/2-y,1/2-x,z
1/2+y,1/2+x,z
loop_
_atom_site_type_symbol
_atom_site_label
_atom_site_fract_x
_atom_site_fract_y
_atom_site_fract_z
Si Si1 0.848798 0.790865 0.764960
Si Si2 0.427170 0.072831 0.262884
Si Si3 0.187024 0.456489 0.548028
Si Si4 0.754237 0.466163 0.244802
Si Si5 0.573662 0.926339 0.930708
Si Si6 0.957995 0.867010 0.015928
O O1 0.789915 0.710086 0.814410
O O2 0.903865 0.765829 0.622050
O O3 0.788706 0.872632 0.727397
O O4 0.914132 0.805399 0.897585
O O5 0.464240 0.156990 0.347415
O O6 0.500000 0.000000 0.254170
O O7 0.401898 0.098103 0.097419
O O8 0.105344 0.394657 0.513084
O O9 0.222817 0.494151 0.399095
O O10 0.839561 0.460086 0.146126
O O11 0.685216 0.529386 0.165961
O O12 0.500000 0.000000 0.918795
O O13 0.050449 0.897201 0.949357
#
# Coordination Sequence:
#
# PCOD8308702 Si02
#       6
#     8   4   8   8   4   8
#     4  10  21  38  57  81 121 156 186 246 306 346
#     4   9  19  35  55  81 109 149 191 234 293 356
#     4  10  21  36  55  81 116 154 191 236 297 355
#     4  11  21  36  59  86 117 153 201 249 289 346
#     4  11  21  35  59  89 119 152 199 246 301 357
#     4   9  20  38  60  83 112 154 204 244 289 349
#
# _framework density 18.528829999999999
#
# number of rings (size 3 to 8) (size 9 to 14) (size 15 to 20)
#    0.000    2.000    1.000    2.400    0.000    5.600 
#    0.000    0.000    0.000    0.000    0.000    0.000 
#    0.000    0.000    0.000    0.000    0.000    0.000 
#
# Total GULP energy -496107.529731 kJ/mol
# GULP energy per Si atom -12402.688243 kJ/mol
# Density = 1.848666 g / cm^3
# Si number density = 18.528830 Si / 1000 Ang^3
#
#
#
# Elastic Constant Matrix: (Units=GPa)
#
#
# Indices 1 2 3 4 5 6 
#
# 1 100.4942 68.0050 83.5933 0.0000 0.0000 0.0000
# 2 68.0050 100.4944 83.5931 0.0000 0.0000 0.0000
# 3 83.5933 83.5931 168.4975 0.0000 0.0000 0.0000
# 4 0.0000 0.0000 0.0000 16.0562 0.0000 0.0000
# 5 0.0000 0.0000 0.0000 0.0000 16.1050 0.0000
# 6 0.0000 0.0000 0.0000 0.0000 0.0000 27.5252
#
#
#
# Elastic Compliance Matrix: (Units=1/GPa)
#
#
# Indices 1 2 3 4 5 6 
#
# 1 0.021234 -0.009546 -0.005799 0.000000 0.000000 0.000000
# 2 -0.009546 0.021234 -0.005799 0.000000 0.000000 0.000000
# 3 -0.005799 -0.005799 0.011688 0.000000 0.000000 0.000000
# 4 0.000000 0.000000 0.000000 0.062281 0.000000 0.000000
# 5 0.000000 0.000000 0.000000 0.000000 0.062092 0.000000
# 6 0.000000 0.000000 0.000000 0.000000 0.000000 0.036330
#
#
# Mechanical properties :
#
#
# Convention : Reuss Voigt Hill
#
# Bulk Modulus (GPa) = 84.24461 93.31876 88.78168
# Shear Modulus (GPa) = 19.14959 20.89027 20.01993
#
# Velocity S-wave (km/s) = 3.21830 3.36139 3.29062
# Velocity P-wave (km/s) = 7.70555 8.09560 7.90298
#
# Compressibility (1/GPa) = 0.01187020
#
# Stress axis : x y z
#
# Youngs Moduli (GPa) = 47.09471 47.09497 85.55565
#
# Poissons Ratio (x) = 0.44955 0.49611
# Poissons Ratio (y) = 0.44955 0.49610
# Poissons Ratio (z) = 0.27309 0.27308
#
# Static dielectric constant tensor:
#      x y z
#    x 3.733270 0.000000 0.000000 
#    y 0.000000 3.732660 0.000000 
#    z 0.000000 0.000000 3.356740 
# 
# 
# High freq. dielectric constant tensor:
#      x y z
#    x 1.725570 0.000000 0.000000 
#    y 0.000000 1.725570 0.000000 
#    z 0.000000 0.000000 1.717240 
# 
# From -- ./inp_files/1046.got.cif
#   From: 2010.03.12/outbox.cif.g09.slc.cpg/sg113_cif.got.tgz:1046.got - 2010.04.14 02:06:34.
