data_PCOD8308069
_publ_section_title
;
Structure prediction by ZEFSAII (Michael W. Deem and Ramdas Pophale) SiO2 
 PCOD8308069
Probable space group: I 41 C D
;
_chemical_formula_sum "Si O2"
_cell_formula_units_Z 80
_cell_length_a 16.862748
_cell_length_b 16.862748
_cell_length_c 12.660278
_cell_angle_alpha 90.000000
_cell_angle_beta 90.000000
_cell_angle_gamma 90.000000
_cell_volume 3599.978790
_symmetry_space_group_name_H-M "I 41 C D"
_symmetry_group_IT_number 110
_symmetry_cell_setting 'tetragonal'
loop_
_space_group_symop_operation_xyz
x,y,z
-y,1/2+x,1/4+z
-x,-y,z
y,1/2-x,1/4+z
-x,y,1/2+z
x,-y,1/2+z
1/2-y,-x,1/4+z
1/2+y,x,1/4+z
1/2+x,1/2+y,1/2+z
1/2-y,x,3/4+z
1/2-x,1/2-y,1/2+z
1/2+y,-x,3/4+z
1/2-x,1/2+y,z
1/2+x,1/2-y,z
-y,1/2-x,3/4+z
y,1/2+x,3/4+z
loop_
_atom_site_type_symbol
_atom_site_label
_atom_site_fract_x
_atom_site_fract_y
_atom_site_fract_z
Si Si1 0.177995 0.995250 0.320050
Si Si2 0.590142 0.626319 0.200061
Si Si3 0.240348 0.109263 0.152283
Si Si4 0.378888 0.805699 0.745148
Si Si5 0.185544 0.578129 0.928872
O O1 0.100163 0.947867 0.280444
O O2 0.232907 0.926936 0.366895
O O3 0.230607 0.033550 0.227115
O O4 0.156460 0.061110 0.407987
O O5 0.609309 0.711289 0.254221
O O6 0.650349 0.605935 0.105252
O O7 0.498782 0.629161 0.162874
O O8 0.288109 0.178384 0.212690
O O9 0.152225 0.140092 0.128772
O O10 0.291669 0.085765 0.051375
#
# Coordination Sequence:
#
# PCOD8308069 Si02
#       5
#    16  16  16  16  16
#     4  11  24  42  71 106 136 180 233 290 350 417
#     4  11  25  46  70 105 142 184 235 294 354 420
#     4  12  23  46  69 101 137 185 235 285 348 419
#     4  11  22  47  73 100 142 185 235 293 345 421
#     4  11  26  43  71 103 141 182 238 287 346 426
#
# _framework density 22.222355
#
# number of rings (size 3 to 8) (size 9 to 14) (size 15 to 20)
#    0.000    0.800    6.000    2.400    5.600    2.400 
#    0.000    0.000    0.000    0.000    0.000    0.000 
#    0.000    0.000    0.000    0.000    0.000    0.000 
#
# Total GULP energy -495868.450882 kJ/mol
# GULP energy per Si atom -12396.711272 kJ/mol
# Density = 2.217178 g / cm^3
# Si number density = 22.222355 Si / 1000 Ang^3
#
#
#
# Elastic Constant Matrix: (Units=GPa)
#
#
# Indices 1 2 3 4 5 6 
#
# 1 87.1317 56.3420 17.2763 0.0000 0.0000 0.0000
# 2 56.3420 87.1317 17.2763 0.0000 0.0000 0.0000
# 3 17.2763 17.2763 57.7360 0.0000 0.0000 0.0000
# 4 0.0000 0.0000 0.0000 29.8780 0.0000 0.0000
# 5 0.0000 0.0000 0.0000 0.0000 29.8780 0.0000
# 6 0.0000 0.0000 0.0000 0.0000 0.0000 39.8575
#
#
#
# Elastic Compliance Matrix: (Units=1/GPa)
#
#
# Indices 1 2 3 4 5 6 
#
# 1 0.019995 -0.012484 -0.002248 0.000000 0.000000 0.000000
# 2 -0.012484 0.019995 -0.002248 0.000000 0.000000 0.000000
# 3 -0.002248 -0.002248 0.018665 0.000000 0.000000 0.000000
# 4 0.000000 0.000000 0.000000 0.033469 0.000000 0.000000
# 5 0.000000 0.000000 0.000000 0.000000 0.033469 0.000000
# 6 0.000000 0.000000 0.000000 0.000000 0.000000 0.025089
#
#
# Mechanical properties :
#
#
# Convention : Reuss Voigt Hill
#
# Bulk Modulus (GPa) = 40.49010 45.97653 43.23331
# Shear Modulus (GPa) = 25.92377 29.32968 27.62672
#
# Velocity S-wave (km/s) = 3.41920 3.63688 3.52972
# Velocity P-wave (km/s) = 5.81790 6.19436 6.00908
#
# Compressibility (1/GPa) = 0.02469740
#
# Stress axis : x y z
#
# Youngs Moduli (GPa) = 50.01294 50.01294 53.57537
#
# Poissons Ratio (x) = 0.62434 0.12041
# Poissons Ratio (y) = 0.62434 0.12041
# Poissons Ratio (z) = 0.11241 0.11241
#
# Static dielectric constant tensor:
#      x y z
#    x 4.203720 0.000000 0.000000 
#    y 0.000000 4.203720 0.000000 
#    z 0.000000 0.000000 4.096060 
# 
# 
# High freq. dielectric constant tensor:
#      x y z
#    x 1.876180 0.000000 0.000000 
#    y 0.000000 1.876180 0.000000 
#    z 0.000000 0.000000 1.874520 
# 
# From -- ./inp_files/1242.got.cif
#   From: 2010.03.12/outbox.cif.g09.slc.cpg/sg110_1_cif.got.tgz:1242.got - 2010.04.14 01:58:01.
