data_PCOD8308110
_publ_section_title
;
Structure prediction by ZEFSAII (Michael W. Deem and Ramdas Pophale) SiO2 
 PCOD8308110
Probable space group: P -4 2 M 
;
_chemical_formula_sum "Si O2"
_cell_formula_units_Z 48
_cell_length_a 20.981507
_cell_length_b 20.981507
_cell_length_c 7.709900
_cell_angle_alpha 90.000000
_cell_angle_beta 90.000000
_cell_angle_gamma 90.000000
_cell_volume 3394.080211
_symmetry_space_group_name_H-M "P -4 2 M "
_symmetry_group_IT_number 111
_symmetry_cell_setting 'tetragonal'
loop_
_space_group_symop_operation_xyz
x,y,z
y,-x,-z
-x,-y,z
-y,x,-z
x,-y,-z
-x,y,-z
-y,-x,z
y,x,z
loop_
_atom_site_type_symbol
_atom_site_label
_atom_site_fract_x
_atom_site_fract_y
_atom_site_fract_z
Si Si1 0.575313 0.070378 0.985959
Si Si2 0.622316 0.477083 0.686350
Si Si3 0.432476 0.166088 0.715357
Si Si4 0.719477 0.380332 0.779610
Si Si5 0.848629 0.578755 0.327495
Si Si6 0.696103 0.594056 0.830988
O O1 0.598126 0.092668 0.795159
O O2 0.500000 0.064194 0.000000
O O3 0.597566 0.120274 0.135917
O O4 0.606302 0.000000 0.000000
O O5 0.598948 0.500000 0.500000
O O6 0.562580 0.437421 0.773033
O O7 0.680364 0.427738 0.654042
O O8 0.646644 0.536322 0.799385
O O9 0.508313 0.172830 0.731631
O O10 0.415798 0.133561 0.530045
O O11 0.406215 0.238374 0.721067
O O12 0.690368 0.309633 0.777701
O O13 0.791021 0.373465 0.713282
O O14 0.715967 0.411384 0.969527
O O15 0.660236 0.660236 0.788514
#
# Coordination Sequence:
#
# PCOD8308110 Si02
#       6
#     8   8   8   8   8   8
#     4   9  18  31  47  65  84 102 122 154 198 253
#     4  11  22  33  43  56  75 101 135 177 221 258
#     4  10  19  30  47  64  81 106 131 161 205 249
#     4  10  20  32  46  60  76 103 139 174 208 251
#     4  10  18  30  47  63  84 105 129 164 200 248
#     4  11  21  32  46  60  77 104 140 174 210 256
#
# _framework density 14.142269000000001
#
# number of rings (size 3 to 8) (size 9 to 14) (size 15 to 20)
#    0.000    1.833    3.333    2.000    0.000    3.833 
#    0.000    4.167    0.000    6.000    0.000    0.000 
#    0.000    0.000    0.000    0.000    0.000    0.000 
#
# Total GULP energy -594950.392408 kJ/mol
# GULP energy per Si atom -12394.799842 kJ/mol
# Density = 1.411008 g / cm^3
# Si number density = 14.142269 Si / 1000 Ang^3
#
#
#
# Elastic Constant Matrix: (Units=GPa)
#
#
# Indices 1 2 3 4 5 6 
#
# 1 64.2759 20.0506 29.1753 0.0000 0.0000 0.0000
# 2 20.0506 64.2755 29.1760 0.0000 0.0000 0.0000
# 3 29.1753 29.1760 75.6936 0.0000 0.0000 0.0000
# 4 0.0000 0.0000 0.0000 15.4368 0.0000 0.0000
# 5 0.0000 0.0000 0.0000 0.0000 15.4365 0.0000
# 6 0.0000 0.0000 0.0000 0.0000 0.0000 5.1932
#
#
#
# Elastic Compliance Matrix: (Units=1/GPa)
#
#
# Indices 1 2 3 4 5 6 
#
# 1 0.019392 -0.003220 -0.006233 0.000000 0.000000 0.000000
# 2 -0.003220 0.019392 -0.006234 0.000000 0.000000 0.000000
# 3 -0.006233 -0.006234 0.018016 0.000000 0.000000 0.000000
# 4 0.000000 0.000000 0.000000 0.064780 0.000000 0.000000
# 5 0.000000 0.000000 0.000000 0.000000 0.064782 0.000000
# 6 0.000000 0.000000 0.000000 0.000000 0.000000 0.192559
#
#
# Mechanical properties :
#
#
# Convention : Reuss Voigt Hill
#
# Bulk Modulus (GPa) = 39.32853 40.11653 39.72253
# Shear Modulus (GPa) = 11.93974 15.60283 13.77129
#
# Velocity S-wave (km/s) = 2.90877 3.32516 3.12391
# Velocity P-wave (km/s) = 6.25706 6.57041 6.41565
#
# Compressibility (1/GPa) = 0.02542683
#
# Stress axis : x y z
#
# Youngs Moduli (GPa) = 51.56863 51.56772 55.50491
#
# Poissons Ratio (x) = 0.16604 0.34598
# Poissons Ratio (y) = 0.16604 0.34599
# Poissons Ratio (z) = 0.32144 0.32145
#
# Static dielectric constant tensor:
#      x y z
#    x 2.601050 0.000000 0.000000 
#    y 0.000000 2.601040 0.000000 
#    z 0.000000 0.000000 2.914250 
# 
# 
# High freq. dielectric constant tensor:
#      x y z
#    x 1.498280 0.000000 0.000000 
#    y 0.000000 1.498280 0.000000 
#    z 0.000000 0.000000 1.557320 
# 
# From -- ./inp_files/1869.got.cif
#   From: 2010.03.12/outbox.cif.g09.slc.cpg/sg111_1_cif.got.tgz:1869.got - 2010.04.14 01:59:48.
