data_PCOD8308464
_publ_section_title
;
Structure prediction by ZEFSAII (Michael W. Deem and Ramdas Pophale) SiO2 
 PCOD8308464
Probable space group: P -4 2 C
;
_chemical_formula_sum "Si O2"
_cell_formula_units_Z 18
_cell_length_a 7.100138
_cell_length_b 7.100138
_cell_length_c 16.772915
_cell_angle_alpha 90.000000
_cell_angle_beta 90.000000
_cell_angle_gamma 90.000000
_cell_volume 845.555514
_symmetry_space_group_name_H-M "P -4 2 C"
_symmetry_group_IT_number 112
_symmetry_cell_setting 'tetragonal'
loop_
_space_group_symop_operation_xyz
x,y,z
y,-x,-z
-x,-y,z
-y,x,-z
x,-y,1/2-z
-x,y,1/2-z
-y,-x,1/2+z
y,x,1/2+z
loop_
_atom_site_type_symbol
_atom_site_label
_atom_site_fract_x
_atom_site_fract_y
_atom_site_fract_z
Si Si1 0.000000 0.500000 0.750000
Si Si2 0.298309 0.449597 0.629328
Si Si3 0.824222 0.748853 0.993610
O O1 0.145243 0.378164 0.695131
O O2 0.500000 0.500000 0.668923
O O3 0.205482 0.632131 0.587088
O O4 0.346981 0.287100 0.566213
O O5 0.041600 0.745830 0.018504
#
# Coordination Sequence:
#
# PCOD8308464 Si02
#       3
#     2   8   8
#     4  12  26  44  62 102 148 160 214 292 334 370
#     4  12  23  41  67  96 132 172 220 272 329 389
#     4  11  21  38  68  96 123 173 226 264 314 405
#
# _framework density 21.287780000000001
#
# number of rings (size 3 to 8) (size 9 to 14) (size 15 to 20)
#    0.000    0.444    8.889    0.667    0.000    0.000 
#    0.000    4.444    0.000    5.333    0.000    0.000 
#    0.000    0.000    0.000    0.000    0.000    0.000 
#
# Total GULP energy -223121.749393 kJ/mol
# GULP energy per Si atom -12395.652744 kJ/mol
# Density = 2.123933 g / cm^3
# Si number density = 21.287780 Si / 1000 Ang^3
#
#
#
# Elastic Constant Matrix: (Units=GPa)
#
#
# Indices 1 2 3 4 5 6 
#
# 1 105.8091 23.0377 36.2689 0.0000 0.0000 0.0000
# 2 23.0377 105.8091 36.2689 0.0000 0.0000 0.0000
# 3 36.2689 36.2689 93.9323 0.0000 0.0000 0.0000
# 4 0.0000 0.0000 0.0000 11.4867 0.0000 0.0000
# 5 0.0000 0.0000 0.0000 0.0000 11.4867 0.0000
# 6 0.0000 0.0000 0.0000 0.0000 0.0000 28.3069
#
#
#
# Elastic Compliance Matrix: (Units=1/GPa)
#
#
# Indices 1 2 3 4 5 6 
#
# 1 0.010999 -0.001082 -0.003829 0.000000 0.000000 0.000000
# 2 -0.001082 0.010999 -0.003829 0.000000 0.000000 0.000000
# 3 -0.003829 -0.003829 0.013603 0.000000 0.000000 0.000000
# 4 0.000000 0.000000 0.000000 0.087057 0.000000 0.000000
# 5 0.000000 0.000000 0.000000 0.000000 0.087057 0.000000
# 6 0.000000 0.000000 0.000000 0.000000 0.000000 0.035327
#
#
# Mechanical properties :
#
#
# Convention : Reuss Voigt Hill
#
# Bulk Modulus (GPa) = 55.18666 55.18904 55.18785
# Shear Modulus (GPa) = 18.61759 24.25442 21.43600
#
# Velocity S-wave (km/s) = 2.96052 3.37910 3.17671
# Velocity P-wave (km/s) = 6.13731 6.41918 6.27983
#
# Compressibility (1/GPa) = 0.01812032
#
# Stress axis : x y z
#
# Youngs Moduli (GPa) = 90.91619 90.91619 73.51384
#
# Poissons Ratio (x) = 0.09840 0.28149
# Poissons Ratio (y) = 0.09840 0.28149
# Poissons Ratio (z) = 0.34812 0.34812
#
# Static dielectric constant tensor:
#      x y z
#    x 3.961050 0.000000 0.000000 
#    y 0.000000 3.961050 0.000000 
#    z 0.000000 0.000000 3.770280 
# 
# 
# High freq. dielectric constant tensor:
#      x y z
#    x 1.839140 0.000000 0.000000 
#    y 0.000000 1.839140 0.000000 
#    z 0.000000 0.000000 1.818560 
# 
# From -- ./inp_files/2786.got.cif
#   From: 2010.03.12/outbox.cif.g09.slc.cpg/sg112_2_cif.got.tgz:2786.got - 2010.04.14 02:02:48.
