data_PCOD8308831
_publ_section_title
;
Structure prediction by ZEFSAII (Michael W. Deem and Ramdas Pophale) SiO2 
 PCOD8308831
Probable space group: P -4 21 C
;
_chemical_formula_sum "Si O2"
_cell_formula_units_Z 48
_cell_length_a 8.803434
_cell_length_b 8.803434
_cell_length_c 29.168562
_cell_angle_alpha 90.000000
_cell_angle_beta 90.000000
_cell_angle_gamma 90.000000
_cell_volume 2260.576686
_symmetry_space_group_name_H-M "P -4 21 C"
_symmetry_group_IT_number 114
_symmetry_cell_setting 'tetragonal'
loop_
_space_group_symop_operation_xyz
x,y,z
y,-x,-z
-x,-y,z
-y,x,-z
1/2+x,1/2-y,1/2-z
1/2-x,1/2+y,1/2-z
1/2-y,1/2-x,1/2+z
1/2+y,1/2+x,1/2+z
loop_
_atom_site_type_symbol
_atom_site_label
_atom_site_fract_x
_atom_site_fract_y
_atom_site_fract_z
Si Si1 0.804830 0.848578 0.005593
Si Si2 0.853006 0.100978 0.661877
Si Si3 0.322729 0.995853 0.269039
Si Si4 0.294426 0.190759 0.690381
Si Si5 0.349211 0.186325 0.914885
Si Si6 0.794927 0.651219 0.598436
O O1 0.765245 0.778474 0.054811
O O2 0.681972 0.785604 0.968816
O O3 0.970491 0.794541 0.989269
O O4 0.891278 0.236680 0.696417
O O5 0.783455 0.175851 0.615581
O O6 0.727149 0.989779 0.683171
O O7 0.000000 0.000000 0.649482
O O8 0.291189 0.045376 0.216345
O O9 0.500000 0.000000 0.282401
O O10 0.255249 0.828992 0.274059
O O11 0.286925 0.281467 0.642986
O O12 0.526470 0.181469 0.902432
O O13 0.264158 0.029086 0.902209
#
# Coordination Sequence:
#
# PCOD8308831 Si02
#       6
#     8   8   8   8   8   8
#     4   9  20  39  61  89 124 154 197 247 300 367
#     4  10  20  36  60  88 119 155 199 250 296 358
#     4  11  22  41  63  85 121 167 200 256 307 364
#     4  11  23  40  62  90 125 159 211 256 306 363
#     4  10  19  37  64  83 118 162 198 240 311 364
#     4  10  20  38  62  86 118 162 200 249 304 372
#
# _framework density 21.233522000000001
#
# number of rings (size 3 to 8) (size 9 to 14) (size 15 to 20)
#    0.000    1.833    3.333    2.000    0.000    1.333 
#    6.000    1.667   11.000    0.000    0.000    0.000 
#    0.000    0.000    0.000    0.000    0.000    0.000 
#
# Total GULP energy -595198.282109 kJ/mol
# GULP energy per Si atom -12399.964211 kJ/mol
# Density = 2.118519 g / cm^3
# Si number density = 21.233522 Si / 1000 Ang^3
#
#
#
# Elastic Constant Matrix: (Units=GPa)
#
#
# Indices 1 2 3 4 5 6 
#
# 1 67.7746 21.1026 56.1975 0.0000 0.0000 0.0000
# 2 21.1026 67.7746 56.1975 0.0000 0.0000 0.0000
# 3 56.1975 56.1975 164.2348 0.0000 0.0000 0.0000
# 4 0.0000 0.0000 0.0000 31.6980 0.0000 0.0000
# 5 0.0000 0.0000 0.0000 0.0000 31.6980 0.0000
# 6 0.0000 0.0000 0.0000 0.0000 0.0000 17.2310
#
#
#
# Elastic Compliance Matrix: (Units=1/GPa)
#
#
# Indices 1 2 3 4 5 6 
#
# 1 0.020630 -0.000796 -0.006787 0.000000 0.000000 0.000000
# 2 -0.000796 0.020630 -0.006787 0.000000 0.000000 0.000000
# 3 -0.006787 -0.006787 0.010733 0.000000 0.000000 0.000000
# 4 0.000000 0.000000 0.000000 0.031548 0.000000 0.000000
# 5 0.000000 0.000000 0.000000 0.000000 0.031548 0.000000
# 6 0.000000 0.000000 0.000000 0.000000 0.000000 0.058035
#
#
# Mechanical properties :
#
#
# Convention : Reuss Voigt Hill
#
# Bulk Modulus (GPa) = 43.00241 62.97547 52.98894
# Shear Modulus (GPa) = 23.85327 27.21117 25.53222
#
# Velocity S-wave (km/s) = 3.35532 3.58371 3.47140
# Velocity P-wave (km/s) = 5.94197 6.84448 6.40913
#
# Compressibility (1/GPa) = 0.02325451
#
# Stress axis : x y z
#
# Youngs Moduli (GPa) = 48.47275 48.47275 93.16685
#
# Poissons Ratio (x) = 0.03858 0.63231
# Poissons Ratio (y) = 0.03858 0.63231
# Poissons Ratio (z) = 0.32898 0.32898
#
# Static dielectric constant tensor:
#      x y z
#    x 3.812020 0.000000 0.000000 
#    y 0.000000 3.812020 0.000000 
#    z 0.000000 0.000000 3.927920 
# 
# 
# High freq. dielectric constant tensor:
#      x y z
#    x 1.821080 0.000000 0.000000 
#    y 0.000000 1.821080 0.000000 
#    z 0.000000 0.000000 1.840710 
# 
# From -- ./inp_files/3961.got.cif
#   From: 2010.03.12/outbox.cif.g09.slc.cpg/sg114_2_cif.got.tgz:3961.got - 2010.04.14 02:08:34.
