data_PCOD8308103
_publ_section_title
;
Structure prediction by ZEFSAII (Michael W. Deem and Ramdas Pophale) SiO2 
 PCOD8308103
Probable space group: P -4 2 M 
;
_chemical_formula_sum "Si O2"
_cell_formula_units_Z 56
_cell_length_a 12.926359
_cell_length_b 12.926359
_cell_length_c 21.747582
_cell_angle_alpha 90.000000
_cell_angle_beta 90.000000
_cell_angle_gamma 90.000000
_cell_volume 3633.819939
_symmetry_space_group_name_H-M "P -4 2 M "
_symmetry_group_IT_number 111
_symmetry_cell_setting 'tetragonal'
loop_
_space_group_symop_operation_xyz
x,y,z
y,-x,-z
-x,-y,z
-y,x,-z
x,-y,-z
-x,y,-z
-y,-x,z
y,x,z
loop_
_atom_site_type_symbol
_atom_site_label
_atom_site_fract_x
_atom_site_fract_y
_atom_site_fract_z
Si Si1 0.618329 0.779041 0.867278
Si Si2 0.112507 0.274714 0.752617
Si Si3 0.263181 0.905176 0.821883
Si Si4 0.619280 0.018669 0.070371
Si Si5 0.427916 0.736818 0.794552
Si Si6 0.756755 0.583034 0.684168
Si Si7 0.668369 0.495051 0.567761
O O1 0.673317 0.673317 0.886633
O O2 0.668369 0.828468 0.807230
O O3 0.635236 0.859044 0.922263
O O4 0.498745 0.753369 0.854679
O O5 0.162515 0.162515 0.739854
O O6 0.135149 0.352756 0.694698
O O7 0.993435 0.254974 0.769418
O O8 0.152281 0.847720 0.832640
O O9 0.343220 0.825934 0.793240
O O10 0.304192 0.951901 0.886453
O O11 0.500000 0.000000 0.088192
O O12 0.646876 0.000000 0.000000
O O13 0.375045 0.624956 0.799910
O O14 0.491503 0.742121 0.732258
O O15 0.661803 0.661803 0.693232
O O16 0.755311 0.528319 0.617348
O O17 0.720409 0.500000 0.500000
O O18 0.618899 0.381102 0.581576
O O19 0.575566 0.575566 0.569382
#
# Coordination Sequence:
#
# PCOD8308103 Si02
#       7
#     8   8   8   8   8   8   8
#     4   9  17  29  45  66  87 110 141 177 215 263
#     4   8  16  29  45  64  86 113 146 183 227 272
#     4  10  20  32  47  68  91 112 143 187 234 279
#     4  10  19  33  51  65  82 112 146 179 222 274
#     4  10  18  27  41  64  91 118 147 179 219 265
#     4   9  16  25  40  63  90 122 157 185 214 266
#     4   8  13  21  34  56  90 129 162 190 221 260
#
# _framework density 15.410779
#
# number of rings (size 3 to 8) (size 9 to 14) (size 15 to 20)
#    0.000    2.857    1.429    2.143    0.000    2.571 
#    0.000    0.000    0.000    0.000    0.000    4.000 
#    0.000    0.000    0.000    0.000    0.000   18.000 
#
# Total GULP energy -693877.510491 kJ/mol
# GULP energy per Si atom -12390.669830 kJ/mol
# Density = 1.537570 g / cm^3
# Si number density = 15.410779 Si / 1000 Ang^3
#
#
#
# Elastic Constant Matrix: (Units=GPa)
#
#
# Indices 1 2 3 4 5 6 
#
# 1 88.7751 46.7404 40.4767 0.0000 0.0000 0.0000
# 2 46.7404 88.7762 40.4768 0.0000 0.0000 0.0000
# 3 40.4767 40.4768 98.0951 0.0000 0.0000 0.0000
# 4 0.0000 0.0000 0.0000 18.7291 0.0000 0.0000
# 5 0.0000 0.0000 0.0000 0.0000 18.7288 0.0000
# 6 0.0000 0.0000 0.0000 0.0000 0.0000 19.8660
#
#
#
# Elastic Compliance Matrix: (Units=1/GPa)
#
#
# Indices 1 2 3 4 5 6 
#
# 1 0.016791 -0.006998 -0.004041 0.000000 0.000000 0.000000
# 2 -0.006998 0.016791 -0.004041 0.000000 0.000000 0.000000
# 3 -0.004041 -0.004041 0.013529 0.000000 0.000000 0.000000
# 4 0.000000 0.000000 0.000000 0.053393 0.000000 0.000000
# 5 0.000000 0.000000 0.000000 0.000000 0.053394 0.000000
# 6 0.000000 0.000000 0.000000 0.000000 0.000000 0.050337
#
#
# Mechanical properties :
#
#
# Convention : Reuss Voigt Hill
#
# Bulk Modulus (GPa) = 58.99159 59.00382 58.99770
# Shear Modulus (GPa) = 20.82931 21.32826 21.07879
#
# Velocity S-wave (km/s) = 3.68041 3.72423 3.70238
# Velocity P-wave (km/s) = 7.51153 7.54080 7.52618
#
# Compressibility (1/GPa) = 0.01695157
#
# Stress axis : x y z
#
# Youngs Moduli (GPa) = 59.55402 59.55487 73.91539
#
# Poissons Ratio (x) = 0.41678 0.29869
# Poissons Ratio (y) = 0.41677 0.29868
# Poissons Ratio (z) = 0.24065 0.24065
#
# Static dielectric constant tensor:
#      x y z
#    x 3.059840 0.000000 0.000000 
#    y 0.000000 3.059840 0.000000 
#    z 0.000000 0.000000 3.035460 
# 
# 
# High freq. dielectric constant tensor:
#      x y z
#    x 1.581560 0.000000 0.000000 
#    y 0.000000 1.581560 0.000000 
#    z 0.000000 0.000000 1.567440 
# 
# From -- ./inp_files/4180.got.cif
#   From: 2010.03.12/outbox.cif.g09.slc.cpg/sg111_3_cif.got.tgz:4180.got - 2010.04.14 01:59:48.
