data_PCOD8308678
_publ_section_title
;
Structure prediction by ZEFSAII (Michael W. Deem and Ramdas Pophale) SiO2 
 PCOD8308678
Probable space group: P -4 21 M 
;
_chemical_formula_sum "Si O2"
_cell_formula_units_Z 64
_cell_length_a 17.793209
_cell_length_b 17.793209
_cell_length_c 10.264766
_cell_angle_alpha 90.000000
_cell_angle_beta 90.000000
_cell_angle_gamma 90.000000
_cell_volume 3249.807327
_symmetry_space_group_name_H-M "P -4 21 M "
_symmetry_group_IT_number 113
_symmetry_cell_setting 'tetragonal'
loop_
_space_group_symop_operation_xyz
x,y,z
y,-x,-z
-x,-y,z
-y,x,-z
1/2+x,1/2-y,-z
1/2-x,1/2+y,-z
1/2-y,1/2-x,z
1/2+y,1/2+x,z
loop_
_atom_site_type_symbol
_atom_site_label
_atom_site_fract_x
_atom_site_fract_y
_atom_site_fract_z
Si Si1 0.903514 0.092433 0.685760
Si Si2 0.492666 0.308215 0.508491
Si Si3 0.624927 0.244202 0.345318
Si Si4 0.868694 0.246120 0.310608
Si Si5 0.244145 0.437517 0.926574
Si Si6 0.594253 0.783803 0.979734
Si Si7 0.178543 0.201965 0.132970
Si Si8 0.407310 0.492678 0.916554
O O1 0.942300 0.158519 0.605637
O O2 0.828203 0.126005 0.752244
O O3 0.962595 0.061012 0.791135
O O4 0.877203 0.024121 0.594656
O O5 0.559678 0.257734 0.450158
O O6 0.439629 0.254244 0.593376
O O7 0.681956 0.181956 0.402879
O O8 0.668089 0.322591 0.318654
O O9 0.593037 0.211009 0.208949
O O10 0.815572 0.315572 0.349519
O O11 0.901120 0.255113 0.166978
O O12 0.250946 0.370557 0.029564
O O13 0.196873 0.507870 0.983107
O O14 0.323307 0.472847 0.889758
O O15 0.639365 0.860636 0.999857
O O16 0.629612 0.717910 0.068265
O O17 0.241163 0.258838 0.189410
O O18 0.544547 0.582144 0.951987
#
# Coordination Sequence:
#
# PCOD8308678 Si02
#       8
#     8   8   8   8   8   8   8   8
#     4  12  25  39  55  90 125 167 201 254 307 371
#     4  12  25  41  61  88 127 168 213 255 307 365
#     4  11  23  41  66  91 123 168 215 256 305 368
#     4  10  22  41  64  88 123 173 214 253 304 368
#     4  12  19  37  62  90 124 156 202 250 315 365
#     4  10  20  36  62  92 122 155 199 252 311 374
#     4  11  22  38  62  91 117 157 209 256 303 361
#     4  11  23  34  55  85 124 166 191 232 300 384
#
# _framework density 19.693473999999998
#
# number of rings (size 3 to 8) (size 9 to 14) (size 15 to 20)
#    0.000    0.875    6.250    1.125    0.000    4.250 
#    0.000    0.625    0.000    2.625    0.000    3.500 
#    0.000    0.000    0.000    0.000    0.000    0.000 
#
# Total GULP energy -793515.758831 kJ/mol
# GULP energy per Si atom -12398.683732 kJ/mol
# Density = 1.964865 g / cm^3
# Si number density = 19.693474 Si / 1000 Ang^3
#
#
#
# Elastic Constant Matrix: (Units=GPa)
#
#
# Indices 1 2 3 4 5 6 
#
# 1 74.7576 26.5665 26.6520 0.0000 0.0000 0.0000
# 2 26.5665 74.7595 26.6520 0.0000 0.0000 0.0000
# 3 26.6520 26.6520 80.3011 0.0000 0.0000 0.0000
# 4 0.0000 0.0000 0.0000 26.2119 0.0000 0.0000
# 5 0.0000 0.0000 0.0000 0.0000 26.2134 0.0000
# 6 0.0000 0.0000 0.0000 0.0000 0.0000 30.7986
#
#
#
# Elastic Compliance Matrix: (Units=1/GPa)
#
#
# Indices 1 2 3 4 5 6 
#
# 1 0.016354 -0.004397 -0.003969 0.000000 0.000000 0.000000
# 2 -0.004397 0.016353 -0.003968 0.000000 0.000000 0.000000
# 3 -0.003969 -0.003968 0.015087 0.000000 0.000000 0.000000
# 4 0.000000 0.000000 0.000000 0.038151 0.000000 0.000000
# 5 0.000000 0.000000 0.000000 0.000000 0.038148 0.000000
# 6 0.000000 0.000000 0.000000 0.000000 0.000000 0.032469
#
#
# Mechanical properties :
#
#
# Convention : Reuss Voigt Hill
#
# Bulk Modulus (GPa) = 43.23904 43.28435 43.26169
# Shear Modulus (GPa) = 26.46353 26.64129 26.55241
#
# Velocity S-wave (km/s) = 3.66973 3.68203 3.67588
# Velocity P-wave (km/s) = 6.32136 6.33271 6.32704
#
# Compressibility (1/GPa) = 0.02312725
#
# Stress axis : x y z
#
# Youngs Moduli (GPa) = 61.14773 61.14943 66.28029
#
# Poissons Ratio (x) = 0.26885 0.26304
# Poissons Ratio (y) = 0.26885 0.26303
# Poissons Ratio (z) = 0.24267 0.24267
#
# Static dielectric constant tensor:
#      x y z
#    x 3.548070 0.000000 0.000000 
#    y 0.000000 3.548070 0.000000 
#    z 0.000000 0.000000 3.992260 
# 
# 
# High freq. dielectric constant tensor:
#      x y z
#    x 1.756950 0.000000 0.000000 
#    y 0.000000 1.756950 0.000000 
#    z 0.000000 0.000000 1.771530 
# 
# From -- ./inp_files/1406.got.cif
#   From: 2010.03.12/outbox.cif.g09.slc.cpg/sg113_cif.got.tgz:1406.got - 2010.04.14 02:06:34.
