data_PCOD8308070
_publ_section_title
;
Structure prediction by ZEFSAII (Michael W. Deem and Ramdas Pophale) SiO2 
 PCOD8308070
Probable space group: I 41 C D
;
_chemical_formula_sum "Si O2"
_cell_formula_units_Z 72
_cell_length_a 16.970288
_cell_length_b 16.970288
_cell_length_c 11.868968
_cell_angle_alpha 90.000000
_cell_angle_beta 90.000000
_cell_angle_gamma 90.000000
_cell_volume 3418.152104
_symmetry_space_group_name_H-M "I 41 C D"
_symmetry_group_IT_number 110
_symmetry_cell_setting 'tetragonal'
loop_
_space_group_symop_operation_xyz
x,y,z
-y,1/2+x,1/4+z
-x,-y,z
y,1/2-x,1/4+z
-x,y,1/2+z
x,-y,1/2+z
1/2-y,-x,1/4+z
1/2+y,x,1/4+z
1/2+x,1/2+y,1/2+z
1/2-y,x,3/4+z
1/2-x,1/2-y,1/2+z
1/2+y,-x,3/4+z
1/2-x,1/2+y,z
1/2+x,1/2-y,z
-y,1/2-x,3/4+z
y,1/2+x,3/4+z
loop_
_atom_site_type_symbol
_atom_site_label
_atom_site_fract_x
_atom_site_fract_y
_atom_site_fract_z
Si Si1 0.941687 0.862291 0.963290
Si Si2 0.500000 0.500000 0.311585
Si Si3 0.091471 0.280371 0.810196
Si Si4 0.219629 0.591471 0.312974
Si Si5 0.941687 0.637709 0.409880
O O1 0.900959 0.794327 0.891128
O O2 0.951870 0.939571 0.887968
O O3 0.880276 0.880276 0.061585
O O4 0.025097 0.838580 0.016144
O O5 0.439571 0.548130 0.235203
O O6 0.174564 0.325436 0.811585
O O7 0.068504 0.250000 0.686585
O O8 0.025097 0.338580 0.857026
O O9 0.294327 0.599041 0.232043
#
# Coordination Sequence:
#
# PCOD8308070 Si02
#       5
#    16   8  16  16  16
#     4  11  23  40  67  95 123 168 219 268 328 394
#     4  12  22  44  72  94 124 164 226 284 328 402
#     4  11  24  41  61  92 131 168 212 267 329 398
#     4  11  24  41  61  92 131 168 212 267 329 398
#     4  11  23  40  67  95 123 168 219 268 328 394
#
# _framework density 21.064012000000002
#
# number of rings (size 3 to 8) (size 9 to 14) (size 15 to 20)
#    0.000    0.889    0.000    8.667    0.000    5.333 
#    0.000    0.000    0.000    0.000    0.000    0.000 
#    0.000    0.000    0.000    0.000    0.000    0.000 
#
# Total GULP energy -446704.810776 kJ/mol
# GULP energy per Si atom -12408.466966 kJ/mol
# Density = 2.101607 g / cm^3
# Si number density = 21.064012 Si / 1000 Ang^3
#
#
#
# Elastic Constant Matrix: (Units=GPa)
#
#
# Indices 1 2 3 4 5 6 
#
# 1 98.6543 62.0374 57.7754 0.0000 0.0000 0.0000
# 2 62.0374 98.6543 57.7754 0.0000 0.0000 0.0000
# 3 57.7754 57.7754 155.8702 0.0000 0.0000 0.0000
# 4 0.0000 0.0000 0.0000 -126.1699 0.0000 0.0000
# 5 0.0000 0.0000 0.0000 0.0000 -126.1699 0.0000
# 6 0.0000 0.0000 0.0000 0.0000 0.0000 28.6726
#
#
#
# Elastic Compliance Matrix: (Units=1/GPa)
#
#
# Indices 1 2 3 4 5 6 
#
# 1 0.017897 -0.009413 -0.003145 0.000000 0.000000 0.000000
# 2 -0.009413 0.017897 -0.003145 0.000000 0.000000 0.000000
# 3 -0.003145 -0.003145 0.008747 0.000000 0.000000 0.000000
# 4 0.000000 0.000000 0.000000 -0.007926 0.000000 0.000000
# 5 0.000000 0.000000 0.000000 0.000000 -0.007926 0.000000
# 6 0.000000 0.000000 0.000000 0.000000 0.000000 0.034877
#
#
# Mechanical properties :
#
#
# Convention : Reuss Voigt Hill
#
# Bulk Modulus (GPa) = 76.12402 78.70611 77.41507
# Shear Modulus (GPa) = 50.32714 -33.02739 8.64988
#
# Velocity S-wave (km/s) = 4.89330 -3.96403 2.02864
# Velocity P-wave (km/s) = 8.25491 4.06139 6.50533
#
# Compressibility (1/GPa) = 0.01313646
#
# Stress axis : x y z
#
# Youngs Moduli (GPa) = 55.87472 55.87472 114.32491
#
# Poissons Ratio (x) = 0.52593 0.35954
# Poissons Ratio (y) = 0.52593 0.35954
# Poissons Ratio (z) = 0.17572 0.17572
#
# Static dielectric constant tensor:
#      x y z
#    x 3.798840 0.000000 0.000000 
#    y 0.000000 3.798840 0.000000 
#    z 0.000000 0.000000 4.132200 
# 
# 
# High freq. dielectric constant tensor:
#      x y z
#    x 1.828260 0.000000 0.000000 
#    y 0.000000 1.828260 0.000000 
#    z 0.000000 0.000000 1.850670 
# 
# From -- ./inp_files/793.got.cif
#   From: 2010.03.12/outbox.cif.g09.slc.cpg/sg110_1_cif.got.tgz:793.got - 2010.04.14 01:58:01.
