data_PCOD8308083
_publ_section_title
;
Structure prediction by ZEFSAII (Michael W. Deem and Ramdas Pophale) SiO2 
 PCOD8308083
Probable space group: I 41 C D
;
_chemical_formula_sum "Si O2"
_cell_formula_units_Z 32
_cell_length_a 9.467623
_cell_length_b 9.467623
_cell_length_c 15.690777
_cell_angle_alpha 90.000000
_cell_angle_beta 90.000000
_cell_angle_gamma 90.000000
_cell_volume 1406.456687
_symmetry_space_group_name_H-M "I 41 C D"
_symmetry_group_IT_number 110
_symmetry_cell_setting 'tetragonal'
loop_
_space_group_symop_operation_xyz
x,y,z
-y,1/2+x,1/4+z
-x,-y,z
y,1/2-x,1/4+z
-x,y,1/2+z
x,-y,1/2+z
1/2-y,-x,1/4+z
1/2+y,x,1/4+z
1/2+x,1/2+y,1/2+z
1/2-y,x,3/4+z
1/2-x,1/2-y,1/2+z
1/2+y,-x,3/4+z
1/2-x,1/2+y,z
1/2+x,1/2-y,z
-y,1/2-x,3/4+z
y,1/2+x,3/4+z
loop_
_atom_site_type_symbol
_atom_site_label
_atom_site_fract_x
_atom_site_fract_y
_atom_site_fract_z
Si Si1 0.396094 0.386752 0.236140
Si Si2 0.363921 0.578882 0.929981
O O1 0.500000 0.500000 0.190414
O O2 0.497013 0.251390 0.235547
O O3 0.352230 0.445208 0.328951
O O4 0.248490 0.360678 0.188968
O O5 0.500000 0.500000 0.966085
#
# Coordination Sequence:
#
# PCOD8308083 Si02
#       2
#    16  16
#     4  11  27  45  73 104 142 189 238 301 366 445
#     4  11  27  45  73 104 142 189 238 301 366 445
#
# _framework density 22.752213000000001
#
# number of rings (size 3 to 8) (size 9 to 14) (size 15 to 20)
#    0.000    1.000    0.000    3.000   28.000    0.000 
#    0.000    0.000    0.000    0.000    0.000    0.000 
#    0.000    0.000    0.000    0.000    0.000    0.000 
#
# Total GULP energy -198215.966352 kJ/mol
# GULP energy per Si atom -12388.497897 kJ/mol
# Density = 2.270043 g / cm^3
# Si number density = 22.752213 Si / 1000 Ang^3
#
#
#
# Elastic Constant Matrix: (Units=GPa)
#
#
# Indices 1 2 3 4 5 6 
#
# 1 165.8823 63.1054 1.0995 0.0000 0.0000 0.0000
# 2 63.1054 165.8823 1.0995 0.0000 0.0000 0.0000
# 3 1.0995 1.0995 39.2329 0.0000 0.0000 0.0000
# 4 0.0000 0.0000 0.0000 22.0257 0.0000 0.0000
# 5 0.0000 0.0000 0.0000 0.0000 22.0257 0.0000
# 6 0.0000 0.0000 0.0000 0.0000 0.0000 51.1349
#
#
#
# Elastic Compliance Matrix: (Units=1/GPa)
#
#
# Indices 1 2 3 4 5 6 
#
# 1 0.007049 -0.002681 -0.000122 0.000000 0.000000 0.000000
# 2 -0.002681 0.007049 -0.000122 0.000000 0.000000 0.000000
# 3 -0.000122 -0.000122 0.025496 0.000000 0.000000 0.000000
# 4 0.000000 0.000000 0.000000 0.045401 0.000000 0.000000
# 5 0.000000 0.000000 0.000000 0.000000 0.045401 0.000000
# 6 0.000000 0.000000 0.000000 0.000000 0.000000 0.019556
#
#
# Mechanical properties :
#
#
# Convention : Reuss Voigt Hill
#
# Bulk Modulus (GPa) = 29.63628 55.73404 42.68516
# Shear Modulus (GPa) = 29.93091 39.41682 34.67387
#
# Velocity S-wave (km/s) = 3.63094 4.16677 3.90805
# Velocity P-wave (km/s) = 5.53464 6.90642 6.25823
#
# Compressibility (1/GPa) = 0.03374242
#
# Stress axis : x y z
#
# Youngs Moduli (GPa) = 141.86371 141.86370 39.22238
#
# Poissons Ratio (x) = 0.38031 0.00480
# Poissons Ratio (y) = 0.38031 0.00480
# Poissons Ratio (z) = 0.01737 0.01737
#
# Static dielectric constant tensor:
#      x y z
#    x 4.617440 0.000000 0.000000 
#    y 0.000000 4.617440 0.000000 
#    z 0.000000 0.000000 3.725950 
# 
# 
# High freq. dielectric constant tensor:
#      x y z
#    x 1.917030 0.000000 0.000000 
#    y 0.000000 1.917030 0.000000 
#    z 0.000000 0.000000 1.880990 
# 
# From -- ./inp_files/1054.got.cif
#   From: 2010.03.12/outbox.cif.g09.slc.cpg/sg110_1_cif.got.tgz:1054.got - 2010.04.14 01:58:01.
