data_PCOD8308007
_publ_section_title
;
Structure prediction by ZEFSAII (Michael W. Deem and Ramdas Pophale) SiO2 
 PCOD8308007
Probable space group: I 41 C D
;
_chemical_formula_sum "Si O2"
_cell_formula_units_Z 128
_cell_length_a 24.035941
_cell_length_b 24.035941
_cell_length_c 11.925482
_cell_angle_alpha 90.000000
_cell_angle_beta 90.000000
_cell_angle_gamma 90.000000
_cell_volume 6889.666497
_symmetry_space_group_name_H-M "I 41 C D"
_symmetry_group_IT_number 110
_symmetry_cell_setting 'tetragonal'
loop_
_space_group_symop_operation_xyz
x,y,z
-y,1/2+x,1/4+z
-x,-y,z
y,1/2-x,1/4+z
-x,y,1/2+z
x,-y,1/2+z
1/2-y,-x,1/4+z
1/2+y,x,1/4+z
1/2+x,1/2+y,1/2+z
1/2-y,x,3/4+z
1/2-x,1/2-y,1/2+z
1/2+y,-x,3/4+z
1/2-x,1/2+y,z
1/2+x,1/2-y,z
-y,1/2-x,3/4+z
y,1/2+x,3/4+z
loop_
_atom_site_type_symbol
_atom_site_label
_atom_site_fract_x
_atom_site_fract_y
_atom_site_fract_z
Si Si1 0.325964 0.391901 0.738050
Si Si2 0.823925 0.919430 0.988359
Si Si3 0.459395 0.181030 0.196533
Si Si4 0.810642 0.533690 0.935006
Si Si5 0.299671 0.110359 0.244037
Si Si6 0.634122 0.328562 0.828057
Si Si7 0.302623 0.085633 0.992405
Si Si8 0.864684 0.698557 0.856518
O O1 0.327080 0.425353 0.622396
O O2 0.350214 0.426816 0.844209
O O3 0.263894 0.376491 0.775500
O O4 0.360071 0.336479 0.708059
O O5 0.859691 0.869045 0.935332
O O6 0.847263 0.979628 0.950303
O O7 0.760382 0.908243 0.949188
O O8 0.469998 0.244902 0.168307
O O9 0.427255 0.181397 0.316840
O O10 0.831604 0.566910 0.825818
O O11 0.830081 0.569267 0.042922
O O12 0.832374 0.470299 0.944271
O O13 0.304588 0.081408 0.125562
O O14 0.327458 0.170971 0.257707
O O15 0.647947 0.264532 0.859058
O O16 0.673938 0.350442 0.728346
#
# Coordination Sequence:
#
# PCOD8308007 Si02
#       8
#    16  16  16  16  16  16  16  16
#     4  10  20  34  55  81 111 139 185 227 276 325
#     4  10  23  34  52  86 112 139 181 233 276 322
#     4   9  18  37  56  76 105 148 187 221 271 332
#     4   8  18  35  53  76 105 143 187 224 260 325
#     4   9  18  34  53  82 109 146 183 216 273 348
#     4  10  22  36  53  82 112 147 184 224 281 335
#     4  10  19  34  55  81 108 143 182 228 272 318
#     4  10  20  36  57  78 112 153 183 217 277 349
#
# _framework density 18.578548000000001
#
# number of rings (size 3 to 8) (size 9 to 14) (size 15 to 20)
#    0.000    2.500    1.250    0.750    3.500    2.000 
#    4.500    0.000    0.000    0.750    0.000    0.000 
#    0.000    0.000    0.000    0.000    0.000    0.000 
#
# Total GULP energy -792858.743655 kJ/mol
# GULP energy per Si atom -12388.417870 kJ/mol
# Density = 1.853626 g / cm^3
# Si number density = 18.578548 Si / 1000 Ang^3
#
#
#
# Elastic Constant Matrix: (Units=GPa)
#
#
# Indices 1 2 3 4 5 6 
#
# 1 82.8797 25.3246 17.2510 0.0000 0.0000 0.0000
# 2 25.3246 82.8797 17.2510 0.0000 0.0000 0.0000
# 3 17.2510 17.2510 58.1637 0.0000 0.0000 0.0000
# 4 0.0000 0.0000 0.0000 21.9551 0.0000 0.0000
# 5 0.0000 0.0000 0.0000 0.0000 21.9551 0.0000
# 6 0.0000 0.0000 0.0000 0.0000 0.0000 8.0678
#
#
#
# Elastic Compliance Matrix: (Units=1/GPa)
#
#
# Indices 1 2 3 4 5 6 
#
# 1 0.013791 -0.003584 -0.003027 0.000000 0.000000 0.000000
# 2 -0.003584 0.013791 -0.003027 0.000000 0.000000 0.000000
# 3 -0.003027 -0.003027 0.018989 0.000000 0.000000 0.000000
# 4 0.000000 0.000000 0.000000 0.045548 0.000000 0.000000
# 5 0.000000 0.000000 0.000000 0.000000 0.045548 0.000000
# 6 0.000000 0.000000 0.000000 0.000000 0.000000 0.123950
#
#
# Mechanical properties :
#
#
# Convention : Reuss Voigt Hill
#
# Bulk Modulus (GPa) = 36.63894 38.17516 37.40705
# Shear Modulus (GPa) = 17.24195 21.33535 19.28865
#
# Velocity S-wave (km/s) = 3.04971 3.39246 3.22564
# Velocity P-wave (km/s) = 5.67141 5.99480 5.83535
#
# Compressibility (1/GPa) = 0.02729336
#
# Stress axis : x y z
#
# Youngs Moduli (GPa) = 72.51176 72.51176 52.66311
#
# Poissons Ratio (x) = 0.25987 0.15943
# Poissons Ratio (y) = 0.25987 0.15943
# Poissons Ratio (z) = 0.21952 0.21952
#
# Static dielectric constant tensor:
#      x y z
#    x 3.404090 0.000000 0.000000 
#    y 0.000000 3.404090 0.000000 
#    z 0.000000 0.000000 3.515130 
# 
# 
# High freq. dielectric constant tensor:
#      x y z
#    x 1.700250 0.000000 0.000000 
#    y 0.000000 1.700250 0.000000 
#    z 0.000000 0.000000 1.727010 
# 
# From -- ./inp_files/1014.got.cif
#   From: 2010.03.12/outbox.cif.g09.slc.cpg/sg110_1_cif.got.tgz:1014.got - 2010.04.14 01:58:01.
