data_PCOD8308590
_publ_section_title
;
Structure prediction by ZEFSAII (Michael W. Deem and Ramdas Pophale) SiO2 
 PCOD8308590
Probable space group: P -4 21 M 
;
_chemical_formula_sum "Si O2"
_cell_formula_units_Z 56
_cell_length_a 12.341651
_cell_length_b 12.341651
_cell_length_c 19.774968
_cell_angle_alpha 90.000000
_cell_angle_beta 90.000000
_cell_angle_gamma 90.000000
_cell_volume 3012.050935
_symmetry_space_group_name_H-M "P -4 21 M "
_symmetry_group_IT_number 113
_symmetry_cell_setting 'tetragonal'
loop_
_space_group_symop_operation_xyz
x,y,z
y,-x,-z
-x,-y,z
-y,x,-z
1/2+x,1/2-y,-z
1/2-x,1/2+y,-z
1/2-y,1/2-x,z
1/2+y,1/2+x,z
loop_
_atom_site_type_symbol
_atom_site_label
_atom_site_fract_x
_atom_site_fract_y
_atom_site_fract_z
Si Si1 0.966594 0.877661 0.716225
Si Si2 0.842106 0.166415 0.154116
Si Si3 0.502849 0.173059 0.902896
Si Si4 0.181358 0.851160 0.651273
Si Si5 0.338463 0.447272 0.986574
Si Si6 0.265790 0.596408 0.365243
Si Si7 0.144417 0.093454 0.494265
O O1 0.077038 0.816035 0.696099
O O2 0.931193 0.858404 0.793366
O O3 0.867649 0.841211 0.668090
O O4 0.000000 0.000000 0.700962
O O5 0.743799 0.243799 0.177081
O O6 0.954108 0.236779 0.148771
O O7 0.812391 0.111924 0.083276
O O8 0.404081 0.095920 0.926101
O O9 0.599708 0.099708 0.870027
O O10 0.551405 0.230080 0.969135
O O11 0.276310 0.776310 0.678495
O O12 0.159252 0.825431 0.572537
O O13 0.226205 0.973146 0.660288
O O14 0.380437 0.569269 0.972865
O O15 0.154380 0.654380 0.340634
O O16 0.267709 0.607361 0.446549
O O17 0.031844 0.134605 0.526436
#
# Coordination Sequence:
#
# PCOD8308590 Si02
#       7
#     8   8   8   8   8   8   8
#     4  10  21  36  55  76 106 146 186 224 261 326
#     4  10  20  34  56  81 107 142 183 221 264 322
#     4   9  18  33  53  80 112 139 171 224 282 324
#     4  10  20  35  54  81 111 142 180 229 279 324
#     4   9  18  31  54  80 107 143 182 223 264 318
#     4  10  19  33  55  81 107 143 182 224 278 328
#     4   9  15  29  55  83 106 135 184 230 271 323
#
# _framework density 18.591982000000002
#
# number of rings (size 3 to 8) (size 9 to 14) (size 15 to 20)
#    0.000    2.429    1.429    1.286    4.000    0.857 
#    0.000    3.571    0.000    6.000    0.000    0.000 
#    0.000    0.000    0.000    0.000    0.000    0.000 
#
# Total GULP energy -694015.734459 kJ/mol
# GULP energy per Si atom -12393.138115 kJ/mol
# Density = 1.854967 g / cm^3
# Si number density = 18.591982 Si / 1000 Ang^3
#
#
#
# Elastic Constant Matrix: (Units=GPa)
#
#
# Indices 1 2 3 4 5 6 
#
# 1 91.3426 57.4193 34.6441 0.0000 0.0000 0.0000
# 2 57.4193 91.3423 34.6442 0.0000 0.0000 0.0000
# 3 34.6441 34.6442 68.8746 0.0000 0.0000 0.0000
# 4 0.0000 0.0000 0.0000 18.8892 0.0000 0.0000
# 5 0.0000 0.0000 0.0000 0.0000 18.8891 0.0000
# 6 0.0000 0.0000 0.0000 0.0000 0.0000 30.0933
#
#
#
# Elastic Compliance Matrix: (Units=1/GPa)
#
#
# Indices 1 2 3 4 5 6 
#
# 1 0.019129 -0.010350 -0.004416 0.000000 0.000000 0.000000
# 2 -0.010350 0.019129 -0.004416 0.000000 0.000000 0.000000
# 3 -0.004416 -0.004416 0.018962 0.000000 0.000000 0.000000
# 4 0.000000 0.000000 0.000000 0.052940 0.000000 0.000000
# 5 0.000000 0.000000 0.000000 0.000000 0.052941 0.000000
# 6 0.000000 0.000000 0.000000 0.000000 0.000000 0.033230
#
#
# Mechanical properties :
#
#
# Convention : Reuss Voigt Hill
#
# Bulk Modulus (GPa) = 53.03347 56.10831 54.57089
# Shear Modulus (GPa) = 20.74878 21.89775 21.32326
#
# Velocity S-wave (km/s) = 3.34429 3.43564 3.39027
# Velocity P-wave (km/s) = 6.59540 6.78104 6.68886
#
# Compressibility (1/GPa) = 0.01885602
#
# Stress axis : x y z
#
# Youngs Moduli (GPa) = 52.27780 52.27752 52.73842
#
# Poissons Ratio (x) = 0.54106 0.23288
# Poissons Ratio (y) = 0.54106 0.23289
# Poissons Ratio (z) = 0.23085 0.23085
#
# Static dielectric constant tensor:
#      x y z
#    x 3.413080 0.000000 0.000000 
#    y 0.000000 3.413080 0.000000 
#    z 0.000000 0.000000 3.173530 
# 
# 
# High freq. dielectric constant tensor:
#      x y z
#    x 1.712110 0.000000 0.000000 
#    y 0.000000 1.712110 0.000000 
#    z 0.000000 0.000000 1.707880 
# 
# From -- ./inp_files/2671.got.cif
#   From: 2010.03.12/outbox.cif.g09.slc.cpg/sg113_cif.got.tgz:2671.got - 2010.04.14 02:06:34.
