data_PCOD8308968
_publ_section_title
;
Structure prediction by ZEFSAII (Michael W. Deem and Ramdas Pophale) SiO2 
 PCOD8308968
Probable space group: P -4 21 C
;
_chemical_formula_sum "Si O2"
_cell_formula_units_Z 56
_cell_length_a 14.453159
_cell_length_b 14.453159
_cell_length_c 10.440289
_cell_angle_alpha 90.000000
_cell_angle_beta 90.000000
_cell_angle_gamma 90.000000
_cell_volume 2180.911695
_symmetry_space_group_name_H-M "P -4 21 C"
_symmetry_group_IT_number 114
_symmetry_cell_setting 'tetragonal'
loop_
_space_group_symop_operation_xyz
x,y,z
y,-x,-z
-x,-y,z
-y,x,-z
1/2+x,1/2-y,1/2-z
1/2-x,1/2+y,1/2-z
1/2-y,1/2-x,1/2+z
1/2+y,1/2+x,1/2+z
loop_
_atom_site_type_symbol
_atom_site_label
_atom_site_fract_x
_atom_site_fract_y
_atom_site_fract_z
Si Si1 0.849896 0.137721 0.280206
Si Si2 0.591768 0.451953 0.268664
Si Si3 0.166120 0.347475 0.766963
Si Si4 0.662928 0.318395 0.053580
Si Si5 0.963731 0.399419 0.748748
Si Si6 0.283797 0.491157 0.630355
Si Si7 0.626050 0.840293 0.498532
O O1 0.758127 0.199475 0.258085
O O2 0.851174 0.106152 0.429503
O O3 0.940204 0.199887 0.251820
O O4 0.847400 0.042413 0.193470
O O5 0.500000 0.500000 0.207350
O O6 0.648742 0.390443 0.168314
O O7 0.562958 0.382993 0.387849
O O8 0.216660 0.373910 0.901176
O O9 0.201507 0.418674 0.658867
O O10 0.055610 0.337698 0.764902
O O11 0.769418 0.308175 0.013287
O O12 0.918030 0.394205 0.608857
O O13 0.000000 0.500000 0.777808
O O14 0.888713 0.377054 0.858004
O O15 0.248939 0.556941 0.515486
#
# Coordination Sequence:
#
# PCOD8308968 Si02
#       7
#     8   8   8   8   8   8   8
#     4  11  23  43  69 101 144 185 250 304 376 448
#     4   9  22  39  68 101 136 176 244 308 371 435
#     4  11  25  44  65 102 140 191 240 297 376 449
#     4  11  25  39  71 102 139 187 235 311 373 438
#     4  12  27  44  72 104 144 198 245 303 372 452
#     4  10  22  44  67 101 140 186 237 308 367 449
#     4  12  25  48  71 105 151 193 250 306 377 458
#
# _framework density 25.677334999999999
#
# number of rings (size 3 to 8) (size 9 to 14) (size 15 to 20)
#    0.000    1.143    2.857    2.143    8.000    0.000 
#    0.000    0.000    0.000    0.000    0.000    0.000 
#    0.000    0.000    0.000    0.000    0.000    0.000 
#
# Total GULP energy -693766.080725 kJ/mol
# GULP energy per Si atom -12388.680013 kJ/mol
# Density = 2.561889 g / cm^3
# Si number density = 25.677335 Si / 1000 Ang^3
#
#
#
# Elastic Constant Matrix: (Units=GPa)
#
#
# Indices 1 2 3 4 5 6 
#
# 1 110.2562 19.3107 -1.6517 0.0000 0.0000 0.0000
# 2 19.3107 110.2562 -1.6517 0.0000 0.0000 0.0000
# 3 -1.6517 -1.6517 41.4378 0.0000 0.0000 0.0000
# 4 0.0000 0.0000 0.0000 21.9125 0.0000 0.0000
# 5 0.0000 0.0000 0.0000 0.0000 21.9125 0.0000
# 6 0.0000 0.0000 0.0000 0.0000 0.0000 41.7148
#
#
#
# Elastic Compliance Matrix: (Units=1/GPa)
#
#
# Indices 1 2 3 4 5 6 
#
# 1 0.009361 -0.001635 0.000308 0.000000 0.000000 0.000000
# 2 -0.001635 0.009361 0.000308 0.000000 0.000000 0.000000
# 3 0.000308 0.000308 0.024157 0.000000 0.000000 0.000000
# 4 0.000000 0.000000 0.000000 0.045636 0.000000 0.000000
# 5 0.000000 0.000000 0.000000 0.000000 0.045636 0.000000
# 6 0.000000 0.000000 0.000000 0.000000 0.000000 0.023972
#
#
# Mechanical properties :
#
#
# Convention : Reuss Voigt Hill
#
# Bulk Modulus (GPa) = 24.48541 32.66276 28.57408
# Shear Modulus (GPa) = 28.77291 33.50414 31.13853
#
# Velocity S-wave (km/s) = 3.35110 3.61614 3.48614
# Velocity P-wave (km/s) = 4.95275 5.49394 5.23035
#
# Compressibility (1/GPa) = 0.04084066
#
# Stress axis : x y z
#
# Youngs Moduli (GPa) = 106.82922 106.82922 41.39569
#
# Poissons Ratio (x) = 0.17465 -0.01275
# Poissons Ratio (y) = 0.17465 -0.01275
# Poissons Ratio (z) = -0.03290 -0.03290
#
# Static dielectric constant tensor:
#      x y z
#    x 5.131590 0.000000 0.000000 
#    y 0.000000 5.131590 0.000000 
#    z 0.000000 0.000000 4.328910 
# 
# 
# High freq. dielectric constant tensor:
#      x y z
#    x 2.042860 0.000000 0.000000 
#    y 0.000000 2.042860 0.000000 
#    z 0.000000 0.000000 1.989770 
# 
# From -- ./inp_files/1764.got.cif
#   From: 2010.03.12/outbox.cif.g09.slc.cpg/sg114_1_cif.got.tgz:1764.got - 2010.04.14 02:08:34.
