data_PCOD8308240
_publ_section_title
;
Structure prediction by ZEFSAII (Michael W. Deem and Ramdas Pophale) SiO2 
 PCOD8308240
Probable space group: P -4 2 M 
;
_chemical_formula_sum "Si O2"
_cell_formula_units_Z 56
_cell_length_a 11.865010
_cell_length_b 11.865010
_cell_length_c 20.989606
_cell_angle_alpha 90.000000
_cell_angle_beta 90.000000
_cell_angle_gamma 90.000000
_cell_volume 2954.884457
_symmetry_space_group_name_H-M "P -4 2 M "
_symmetry_group_IT_number 111
_symmetry_cell_setting 'tetragonal'
loop_
_space_group_symop_operation_xyz
x,y,z
y,-x,-z
-x,-y,z
-y,x,-z
x,-y,-z
-x,y,-z
-y,-x,z
y,x,z
loop_
_atom_site_type_symbol
_atom_site_label
_atom_site_fract_x
_atom_site_fract_y
_atom_site_fract_z
Si Si1 0.694618 0.122451 0.227138
Si Si2 0.816458 0.368047 0.992696
Si Si3 0.368589 0.007693 0.899507
Si Si4 0.770887 0.948214 0.564647
Si Si5 0.749651 0.927368 0.311916
Si Si6 0.869738 0.490534 0.684477
Si Si7 0.769492 0.582637 0.559608
O O1 0.764355 0.235646 0.211725
O O2 0.571851 0.156676 0.255068
O O3 0.690050 0.039278 0.166606
O O4 0.758029 0.050301 0.280535
O O5 0.700362 0.299639 0.993879
O O6 0.885191 0.335365 0.928181
O O7 0.787000 0.500000 0.000000
O O8 0.894654 0.333675 0.051649
O O9 0.500000 0.000000 0.887683
O O10 0.865222 0.865222 0.593958
O O11 0.657532 0.879988 0.548965
O O12 0.818130 0.000000 0.500000
O O13 0.747267 0.050983 0.612433
O O14 0.857718 0.857718 0.290265
O O15 0.638593 0.855203 0.292550
O O16 0.785583 0.515755 0.626098
O O17 0.000000 0.500000 0.662131
O O18 0.755487 0.500000 0.500000
O O19 0.657155 0.657155 0.565561
#
# Coordination Sequence:
#
# PCOD8308240 Si02
#       7
#     8   8   8   8   8   8   8
#     4  11  21  36  60  86 111 149 194 240 288 340
#     4   9  18  33  55  85 120 156 195 241 285 333
#     4   9  18  34  56  82 114 155 200 237 278 331
#     4  11  22  35  52  75 104 140 177 220 277 341
#     4  11  23  37  55  82 110 139 178 228 285 341
#     4  10  20  37  59  77 105 142 187 229 274 340
#     4  11  23  37  56  80 106 137 178 230 286 345
#
# _framework density 18.951671999999999
#
# number of rings (size 3 to 8) (size 9 to 14) (size 15 to 20)
#    0.000    1.714    2.857    4.714    0.000    4.429 
#    0.000    0.000    0.000    8.143    0.000    0.000 
#    0.000    0.000    0.000    0.000    0.000    0.000 
#
# Total GULP energy -694200.585885 kJ/mol
# GULP energy per Si atom -12396.439034 kJ/mol
# Density = 1.890854 g / cm^3
# Si number density = 18.951672 Si / 1000 Ang^3
#
#
#
# Elastic Constant Matrix: (Units=GPa)
#
#
# Indices 1 2 3 4 5 6 
#
# 1 76.4102 43.4056 25.9051 0.0000 0.0000 0.0000
# 2 43.4056 76.4076 25.9049 0.0000 0.0000 0.0000
# 3 25.9051 25.9049 97.7555 0.0000 0.0000 0.0000
# 4 0.0000 0.0000 0.0000 20.1757 0.0000 0.0000
# 5 0.0000 0.0000 0.0000 0.0000 20.1756 0.0000
# 6 0.0000 0.0000 0.0000 0.0000 0.0000 34.2053
#
#
#
# Elastic Compliance Matrix: (Units=1/GPa)
#
#
# Indices 1 2 3 4 5 6 
#
# 1 0.019863 -0.010437 -0.002498 0.000000 0.000000 0.000000
# 2 -0.010437 0.019864 -0.002498 0.000000 0.000000 0.000000
# 3 -0.002498 -0.002498 0.011554 0.000000 0.000000 0.000000
# 4 0.000000 0.000000 0.000000 0.049565 0.000000 0.000000
# 5 0.000000 0.000000 0.000000 0.000000 0.049565 0.000000
# 6 0.000000 0.000000 0.000000 0.000000 0.000000 0.029235
#
#
# Mechanical properties :
#
#
# Convention : Reuss Voigt Hill
#
# Bulk Modulus (GPa) = 48.98497 49.00049 48.99273
# Shear Modulus (GPa) = 23.00807 25.26849 24.13828
#
# Velocity S-wave (km/s) = 3.48809 3.65542 3.57273
# Velocity P-wave (km/s) = 6.49044 6.61269 6.55185
#
# Compressibility (1/GPa) = 0.02041443
#
# Stress axis : x y z
#
# Youngs Moduli (GPa) = 50.34523 50.34335 86.55371
#
# Poissons Ratio (x) = 0.52542 0.21620
# Poissons Ratio (y) = 0.52544 0.21622
# Poissons Ratio (z) = 0.12576 0.12576
#
# Static dielectric constant tensor:
#      x y z
#    x 3.402740 0.000000 0.000000 
#    y 0.000000 3.402740 0.000000 
#    z 0.000000 0.000000 3.594460 
# 
# 
# High freq. dielectric constant tensor:
#      x y z
#    x 1.725390 0.000000 0.000000 
#    y 0.000000 1.725390 0.000000 
#    z 0.000000 0.000000 1.734650 
# 
# From -- ./inp_files/3989.got.cif
#   From: 2010.03.12/outbox.cif.g09.slc.cpg/sg111_2_cif.got.tgz:3989.got - 2010.04.14 01:59:48.
