data_PCOD8308568
_publ_section_title
;
Structure prediction by ZEFSAII (Michael W. Deem and Ramdas Pophale) SiO2 
 PCOD8308568
Probable space group: P -4 21 M 
;
_chemical_formula_sum "Si O2"
_cell_formula_units_Z 56
_cell_length_a 11.639309
_cell_length_b 11.639309
_cell_length_c 23.122589
_cell_angle_alpha 90.000000
_cell_angle_beta 90.000000
_cell_angle_gamma 90.000000
_cell_volume 3132.498385
_symmetry_space_group_name_H-M "P -4 21 M "
_symmetry_group_IT_number 113
_symmetry_cell_setting 'tetragonal'
loop_
_space_group_symop_operation_xyz
x,y,z
y,-x,-z
-x,-y,z
-y,x,-z
1/2+x,1/2-y,-z
1/2-x,1/2+y,-z
1/2-y,1/2-x,z
1/2+y,1/2+x,z
loop_
_atom_site_type_symbol
_atom_site_label
_atom_site_fract_x
_atom_site_fract_y
_atom_site_fract_z
Si Si1 0.661284 0.657072 0.555396
Si Si2 0.771213 0.910175 0.431706
Si Si3 0.907099 0.773158 0.931558
Si Si4 0.000658 0.687798 0.253493
Si Si5 0.030068 0.125650 0.351538
Si Si6 0.664306 0.652785 0.057905
Si Si7 0.066307 0.749533 0.127743
O O1 0.730627 0.769374 0.574483
O O2 0.741737 0.547034 0.567125
O O3 0.630388 0.658956 0.488007
O O4 0.547466 0.652830 0.593121
O O5 0.644593 0.855408 0.429693
O O6 0.839725 0.869775 0.374574
O O7 0.861338 0.638663 0.933936
O O8 0.844388 0.833879 0.877673
O O9 0.041842 0.794741 0.922490
O O10 0.864481 0.838244 0.989227
O O11 0.107425 0.607425 0.270400
O O12 0.021143 0.750113 0.192772
O O13 0.884474 0.615527 0.248791
O O14 0.987750 0.783263 0.301714
O O15 0.000000 0.000000 0.326358
O O16 0.752460 0.747541 0.078855
O O17 0.708901 0.535272 0.086073
O O18 0.123122 0.623122 0.112051
#
# Coordination Sequence:
#
# PCOD8308568 Si02
#       7
#     8   8   8   8   8   8   8
#     4  10  19  32  50  72 103 139 175 217 263 315
#     4  10  19  32  50  72 103 139 175 218 263 316
#     4  10  21  35  53  80 111 146 189 232 276 333
#     4  10  21  38  57  80 112 144 180 231 278 320
#     4  10  20  33  55  79 105 138 183 221 264 323
#     4  11  21  34  55  81 111 148 186 232 283 332
#     4  10  21  37  57  81 111 147 188 228 279 336
#
# _framework density 17.877105
#
# number of rings (size 3 to 8) (size 9 to 14) (size 15 to 20)
#    0.000    1.857    2.857    1.714    0.000    2.571 
#    0.000    1.429    0.000    0.000    0.000    0.000 
#    0.000    6.857    0.000    0.000    0.000    0.000 
#
# Total GULP energy -694084.948787 kJ/mol
# GULP energy per Si atom -12394.374085 kJ/mol
# Density = 1.783642 g / cm^3
# Si number density = 17.877105 Si / 1000 Ang^3
#
#
#
# Elastic Constant Matrix: (Units=GPa)
#
#
# Indices 1 2 3 4 5 6 
#
# 1 47.3668 11.0137 5.2938 0.0000 0.0000 0.0000
# 2 11.0137 47.3818 5.3001 0.0000 0.0000 0.0000
# 3 5.2938 5.3001 58.5298 0.0000 0.0000 0.0000
# 4 0.0000 0.0000 0.0000 23.2302 0.0000 0.0000
# 5 0.0000 0.0000 0.0000 0.0000 23.2285 0.0000
# 6 0.0000 0.0000 0.0000 0.0000 0.0000 28.0198
#
#
#
# Elastic Compliance Matrix: (Units=1/GPa)
#
#
# Indices 1 2 3 4 5 6 
#
# 1 0.022461 -0.005045 -0.001575 0.000000 0.000000 0.000000
# 2 -0.005045 0.022454 -0.001577 0.000000 0.000000 0.000000
# 3 -0.001575 -0.001577 0.017371 0.000000 0.000000 0.000000
# 4 0.000000 0.000000 0.000000 0.043047 0.000000 0.000000
# 5 0.000000 0.000000 0.000000 0.000000 0.043051 0.000000
# 6 0.000000 0.000000 0.000000 0.000000 0.000000 0.035689
#
#
# Mechanical properties :
#
#
# Convention : Reuss Voigt Hill
#
# Bulk Modulus (GPa) = 21.79002 21.83263 21.81133
# Shear Modulus (GPa) = 23.17355 23.67374 23.42364
#
# Velocity S-wave (km/s) = 3.60428 3.64297 3.62368
# Velocity P-wave (km/s) = 5.43474 5.47121 5.45300
#
# Compressibility (1/GPa) = 0.04589257
#
# Stress axis : x y z
#
# Youngs Moduli (GPa) = 44.52190 44.53508 57.56876
#
# Poissons Ratio (x) = 0.22467 0.09065
# Poissons Ratio (y) = 0.22460 0.09079
# Poissons Ratio (z) = 0.07011 0.07023
#
# Static dielectric constant tensor:
#      x y z
#    x 3.375860 0.000000 0.000000 
#    y 0.000000 3.375860 0.000000 
#    z 0.000000 0.000000 3.174010 
# 
# 
# High freq. dielectric constant tensor:
#      x y z
#    x 1.694090 0.000000 0.000000 
#    y 0.000000 1.694090 0.000000 
#    z 0.000000 0.000000 1.675250 
# 
# From -- ./inp_files/2678.got.cif
#   From: 2010.03.12/outbox.cif.g09.slc.cpg/sg113_cif.got.tgz:2678.got - 2010.04.14 02:06:34.
