data_PCOD8308130
_publ_section_title
;
Structure prediction by ZEFSAII (Michael W. Deem and Ramdas Pophale) SiO2 
 PCOD8308130
Probable space group: P -4 2 M 
;
_chemical_formula_sum "Si O2"
_cell_formula_units_Z 64
_cell_length_a 12.149643
_cell_length_b 12.149643
_cell_length_c 29.493889
_cell_angle_alpha 90.000000
_cell_angle_beta 90.000000
_cell_angle_gamma 90.000000
_cell_volume 4353.705770
_symmetry_space_group_name_H-M "P -4 2 M "
_symmetry_group_IT_number 111
_symmetry_cell_setting 'tetragonal'
loop_
_space_group_symop_operation_xyz
x,y,z
y,-x,-z
-x,-y,z
-y,x,-z
x,-y,-z
-x,y,-z
-y,-x,z
y,x,z
loop_
_atom_site_type_symbol
_atom_site_label
_atom_site_fract_x
_atom_site_fract_y
_atom_site_fract_z
Si Si1 0.372815 0.999995 0.220638
Si Si2 0.805915 0.374690 0.289206
Si Si3 0.131107 0.500003 0.551060
Si Si4 0.805923 0.374681 0.710793
Si Si5 0.125961 0.304145 0.612941
Si Si6 0.181405 0.000000 0.952277
Si Si7 0.695865 0.125955 0.612939
Si Si8 0.000000 0.184121 0.146693
O O1 0.347907 0.892632 0.250150
O O2 0.500000 0.000000 0.203666
O O3 0.347904 0.107346 0.250157
O O4 0.287983 0.000000 0.179500
O O5 0.699314 0.300687 0.281827
O O6 0.765998 0.500006 0.286747
O O7 0.863890 0.353255 0.337016
O O8 0.177800 0.500000 0.500000
O O9 0.174087 0.392017 0.577097
O O10 0.174082 0.607997 0.577093
O O11 0.000000 0.500000 0.551894
O O12 0.699331 0.300670 0.718177
O O13 0.863887 0.353249 0.662980
O O14 0.191698 0.191698 0.607312
O O15 0.000005 0.275987 0.602479
O O16 0.107573 0.892427 0.953112
O O17 0.242130 0.000002 0.903556
O O18 0.107572 0.107572 0.953113
O O19 0.252997 0.000000 0.000000
O O20 0.808317 0.191683 0.607309
O O21 0.108120 0.108120 0.153911
O O22 0.891883 0.108118 0.153912
#
# Coordination Sequence:
#
# PCOD8308130 Si02
#       8
#     8   8   8   8   8   8   8   8
#     4  10  19  29  44  61  86 121 146 176 214 262
#     4  10  19  31  47  65  85 114 146 178 213 252
#     4   9  18  32  52  71  87 111 143 174 203 247
#     4  10  19  31  47  65  85 114 146 178 213 252
#     4  10  19  32  50  69  93 117 142 174 208 253
#     4   7  10  18  34  56  81 111 145 179 216 253
#     4  10  19  32  50  69  93 117 142 174 208 253
#     4   9  16  26  41  63  91 115 142 185 223 255
#
# _framework density 14.70012
#
# number of rings (size 3 to 8) (size 9 to 14) (size 15 to 20)
#    0.000    2.625    2.500    1.875    0.000    1.000 
#    0.000    0.000    0.000    0.750    0.000    4.375 
#    0.000    0.000    0.000    0.000    0.000    0.000 
#
# Total GULP energy -793080.721175 kJ/mol
# GULP energy per Si atom -12391.886268 kJ/mol
# Density = 1.466666 g / cm^3
# Si number density = 14.700120 Si / 1000 Ang^3
#
#
#
# Elastic Constant Matrix: (Units=GPa)
#
#
# Indices 1 2 3 4 5 6 
#
# 1 78.2498 41.5369 49.8415 0.0000 0.0000 0.0000
# 2 41.5369 78.2493 49.8417 0.0000 0.0000 0.0000
# 3 49.8415 49.8417 134.0165 0.0000 0.0000 0.0000
# 4 0.0000 0.0000 0.0000 22.6566 0.0000 0.0000
# 5 0.0000 0.0000 0.0000 0.0000 22.6321 0.0000
# 6 0.0000 0.0000 0.0000 0.0000 0.0000 5.4803
#
#
#
# Elastic Compliance Matrix: (Units=1/GPa)
#
#
# Indices 1 2 3 4 5 6 
#
# 1 0.019664 -0.007574 -0.004496 0.000000 0.000000 0.000000
# 2 -0.007574 0.019664 -0.004496 0.000000 0.000000 0.000000
# 3 -0.004496 -0.004496 0.010806 0.000000 0.000000 0.000000
# 4 0.000000 0.000000 0.000000 0.044137 0.000000 0.000000
# 5 0.000000 0.000000 0.000000 0.000000 0.044185 0.000000
# 6 0.000000 0.000000 0.000000 0.000000 0.000000 0.182471
#
#
# Mechanical properties :
#
#
# Convention : Reuss Voigt Hill
#
# Bulk Modulus (GPa) = 58.82094 63.66174 61.24134
# Shear Modulus (GPa) = 13.89935 20.10684 17.00309
#
# Velocity S-wave (km/s) = 3.07828 3.70239 3.40467
# Velocity P-wave (km/s) = 7.26190 7.85353 7.56350
#
# Compressibility (1/GPa) = 0.01700075
#
# Stress axis : x y z
#
# Youngs Moduli (GPa) = 50.85403 50.85344 92.53961
#
# Poissons Ratio (x) = 0.38518 0.41608
# Poissons Ratio (y) = 0.38519 0.41609
# Poissons Ratio (z) = 0.22865 0.22866
#
# Static dielectric constant tensor:
#      x y z
#    x 2.663120 0.000000 0.000000 
#    y 0.000000 2.663120 0.000000 
#    z 0.000000 0.000000 3.138750 
# 
# 
# High freq. dielectric constant tensor:
#      x y z
#    x 1.544650 0.000000 0.000000 
#    y 0.000000 1.544650 0.000000 
#    z 0.000000 0.000000 1.568310 
# 
# From -- ./inp_files/4365.got.cif
#   From: 2010.03.12/outbox.cif.g09.slc.cpg/sg111_3_cif.got.tgz:4365.got - 2010.04.14 01:59:48.
