data_PCOD8308128
_publ_section_title
;
Structure prediction by ZEFSAII (Michael W. Deem and Ramdas Pophale) SiO2 
 PCOD8308128
Probable space group: P -4 2 M 
;
_chemical_formula_sum "Si O2"
_cell_formula_units_Z 64
_cell_length_a 14.036242
_cell_length_b 14.036242
_cell_length_c 20.579064
_cell_angle_alpha 90.000000
_cell_angle_beta 90.000000
_cell_angle_gamma 90.000000
_cell_volume 4054.406714
_symmetry_space_group_name_H-M "P -4 2 M "
_symmetry_group_IT_number 111
_symmetry_cell_setting 'tetragonal'
loop_
_space_group_symop_operation_xyz
x,y,z
y,-x,-z
-x,-y,z
-y,x,-z
x,-y,-z
-x,y,-z
-y,-x,z
y,x,z
loop_
_atom_site_type_symbol
_atom_site_label
_atom_site_fract_x
_atom_site_fract_y
_atom_site_fract_z
Si Si1 0.606190 0.887000 0.072176
Si Si2 0.733842 0.112975 0.809766
Si Si3 0.109464 0.736063 0.426525
Si Si4 0.605849 0.887300 0.689287
Si Si5 0.112701 0.605850 0.689287
Si Si6 0.109464 0.736063 0.573476
Si Si7 0.393811 0.887000 0.072176
Si Si8 0.112975 0.733842 0.190234
O O1 0.681069 0.850225 0.125207
O O2 0.500000 0.847382 0.087526
O O3 0.602270 1.000000 0.075626
O O4 0.638461 0.853809 1.000000
O O5 0.835976 0.164025 0.805365
O O6 0.669202 0.147003 0.749628
O O7 0.752178 0.000000 0.809503
O O8 0.167716 0.832285 0.414215
O O9 0.146123 0.653846 0.378182
O O10 0.123099 0.698117 0.500000
O O11 0.000000 0.762267 0.412047
O O12 0.500000 0.841998 0.693758
O O13 0.669202 0.852998 0.749628
O O14 0.596988 0.000000 0.691176
O O15 0.146124 0.653846 0.621819
O O16 0.167716 0.832285 0.585785
O O17 0.318932 0.850225 0.125207
O O18 0.164025 0.835976 0.194635
#
# Coordination Sequence:
#
# PCOD8308128 Si02
#       8
#     8   8   8   8   8   8   8   8
#     4   8  14  26  44  63  82 107 141 180 218 249
#     4  10  19  29  42  61  87 118 147 173 203 244
#     4   9  17  28  42  62  89 119 147 172 199 238
#     4   9  17  29  44  60  79 106 141 181 223 257
#     4   9  17  29  44  60  79 106 141 181 223 257
#     4   9  17  28  42  62  89 119 147 172 199 238
#     4   8  14  26  44  63  82 107 141 180 218 249
#     4  10  19  29  42  61  87 118 147 173 203 244
#
# _framework density 15.785292999999999
#
# number of rings (size 3 to 8) (size 9 to 14) (size 15 to 20)
#    0.000    3.000    0.000    2.250    0.000    4.500 
#    0.000    3.750    0.000    4.500    0.000    3.500 
#    0.000   23.500    0.000   22.000    0.000    2.000 
#
# Total GULP energy -793285.009092 kJ/mol
# GULP energy per Si atom -12395.078267 kJ/mol
# Density = 1.574937 g / cm^3
# Si number density = 15.785293 Si / 1000 Ang^3
#
#
#
# Elastic Constant Matrix: (Units=GPa)
#
#
# Indices 1 2 3 4 5 6 
#
# 1 68.5393 38.7713 49.8621 0.0000 0.0000 0.0000
# 2 38.7713 68.5375 49.8623 0.0000 0.0000 0.0000
# 3 49.8621 49.8623 128.7216 0.0000 0.0000 0.0000
# 4 0.0000 0.0000 0.0000 20.4607 0.0000 0.0000
# 5 0.0000 0.0000 0.0000 0.0000 20.4605 0.0000
# 6 0.0000 0.0000 0.0000 0.0000 0.0000 4.5701
#
#
#
# Elastic Compliance Matrix: (Units=1/GPa)
#
#
# Indices 1 2 3 4 5 6 
#
# 1 0.024077 -0.009517 -0.005640 0.000000 0.000000 0.000000
# 2 -0.009517 0.024078 -0.005640 0.000000 0.000000 0.000000
# 3 -0.005640 -0.005640 0.012138 0.000000 0.000000 0.000000
# 4 0.000000 0.000000 0.000000 0.048874 0.000000 0.000000
# 5 0.000000 0.000000 0.000000 0.000000 0.048875 0.000000
# 6 0.000000 0.000000 0.000000 0.000000 0.000000 0.218815
#
#
# Mechanical properties :
#
#
# Convention : Reuss Voigt Hill
#
# Bulk Modulus (GPa) = 53.48084 60.30997 56.89541
# Shear Modulus (GPa) = 11.77348 17.58510 14.67929
#
# Velocity S-wave (km/s) = 2.73399 3.34131 3.05279
# Velocity P-wave (km/s) = 6.62722 7.29213 6.96761
#
# Compressibility (1/GPa) = 0.01869828
#
# Stress axis : x y z
#
# Youngs Moduli (GPa) = 41.53388 41.53224 82.38403
#
# Poissons Ratio (x) = 0.39526 0.46464
# Poissons Ratio (y) = 0.39528 0.46467
# Poissons Ratio (z) = 0.23425 0.23426
#
# Static dielectric constant tensor:
#      x y z
#    x 2.797610 0.000000 0.000000 
#    y 0.000000 2.797610 0.000000 
#    z 0.000000 0.000000 3.388890 
# 
# 
# High freq. dielectric constant tensor:
#      x y z
#    x 1.572030 0.000000 0.000000 
#    y 0.000000 1.572030 0.000000 
#    z 0.000000 0.000000 1.629100 
# 
# From -- ./inp_files/4279.got.cif
#   From: 2010.03.12/outbox.cif.g09.slc.cpg/sg111_3_cif.got.tgz:4279.got - 2010.04.14 01:59:48.
