data_PCOD8308682
_publ_section_title
;
Structure prediction by ZEFSAII (Michael W. Deem and Ramdas Pophale) SiO2 
 PCOD8308682
Probable space group: P -4 21 M 
;
_chemical_formula_sum "Si O2"
_cell_formula_units_Z 56
_cell_length_a 14.939431
_cell_length_b 14.939431
_cell_length_c 12.285153
_cell_angle_alpha 90.000000
_cell_angle_beta 90.000000
_cell_angle_gamma 90.000000
_cell_volume 2741.881511
_symmetry_space_group_name_H-M "P -4 21 M "
_symmetry_group_IT_number 113
_symmetry_cell_setting 'tetragonal'
loop_
_space_group_symop_operation_xyz
x,y,z
y,-x,-z
-x,-y,z
-y,x,-z
1/2+x,1/2-y,-z
1/2-x,1/2+y,-z
1/2-y,1/2-x,z
1/2+y,1/2+x,z
loop_
_atom_site_type_symbol
_atom_site_label
_atom_site_fract_x
_atom_site_fract_y
_atom_site_fract_z
Si Si1 0.379021 0.581841 0.985169
Si Si2 0.689370 0.330729 0.783558
Si Si3 0.954814 0.684131 0.226859
Si Si4 0.859825 0.501760 0.458988
Si Si5 0.928298 0.082162 0.359164
Si Si6 0.054225 0.805915 0.578431
Si Si7 0.373722 0.271006 0.816188
O O1 0.328467 0.588957 0.868884
O O2 0.479162 0.620339 0.977139
O O3 0.324060 0.641692 0.071976
O O4 0.787442 0.287442 0.800769
O O5 0.614204 0.258720 0.812049
O O6 0.680643 0.361687 0.658174
O O7 0.914384 0.585617 0.201059
O O8 0.964501 0.697485 0.357095
O O9 0.049870 0.695263 0.166825
O O10 0.915788 0.584213 0.511947
O O11 0.797471 0.455021 0.547942
O O12 0.927011 0.427011 0.413239
O O13 0.942244 0.126978 0.476440
O O14 0.919177 0.160460 0.270333
O O15 0.831342 0.035814 0.356886
O O16 0.000000 0.000000 0.334411
O O17 0.280886 0.219115 0.782155
#
# Coordination Sequence:
#
# PCOD8308682 Si02
#       7
#     8   8   8   8   8   8   8
#     4  11  24  43  67  93 123 169 216 272 337 399
#     4  11  23  40  63  94 128 164 213 268 325 391
#     4  10  20  37  60  87 124 161 204 261 318 375
#     4  10  21  37  57  86 126 169 211 254 306 373
#     4  12  24  39  62  93 134 170 210 265 326 386
#     4  12  21  37  61  90 126 172 210 254 317 389
#     4  12  25  41  66  95 128 165 218 276 327 390
#
# _framework density 20.423931
#
# number of rings (size 3 to 8) (size 9 to 14) (size 15 to 20)
#    0.000    0.857    4.286    3.857    2.000    2.000 
#    2.571    0.000    0.000    0.857    0.000    0.000 
#    0.000    0.000    0.000    0.000    0.000    0.000 
#
# Total GULP energy -693949.051057 kJ/mol
# GULP energy per Si atom -12391.947340 kJ/mol
# Density = 2.037745 g / cm^3
# Si number density = 20.423931 Si / 1000 Ang^3
#
#
#
# Elastic Constant Matrix: (Units=GPa)
#
#
# Indices 1 2 3 4 5 6 
#
# 1 87.5258 41.3574 30.9482 0.0000 0.0000 0.0000
# 2 41.3574 87.5262 30.9486 0.0000 0.0000 0.0000
# 3 30.9482 30.9486 84.7201 0.0000 0.0000 0.0000
# 4 0.0000 0.0000 0.0000 24.2106 0.0000 0.0000
# 5 0.0000 0.0000 0.0000 0.0000 24.2104 0.0000
# 6 0.0000 0.0000 0.0000 0.0000 0.0000 36.1686
#
#
#
# Elastic Compliance Matrix: (Units=1/GPa)
#
#
# Indices 1 2 3 4 5 6 
#
# 1 0.015535 -0.006125 -0.003437 0.000000 0.000000 0.000000
# 2 -0.006125 0.015535 -0.003437 0.000000 0.000000 0.000000
# 3 -0.003437 -0.003437 0.014315 0.000000 0.000000 0.000000
# 4 0.000000 0.000000 0.000000 0.041304 0.000000 0.000000
# 5 0.000000 0.000000 0.000000 0.000000 0.041305 0.000000
# 6 0.000000 0.000000 0.000000 0.000000 0.000000 0.027648
#
#
# Mechanical properties :
#
#
# Convention : Reuss Voigt Hill
#
# Bulk Modulus (GPa) = 51.58661 51.80896 51.69778
# Shear Modulus (GPa) = 26.58120 27.35244 26.96682
#
# Velocity S-wave (km/s) = 3.61151 3.66353 3.63761
# Velocity P-wave (km/s) = 6.53478 6.58157 6.55822
#
# Compressibility (1/GPa) = 0.01938488
#
# Stress axis : x y z
#
# Youngs Moduli (GPa) = 64.37168 64.37175 69.85705
#
# Poissons Ratio (x) = 0.39428 0.24012
# Poissons Ratio (y) = 0.39428 0.24013
# Poissons Ratio (z) = 0.22127 0.22128
#
# Static dielectric constant tensor:
#      x y z
#    x 3.816680 0.000000 0.000000 
#    y 0.000000 3.816680 0.000000 
#    z 0.000000 0.000000 3.482310 
# 
# 
# High freq. dielectric constant tensor:
#      x y z
#    x 1.800350 0.000000 0.000000 
#    y 0.000000 1.800350 0.000000 
#    z 0.000000 0.000000 1.775630 
# 
# From -- ./inp_files/1910.got.cif
#   From: 2010.03.12/outbox.cif.g09.slc.cpg/sg113_cif.got.tgz:1910.got - 2010.04.14 02:06:34.
