data_PCOD8308172
_publ_section_title
;
Structure prediction by ZEFSAII (Michael W. Deem and Ramdas Pophale) SiO2 
 PCOD8308172
Probable space group: P -4 2 M 
;
_chemical_formula_sum "Si O2"
_cell_formula_units_Z 64
_cell_length_a 11.847371
_cell_length_b 11.847371
_cell_length_c 24.744827
_cell_angle_alpha 90.000000
_cell_angle_beta 90.000000
_cell_angle_gamma 90.000000
_cell_volume 3473.188857
_symmetry_space_group_name_H-M "P -4 2 M "
_symmetry_group_IT_number 111
_symmetry_cell_setting 'tetragonal'
loop_
_space_group_symop_operation_xyz
x,y,z
y,-x,-z
-x,-y,z
-y,x,-z
x,-y,-z
-x,y,-z
-y,-x,z
y,x,z
loop_
_atom_site_type_symbol
_atom_site_label
_atom_site_fract_x
_atom_site_fract_y
_atom_site_fract_z
Si Si1 0.895305 0.286063 0.384217
Si Si2 0.846768 0.333566 0.947128
Si Si3 0.193351 0.372793 0.509472
Si Si4 0.101812 0.719548 0.068535
Si Si5 0.128500 0.483132 0.688347
Si Si6 0.448994 0.266295 0.894333
Si Si7 0.318020 0.500960 0.225919
Si Si8 0.681859 0.859507 0.390995
O O1 0.831225 0.168776 0.389298
O O2 0.890589 0.357900 0.439958
O O3 0.847260 0.357803 0.333930
O O4 0.025232 0.258518 0.372459
O O5 0.764956 0.235045 0.927121
O O6 0.786519 0.452406 0.932211
O O7 0.968690 0.300180 0.920572
O O8 0.862913 0.334282 0.011244
O O9 0.228803 0.500000 0.500000
O O10 0.308276 0.308276 0.523742
O O11 0.135773 0.325875 0.455624
O O12 0.148790 0.851211 0.071002
O O13 0.169742 0.646301 0.112611
O O14 0.204763 0.507975 0.739795
O O15 0.156364 0.561945 0.637324
O O16 0.000000 0.500000 0.707398
O O17 0.383114 0.383114 0.914721
O O18 0.506077 0.288639 0.837047
O O19 0.382927 0.617074 0.239174
O O20 0.395039 0.395039 0.241427
O O21 0.757251 0.757251 0.370172
#
# Coordination Sequence:
#
# PCOD8308172 Si02
#       8
#     8   8   8   8   8   8   8   8
#     4  10  20  33  51  74 100 131 164 199 242 292
#     4  10  19  32  53  79 108 142 176 215 262 307
#     4  10  19  32  50  72 102 135 164 199 244 292
#     4   9  19  34  52  77 108 142 179 217 257 305
#     4  10  20  34  54  76  98 126 164 205 248 300
#     4  10  20  34  52  75 104 138 175 213 259 313
#     4  10  21  37  55  74 100 131 164 209 259 303
#     4  10  20  33  51  74 100 131 164 200 242 290
#
# _framework density 18.426870000000001
#
# number of rings (size 3 to 8) (size 9 to 14) (size 15 to 20)
#    0.000    2.125    1.250    2.250    0.000    3.875 
#    0.000    1.875    0.000    6.750    0.000    0.000 
#    0.000    6.000    0.000    0.000    0.000    0.000 
#
# Total GULP energy -793086.006033 kJ/mol
# GULP energy per Si atom -12391.968844 kJ/mol
# Density = 1.838493 g / cm^3
# Si number density = 18.426870 Si / 1000 Ang^3
#
#
#
# Elastic Constant Matrix: (Units=GPa)
#
#
# Indices 1 2 3 4 5 6 
#
# 1 90.2990 50.1189 20.2577 0.0000 0.0000 0.0000
# 2 50.1189 90.2989 20.2566 0.0000 0.0000 0.0000
# 3 20.2577 20.2566 41.6073 0.0000 0.0000 0.0000
# 4 0.0000 0.0000 0.0000 24.4016 0.0000 0.0000
# 5 0.0000 0.0000 0.0000 0.0000 24.4017 0.0000
# 6 0.0000 0.0000 0.0000 0.0000 0.0000 24.5826
#
#
#
# Elastic Compliance Matrix: (Units=1/GPa)
#
#
# Indices 1 2 3 4 5 6 
#
# 1 0.016587 -0.008301 -0.004034 0.000000 0.000000 0.000000
# 2 -0.008301 0.016587 -0.004034 0.000000 0.000000 0.000000
# 3 -0.004034 -0.004034 0.027962 0.000000 0.000000 0.000000
# 4 0.000000 0.000000 0.000000 0.040981 0.000000 0.000000
# 5 0.000000 0.000000 0.000000 0.000000 0.040981 0.000000
# 6 0.000000 0.000000 0.000000 0.000000 0.000000 0.040679
#
#
# Mechanical properties :
#
#
# Convention : Reuss Voigt Hill
#
# Bulk Modulus (GPa) = 35.21434 44.83016 40.02225
# Shear Modulus (GPa) = 22.12580 23.44865 22.78722
#
# Velocity S-wave (km/s) = 3.46892 3.57112 3.52039
# Velocity P-wave (km/s) = 5.93265 6.43314 6.18796
#
# Compressibility (1/GPa) = 0.02839752
#
# Stress axis : x y z
#
# Youngs Moduli (GPa) = 60.28872 60.28946 35.76257
#
# Poissons Ratio (x) = 0.50048 0.14428
# Poissons Ratio (y) = 0.50047 0.14425
# Poissons Ratio (z) = 0.24322 0.24318
#
# Static dielectric constant tensor:
#      x y z
#    x 3.463550 0.000000 0.000000 
#    y 0.000000 3.463560 0.000000 
#    z 0.000000 0.000000 3.161700 
# 
# 
# High freq. dielectric constant tensor:
#      x y z
#    x 1.717280 0.000000 0.000000 
#    y 0.000000 1.717280 0.000000 
#    z 0.000000 0.000000 1.690770 
# 
# From -- ./inp_files/4273.got.cif
#   From: 2010.03.12/outbox.cif.g09.slc.cpg/sg111_3_cif.got.tgz:4273.got - 2010.04.14 01:59:48.
