data_PCOD8308315
_publ_section_title
;
Structure prediction by ZEFSAII (Michael W. Deem and Ramdas Pophale) SiO2 
 PCOD8308315
Probable space group: P -4 2 C
;
_chemical_formula_sum "Si O2"
_cell_formula_units_Z 40
_cell_length_a 16.233902
_cell_length_b 16.233902
_cell_length_c 10.366719
_cell_angle_alpha 90.000000
_cell_angle_beta 90.000000
_cell_angle_gamma 90.000000
_cell_volume 2732.040711
_symmetry_space_group_name_H-M "P -4 2 C"
_symmetry_group_IT_number 112
_symmetry_cell_setting 'tetragonal'
loop_
_space_group_symop_operation_xyz
x,y,z
y,-x,-z
-x,-y,z
-y,x,-z
x,-y,1/2-z
-x,y,1/2-z
-y,-x,1/2+z
y,x,1/2+z
loop_
_atom_site_type_symbol
_atom_site_label
_atom_site_fract_x
_atom_site_fract_y
_atom_site_fract_z
Si Si1 1.000000 0.598419 0.103504
Si Si2 0.717149 0.596698 0.250000
Si Si3 0.827098 0.402675 0.007740
Si Si4 0.740608 0.402113 0.750000
Si Si5 0.827098 0.597325 0.007739
O O1 0.919061 0.632834 0.030328
O O2 0.000000 0.500000 0.105125
O O3 0.000000 0.631208 0.250000
O O4 0.080939 0.632834 0.030328
O O5 0.694782 0.500000 0.250000
O O6 0.768898 0.623225 0.374699
O O7 0.632762 0.647945 0.250000
O O8 0.768897 0.623226 0.125300
O O9 0.790197 0.368679 0.874229
O O10 0.832819 0.500000 0.000867
O O11 0.731609 0.500000 0.750000
O O12 0.790197 0.368679 0.625772
#
# Coordination Sequence:
#
# PCOD8308315 Si02
#       5
#     8   8   8   8   8
#     4   9  14  25  45  63  77  97 131 170 212 267
#     4  10  18  30  45  57  77 115 156 184 207 242
#     4   9  17  28  43  61  79 102 136 178 217 257
#     4  10  20  30  39  59  87 111 144 186 221 244
#     4   9  17  28  43  61  79 102 136 178 217 257
#
# _framework density 14.641069999999999
#
# number of rings (size 3 to 8) (size 9 to 14) (size 15 to 20)
#    0.000    2.600    2.000    1.200    0.000    1.200 
#    0.000    4.000    0.000    7.200    0.000    0.000 
#    0.000    0.000    0.000    0.000    0.000   70.000 
#
# Total GULP energy -495847.772982 kJ/mol
# GULP energy per Si atom -12396.194325 kJ/mol
# Density = 1.460775 g / cm^3
# Si number density = 14.641070 Si / 1000 Ang^3
#
#
#
# Elastic Constant Matrix: (Units=GPa)
#
#
# Indices 1 2 3 4 5 6 
#
# 1 65.7850 36.4948 42.0703 0.0000 0.0000 0.0000
# 2 36.4948 65.7850 42.0703 0.0000 0.0000 0.0000
# 3 42.0703 42.0703 140.2819 0.0000 0.0000 0.0000
# 4 0.0000 0.0000 0.0000 13.4931 0.0000 0.0000
# 5 0.0000 0.0000 0.0000 0.0000 13.4931 0.0000
# 6 0.0000 0.0000 0.0000 0.0000 0.0000 2.8890
#
#
#
# Elastic Compliance Matrix: (Units=1/GPa)
#
#
# Indices 1 2 3 4 5 6 
#
# 1 0.023560 -0.010581 -0.003892 0.000000 0.000000 0.000000
# 2 -0.010581 0.023560 -0.003892 0.000000 0.000000 0.000000
# 3 -0.003892 -0.003892 0.009463 0.000000 0.000000 0.000000
# 4 0.000000 0.000000 0.000000 0.074112 0.000000 0.000000
# 5 0.000000 0.000000 0.000000 0.000000 0.074112 0.000000
# 6 0.000000 0.000000 0.000000 0.000000 0.000000 0.346136
#
#
# Mechanical properties :
#
#
# Convention : Reuss Voigt Hill
#
# Bulk Modulus (GPa) = 50.37315 57.01363 53.69339
# Shear Modulus (GPa) = 8.41337 16.05617 12.23477
#
# Velocity S-wave (km/s) = 2.39977 3.31517 2.89389
# Velocity P-wave (km/s) = 6.49296 7.32661 6.92235
#
# Compressibility (1/GPa) = 0.01985185
#
# Stress axis : x y z
#
# Youngs Moduli (GPa) = 42.44460 42.44460 105.67277
#
# Poissons Ratio (x) = 0.44910 0.41133
# Poissons Ratio (y) = 0.44910 0.41133
# Poissons Ratio (z) = 0.16521 0.16521
#
# Static dielectric constant tensor:
#      x y z
#    x 2.659940 0.000000 0.000000 
#    y 0.000000 2.659940 0.000000 
#    z 0.000000 0.000000 3.231460 
# 
# 
# High freq. dielectric constant tensor:
#      x y z
#    x 1.524830 0.000000 0.000000 
#    y 0.000000 1.524830 0.000000 
#    z 0.000000 0.000000 1.579350 
# 
# From -- ./inp_files/1364.got.cif
#   From: 2010.03.12/outbox.cif.g09.slc.cpg/sg112_1_cif.got.tgz:1364.got - 2010.04.14 02:02:48.
