data_PCOD8308907
_publ_section_title
;
Structure prediction by ZEFSAII (Michael W. Deem and Ramdas Pophale) SiO2 
 PCOD8308907
Probable space group: P -4 21 C
;
_chemical_formula_sum "Si O2"
_cell_formula_units_Z 48
_cell_length_a 8.771017
_cell_length_b 8.771017
_cell_length_c 29.014986
_cell_angle_alpha 90.000000
_cell_angle_beta 90.000000
_cell_angle_gamma 90.000000
_cell_volume 2232.144321
_symmetry_space_group_name_H-M "P -4 21 C"
_symmetry_group_IT_number 114
_symmetry_cell_setting 'tetragonal'
loop_
_space_group_symop_operation_xyz
x,y,z
y,-x,-z
-x,-y,z
-y,x,-z
1/2+x,1/2-y,1/2-z
1/2-x,1/2+y,1/2-z
1/2-y,1/2-x,1/2+z
1/2+y,1/2+x,1/2+z
loop_
_atom_site_type_symbol
_atom_site_label
_atom_site_fract_x
_atom_site_fract_y
_atom_site_fract_z
Si Si1 0.609840 0.859536 0.340687
Si Si2 0.310414 0.824355 0.588670
Si Si3 0.186575 0.836551 0.994906
Si Si4 0.824335 0.792477 0.192055
Si Si5 0.671120 0.831354 0.097662
Si Si6 0.175961 0.987883 0.268497
O O1 0.699655 0.787056 0.383696
O O2 0.504559 0.734993 0.314780
O O3 0.735336 0.907749 0.304415
O O4 0.500000 0.000000 0.356627
O O5 0.278351 0.799822 0.534566
O O6 0.488293 0.803749 0.599350
O O7 0.269396 0.998842 0.599379
O O8 0.234311 0.755047 0.947450
O O9 0.017004 0.794934 0.011620
O O10 0.746631 0.764621 0.143114
O O11 0.800885 0.957128 0.215421
O O12 0.746535 0.679629 0.229002
O O13 0.000000 0.000000 0.282725
#
# Coordination Sequence:
#
# PCOD8308907 Si02
#       6
#     8   8   8   8   8   8
#     4  10  23  42  63  95 125 174 222 269 331 393
#     4  10  21  40  64  97 130 168 215 271 331 392
#     4   9  18  37  63  93 123 161 214 267 326 396
#     4  11  24  41  65  95 129 173 224 267 332 394
#     4  10  22  39  65  96 130 171 216 273 330 395
#     4  11  24  42  62  93 128 171 215 275 328 388
#
# _framework density 21.503986000000001
#
# number of rings (size 3 to 8) (size 9 to 14) (size 15 to 20)
#    0.000    1.833    0.000    3.000    4.667    1.333 
#   18.000    0.000    0.000    0.000    0.000    0.000 
#    0.000    0.000    0.000    0.000    0.000    0.000 
#
# Total GULP energy -595135.483064 kJ/mol
# GULP energy per Si atom -12398.655897 kJ/mol
# Density = 2.145504 g / cm^3
# Si number density = 21.503986 Si / 1000 Ang^3
#
#
#
# Elastic Constant Matrix: (Units=GPa)
#
#
# Indices 1 2 3 4 5 6 
#
# 1 103.4013 35.3484 59.2607 0.0000 0.0000 0.0000
# 2 35.3484 103.4013 59.2607 0.0000 0.0000 0.0000
# 3 59.2607 59.2607 122.0288 0.0000 0.0000 0.0000
# 4 0.0000 0.0000 0.0000 31.2033 0.0000 0.0000
# 5 0.0000 0.0000 0.0000 0.0000 31.2033 0.0000
# 6 0.0000 0.0000 0.0000 0.0000 0.0000 34.3653
#
#
#
# Elastic Compliance Matrix: (Units=1/GPa)
#
#
# Indices 1 2 3 4 5 6 
#
# 1 0.013505 -0.001189 -0.005981 0.000000 0.000000 0.000000
# 2 -0.001189 0.013505 -0.005981 0.000000 0.000000 0.000000
# 3 -0.005981 -0.005981 0.014004 0.000000 0.000000 0.000000
# 4 0.000000 0.000000 0.000000 0.032048 0.000000 0.000000
# 5 0.000000 0.000000 0.000000 0.000000 0.032048 0.000000
# 6 0.000000 0.000000 0.000000 0.000000 0.000000 0.029099
#
#
# Mechanical properties :
#
#
# Convention : Reuss Voigt Hill
#
# Bulk Modulus (GPa) = 67.97125 70.73009 69.35067
# Shear Modulus (GPa) = 30.22666 31.01847 30.62256
#
# Velocity S-wave (km/s) = 3.75324 3.80208 3.77774
# Velocity P-wave (km/s) = 7.10350 7.22755 7.16579
#
# Compressibility (1/GPa) = 0.01471210
#
# Stress axis : x y z
#
# Youngs Moduli (GPa) = 74.04418 74.04418 71.40770
#
# Poissons Ratio (x) = 0.08804 0.42711
# Poissons Ratio (y) = 0.08804 0.42711
# Poissons Ratio (z) = 0.44287 0.44287
#
# Static dielectric constant tensor:
#      x y z
#    x 3.908650 0.000000 0.000000 
#    y 0.000000 3.908650 0.000000 
#    z 0.000000 0.000000 3.809270 
# 
# 
# High freq. dielectric constant tensor:
#      x y z
#    x 1.843540 0.000000 0.000000 
#    y 0.000000 1.843540 0.000000 
#    z 0.000000 0.000000 1.849660 
# 
# From -- ./inp_files/3981.got.cif
#   From: 2010.03.12/outbox.cif.g09.slc.cpg/sg114_2_cif.got.tgz:3981.got - 2010.04.14 02:08:34.
