data_PCOD8308225
_publ_section_title
;
Structure prediction by ZEFSAII (Michael W. Deem and Ramdas Pophale) SiO2 
 PCOD8308225
Probable space group: P -4 2 M 
;
_chemical_formula_sum "Si O2"
_cell_formula_units_Z 64
_cell_length_a 12.462598
_cell_length_b 12.462598
_cell_length_c 21.840975
_cell_angle_alpha 90.000000
_cell_angle_beta 90.000000
_cell_angle_gamma 90.000000
_cell_volume 3392.260494
_symmetry_space_group_name_H-M "P -4 2 M "
_symmetry_group_IT_number 111
_symmetry_cell_setting 'tetragonal'
loop_
_space_group_symop_operation_xyz
x,y,z
y,-x,-z
-x,-y,z
-y,x,-z
x,-y,-z
-x,y,-z
-y,-x,z
y,x,z
loop_
_atom_site_type_symbol
_atom_site_label
_atom_site_fract_x
_atom_site_fract_y
_atom_site_fract_z
Si Si1 0.782793 0.386515 0.634910
Si Si2 0.124786 0.499092 0.843117
Si Si3 0.915000 0.254610 0.551064
Si Si4 0.693144 0.873771 0.245051
Si Si5 0.425331 0.747168 0.442586
Si Si6 0.326655 0.500323 0.927850
Si Si7 0.295002 0.117662 0.759173
Si Si8 0.274025 0.893101 0.375586
O O1 0.676398 0.323603 0.654305
O O2 0.826306 0.343353 0.568394
O O3 0.866859 0.371893 0.690330
O O4 0.749296 0.508176 0.621166
O O5 0.152997 0.607139 0.807038
O O6 0.208030 0.494869 0.899012
O O7 0.146598 0.395903 0.800912
O O8 0.000000 0.500000 0.865646
O O9 0.858710 0.141291 0.535067
O O10 0.000000 0.288711 0.500000
O O11 0.981821 0.249850 0.614552
O O12 0.792049 0.792049 0.241666
O O13 0.739685 0.993155 0.233782
O O14 0.500000 0.769479 0.500000
O O15 0.367320 0.632681 0.449545
O O16 0.338655 0.842546 0.433930
O O17 0.392069 0.607932 0.908306
O O18 0.396378 0.396378 0.907851
O O19 0.309338 0.500000 0.000000
O O20 0.194733 0.194733 0.776189
O O21 0.332876 0.131913 0.688545
O O22 0.156866 0.843135 0.373757
#
# Coordination Sequence:
#
# PCOD8308225 Si02
#       8
#     8   8   8   8   8   8   8   8
#     4  10  21  37  55  74  99 127 163 215 264 317
#     4  10  20  33  54  83 115 152 188 230 273 318
#     4  11  22  36  53  74  99 128 164 212 270 328
#     4  10  20  36  56  79 109 145 184 227 274 326
#     4  11  23  38  55  72  93 123 159 203 258 324
#     4   9  18  34  57  85 118 154 190 229 272 320
#     4  10  20  35  56  80 109 144 184 229 274 325
#     4  10  21  36  53  74 100 127 163 212 261 317
#
# _framework density 18.866475999999999
#
# number of rings (size 3 to 8) (size 9 to 14) (size 15 to 20)
#    0.000    1.875    1.250    3.375    0.000    4.750 
#    0.000    3.125    0.000    1.500    0.000    0.000 
#    0.000    0.000    0.000   23.250    0.000    0.125 
#
# Total GULP energy -793008.330250 kJ/mol
# GULP energy per Si atom -12390.755160 kJ/mol
# Density = 1.882353 g / cm^3
# Si number density = 18.866476 Si / 1000 Ang^3
#
#
#
# Elastic Constant Matrix: (Units=GPa)
#
#
# Indices 1 2 3 4 5 6 
#
# 1 96.5937 45.6802 35.2688 0.0000 0.0000 0.0000
# 2 45.6802 96.5949 35.2674 0.0000 0.0000 0.0000
# 3 35.2688 35.2674 60.1142 0.0000 0.0000 0.0000
# 4 0.0000 0.0000 0.0000 26.1470 0.0000 0.0000
# 5 0.0000 0.0000 0.0000 0.0000 26.1476 0.0000
# 6 0.0000 0.0000 0.0000 0.0000 0.0000 20.1080
#
#
#
# Elastic Compliance Matrix: (Units=1/GPa)
#
#
# Indices 1 2 3 4 5 6 
#
# 1 0.014777 -0.004865 -0.005815 0.000000 0.000000 0.000000
# 2 -0.004865 0.014776 -0.005815 0.000000 0.000000 0.000000
# 3 -0.005815 -0.005815 0.023458 0.000000 0.000000 0.000000
# 4 0.000000 0.000000 0.000000 0.038245 0.000000 0.000000
# 5 0.000000 0.000000 0.000000 0.000000 0.038244 0.000000
# 6 0.000000 0.000000 0.000000 0.000000 0.000000 0.049731
#
#
# Mechanical properties :
#
#
# Convention : Reuss Voigt Hill
#
# Bulk Modulus (GPa) = 49.94657 53.97062 51.95859
# Shear Modulus (GPa) = 22.84202 23.61962 23.23082
#
# Velocity S-wave (km/s) = 3.48332 3.54211 3.51284
# Velocity P-wave (km/s) = 6.53523 6.73776 6.63727
#
# Compressibility (1/GPa) = 0.02002139
#
# Stress axis : x y z
#
# Youngs Moduli (GPa) = 67.67493 67.67744 42.62914
#
# Poissons Ratio (x) = 0.32923 0.24790
# Poissons Ratio (y) = 0.32922 0.24787
# Poissons Ratio (z) = 0.39355 0.39352
#
# Static dielectric constant tensor:
#      x y z
#    x 3.474830 0.000000 0.000000 
#    y 0.000000 3.474830 0.000000 
#    z 0.000000 0.000000 3.264140 
# 
# 
# High freq. dielectric constant tensor:
#      x y z
#    x 1.735220 0.000000 0.000000 
#    y 0.000000 1.735230 0.000000 
#    z 0.000000 0.000000 1.710200 
# 
# From -- ./inp_files/4232.got.cif
#   From: 2010.03.12/outbox.cif.g09.slc.cpg/sg111_3_cif.got.tgz:4232.got - 2010.04.14 01:59:48.
