data_PCOD8308874
_publ_section_title
;
Structure prediction by ZEFSAII (Michael W. Deem and Ramdas Pophale) SiO2 
 PCOD8308874
Probable space group: P -4 21 C
;
_chemical_formula_sum "Si O2"
_cell_formula_units_Z 60
_cell_length_a 17.354494
_cell_length_b 17.354494
_cell_length_c 9.537285
_cell_angle_alpha 90.000000
_cell_angle_beta 90.000000
_cell_angle_gamma 90.000000
_cell_volume 2872.424828
_symmetry_space_group_name_H-M "P -4 21 C"
_symmetry_group_IT_number 114
_symmetry_cell_setting 'tetragonal'
loop_
_space_group_symop_operation_xyz
x,y,z
y,-x,-z
-x,-y,z
-y,x,-z
1/2+x,1/2-y,1/2-z
1/2-x,1/2+y,1/2-z
1/2-y,1/2-x,1/2+z
1/2+y,1/2+x,1/2+z
loop_
_atom_site_type_symbol
_atom_site_label
_atom_site_fract_x
_atom_site_fract_y
_atom_site_fract_z
Si Si1 0.861388 0.286638 0.266696
Si Si2 0.707334 0.627419 0.253347
Si Si3 0.110029 0.944773 0.478815
Si Si4 0.416322 0.150323 0.517530
Si Si5 0.500000 0.000000 0.953904
Si Si6 0.566673 0.233584 0.481807
Si Si7 0.851517 0.584034 0.068528
Si Si8 0.472601 0.746736 0.166917
O O1 0.796383 0.220878 0.244755
O O2 0.831110 0.346381 0.380528
O O3 0.936117 0.238486 0.314909
O O4 0.879971 0.341888 0.136489
O O5 0.635714 0.591269 0.168982
O O6 0.699757 0.598636 0.414891
O O7 0.788246 0.596091 0.189840
O O8 0.175221 0.931430 0.593732
O O9 0.035425 0.903469 0.541881
O O10 0.480540 0.215909 0.535230
O O11 0.456578 0.066770 0.543076
O O12 0.458154 0.929468 0.868002
O O13 0.625280 0.163684 0.502387
O O14 0.568855 0.251235 0.316910
O O15 0.820685 0.536858 0.934070
#
# Coordination Sequence:
#
# PCOD8308874 Si02
#       8
#     8   8   8   8   4   8   8   8
#     4  11  23  42  61  95 129 176 209 274 320 404
#     4  11  24  41  64  91 136 168 225 267 333 398
#     4  10  21  42  68  89 112 164 223 275 322 386
#     4  10  24  40  66  94 135 168 222 262 334 391
#     4  10  20  40  70  98 130 172 228 278 322 396
#     4  10  23  41  58  97 129 169 205 266 325 389
#     4  10  21  39  66  94 127 177 215 266 319 399
#     4  10  20  42  63  91 129 158 217 265 329 381
#
# _framework density 20.888275
#
# number of rings (size 3 to 8) (size 9 to 14) (size 15 to 20)
#    0.000    1.733    2.667    0.800    3.733    0.533 
#    4.800    0.000    0.000    1.600    0.000    0.000 
#    0.000    0.000    0.000    0.000    0.000    0.000 
#
# Total GULP energy -743532.931253 kJ/mol
# GULP energy per Si atom -12392.215521 kJ/mol
# Density = 2.084073 g / cm^3
# Si number density = 20.888275 Si / 1000 Ang^3
#
#
#
# Elastic Constant Matrix: (Units=GPa)
#
#
# Indices 1 2 3 4 5 6 
#
# 1 93.0369 31.0877 38.5175 0.0000 0.0000 0.0000
# 2 31.0877 93.0369 38.5175 0.0000 0.0000 0.0000
# 3 38.5175 38.5175 107.6609 0.0000 0.0000 0.0000
# 4 0.0000 0.0000 0.0000 20.3277 0.0000 0.0000
# 5 0.0000 0.0000 0.0000 0.0000 20.3277 0.0000
# 6 0.0000 0.0000 0.0000 0.0000 0.0000 33.4283
#
#
#
# Elastic Compliance Matrix: (Units=1/GPa)
#
#
# Indices 1 2 3 4 5 6 
#
# 1 0.013249 -0.002893 -0.003705 0.000000 0.000000 0.000000
# 2 -0.002893 0.013249 -0.003705 0.000000 0.000000 0.000000
# 3 -0.003705 -0.003705 0.011939 0.000000 0.000000 0.000000
# 4 0.000000 0.000000 0.000000 0.049194 0.000000 0.000000
# 5 0.000000 0.000000 0.000000 0.000000 0.049194 0.000000
# 6 0.000000 0.000000 0.000000 0.000000 0.000000 0.029915
#
#
# Mechanical properties :
#
#
# Convention : Reuss Voigt Hill
#
# Bulk Modulus (GPa) = 56.08140 56.66445 56.37293
# Shear Modulus (GPa) = 25.86781 27.19087 26.52934
#
# Velocity S-wave (km/s) = 3.52289 3.61186 3.56765
# Velocity P-wave (km/s) = 6.59198 6.67685 6.63455
#
# Compressibility (1/GPa) = 0.01783122
#
# Stress axis : x y z
#
# Youngs Moduli (GPa) = 75.47721 75.47721 83.75594
#
# Poissons Ratio (x) = 0.21837 0.31031
# Poissons Ratio (y) = 0.21837 0.31031
# Poissons Ratio (z) = 0.27964 0.27964
#
# Static dielectric constant tensor:
#      x y z
#    x 3.794110 0.000000 0.000000 
#    y 0.000000 3.794110 0.000000 
#    z 0.000000 0.000000 3.605620 
# 
# 
# High freq. dielectric constant tensor:
#      x y z
#    x 1.816610 0.000000 0.000000 
#    y 0.000000 1.816610 0.000000 
#    z 0.000000 0.000000 1.806690 
# 
# From -- ./inp_files/1032.got.cif
#   From: 2010.03.12/outbox.cif.g09.slc.cpg/sg114_1_cif.got.tgz:1032.got - 2010.04.14 02:08:34.
