data_PCOD8308539
_publ_section_title
;
Structure prediction by ZEFSAII (Michael W. Deem and Ramdas Pophale) SiO2 
 PCOD8308539
Probable space group: P -4 21 M 
;
_chemical_formula_sum "Si O2"
_cell_formula_units_Z 48
_cell_length_a 16.527658
_cell_length_b 16.527658
_cell_length_c 10.246844
_cell_angle_alpha 90.000000
_cell_angle_beta 90.000000
_cell_angle_gamma 90.000000
_cell_volume 2799.063555
_symmetry_space_group_name_H-M "P -4 21 M "
_symmetry_group_IT_number 113
_symmetry_cell_setting 'tetragonal'
loop_
_space_group_symop_operation_xyz
x,y,z
y,-x,-z
-x,-y,z
-y,x,-z
1/2+x,1/2-y,-z
1/2-x,1/2+y,-z
1/2-y,1/2-x,z
1/2+y,1/2+x,z
loop_
_atom_site_type_symbol
_atom_site_label
_atom_site_fract_x
_atom_site_fract_y
_atom_site_fract_z
Si Si1 0.081713 0.283764 0.213330
Si Si2 0.597378 0.766686 0.867930
Si Si3 0.912193 0.276805 0.620878
Si Si4 0.335251 0.300301 0.613834
Si Si5 0.286311 0.919283 0.478967
Si Si6 0.207091 0.157647 0.133485
O O1 0.137885 0.362116 0.184625
O O2 0.068467 0.272150 0.367278
O O3 0.120927 0.201808 0.153903
O O4 0.995182 0.296662 0.143618
O O5 0.653547 0.846453 0.866433
O O6 0.619162 0.705227 0.751378
O O7 0.610553 0.713146 0.997127
O O8 0.851023 0.351023 0.622721
O O9 0.897886 0.215553 0.501886
O O10 0.907261 0.224607 0.753017
O O11 0.000629 0.313153 0.597527
O O12 0.265608 0.234393 0.604504
O O13 0.295947 0.387949 0.589914
O O14 0.358187 0.858187 0.453740
O O15 0.273442 0.226559 0.143386
#
# Coordination Sequence:
#
# PCOD8308539 Si02
#       6
#     8   8   8   8   8   8
#     4  10  19  33  55  80 105 135 172 215 262 310
#     4  10  20  34  54  81 107 136 172 214 261 310
#     4  10  18  32  53  75 103 137 170 212 260 306
#     4   9  17  31  50  73 101 134 174 209 245 302
#     4  10  19  31  53  82 106 133 174 221 261 302
#     4   9  19  35  53  73 102 143 180 203 247 316
#
# _framework density 17.148591
#
# number of rings (size 3 to 8) (size 9 to 14) (size 15 to 20)
#    0.000    2.333    3.333    0.000    0.000    2.000 
#    0.000    4.167    0.000    9.000    0.000    0.000 
#    0.000    0.000    0.000    0.000    0.000    0.000 
#
# Total GULP energy -595042.628804 kJ/mol
# GULP energy per Si atom -12396.721433 kJ/mol
# Density = 1.710956 g / cm^3
# Si number density = 17.148591 Si / 1000 Ang^3
#
#
#
# Elastic Constant Matrix: (Units=GPa)
#
#
# Indices 1 2 3 4 5 6 
#
# 1 73.4316 51.7411 48.4173 0.0000 0.0000 0.0000
# 2 51.7411 73.4284 48.4182 0.0000 0.0000 0.0000
# 3 48.4173 48.4182 136.0127 0.0000 0.0000 0.0000
# 4 0.0000 0.0000 0.0000 24.1059 0.0000 0.0000
# 5 0.0000 0.0000 0.0000 0.0000 24.1060 0.0000
# 6 0.0000 0.0000 0.0000 0.0000 0.0000 12.6026
#
#
#
# Elastic Compliance Matrix: (Units=1/GPa)
#
#
# Indices 1 2 3 4 5 6 
#
# 1 0.028565 -0.017541 -0.003924 0.000000 0.000000 0.000000
# 2 -0.017541 0.028567 -0.003925 0.000000 0.000000 0.000000
# 3 -0.003924 -0.003925 0.010147 0.000000 0.000000 0.000000
# 4 0.000000 0.000000 0.000000 0.041484 0.000000 0.000000
# 5 0.000000 0.000000 0.000000 0.000000 0.041483 0.000000
# 6 0.000000 0.000000 0.000000 0.000000 0.000000 0.079349
#
#
# Mechanical properties :
#
#
# Convention : Reuss Voigt Hill
#
# Bulk Modulus (GPa) = 60.61307 64.44734 62.53020
# Shear Modulus (GPa) = 17.49024 21.11598 19.30311
#
# Velocity S-wave (km/s) = 3.19709 3.51287 3.35869
# Velocity P-wave (km/s) = 7.00364 7.35642 7.18220
#
# Compressibility (1/GPa) = 0.01649809
#
# Stress axis : x y z
#
# Youngs Moduli (GPa) = 35.00795 35.00554 98.55554
#
# Poissons Ratio (x) = 0.61402 0.38676
# Poissons Ratio (y) = 0.61406 0.38686
# Poissons Ratio (z) = 0.13738 0.13741
#
# Static dielectric constant tensor:
#      x y z
#    x 3.091260 0.000000 0.000000 
#    y 0.000000 3.091260 0.000000 
#    z 0.000000 0.000000 3.392900 
# 
# 
# High freq. dielectric constant tensor:
#      x y z
#    x 1.645560 0.000000 0.000000 
#    y 0.000000 1.645560 0.000000 
#    z 0.000000 0.000000 1.669170 
# 
# From -- ./inp_files/1195.got.cif
#   From: 2010.03.12/outbox.cif.g09.slc.cpg/sg113_cif.got.tgz:1195.got - 2010.04.14 02:06:34.
