data_PCOD8308986
_publ_section_title
;
Structure prediction by ZEFSAII (Michael W. Deem and Ramdas Pophale) SiO2 
 PCOD8308986
Probable space group: P -4 21 C
;
_chemical_formula_sum "Si O2"
_cell_formula_units_Z 32
_cell_length_a 8.999862
_cell_length_b 8.999862
_cell_length_c 18.623564
_cell_angle_alpha 90.000000
_cell_angle_beta 90.000000
_cell_angle_gamma 90.000000
_cell_volume 1508.462423
_symmetry_space_group_name_H-M "P -4 21 C"
_symmetry_group_IT_number 114
_symmetry_cell_setting 'tetragonal'
loop_
_space_group_symop_operation_xyz
x,y,z
y,-x,-z
-x,-y,z
-y,x,-z
1/2+x,1/2-y,1/2-z
1/2-x,1/2+y,1/2-z
1/2-y,1/2-x,1/2+z
1/2+y,1/2+x,1/2+z
loop_
_atom_site_type_symbol
_atom_site_label
_atom_site_fract_x
_atom_site_fract_y
_atom_site_fract_z
Si Si1 0.170057 0.508575 0.449285
Si Si2 0.005469 0.672221 0.712168
Si Si3 0.751980 0.377637 0.601095
Si Si4 0.174657 0.180102 0.165328
O O1 0.250070 0.358499 0.423756
O O2 0.184534 0.529716 0.534179
O O3 0.243945 0.648743 0.409950
O O4 0.000000 0.500000 0.426199
O O5 0.111148 0.696274 0.643285
O O6 0.057109 0.775576 0.777259
O O7 0.000000 0.500000 0.736372
O O8 0.841587 0.726921 0.691636
O O9 0.670601 0.496714 0.653178
#
# Coordination Sequence:
#
# PCOD8308986 Si02
#       4
#     8   8   8   8
#     4  12  24  42  68 100 135 176 222 283 336 407
#     4  10  23  43  67 101 140 180 225 288 335 405
#     4  11  24  44  71  99 135 180 230 276 344 408
#     4  11  22  41  68 100 133 180 227 275 339 404
#
# _framework density 21.213654999999999
#
# number of rings (size 3 to 8) (size 9 to 14) (size 15 to 20)
#    0.000    1.000    2.500    5.250    0.000    4.000 
#    0.000    6.250    0.000    0.000    0.000    0.000 
#    0.000    0.000    0.000    0.000    0.000    0.000 
#
# Total GULP energy -396955.361946 kJ/mol
# GULP energy per Si atom -12404.855061 kJ/mol
# Density = 2.116537 g / cm^3
# Si number density = 21.213655 Si / 1000 Ang^3
#
#
#
# Elastic Constant Matrix: (Units=GPa)
#
#
# Indices 1 2 3 4 5 6 
#
# 1 79.6858 21.8477 6.3344 0.0000 0.0000 0.0000
# 2 21.8477 79.6858 6.3344 0.0000 0.0000 0.0000
# 3 6.3344 6.3344 80.5883 0.0000 0.0000 0.0000
# 4 0.0000 0.0000 0.0000 37.5746 0.0000 0.0000
# 5 0.0000 0.0000 0.0000 0.0000 37.5746 0.0000
# 6 0.0000 0.0000 0.0000 0.0000 0.0000 31.8481
#
#
#
# Elastic Compliance Matrix: (Units=1/GPa)
#
#
# Indices 1 2 3 4 5 6 
#
# 1 0.013618 -0.003672 -0.000782 0.000000 0.000000 0.000000
# 2 -0.003672 0.013618 -0.000782 0.000000 0.000000 0.000000
# 3 -0.000782 -0.000782 0.012532 0.000000 0.000000 0.000000
# 4 0.000000 0.000000 0.000000 0.026614 0.000000 0.000000
# 5 0.000000 0.000000 0.000000 0.000000 0.026614 0.000000
# 6 0.000000 0.000000 0.000000 0.000000 0.000000 0.031399
#
#
# Mechanical properties :
#
#
# Convention : Reuss Voigt Hill
#
# Bulk Modulus (GPa) = 34.13268 34.33253 34.23261
# Shear Modulus (GPa) = 34.57085 35.09568 34.83327
#
# Velocity S-wave (km/s) = 4.04127 4.07183 4.05658
# Velocity P-wave (km/s) = 6.15636 6.19078 6.17359
#
# Compressibility (1/GPa) = 0.02929744
#
# Stress axis : x y z
#
# Youngs Moduli (GPa) = 73.43175 73.43175 79.79792
#
# Poissons Ratio (x) = 0.26961 0.06239
# Poissons Ratio (y) = 0.26961 0.06239
# Poissons Ratio (z) = 0.05741 0.05741
#
# Static dielectric constant tensor:
#      x y z
#    x 3.776750 0.000000 0.000000 
#    y 0.000000 3.776750 0.000000 
#    z 0.000000 0.000000 4.036230 
# 
# 
# High freq. dielectric constant tensor:
#      x y z
#    x 1.830470 0.000000 0.000000 
#    y 0.000000 1.830470 0.000000 
#    z 0.000000 0.000000 1.846720 
# 
# From -- ./inp_files/2818.got.cif
#   From: 2010.03.12/outbox.cif.g09.slc.cpg/sg114_2_cif.got.tgz:2818.got - 2010.04.14 02:08:34.
