data_PCOD8308150
_publ_section_title
;
Structure prediction by ZEFSAII (Michael W. Deem and Ramdas Pophale) SiO2 
 PCOD8308150
Probable space group: P -4 2 M 
;
_chemical_formula_sum "Si O2"
_cell_formula_units_Z 44
_cell_length_a 14.326206
_cell_length_b 14.326206
_cell_length_c 12.490898
_cell_angle_alpha 90.000000
_cell_angle_beta 90.000000
_cell_angle_gamma 90.000000
_cell_volume 2563.634133
_symmetry_space_group_name_H-M "P -4 2 M "
_symmetry_group_IT_number 111
_symmetry_cell_setting 'tetragonal'
loop_
_space_group_symop_operation_xyz
x,y,z
y,-x,-z
-x,-y,z
-y,x,-z
x,-y,-z
-x,y,-z
-y,-x,z
y,x,z
loop_
_atom_site_type_symbol
_atom_site_label
_atom_site_fract_x
_atom_site_fract_y
_atom_site_fract_z
Si Si1 0.403416 0.116562 0.686204
Si Si2 0.410036 0.739380 0.136332
Si Si3 0.228983 0.619418 0.898115
Si Si4 0.355135 0.500000 0.500000
Si Si5 0.913786 0.619196 0.275897
Si Si6 0.356651 0.790213 0.534628
O O1 0.371102 0.197339 0.767287
O O2 0.510949 0.094132 0.698604
O O3 0.387447 0.145961 0.564224
O O4 0.347489 0.021374 0.716503
O O5 0.362559 0.637442 0.143875
O O6 0.521366 0.727061 0.141767
O O7 0.381472 0.789351 0.025042
O O8 0.301575 0.698426 0.863276
O O9 0.129587 0.639764 0.841192
O O10 0.424458 0.575543 0.439300
O O11 0.284060 0.438484 0.427302
O O12 0.853882 0.672482 0.365789
O O13 0.265538 0.734463 0.497543
#
# Coordination Sequence:
#
# PCOD8308150 Si02
#       6
#     8   8   8   4   8   8
#     4  10  19  31  46  65  91 124 161 196 232 272
#     4   9  18  32  48  68  95 126 159 192 227 270
#     4   9  18  32  48  68  95 126 159 192 227 270
#     4   9  18  30  43  62  92 130 165 194 225 264
#     4  10  19  31  46  65  91 124 161 196 232 272
#     4  11  19  30  46  66  95 123 156 197 232 272
#
# _framework density 17.163136000000002
#
# number of rings (size 3 to 8) (size 9 to 14) (size 15 to 20)
#    0.000    2.273    1.818    1.636    0.000    2.545 
#    0.000    5.455    0.000    0.000    0.000    0.000 
#    0.000   29.818    0.000   16.000    0.000    0.727 
#
# Total GULP energy -545167.906808 kJ/mol
# GULP energy per Si atom -12390.179700 kJ/mol
# Density = 1.712407 g / cm^3
# Si number density = 17.163136 Si / 1000 Ang^3
#
#
#
# Elastic Constant Matrix: (Units=GPa)
#
#
# Indices 1 2 3 4 5 6 
#
# 1 59.7180 18.9093 11.8525 0.0000 0.0000 0.0000
# 2 18.9093 59.7162 11.8505 0.0000 0.0000 0.0000
# 3 11.8525 11.8505 66.2801 0.0000 0.0000 0.0000
# 4 0.0000 0.0000 0.0000 16.3365 0.0000 0.0000
# 5 0.0000 0.0000 0.0000 0.0000 16.3368 0.0000
# 6 0.0000 0.0000 0.0000 0.0000 0.0000 7.8275
#
#
#
# Elastic Compliance Matrix: (Units=1/GPa)
#
#
# Indices 1 2 3 4 5 6 
#
# 1 0.018974 -0.005531 -0.002404 0.000000 0.000000 0.000000
# 2 -0.005531 0.018974 -0.002403 0.000000 0.000000 0.000000
# 3 -0.002404 -0.002403 0.015947 0.000000 0.000000 0.000000
# 4 0.000000 0.000000 0.000000 0.061212 0.000000 0.000000
# 5 0.000000 0.000000 0.000000 0.000000 0.061211 0.000000
# 6 0.000000 0.000000 0.000000 0.000000 0.000000 0.127755
#
#
# Mechanical properties :
#
#
# Convention : Reuss Voigt Hill
#
# Bulk Modulus (GPa) = 30.10397 30.10431 30.10414
# Shear Modulus (GPa) = 14.88877 17.64030 16.26454
#
# Velocity S-wave (km/s) = 2.94851 3.20941 3.08172
# Velocity P-wave (km/s) = 5.40089 5.59571 5.49916
#
# Compressibility (1/GPa) = 0.03321821
#
# Stress axis : x y z
#
# Youngs Moduli (GPa) = 52.70400 52.70302 62.70728
#
# Poissons Ratio (x) = 0.29150 0.15075
# Poissons Ratio (y) = 0.29151 0.15071
# Poissons Ratio (z) = 0.12670 0.12667
#
# Static dielectric constant tensor:
#      x y z
#    x 3.306730 0.000000 0.000000 
#    y 0.000000 3.306740 0.000000 
#    z 0.000000 0.000000 3.194640 
# 
# 
# High freq. dielectric constant tensor:
#      x y z
#    x 1.639930 0.000000 0.000000 
#    y 0.000000 1.639930 0.000000 
#    z 0.000000 0.000000 1.660460 
# 
# From -- ./inp_files/2624.got.cif
#   From: 2010.03.12/outbox.cif.g09.slc.cpg/sg111_2_cif.got.tgz:2624.got - 2010.04.14 01:59:48.
