data_PCOD8308405
_publ_section_title
;
Structure prediction by ZEFSAII (Michael W. Deem and Ramdas Pophale) SiO2 
 PCOD8308405
Probable space group: P -4 2 C
;
_chemical_formula_sum "Si O2"
_cell_formula_units_Z 48
_cell_length_a 9.022781
_cell_length_b 9.022781
_cell_length_c 28.784395
_cell_angle_alpha 90.000000
_cell_angle_beta 90.000000
_cell_angle_gamma 90.000000
_cell_volume 2343.354205
_symmetry_space_group_name_H-M "P -4 2 C"
_symmetry_group_IT_number 112
_symmetry_cell_setting 'tetragonal'
loop_
_space_group_symop_operation_xyz
x,y,z
y,-x,-z
-x,-y,z
-y,x,-z
x,-y,1/2-z
-x,y,1/2-z
-y,-x,1/2+z
y,x,1/2+z
loop_
_atom_site_type_symbol
_atom_site_label
_atom_site_fract_x
_atom_site_fract_y
_atom_site_fract_z
Si Si1 0.942916 0.213471 0.981399
Si Si2 0.343173 0.574099 0.203379
Si Si3 0.076143 0.656574 0.704838
Si Si4 0.282369 0.563613 0.016864
Si Si5 0.155213 0.073713 0.385024
Si Si6 0.843676 0.420883 0.112918
O O1 0.002283 0.235022 0.929488
O O2 0.869085 0.366975 0.997028
O O3 0.077508 0.174955 0.016712
O O4 0.500000 0.500000 0.191479
O O5 0.276268 0.500000 0.250000
O O6 0.362573 0.748607 0.211980
O O7 0.232703 0.539126 0.161451
O O8 0.037743 0.749680 0.659833
O O9 0.000000 0.500000 0.697399
O O10 0.000000 0.733423 0.750000
O O11 0.260672 0.521761 0.070926
O O12 0.416456 0.681214 0.012327
O O13 0.134007 0.246749 0.393929
O O14 0.000000 0.000000 0.375597
O O15 0.000000 0.500000 0.111199
#
# Coordination Sequence:
#
# PCOD8308405 Si02
#       6
#     8   8   8   8   8   8
#     4  11  21  41  66  90 128 169 212 263 312 392
#     4  10  22  42  67  95 127 169 211 260 326 391
#     4  10  22  41  63  95 126 159 211 262 321 381
#     4  11  27  43  60  95 129 169 214 270 318 382
#     4  11  23  40  63  97 123 166 215 257 320 379
#     4  11  26  42  65  93 129 171 216 264 320 390
#
# _framework density 20.483460000000001
#
# number of rings (size 3 to 8) (size 9 to 14) (size 15 to 20)
#    0.000    1.333    3.333    2.000    7.000    6.000 
#    0.000    3.333    0.000    0.000    0.000    0.000 
#    0.000    0.000    0.000    0.000    0.000    0.000 
#
# Total GULP energy -595335.753457 kJ/mol
# GULP energy per Si atom -12402.828197 kJ/mol
# Density = 2.043684 g / cm^3
# Si number density = 20.483460 Si / 1000 Ang^3
#
#
#
# Elastic Constant Matrix: (Units=GPa)
#
#
# Indices 1 2 3 4 5 6 
#
# 1 82.4643 38.5102 73.1933 0.0000 0.0000 0.0000
# 2 38.5102 82.4643 73.1933 0.0000 0.0000 0.0000
# 3 73.1933 73.1933 189.5784 0.0000 0.0000 0.0000
# 4 0.0000 0.0000 0.0000 24.1933 0.0000 0.0000
# 5 0.0000 0.0000 0.0000 0.0000 24.1933 0.0000
# 6 0.0000 0.0000 0.0000 0.0000 0.0000 40.7392
#
#
#
# Elastic Compliance Matrix: (Units=1/GPa)
#
#
# Indices 1 2 3 4 5 6 
#
# 1 0.019133 -0.003618 -0.005990 0.000000 0.000000 0.000000
# 2 -0.003618 0.019133 -0.005990 0.000000 0.000000 0.000000
# 3 -0.005990 -0.005990 0.009900 0.000000 0.000000 0.000000
# 4 0.000000 0.000000 0.000000 0.041334 0.000000 0.000000
# 5 0.000000 0.000000 0.000000 0.000000 0.041334 0.000000
# 6 0.000000 0.000000 0.000000 0.000000 0.000000 0.024546
#
#
# Mechanical properties :
#
#
# Convention : Reuss Voigt Hill
#
# Bulk Modulus (GPa) = 58.93009 80.47782 69.70396
# Shear Modulus (GPa) = 26.01029 29.13251 27.57140
#
# Velocity S-wave (km/s) = 3.56732 3.77536 3.67281
# Velocity P-wave (km/s) = 6.76755 7.64061 7.21729
#
# Compressibility (1/GPa) = 0.01696926
#
# Stress axis : x y z
#
# Youngs Moduli (GPa) = 52.26671 52.26671 101.01005
#
# Poissons Ratio (x) = 0.18912 0.60503
# Poissons Ratio (y) = 0.18912 0.60503
# Poissons Ratio (z) = 0.31307 0.31307
#
# Static dielectric constant tensor:
#      x y z
#    x 3.749300 0.000000 0.000000 
#    y 0.000000 3.749300 0.000000 
#    z 0.000000 0.000000 4.114620 
# 
# 
# High freq. dielectric constant tensor:
#      x y z
#    x 1.803390 0.000000 0.000000 
#    y 0.000000 1.803390 0.000000 
#    z 0.000000 0.000000 1.815310 
# 
# From -- ./inp_files/6271.got.cif
#   From: 2010.03.12/outbox.cif.g09.slc.cpg/sg112_4_cif.got.tgz:6271.got - 2010.04.14 02:02:48.
