data_PCOD8308350
_publ_section_title
;
Structure prediction by ZEFSAII (Michael W. Deem and Ramdas Pophale) SiO2 
 PCOD8308350
Probable space group: P -4 2 C
;
_chemical_formula_sum "Si O2"
_cell_formula_units_Z 32
_cell_length_a 7.977722
_cell_length_b 7.977722
_cell_length_c 23.656499
_cell_angle_alpha 90.000000
_cell_angle_beta 90.000000
_cell_angle_gamma 90.000000
_cell_volume 1505.595365
_symmetry_space_group_name_H-M "P -4 2 C"
_symmetry_group_IT_number 112
_symmetry_cell_setting 'tetragonal'
loop_
_space_group_symop_operation_xyz
x,y,z
y,-x,-z
-x,-y,z
-y,x,-z
x,-y,1/2-z
-x,y,1/2-z
-y,-x,1/2+z
y,x,1/2+z
loop_
_atom_site_type_symbol
_atom_site_label
_atom_site_fract_x
_atom_site_fract_y
_atom_site_fract_z
Si Si1 0.310678 0.689322 0.500000
Si Si2 0.185760 0.196304 0.884621
Si Si3 0.196303 0.185760 0.115379
Si Si4 0.500000 0.799961 0.813636
O O1 0.500000 0.720269 0.520546
O O2 0.192597 0.726438 0.552978
O O3 0.273562 0.807403 0.447022
O O4 0.331872 0.269965 0.844284
O O5 1.000000 0.237051 0.859625
O O6 0.213476 0.000000 0.890739
O O7 0.269965 0.331872 0.155716
O O8 0.500000 0.729418 0.750000
O O9 0.500000 0.000000 0.813184
#
# Coordination Sequence:
#
# PCOD8308350 Si02
#       4
#     8   8   8   8
#     4  11  22  35  54  80 112 149 190 239 302 366
#     4  10  20  34  55  83 113 149 194 242 299 363
#     4  10  20  34  55  83 113 149 194 242 299 363
#     4   9  18  34  55  81 117 155 193 244 297 349
#
# _framework density 21.254048000000001
#
# number of rings (size 3 to 8) (size 9 to 14) (size 15 to 20)
#    0.000    2.000    2.500    1.500    0.000    6.000 
#    0.000    5.000    0.000    3.000    0.000    3.500 
#    0.000    0.000    0.000    0.000    0.000    0.000 
#
# Total GULP energy -396754.009907 kJ/mol
# GULP energy per Si atom -12398.562810 kJ/mol
# Density = 2.120567 g / cm^3
# Si number density = 21.254048 Si / 1000 Ang^3
#
#
#
# Elastic Constant Matrix: (Units=GPa)
#
#
# Indices 1 2 3 4 5 6 
#
# 1 93.6451 42.3728 43.6050 0.0000 0.0000 0.0000
# 2 42.3728 93.6451 43.6050 0.0000 0.0000 0.0000
# 3 43.6050 43.6050 147.6866 0.0000 0.0000 0.0000
# 4 0.0000 0.0000 0.0000 24.1771 0.0000 0.0000
# 5 0.0000 0.0000 0.0000 0.0000 24.1771 0.0000
# 6 0.0000 0.0000 0.0000 0.0000 0.0000 16.7294
#
#
#
# Elastic Compliance Matrix: (Units=1/GPa)
#
#
# Indices 1 2 3 4 5 6 
#
# 1 0.014286 -0.005217 -0.002678 0.000000 0.000000 0.000000
# 2 -0.005217 0.014286 -0.002678 0.000000 0.000000 0.000000
# 3 -0.002678 -0.002678 0.008352 0.000000 0.000000 0.000000
# 4 0.000000 0.000000 0.000000 0.041362 0.000000 0.000000
# 5 0.000000 0.000000 0.000000 0.000000 0.041362 0.000000
# 6 0.000000 0.000000 0.000000 0.000000 0.000000 0.059775
#
#
# Mechanical properties :
#
#
# Convention : Reuss Voigt Hill
#
# Bulk Modulus (GPa) = 63.37379 66.01585 64.69482
# Shear Modulus (GPa) = 24.29214 26.70963 25.50089
#
# Velocity S-wave (km/s) = 3.38441 3.54882 3.46759
# Velocity P-wave (km/s) = 6.71970 6.92242 6.82181
#
# Compressibility (1/GPa) = 0.01577939
#
# Stress axis : x y z
#
# Youngs Moduli (GPa) = 69.99753 69.99753 119.72856
#
# Poissons Ratio (x) = 0.36521 0.32058
# Poissons Ratio (y) = 0.36521 0.32058
# Poissons Ratio (z) = 0.18742 0.18742
#
# Static dielectric constant tensor:
#      x y z
#    x 3.799210 0.000000 0.000000 
#    y 0.000000 3.799210 0.000000 
#    z 0.000000 0.000000 3.731680 
# 
# 
# High freq. dielectric constant tensor:
#      x y z
#    x 1.825690 0.000000 0.000000 
#    y 0.000000 1.825690 0.000000 
#    z 0.000000 0.000000 1.817530 
# 
# From -- ./inp_files/4529.got.cif
#   From: 2010.03.12/outbox.cif.g09.slc.cpg/sg112_3_cif.got.tgz:4529.got - 2010.04.14 02:02:48.
