data_PCOD8308193
_publ_section_title
;
Structure prediction by ZEFSAII (Michael W. Deem and Ramdas Pophale) SiO2 
 PCOD8308193
Probable space group: P -4 2 M 
;
_chemical_formula_sum "Si O2"
_cell_formula_units_Z 64
_cell_length_a 14.862415
_cell_length_b 14.862415
_cell_length_c 17.295786
_cell_angle_alpha 90.000000
_cell_angle_beta 90.000000
_cell_angle_gamma 90.000000
_cell_volume 3820.490031
_symmetry_space_group_name_H-M "P -4 2 M "
_symmetry_group_IT_number 111
_symmetry_cell_setting 'tetragonal'
loop_
_space_group_symop_operation_xyz
x,y,z
y,-x,-z
-x,-y,z
-y,x,-z
x,-y,-z
-x,y,-z
-y,-x,z
y,x,z
loop_
_atom_site_type_symbol
_atom_site_label
_atom_site_fract_x
_atom_site_fract_y
_atom_site_fract_z
Si Si1 0.101184 0.394410 0.488913
Si Si2 0.758100 0.387781 0.919810
Si Si3 0.725590 0.134141 0.653762
Si Si4 0.614433 0.909991 0.198977
Si Si5 0.407795 0.262485 0.904451
Si Si6 0.887669 0.590156 0.783885
Si Si7 0.838910 0.021267 0.409983
Si Si8 0.833745 0.694424 0.632835
O O1 0.101232 0.500000 0.500000
O O2 0.130646 0.358366 0.405247
O O3 0.171094 0.360722 0.553339
O O4 0.000000 0.356453 0.500000
O O5 0.684555 0.315446 0.892255
O O6 0.853451 0.367264 0.879039
O O7 0.719153 0.485810 0.897017
O O8 0.775526 0.382579 0.011231
O O9 0.765053 0.234948 0.651995
O O10 0.689314 0.114158 0.738650
O O11 0.809791 0.068088 0.635617
O O12 0.516264 0.884304 0.230943
O O13 0.619836 0.016216 0.180893
O O14 0.355676 0.355676 0.887708
O O15 0.376172 0.187436 0.843681
O O16 0.870601 0.633223 0.701079
O O17 0.940812 0.059189 0.393323
O O18 0.773786 0.098221 0.381896
O O19 0.829513 0.000000 0.500000
O O20 0.735093 0.735093 0.652063
#
# Coordination Sequence:
#
# PCOD8308193 Si02
#       8
#     8   8   8   8   8   8   8   8
#     4  11  20  32  48  67  93 123 157 196 242 290
#     4   9  18  33  51  74 104 132 161 200 248 299
#     4  12  21  33  49  69  95 127 168 200 239 293
#     4  10  20  33  49  72  99 130 161 201 247 289
#     4   9  18  32  52  77 101 129 164 201 246 302
#     4  10  19  33  51  71  99 128 163 200 246 295
#     4  11  21  33  47  66  95 126 161 202 243 287
#     4  11  19  31  48  68  95 124 159 200 240 283
#
# _framework density 16.751778000000002
#
# number of rings (size 3 to 8) (size 9 to 14) (size 15 to 20)
#    0.000    1.625    3.750    2.250    0.000    3.625 
#    0.000    3.750    0.000    0.000    0.000    0.000 
#    0.000   19.000    0.000    5.750    0.000    0.250 
#
# Total GULP energy -793280.009114 kJ/mol
# GULP energy per Si atom -12395.000142 kJ/mol
# Density = 1.671365 g / cm^3
# Si number density = 16.751778 Si / 1000 Ang^3
#
#
#
# Elastic Constant Matrix: (Units=GPa)
#
#
# Indices 1 2 3 4 5 6 
#
# 1 50.0777 29.9439 18.5985 0.0000 0.0000 0.0000
# 2 29.9439 50.0784 18.6000 0.0000 0.0000 0.0000
# 3 18.5985 18.6000 61.2596 0.0000 0.0000 0.0000
# 4 0.0000 0.0000 0.0000 32.6780 0.0000 0.0000
# 5 0.0000 0.0000 0.0000 0.0000 32.6774 0.0000
# 6 0.0000 0.0000 0.0000 0.0000 0.0000 32.0845
#
#
#
# Elastic Compliance Matrix: (Units=1/GPa)
#
#
# Indices 1 2 3 4 5 6 
#
# 1 0.032108 -0.017558 -0.004417 0.000000 0.000000 0.000000
# 2 -0.017558 0.032109 -0.004418 0.000000 0.000000 0.000000
# 3 -0.004417 -0.004418 0.019006 0.000000 0.000000 0.000000
# 4 0.000000 0.000000 0.000000 0.030602 0.000000 0.000000
# 5 0.000000 0.000000 0.000000 0.000000 0.030602 0.000000
# 6 0.000000 0.000000 0.000000 0.000000 0.000000 0.031168
#
#
# Mechanical properties :
#
#
# Convention : Reuss Voigt Hill
#
# Bulk Modulus (GPa) = 32.85557 32.85561 32.85559
# Shear Modulus (GPa) = 20.96194 25.77287 23.36740
#
# Velocity S-wave (km/s) = 3.54125 3.92665 3.73892
# Velocity P-wave (km/s) = 6.03128 6.34144 6.18830
#
# Compressibility (1/GPa) = 0.03043624
#
# Stress axis : x y z
#
# Youngs Moduli (GPa) = 31.14451 31.14433 52.61370
#
# Poissons Ratio (x) = 0.54684 0.23239
# Poissons Ratio (y) = 0.54685 0.23246
# Poissons Ratio (z) = 0.13757 0.13760
#
# Static dielectric constant tensor:
#      x y z
#    x 3.197880 0.000000 0.000000 
#    y 0.000000 3.197880 0.000000 
#    z 0.000000 0.000000 3.072710 
# 
# 
# High freq. dielectric constant tensor:
#      x y z
#    x 1.644220 0.000000 0.000000 
#    y 0.000000 1.644220 0.000000 
#    z 0.000000 0.000000 1.639330 
# 
# From -- ./inp_files/3764.got.cif
#   From: 2010.03.12/outbox.cif.g09.slc.cpg/sg111_2_cif.got.tgz:3764.got - 2010.04.14 01:59:48.
