data_PCOD8308697
_publ_section_title
;
Structure prediction by ZEFSAII (Michael W. Deem and Ramdas Pophale) SiO2 
 PCOD8308697
Probable space group: P -4 21 M 
;
_chemical_formula_sum "Si O2"
_cell_formula_units_Z 56
_cell_length_a 14.507317
_cell_length_b 14.507317
_cell_length_c 14.492589
_cell_angle_alpha 90.000000
_cell_angle_beta 90.000000
_cell_angle_gamma 90.000000
_cell_volume 3050.142839
_symmetry_space_group_name_H-M "P -4 21 M "
_symmetry_group_IT_number 113
_symmetry_cell_setting 'tetragonal'
loop_
_space_group_symop_operation_xyz
x,y,z
y,-x,-z
-x,-y,z
-y,x,-z
1/2+x,1/2-y,-z
1/2-x,1/2+y,-z
1/2-y,1/2-x,z
1/2+y,1/2+x,z
loop_
_atom_site_type_symbol
_atom_site_label
_atom_site_fract_x
_atom_site_fract_y
_atom_site_fract_z
Si Si1 0.078530 0.733368 0.731719
Si Si2 0.146767 0.210164 0.158126
Si Si3 0.561104 0.363558 0.012738
Si Si4 0.710468 0.064408 0.662015
Si Si5 0.617243 0.271763 0.203856
Si Si6 0.780528 0.869682 0.642287
Si Si7 0.187446 0.158302 0.442581
O O1 0.139349 0.639349 0.740279
O O2 0.115235 0.813981 0.799345
O O3 0.080829 0.773809 0.627596
O O4 0.972230 0.716112 0.758782
O O5 0.234532 0.265468 0.121268
O O6 0.077531 0.203437 0.073036
O O7 0.093739 0.267838 0.234716
O O8 0.453396 0.381609 0.015727
O O9 0.596834 0.320968 0.107463
O O10 0.612141 0.112141 0.633266
O O11 0.793815 0.094846 0.594782
O O12 0.709680 0.953818 0.659892
O O13 0.698751 0.198751 0.189642
O O14 0.645299 0.353564 0.275776
O O15 0.722942 0.777059 0.636224
O O16 0.831446 0.884629 0.543633
O O17 0.263612 0.236389 0.446298
#
# Coordination Sequence:
#
# PCOD8308697 Si02
#       7
#     8   8   8   8   8   8   8
#     4   9  18  36  59  79 103 143 190 228 264 324
#     4   9  17  34  56  74  98 135 178 222 265 318
#     4  11  21  34  54  80 109 140 180 227 270 328
#     4   9  18  34  57  77  99 141 189 223 263 330
#     4  11  23  37  55  82 118 149 178 227 292 338
#     4  10  21  35  52  80 117 146 176 228 283 333
#     4   8  17  34  55  77 106 145 183 220 271 328
#
# _framework density 18.359797
#
# number of rings (size 3 to 8) (size 9 to 14) (size 15 to 20)
#    0.000    2.429    1.429    3.000    2.000    0.571 
#    0.000    0.000    0.000    2.571    0.000    2.000 
#    0.000    0.000    0.000    0.000    0.000    0.000 
#
# Total GULP energy -693974.219117 kJ/mol
# GULP energy per Si atom -12392.396770 kJ/mol
# Density = 1.831801 g / cm^3
# Si number density = 18.359797 Si / 1000 Ang^3
#
#
#
# Elastic Constant Matrix: (Units=GPa)
#
#
# Indices 1 2 3 4 5 6 
#
# 1 100.7058 -28.3655 35.1872 0.0000 0.0000 0.0000
# 2 -28.3655 100.7167 35.1892 0.0000 0.0000 0.0000
# 3 35.1872 35.1892 125.8811 0.0000 0.0000 0.0000
# 4 0.0000 0.0000 0.0000 22.8824 0.0000 0.0000
# 5 0.0000 0.0000 0.0000 0.0000 22.8823 0.0000
# 6 0.0000 0.0000 0.0000 0.0000 0.0000 19.3200
#
#
#
# Elastic Compliance Matrix: (Units=1/GPa)
#
#
# Indices 1 2 3 4 5 6 
#
# 1 0.013367 0.005619 -0.005307 0.000000 0.000000 0.000000
# 2 0.005619 0.013365 -0.005307 0.000000 0.000000 0.000000
# 3 -0.005307 -0.005307 0.010911 0.000000 0.000000 0.000000
# 4 0.000000 0.000000 0.000000 0.043702 0.000000 0.000000
# 5 0.000000 0.000000 0.000000 0.000000 0.043702 0.000000
# 6 0.000000 0.000000 0.000000 0.000000 0.000000 0.051760
#
#
# Mechanical properties :
#
#
# Convention : Reuss Voigt Hill
#
# Bulk Modulus (GPa) = 36.16232 45.70282 40.93257
# Shear Modulus (GPa) = 25.50828 32.03645 28.77236
#
# Velocity S-wave (km/s) = 3.73145 4.18176 3.96301
# Velocity P-wave (km/s) = 6.18904 6.94716 6.57903
#
# Compressibility (1/GPa) = 0.02765310
#
# Stress axis : x y z
#
# Youngs Moduli (GPa) = 74.81170 74.81977 91.65080
#
# Poissons Ratio (x) = -0.42040 0.48640
# Poissons Ratio (y) = -0.42036 0.48638
# Poissons Ratio (z) = 0.39703 0.39706
#
# Static dielectric constant tensor:
#      x y z
#    x 3.227250 0.000000 0.000000 
#    y 0.000000 3.227250 0.000000 
#    z 0.000000 0.000000 3.672000 
# 
# 
# High freq. dielectric constant tensor:
#      x y z
#    x 1.694760 0.000000 0.000000 
#    y 0.000000 1.694760 0.000000 
#    z 0.000000 0.000000 1.725380 
# 
# From -- ./inp_files/2318.got.cif
#   From: 2010.03.12/outbox.cif.g09.slc.cpg/sg113_cif.got.tgz:2318.got - 2010.04.14 02:06:34.
