data_PCOD8308021
_publ_section_title
;
Structure prediction by ZEFSAII (Michael W. Deem and Ramdas Pophale) SiO2 
 PCOD8308021
Probable space group: I 41 C D
;
_chemical_formula_sum "Si O2"
_cell_formula_units_Z 112
_cell_length_a 13.654029
_cell_length_b 13.654029
_cell_length_c 29.457641
_cell_angle_alpha 90.000000
_cell_angle_beta 90.000000
_cell_angle_gamma 90.000000
_cell_volume 5491.861889
_symmetry_space_group_name_H-M "I 41 C D"
_symmetry_group_IT_number 110
_symmetry_cell_setting 'tetragonal'
loop_
_space_group_symop_operation_xyz
x,y,z
-y,1/2+x,1/4+z
-x,-y,z
y,1/2-x,1/4+z
-x,y,1/2+z
x,-y,1/2+z
1/2-y,-x,1/4+z
1/2+y,x,1/4+z
1/2+x,1/2+y,1/2+z
1/2-y,x,3/4+z
1/2-x,1/2-y,1/2+z
1/2+y,-x,3/4+z
1/2-x,1/2+y,z
1/2+x,1/2-y,z
-y,1/2-x,3/4+z
y,1/2+x,3/4+z
loop_
_atom_site_type_symbol
_atom_site_label
_atom_site_fract_x
_atom_site_fract_y
_atom_site_fract_z
Si Si1 0.266458 0.064990 0.630770
Si Si2 0.216759 0.469904 0.985628
Si Si3 0.699594 0.320369 0.798873
Si Si4 0.950583 0.100505 0.147863
Si Si5 0.209849 0.611530 0.065772
Si Si6 0.288576 0.519894 0.341814
Si Si7 0.540332 0.896873 0.680023
O O1 0.272296 0.145477 0.591527
O O2 0.163486 0.081420 0.654372
O O3 0.343931 0.089363 0.670662
O O4 0.272243 0.952891 0.611466
O O5 0.139692 0.488986 0.945845
O O6 0.322602 0.509412 0.969854
O O7 0.216410 0.355825 0.002788
O O8 0.181429 0.534879 0.027264
O O9 0.816256 0.297843 0.800900
O O10 0.693687 0.437717 0.803696
O O11 0.979282 0.176941 0.108718
O O12 0.000000 0.000000 0.133489
O O13 0.122444 0.688097 0.069476
O O14 0.364422 0.508340 0.383030
O O15 0.500000 0.000000 0.696536
#
# Coordination Sequence:
#
# PCOD8308021 Si02
#       7
#    16  16  16  16  16  16  16
#     4  10  21  38  70  88 123 165 215 263 309 386
#     4  10  26  39  59  97 132 161 211 265 325 383
#     4  10  22  41  63  92 124 166 215 263 309 381
#     4  11  23  42  61  99 129 163 212 271 323 378
#     4  11  21  42  65  95 122 173 215 262 319 386
#     4  10  21  40  71  87 121 171 221 257 308 391
#     4  10  20  42  63  94 124 169 210 258 318 392
#
# _framework density 20.393813000000002
#
# number of rings (size 3 to 8) (size 9 to 14) (size 15 to 20)
#    0.000    1.714    2.857    0.857    4.000    0.000 
#    5.143    1.429    0.000    0.000    0.000    0.000 
#    0.000    0.000    0.000    0.000    0.000    0.000 
#
# Total GULP energy -694256.421032 kJ/mol
# GULP energy per Si atom -12397.436090 kJ/mol
# Density = 2.034740 g / cm^3
# Si number density = 20.393813 Si / 1000 Ang^3
#
#
#
# Elastic Constant Matrix: (Units=GPa)
#
#
# Indices 1 2 3 4 5 6 
#
# 1 109.8265 22.5393 31.2485 0.0000 0.0000 0.0000
# 2 22.5393 109.8265 31.2485 0.0000 0.0000 0.0000
# 3 31.2485 31.2485 65.3085 0.0000 0.0000 0.0000
# 4 0.0000 0.0000 0.0000 23.7683 0.0000 0.0000
# 5 0.0000 0.0000 0.0000 0.0000 23.7683 0.0000
# 6 0.0000 0.0000 0.0000 0.0000 0.0000 30.6230
#
#
#
# Elastic Compliance Matrix: (Units=1/GPa)
#
#
# Indices 1 2 3 4 5 6 
#
# 1 0.010608 -0.000848 -0.004670 0.000000 0.000000 0.000000
# 2 -0.000848 0.010608 -0.004670 0.000000 0.000000 0.000000
# 3 -0.004670 -0.004670 0.019781 0.000000 0.000000 0.000000
# 4 0.000000 0.000000 0.000000 0.042073 0.000000 0.000000
# 5 0.000000 0.000000 0.000000 0.000000 0.042073 0.000000
# 6 0.000000 0.000000 0.000000 0.000000 0.000000 0.032655
#
#
# Mechanical properties :
#
#
# Convention : Reuss Voigt Hill
#
# Bulk Modulus (GPa) = 48.49434 50.55935 49.52685
# Shear Modulus (GPa) = 27.02012 28.96024 27.99018
#
# Velocity S-wave (km/s) = 3.64389 3.77244 3.70872
# Velocity P-wave (km/s) = 6.44473 6.61970 6.53280
#
# Compressibility (1/GPa) = 0.02062096
#
# Stress axis : x y z
#
# Youngs Moduli (GPa) = 94.26805 94.26806 50.55444
#
# Poissons Ratio (x) = 0.07998 0.23608
# Poissons Ratio (y) = 0.07998 0.23608
# Poissons Ratio (z) = 0.44021 0.44021
#
# Static dielectric constant tensor:
#      x y z
#    x 3.803520 0.000000 0.000000 
#    y 0.000000 3.803520 0.000000 
#    z 0.000000 0.000000 3.462770 
# 
# 
# High freq. dielectric constant tensor:
#      x y z
#    x 1.804510 0.000000 0.000000 
#    y 0.000000 1.804510 0.000000 
#    z 0.000000 0.000000 1.775210 
# 
# From -- ./inp_files/3264.got.cif
#   From: 2010.03.12/outbox.cif.g09.slc.cpg/sg110_2_cif.got.tgz:3264.got - 2010.04.14 01:58:01.
