data_PCOD8308694
_publ_section_title
;
Structure prediction by ZEFSAII (Michael W. Deem and Ramdas Pophale) SiO2 
 PCOD8308694
Probable space group: P -4 21 M 
;
_chemical_formula_sum "Si O2"
_cell_formula_units_Z 48
_cell_length_a 14.712910
_cell_length_b 14.712910
_cell_length_c 11.795364
_cell_angle_alpha 90.000000
_cell_angle_beta 90.000000
_cell_angle_gamma 90.000000
_cell_volume 2553.339150
_symmetry_space_group_name_H-M "P -4 21 M "
_symmetry_group_IT_number 113
_symmetry_cell_setting 'tetragonal'
loop_
_space_group_symop_operation_xyz
x,y,z
y,-x,-z
-x,-y,z
-y,x,-z
1/2+x,1/2-y,-z
1/2-x,1/2+y,-z
1/2-y,1/2-x,z
1/2+y,1/2+x,z
loop_
_atom_site_type_symbol
_atom_site_label
_atom_site_fract_x
_atom_site_fract_y
_atom_site_fract_z
Si Si1 0.636253 0.716874 0.418322
Si Si2 0.384516 0.258502 0.925918
Si Si3 0.642967 0.001114 0.772043
Si Si4 0.394342 0.508255 0.201234
Si Si5 0.809907 0.835212 0.166286
Si Si6 0.478062 0.705174 0.587894
O O1 0.700087 0.799914 0.456999
O O2 0.616431 0.719586 0.283465
O O3 0.539781 0.724525 0.479561
O O4 0.685172 0.623403 0.454756
O O5 0.285645 0.214356 0.894199
O O6 0.464103 0.192025 0.884614
O O7 0.401971 0.355006 0.862327
O O8 0.392476 0.270266 0.061192
O O9 0.591822 0.091822 0.811001
O O10 0.573697 0.926304 0.723724
O O11 0.708494 0.024555 0.669099
O O12 0.500000 0.500000 0.171062
O O13 0.336264 0.419598 0.159179
O O14 0.379718 0.517102 0.337085
O O15 0.767859 0.732142 0.164842
#
# Coordination Sequence:
#
# PCOD8308694 Si02
#       6
#     8   8   8   8   8   8
#     4  10  21  36  56  79 110 151 189 230 284 341
#     4   9  19  35  55  82 114 145 179 230 284 340
#     4   9  17  33  58  84 108 141 187 237 283 331
#     4  10  22  34  57  83 112 145 190 233 283 333
#     4   9  20  37  54  78 113 151 185 226 284 346
#     4  10  21  34  55  78 114 145 186 235 282 334
#
# _framework density 18.798912999999999
#
# number of rings (size 3 to 8) (size 9 to 14) (size 15 to 20)
#    0.000    2.500    0.000    1.000    7.000    4.667 
#    0.000    0.000    0.000    2.000    0.000    7.000 
#    0.000    0.000    0.000    0.000    0.000    0.000 
#
# Total GULP energy -594811.258816 kJ/mol
# GULP energy per Si atom -12391.901225 kJ/mol
# Density = 1.875613 g / cm^3
# Si number density = 18.798913 Si / 1000 Ang^3
#
#
#
# Elastic Constant Matrix: (Units=GPa)
#
#
# Indices 1 2 3 4 5 6 
#
# 1 85.6203 27.4870 27.7113 0.0000 0.0000 0.0000
# 2 27.4870 85.6176 27.7108 0.0000 0.0000 0.0000
# 3 27.7113 27.7108 70.7446 0.0000 0.0000 0.0000
# 4 0.0000 0.0000 0.0000 24.4305 0.0000 0.0000
# 5 0.0000 0.0000 0.0000 0.0000 24.4304 0.0000
# 6 0.0000 0.0000 0.0000 0.0000 0.0000 25.1027
#
#
#
# Elastic Compliance Matrix: (Units=1/GPa)
#
#
# Indices 1 2 3 4 5 6 
#
# 1 0.014072 -0.003130 -0.004286 0.000000 0.000000 0.000000
# 2 -0.003130 0.014072 -0.004286 0.000000 0.000000 0.000000
# 3 -0.004286 -0.004286 0.017493 0.000000 0.000000 0.000000
# 4 0.000000 0.000000 0.000000 0.040933 0.000000 0.000000
# 5 0.000000 0.000000 0.000000 0.000000 0.040933 0.000000
# 6 0.000000 0.000000 0.000000 0.000000 0.000000 0.039836
#
#
# Mechanical properties :
#
#
# Convention : Reuss Voigt Hill
#
# Bulk Modulus (GPa) = 44.97939 45.31119 45.14529
# Shear Modulus (GPa) = 25.23306 25.39760 25.31533
#
# Velocity S-wave (km/s) = 3.66766 3.67960 3.67364
# Velocity P-wave (km/s) = 6.47412 6.49677 6.48545
#
# Compressibility (1/GPa) = 0.02223240
#
# Stress axis : x y z
#
# Youngs Moduli (GPa) = 71.06540 71.06316 57.16617
#
# Poissons Ratio (x) = 0.22246 0.24500
# Poissons Ratio (y) = 0.22247 0.24500
# Poissons Ratio (z) = 0.30457 0.30456
#
# Static dielectric constant tensor:
#      x y z
#    x 3.548400 0.000000 0.000000 
#    y 0.000000 3.548400 0.000000 
#    z 0.000000 0.000000 3.483760 
# 
# 
# High freq. dielectric constant tensor:
#      x y z
#    x 1.726740 0.000000 0.000000 
#    y 0.000000 1.726740 0.000000 
#    z 0.000000 0.000000 1.720270 
# 
# From -- ./inp_files/1817.got.cif
#   From: 2010.03.12/outbox.cif.g09.slc.cpg/sg113_cif.got.tgz:1817.got - 2010.04.14 02:06:34.
