data_PCOD8308168
_publ_section_title
;
Structure prediction by ZEFSAII (Michael W. Deem and Ramdas Pophale) SiO2 
 PCOD8308168
Probable space group: P -4 2 M 
;
_chemical_formula_sum "Si O2"
_cell_formula_units_Z 48
_cell_length_a 11.714195
_cell_length_b 11.714195
_cell_length_c 20.659159
_cell_angle_alpha 90.000000
_cell_angle_beta 90.000000
_cell_angle_gamma 90.000000
_cell_volume 2834.898647
_symmetry_space_group_name_H-M "P -4 2 M "
_symmetry_group_IT_number 111
_symmetry_cell_setting 'tetragonal'
loop_
_space_group_symop_operation_xyz
x,y,z
y,-x,-z
-x,-y,z
-y,x,-z
x,-y,-z
-x,y,-z
-y,-x,z
y,x,z
loop_
_atom_site_type_symbol
_atom_site_label
_atom_site_fract_x
_atom_site_fract_y
_atom_site_fract_z
Si Si1 0.684097 0.871444 0.501719
Si Si2 0.497561 0.869421 0.392972
Si Si3 0.308903 0.500117 0.277528
Si Si4 0.871448 0.517987 0.165608
Si Si5 0.897456 0.718053 0.079670
Si Si6 0.853825 0.671336 0.938473
O O1 0.792079 0.792079 0.495139
O O2 0.600832 0.849593 0.441925
O O3 0.620277 0.847720 0.569274
O O4 0.729909 0.000000 0.500000
O O5 0.509344 0.775030 0.338081
O O6 0.500000 0.000000 0.365750
O O7 0.387690 0.612311 0.282860
O O8 0.387239 0.387239 0.273043
O O9 0.227503 0.512552 0.215651
O O10 0.858711 0.648538 0.143191
O O11 0.853025 0.445996 0.100353
O O12 0.000000 0.500000 0.194183
O O13 0.842203 0.842203 0.082199
O O14 0.032132 0.740591 0.080102
O O15 0.855654 0.648991 0.015594
O O16 0.745149 0.745149 0.917040
#
# Coordination Sequence:
#
# PCOD8308168 Si02
#       6
#     8   8   8   8   8   8
#     4   9  17  30  50  74  99 125 152 184 220 261
#     4   9  18  33  51  70  93 124 158 186 218 263
#     4  11  22  33  47  68  93 119 150 192 235 268
#     4  10  19  32  48  64  87 119 153 185 220 270
#     4   9  17  29  46  67  89 114 145 182 224 269
#     4   9  17  29  46  67  89 114 145 182 224 269
#
# _framework density 16.931823000000001
#
# number of rings (size 3 to 8) (size 9 to 14) (size 15 to 20)
#    0.000    2.500    0.000    4.000    0.000    2.500 
#    0.000    1.667    0.000    4.000    0.000    7.000 
#    0.000   24.000    0.000    0.000    0.000    0.000 
#
# Total GULP energy -594962.257588 kJ/mol
# GULP energy per Si atom -12395.047033 kJ/mol
# Density = 1.689329 g / cm^3
# Si number density = 16.931823 Si / 1000 Ang^3
#
#
#
# Elastic Constant Matrix: (Units=GPa)
#
#
# Indices 1 2 3 4 5 6 
#
# 1 83.8033 40.8507 25.4674 0.0000 0.0000 0.0000
# 2 40.8507 83.8028 25.4672 0.0000 0.0000 0.0000
# 3 25.4674 25.4672 55.6045 0.0000 0.0000 0.0000
# 4 0.0000 0.0000 0.0000 19.9767 0.0000 0.0000
# 5 0.0000 0.0000 0.0000 0.0000 19.9765 0.0000
# 6 0.0000 0.0000 0.0000 0.0000 0.0000 29.4211
#
#
#
# Elastic Compliance Matrix: (Units=1/GPa)
#
#
# Indices 1 2 3 4 5 6 
#
# 1 0.016575 -0.006706 -0.004520 0.000000 0.000000 0.000000
# 2 -0.006706 0.016575 -0.004520 0.000000 0.000000 0.000000
# 3 -0.004520 -0.004520 0.022125 0.000000 0.000000 0.000000
# 4 0.000000 0.000000 0.000000 0.050058 0.000000 0.000000
# 5 0.000000 0.000000 0.000000 0.000000 0.050059 0.000000
# 6 0.000000 0.000000 0.000000 0.000000 0.000000 0.033989
#
#
# Mechanical properties :
#
#
# Convention : Reuss Voigt Hill
#
# Bulk Modulus (GPa) = 42.04787 45.19791 43.62289
# Shear Modulus (GPa) = 21.85290 22.63654 22.24472
#
# Velocity S-wave (km/s) = 3.59645 3.66036 3.62854
# Velocity P-wave (km/s) = 6.49103 6.67955 6.58596
#
# Compressibility (1/GPa) = 0.02378242
#
# Stress axis : x y z
#
# Youngs Moduli (GPa) = 60.33055 60.33019 45.19835
#
# Poissons Ratio (x) = 0.40459 0.20430
# Poissons Ratio (y) = 0.40459 0.20430
# Poissons Ratio (z) = 0.27271 0.27270
#
# Static dielectric constant tensor:
#      x y z
#    x 3.125890 0.000000 0.000000 
#    y 0.000000 3.125890 0.000000 
#    z 0.000000 0.000000 3.076960 
# 
# 
# High freq. dielectric constant tensor:
#      x y z
#    x 1.652870 0.000000 0.000000 
#    y 0.000000 1.652870 0.000000 
#    z 0.000000 0.000000 1.645180 
# 
# From -- ./inp_files/3657.got.cif
#   From: 2010.03.12/outbox.cif.g09.slc.cpg/sg111_2_cif.got.tgz:3657.got - 2010.04.14 01:59:48.
