data_PCOD8308707
_publ_section_title
;
Structure prediction by ZEFSAII (Michael W. Deem and Ramdas Pophale) SiO2 
 PCOD8308707
Probable space group: P -4 21 M 
;
_chemical_formula_sum "Si O2"
_cell_formula_units_Z 48
_cell_length_a 11.510568
_cell_length_b 11.510568
_cell_length_c 17.933834
_cell_angle_alpha 90.000000
_cell_angle_beta 90.000000
_cell_angle_gamma 90.000000
_cell_volume 2376.110619
_symmetry_space_group_name_H-M "P -4 21 M "
_symmetry_group_IT_number 113
_symmetry_cell_setting 'tetragonal'
loop_
_space_group_symop_operation_xyz
x,y,z
y,-x,-z
-x,-y,z
-y,x,-z
1/2+x,1/2-y,-z
1/2-x,1/2+y,-z
1/2-y,1/2-x,z
1/2+y,1/2+x,z
loop_
_atom_site_type_symbol
_atom_site_label
_atom_site_fract_x
_atom_site_fract_y
_atom_site_fract_z
Si Si1 0.501595 0.817039 0.898552
Si Si2 0.842409 0.845002 0.339741
Si Si3 0.747450 0.938243 0.576923
Si Si4 0.973621 0.173364 0.971225
Si Si5 0.101149 0.913507 0.819741
Si Si6 0.063482 0.252107 0.572782
O O1 0.377907 0.877907 0.888946
O O2 0.498094 0.699847 0.851589
O O3 0.603555 0.896446 0.865453
O O4 0.524137 0.797480 0.987522
O O5 0.751232 0.748769 0.366299
O O6 0.840675 0.855619 0.250561
O O7 0.970516 0.801118 0.364070
O O8 0.799268 0.968935 0.370421
O O9 0.636989 0.863012 0.608951
O O10 0.849572 0.851804 0.552250
O O11 0.705075 0.004191 0.503188
O O12 0.937724 0.177687 0.884349
O O13 0.099812 0.116591 0.978868
O O14 0.000000 0.000000 0.794023
O O15 0.137682 0.362319 0.605755
#
# Coordination Sequence:
#
# PCOD8308707 Si02
#       6
#     8   8   8   8   8   8
#     4  10  21  36  59  92 124 155 197 256 315 362
#     4  12  26  41  62  94 130 170 210 258 325 380
#     4  11  23  41  67  96 125 165 217 265 315 376
#     4   9  16  35  60  86 112 151 203 242 293 355
#     4  11  21  41  62  86 120 164 210 249 304 373
#     4  11  23  42  67  94 125 166 216 265 315 375
#
# _framework density 20.201080999999999
#
# number of rings (size 3 to 8) (size 9 to 14) (size 15 to 20)
#    0.000    1.333    5.000    3.000    0.000    6.333 
#    0.000    1.667    0.000    0.000    0.000    0.000 
#    0.000    0.000    0.000    0.000    0.000    0.000 
#
# Total GULP energy -594935.446367 kJ/mol
# GULP energy per Si atom -12394.488466 kJ/mol
# Density = 2.015510 g / cm^3
# Si number density = 20.201081 Si / 1000 Ang^3
#
#
#
# Elastic Constant Matrix: (Units=GPa)
#
#
# Indices 1 2 3 4 5 6 
#
# 1 104.8234 51.3116 25.3721 0.0000 0.0000 0.0000
# 2 51.3116 104.8235 25.3725 0.0000 0.0000 0.0000
# 3 25.3721 25.3725 103.8678 0.0000 0.0000 0.0000
# 4 0.0000 0.0000 0.0000 16.9977 0.0000 0.0000
# 5 0.0000 0.0000 0.0000 0.0000 16.9981 0.0000
# 6 0.0000 0.0000 0.0000 0.0000 0.0000 5.0160
#
#
#
# Elastic Compliance Matrix: (Units=1/GPa)
#
#
# Indices 1 2 3 4 5 6 
#
# 1 0.012822 -0.005865 -0.001699 0.000000 0.000000 0.000000
# 2 -0.005865 0.012822 -0.001699 0.000000 0.000000 0.000000
# 3 -0.001699 -0.001699 0.010458 0.000000 0.000000 0.000000
# 4 0.000000 0.000000 0.000000 0.058831 0.000000 0.000000
# 5 0.000000 0.000000 0.000000 0.000000 0.058830 0.000000
# 6 0.000000 0.000000 0.000000 0.000000 0.000000 0.199364
#
#
# Mechanical properties :
#
#
# Convention : Reuss Voigt Hill
#
# Bulk Modulus (GPa) = 56.90149 57.51412 57.20781
# Shear Modulus (GPa) = 13.24455 21.89958 17.57206
#
# Velocity S-wave (km/s) = 2.56332 3.29611 2.95253
# Velocity P-wave (km/s) = 6.08190 6.55884 6.32487
#
# Compressibility (1/GPa) = 0.01757423
#
# Stress axis : x y z
#
# Youngs Moduli (GPa) = 77.98950 77.98941 95.62163
#
# Poissons Ratio (x) = 0.45742 0.16250
# Poissons Ratio (y) = 0.45742 0.16251
# Poissons Ratio (z) = 0.13253 0.13254
#
# Static dielectric constant tensor:
#      x y z
#    x 3.726870 0.000000 0.000000 
#    y 0.000000 3.726870 0.000000 
#    z 0.000000 0.000000 4.382340 
# 
# 
# High freq. dielectric constant tensor:
#      x y z
#    x 1.790680 0.000000 0.000000 
#    y 0.000000 1.790680 0.000000 
#    z 0.000000 0.000000 1.771390 
# 
# From -- ./inp_files/2488.got.cif
#   From: 2010.03.12/outbox.cif.g09.slc.cpg/sg113_cif.got.tgz:2488.got - 2010.04.14 02:06:34.
