data_PCOD8308743
_publ_section_title
;
Structure prediction by ZEFSAII (Michael W. Deem and Ramdas Pophale) SiO2 
 PCOD8308743
Probable space group: P -4 21 M 
;
_chemical_formula_sum "Si O2"
_cell_formula_units_Z 32
_cell_length_a 12.988217
_cell_length_b 12.988217
_cell_length_c 9.824915
_cell_angle_alpha 90.000000
_cell_angle_beta 90.000000
_cell_angle_gamma 90.000000
_cell_volume 1657.402058
_symmetry_space_group_name_H-M "P -4 21 M "
_symmetry_group_IT_number 113
_symmetry_cell_setting 'tetragonal'
loop_
_space_group_symop_operation_xyz
x,y,z
y,-x,-z
-x,-y,z
-y,x,-z
1/2+x,1/2-y,-z
1/2-x,1/2+y,-z
1/2-y,1/2-x,z
1/2+y,1/2+x,z
loop_
_atom_site_type_symbol
_atom_site_label
_atom_site_fract_x
_atom_site_fract_y
_atom_site_fract_z
Si Si1 0.875106 0.006278 0.334286
Si Si2 0.106217 0.776887 0.411772
Si Si3 0.168099 0.498727 0.175354
Si Si4 0.495550 0.340648 0.037094
O O1 0.839590 0.125236 0.341556
O O2 0.830827 0.959584 0.193662
O O3 0.817231 0.943068 0.449602
O O4 0.000000 0.000000 0.347165
O O5 0.189242 0.689242 0.443943
O O6 0.017228 0.735982 0.310198
O O7 0.104830 0.395171 0.201819
O O8 0.095592 0.595592 0.148291
O O9 0.233570 0.484284 0.037880
O O10 0.406680 0.399675 0.955202
#
# Coordination Sequence:
#
# PCOD8308743 Si02
#       4
#     8   8   8   8
#     4  12  21  40  64  89 125 159 204 265 300 355
#     4  11  23  39  62  91 122 164 206 248 311 370
#     4  10  23  43  63  88 126 166 203 249 306 367
#     4  11  21  37  63  93 119 158 202 254 304 360
#
# _framework density 19.307326
#
# number of rings (size 3 to 8) (size 9 to 14) (size 15 to 20)
#    0.000    1.000    7.500    0.000    0.000    4.000 
#    0.000    0.000    0.000    3.000    0.000    0.000 
#    0.000    0.000    0.000    0.000    0.000    0.000 
#
# Total GULP energy -396787.901376 kJ/mol
# GULP energy per Si atom -12399.621918 kJ/mol
# Density = 1.926338 g / cm^3
# Si number density = 19.307326 Si / 1000 Ang^3
#
#
#
# Elastic Constant Matrix: (Units=GPa)
#
#
# Indices 1 2 3 4 5 6 
#
# 1 88.8843 29.2634 50.2969 0.0000 0.0000 0.0000
# 2 29.2634 88.8843 50.2965 0.0000 0.0000 0.0000
# 3 50.2969 50.2965 153.9009 0.0000 0.0000 0.0000
# 4 0.0000 0.0000 0.0000 33.3077 0.0000 0.0000
# 5 0.0000 0.0000 0.0000 0.0000 33.3082 0.0000
# 6 0.0000 0.0000 0.0000 0.0000 0.0000 22.9922
#
#
#
# Elastic Compliance Matrix: (Units=1/GPa)
#
#
# Indices 1 2 3 4 5 6 
#
# 1 0.014250 -0.002523 -0.003833 0.000000 0.000000 0.000000
# 2 -0.002523 0.014250 -0.003833 0.000000 0.000000 0.000000
# 3 -0.003833 -0.003833 0.009003 0.000000 0.000000 0.000000
# 4 0.000000 0.000000 0.000000 0.030023 0.000000 0.000000
# 5 0.000000 0.000000 0.000000 0.000000 0.030023 0.000000
# 6 0.000000 0.000000 0.000000 0.000000 0.000000 0.043493
#
#
# Mechanical properties :
#
#
# Convention : Reuss Voigt Hill
#
# Bulk Modulus (GPa) = 58.38836 65.70924 62.04880
# Shear Modulus (GPa) = 29.91756 31.37580 30.64668
#
# Velocity S-wave (km/s) = 3.94070 4.03559 3.98843
# Velocity P-wave (km/s) = 7.14231 7.47140 7.30871
#
# Compressibility (1/GPa) = 0.01712670
#
# Stress axis : x y z
#
# Youngs Moduli (GPa) = 70.17599 70.17615 111.07730
#
# Poissons Ratio (x) = 0.17704 0.42571
# Poissons Ratio (y) = 0.17704 0.42571
# Poissons Ratio (z) = 0.26896 0.26895
#
# Static dielectric constant tensor:
#      x y z
#    x 3.513960 0.000000 0.000000 
#    y 0.000000 3.513960 0.000000 
#    z 0.000000 0.000000 3.633360 
# 
# 
# High freq. dielectric constant tensor:
#      x y z
#    x 1.740860 0.000000 0.000000 
#    y 0.000000 1.740860 0.000000 
#    z 0.000000 0.000000 1.769120 
# 
# From -- ./inp_files/835.got.cif
#   From: 2010.03.12/outbox.cif.g09.slc.cpg/sg113_cif.got.tgz:835.got - 2010.04.14 02:06:34.
