data_PCOD8308807
_publ_section_title
;
Structure prediction by ZEFSAII (Michael W. Deem and Ramdas Pophale) SiO2 
 PCOD8308807
Probable space group: P -4 21 C
;
_chemical_formula_sum "Si O2"
_cell_formula_units_Z 48
_cell_length_a 9.826340
_cell_length_b 9.826340
_cell_length_c 27.313453
_cell_angle_alpha 90.000000
_cell_angle_beta 90.000000
_cell_angle_gamma 90.000000
_cell_volume 2637.303929
_symmetry_space_group_name_H-M "P -4 21 C"
_symmetry_group_IT_number 114
_symmetry_cell_setting 'tetragonal'
loop_
_space_group_symop_operation_xyz
x,y,z
y,-x,-z
-x,-y,z
-y,x,-z
1/2+x,1/2-y,1/2-z
1/2-x,1/2+y,1/2-z
1/2-y,1/2-x,1/2+z
1/2+y,1/2+x,1/2+z
loop_
_atom_site_type_symbol
_atom_site_label
_atom_site_fract_x
_atom_site_fract_y
_atom_site_fract_z
Si Si1 0.337892 0.000000 0.717498
Si Si2 1.000000 0.157305 0.186811
Si Si3 0.782226 0.342254 0.358610
Si Si4 0.840591 0.344034 0.965967
Si Si5 0.342254 0.782226 0.641390
Si Si6 0.159409 0.344034 0.965967
O O1 0.285838 0.129988 0.686675
O O2 0.500000 0.000000 0.728265
O O3 0.258168 1.000000 0.767953
O O4 0.285838 0.870012 0.686675
O O5 0.126083 0.189693 0.151891
O O6 0.873917 0.189693 0.151891
O O7 0.000000 0.000000 0.204933
O O8 0.824447 0.281050 0.411012
O O9 0.816719 0.500000 0.361766
O O10 0.818039 0.500000 0.982231
O O11 0.000000 0.304224 0.969177
O O12 0.756255 0.243745 0.000000
O O13 0.281050 0.824447 0.588988
#
# Coordination Sequence:
#
# PCOD8308807 Si02
#       6
#     8   8   8   8   8   8
#     4  10  18  34  56  76 106 150 180 210 269 334
#     4  10  20  32  52  82 112 136 182 230 263 310
#     4   9  18  34  55  77 108 143 179 223 274 326
#     4  10  21  38  59  83 110 145 188 233 285 340
#     4   9  18  34  55  77 108 143 179 223 274 326
#     4  10  21  38  59  83 110 145 188 233 285 340
#
# _framework density 18.200403999999999
#
# number of rings (size 3 to 8) (size 9 to 14) (size 15 to 20)
#    0.000    2.333    1.667    1.000    2.333    0.667 
#    0.000    3.333    0.000    0.000    0.000    0.000 
#    0.000    0.000    0.000    0.000    0.000    0.000 
#
# Total GULP energy -595062.380966 kJ/mol
# GULP energy per Si atom -12397.132937 kJ/mol
# Density = 1.815898 g / cm^3
# Si number density = 18.200404 Si / 1000 Ang^3
#
#
#
# Elastic Constant Matrix: (Units=GPa)
#
#
# Indices 1 2 3 4 5 6 
#
# 1 91.3092 38.4054 41.7150 0.0000 0.0000 0.0000
# 2 38.4054 91.3092 41.7150 0.0000 0.0000 0.0000
# 3 41.7150 41.7150 103.1284 0.0000 0.0000 0.0000
# 4 0.0000 0.0000 0.0000 49.4850 0.0000 0.0000
# 5 0.0000 0.0000 0.0000 0.0000 49.4850 0.0000
# 6 0.0000 0.0000 0.0000 0.0000 0.0000 17.1973
#
#
#
# Elastic Compliance Matrix: (Units=1/GPa)
#
#
# Indices 1 2 3 4 5 6 
#
# 1 0.014661 -0.004241 -0.004215 0.000000 0.000000 0.000000
# 2 -0.004241 0.014661 -0.004215 0.000000 0.000000 0.000000
# 3 -0.004215 -0.004215 0.013106 0.000000 0.000000 0.000000
# 4 0.000000 0.000000 0.000000 0.020208 0.000000 0.000000
# 5 0.000000 0.000000 0.000000 0.000000 0.020208 0.000000
# 6 0.000000 0.000000 0.000000 0.000000 0.000000 0.058149
#
#
# Mechanical properties :
#
#
# Convention : Reuss Voigt Hill
#
# Bulk Modulus (GPa) = 58.52340 58.82416 58.67378
# Shear Modulus (GPa) = 29.06449 34.16091 31.61270
#
# Velocity S-wave (km/s) = 4.00048 4.33706 4.17216
# Velocity P-wave (km/s) = 7.31869 7.58093 7.45096
#
# Compressibility (1/GPa) = 0.01708718
#
# Stress axis : x y z
#
# Youngs Moduli (GPa) = 68.20727 68.20727 76.29811
#
# Poissons Ratio (x) = 0.28927 0.32159
# Poissons Ratio (y) = 0.28927 0.32159
# Poissons Ratio (z) = 0.28749 0.28749
#
# Static dielectric constant tensor:
#      x y z
#    x 3.304710 0.000000 0.000000 
#    y 0.000000 3.304710 0.000000 
#    z 0.000000 0.000000 3.447710 
# 
# 
# High freq. dielectric constant tensor:
#      x y z
#    x 1.693500 0.000000 0.000000 
#    y 0.000000 1.693500 0.000000 
#    z 0.000000 0.000000 1.712160 
# 
# From -- ./inp_files/3962.got.cif
#   From: 2010.03.12/outbox.cif.g09.slc.cpg/sg114_2_cif.got.tgz:3962.got - 2010.04.14 02:08:34.
