data_PCOD8308908
_publ_section_title
;
Structure prediction by ZEFSAII (Michael W. Deem and Ramdas Pophale) SiO2 
 PCOD8308908
Probable space group: P -4 21 C
;
_chemical_formula_sum "Si O2"
_cell_formula_units_Z 40
_cell_length_a 14.079591
_cell_length_b 14.079591
_cell_length_c 9.360517
_cell_angle_alpha 90.000000
_cell_angle_beta 90.000000
_cell_angle_gamma 90.000000
_cell_volume 1855.580990
_symmetry_space_group_name_H-M "P -4 21 C"
_symmetry_group_IT_number 114
_symmetry_cell_setting 'tetragonal'
loop_
_space_group_symop_operation_xyz
x,y,z
y,-x,-z
-x,-y,z
-y,x,-z
1/2+x,1/2-y,1/2-z
1/2-x,1/2+y,1/2-z
1/2-y,1/2-x,1/2+z
1/2+y,1/2+x,1/2+z
loop_
_atom_site_type_symbol
_atom_site_label
_atom_site_fract_x
_atom_site_fract_y
_atom_site_fract_z
Si Si1 0.127386 0.933698 0.958258
Si Si2 0.354136 0.196962 0.055800
Si Si3 0.984001 0.668209 0.996422
Si Si4 0.304394 0.302573 0.776735
Si Si5 0.645373 0.052689 0.684826
O O1 0.125517 0.875113 0.809285
O O2 0.233392 0.925011 0.024045
O O3 0.046828 0.893716 0.066925
O O4 0.281761 0.237027 0.175525
O O5 0.460606 0.190487 0.112255
O O6 0.310169 0.094226 0.021843
O O7 0.359537 0.259700 0.912591
O O8 0.953143 0.587280 0.884764
O O9 0.965782 0.623668 0.150909
O O10 0.217245 0.361135 0.839336
#
# Coordination Sequence:
#
# PCOD8308908 Si02
#       5
#     8   8   8   8   8
#     4  10  21  40  68 101 133 186 243 280 347 427
#     4  12  24  46  68 101 143 182 238 296 356 424
#     4  11  24  42  67 104 140 185 230 296 352 429
#     4  11  24  45  69 100 139 188 231 297 355 421
#     4  11  26  41  70 104 138 182 238 284 363 423
#
# _framework density 21.55659
#
# number of rings (size 3 to 8) (size 9 to 14) (size 15 to 20)
#    0.000    1.000    4.000    3.000    2.800    1.600 
#    0.000    8.000    0.000    0.000    0.000    0.000 
#    0.000    0.000    0.000    0.000    0.000    0.000 
#
# Total GULP energy -495922.008387 kJ/mol
# GULP energy per Si atom -12398.050210 kJ/mol
# Density = 2.150753 g / cm^3
# Si number density = 21.556590 Si / 1000 Ang^3
#
#
#
# Elastic Constant Matrix: (Units=GPa)
#
#
# Indices 1 2 3 4 5 6 
#
# 1 103.3583 21.9524 39.8442 0.0000 0.0000 0.0000
# 2 21.9524 103.3583 39.8442 0.0000 0.0000 0.0000
# 3 39.8442 39.8442 97.9920 0.0000 0.0000 0.0000
# 4 0.0000 0.0000 0.0000 37.3450 0.0000 0.0000
# 5 0.0000 0.0000 0.0000 0.0000 37.3450 0.0000
# 6 0.0000 0.0000 0.0000 0.0000 0.0000 35.1083
#
#
#
# Elastic Compliance Matrix: (Units=1/GPa)
#
#
# Indices 1 2 3 4 5 6 
#
# 1 0.011524 -0.000760 -0.004376 0.000000 0.000000 0.000000
# 2 -0.000760 0.011524 -0.004376 0.000000 0.000000 0.000000
# 3 -0.004376 -0.004376 0.013764 0.000000 0.000000 0.000000
# 4 0.000000 0.000000 0.000000 0.026777 0.000000 0.000000
# 5 0.000000 0.000000 0.000000 0.000000 0.026777 0.000000
# 6 0.000000 0.000000 0.000000 0.000000 0.000000 0.028483
#
#
# Mechanical properties :
#
#
# Convention : Reuss Voigt Hill
#
# Bulk Modulus (GPa) = 56.22801 56.44334 56.33567
# Shear Modulus (GPa) = 34.76957 35.49752 35.13354
#
# Velocity S-wave (km/s) = 4.02050 4.06237 4.04149
# Velocity P-wave (km/s) = 6.90602 6.94582 6.92595
#
# Compressibility (1/GPa) = 0.01778473
#
# Stress axis : x y z
#
# Youngs Moduli (GPa) = 86.77780 86.77780 72.65397
#
# Poissons Ratio (x) = 0.06599 0.31796
# Poissons Ratio (y) = 0.06599 0.31796
# Poissons Ratio (z) = 0.37978 0.37978
#
# Static dielectric constant tensor:
#      x y z
#    x 3.956950 0.000000 0.000000 
#    y 0.000000 3.956950 0.000000 
#    z 0.000000 0.000000 3.793190 
# 
# 
# High freq. dielectric constant tensor:
#      x y z
#    x 1.855170 0.000000 0.000000 
#    y 0.000000 1.855170 0.000000 
#    z 0.000000 0.000000 1.831770 
# 
# From -- ./inp_files/769.got.cif
#   From: 2010.03.12/outbox.cif.g09.slc.cpg/sg114_1_cif.got.tgz:769.got - 2010.04.14 02:08:34.
