data_PCOD8308214
_publ_section_title
;
Structure prediction by ZEFSAII (Michael W. Deem and Ramdas Pophale) SiO2 
 PCOD8308214
Probable space group: P -4 2 M 
;
_chemical_formula_sum "Si O2"
_cell_formula_units_Z 48
_cell_length_a 14.286309
_cell_length_b 14.286309
_cell_length_c 11.635020
_cell_angle_alpha 90.000000
_cell_angle_beta 90.000000
_cell_angle_gamma 90.000000
_cell_volume 2374.691582
_symmetry_space_group_name_H-M "P -4 2 M "
_symmetry_group_IT_number 111
_symmetry_cell_setting 'tetragonal'
loop_
_space_group_symop_operation_xyz
x,y,z
y,-x,-z
-x,-y,z
-y,x,-z
x,-y,-z
-x,y,-z
-y,-x,z
y,x,z
loop_
_atom_site_type_symbol
_atom_site_label
_atom_site_fract_x
_atom_site_fract_y
_atom_site_fract_z
Si Si1 0.407971 0.744254 0.068217
Si Si2 0.218506 0.072184 0.272057
Si Si3 0.353835 0.914338 0.919729
Si Si4 0.348417 0.794225 0.582839
Si Si5 0.142745 0.494614 0.738539
Si Si6 0.664318 0.066451 0.396606
O O1 0.346653 0.653348 0.085383
O O2 0.434993 0.779581 0.194498
O O3 0.500000 0.714272 0.000000
O O4 0.349731 0.821514 0.996871
O O5 0.109770 0.109770 0.278264
O O6 0.252506 0.067326 0.139421
O O7 0.283400 0.147638 0.332157
O O8 0.238699 0.972097 0.336765
O O9 0.433739 0.907530 0.823552
O O10 0.381924 0.000000 0.000000
O O11 0.314299 0.685702 0.586977
O O12 0.454151 0.806320 0.629707
O O13 0.328827 0.830179 0.452136
O O14 0.064986 0.420252 0.694816
O O15 0.632388 0.000000 0.500000
#
# Coordination Sequence:
#
# PCOD8308214 Si02
#       6
#     8   8   8   8   8   8
#     4  10  22  37  53  77 111 151 196 242 289 348
#     4   9  18  32  50  74 106 140 176 222 279 343
#     4  10  20  33  52  78 110 147 185 233 291 344
#     4   9  19  34  51  74 105 141 179 226 288 345
#     4  10  21  33  52  81 112 142 183 239 292 341
#     4  10  20  32  52  79 108 140 179 226 284 347
#
# _framework density 20.213152000000001
#
# number of rings (size 3 to 8) (size 9 to 14) (size 15 to 20)
#    0.000    2.333    0.000    2.000    0.000   23.833 
#    0.000    0.000    0.000    0.500    0.000    3.500 
#    0.000    4.333    0.000    0.000    0.000    0.000 
#
# Total GULP energy -594778.986208 kJ/mol
# GULP energy per Si atom -12391.228879 kJ/mol
# Density = 2.016715 g / cm^3
# Si number density = 20.213152 Si / 1000 Ang^3
#
#
#
# Elastic Constant Matrix: (Units=GPa)
#
#
# Indices 1 2 3 4 5 6 
#
# 1 72.9233 52.1534 47.8174 0.0000 0.0000 0.0000
# 2 52.1534 72.9268 47.8183 0.0000 0.0000 0.0000
# 3 47.8174 47.8183 103.6993 0.0000 0.0000 0.0000
# 4 0.0000 0.0000 0.0000 16.0310 0.0000 0.0000
# 5 0.0000 0.0000 0.0000 0.0000 16.0298 0.0000
# 6 0.0000 0.0000 0.0000 0.0000 0.0000 35.5480
#
#
#
# Elastic Compliance Matrix: (Units=1/GPa)
#
#
# Indices 1 2 3 4 5 6 
#
# 1 0.030247 -0.017897 -0.005694 0.000000 0.000000 0.000000
# 2 -0.017897 0.030245 -0.005694 0.000000 0.000000 0.000000
# 3 -0.005694 -0.005694 0.014895 0.000000 0.000000 0.000000
# 4 0.000000 0.000000 0.000000 0.062379 0.000000 0.000000
# 5 0.000000 0.000000 0.000000 0.000000 0.062384 0.000000
# 6 0.000000 0.000000 0.000000 0.000000 0.000000 0.028131
#
#
# Mechanical properties :
#
#
# Convention : Reuss Voigt Hill
#
# Bulk Modulus (GPa) = 59.46968 60.56974 60.01971
# Shear Modulus (GPa) = 17.09657 20.30578 18.70118
#
# Velocity S-wave (km/s) = 2.91144 3.17295 3.04501
# Velocity P-wave (km/s) = 6.38648 6.59197 6.49004
#
# Compressibility (1/GPa) = 0.01681529
#
# Stress axis : x y z
#
# Youngs Moduli (GPa) = 33.06161 33.06335 67.13754
#
# Poissons Ratio (x) = 0.59173 0.38231
# Poissons Ratio (y) = 0.59170 0.38229
# Poissons Ratio (z) = 0.18827 0.18827
#
# Static dielectric constant tensor:
#      x y z
#    x 3.712230 0.000000 0.000000 
#    y 0.000000 3.712220 0.000000 
#    z 0.000000 0.000000 4.120220 
# 
# 
# High freq. dielectric constant tensor:
#      x y z
#    x 1.757590 0.000000 0.000000 
#    y 0.000000 1.757590 0.000000 
#    z 0.000000 0.000000 1.803730 
# 
# From -- ./inp_files/2657.got.cif
#   From: 2010.03.12/outbox.cif.g09.slc.cpg/sg111_2_cif.got.tgz:2657.got - 2010.04.14 01:59:48.
