data_PCOD8308817
_publ_section_title
;
Structure prediction by ZEFSAII (Michael W. Deem and Ramdas Pophale) SiO2 
 PCOD8308817
Probable space group: P -4 21 C
;
_chemical_formula_sum "Si O2"
_cell_formula_units_Z 64
_cell_length_a 11.731336
_cell_length_b 11.731336
_cell_length_c 23.568239
_cell_angle_alpha 90.000000
_cell_angle_beta 90.000000
_cell_angle_gamma 90.000000
_cell_volume 3243.561083
_symmetry_space_group_name_H-M "P -4 21 C"
_symmetry_group_IT_number 114
_symmetry_cell_setting 'tetragonal'
loop_
_space_group_symop_operation_xyz
x,y,z
y,-x,-z
-x,-y,z
-y,x,-z
1/2+x,1/2-y,1/2-z
1/2-x,1/2+y,1/2-z
1/2-y,1/2-x,1/2+z
1/2+y,1/2+x,1/2+z
loop_
_atom_site_type_symbol
_atom_site_label
_atom_site_fract_x
_atom_site_fract_y
_atom_site_fract_z
Si Si1 0.447122 0.617994 0.185137
Si Si2 0.865401 0.193954 0.795264
Si Si3 0.675696 0.561837 0.002589
Si Si4 0.210664 0.892406 0.185741
Si Si5 0.218481 0.783993 0.598715
Si Si6 0.878636 0.636663 0.701695
Si Si7 0.016414 0.633453 0.589295
Si Si8 0.217431 0.578628 0.750608
O O1 0.500000 0.500000 0.166165
O O2 0.400360 0.613190 0.248212
O O3 0.349966 0.633344 0.139681
O O4 0.537282 0.722748 0.190128
O O5 0.745296 0.169410 0.826303
O O6 0.861973 0.315402 0.764390
O O7 0.978081 0.184530 0.834643
O O8 0.740449 0.635733 0.955062
O O9 0.633866 0.437758 0.978873
O O10 0.772068 0.549464 0.051103
O O11 0.268900 0.838233 0.130447
O O12 0.285545 0.898261 0.243157
O O13 0.103006 0.815211 0.203100
O O14 0.151705 0.664903 0.585695
O O15 0.973497 0.650036 0.653755
O O16 0.873165 0.507654 0.723560
O O17 0.000000 0.500000 0.570034
#
# Coordination Sequence:
#
# PCOD8308817 Si02
#       8
#     8   8   8   8   8   8   8   8
#     4  11  20  32  55  84 117 165 191 238 293 363
#     4  10  21  34  49  81 124 159 194 234 287 362
#     4   9  22  43  65  89 114 153 210 259 304 358
#     4  11  20  34  52  82 120 158 194 239 299 354
#     4  11  22  39  61  91 120 158 204 256 304 357
#     4  10  22  33  53  83 115 156 197 232 293 363
#     4  11  24  41  65  88 120 159 202 253 307 368
#     4  10  19  34  48  77 122 155 199 229 284 358
#
# _framework density 19.731400000000001
#
# number of rings (size 3 to 8) (size 9 to 14) (size 15 to 20)
#    0.000    1.625    5.000    1.500    7.000    0.000 
#    0.000    3.750    0.000    0.000    0.000    0.000 
#    0.000    0.000    0.000    0.000    0.000    0.000 
#
# Total GULP energy -792856.690702 kJ/mol
# GULP energy per Si atom -12388.385792 kJ/mol
# Density = 1.968649 g / cm^3
# Si number density = 19.731400 Si / 1000 Ang^3
#
#
#
# Elastic Constant Matrix: (Units=GPa)
#
#
# Indices 1 2 3 4 5 6 
#
# 1 55.5144 -10.6553 7.2614 0.0000 0.0000 0.0000
# 2 -10.6553 55.5144 7.2614 0.0000 0.0000 0.0000
# 3 7.2614 7.2614 55.1917 0.0000 0.0000 0.0000
# 4 0.0000 0.0000 0.0000 45.9689 0.0000 0.0000
# 5 0.0000 0.0000 0.0000 0.0000 45.9689 0.0000
# 6 0.0000 0.0000 0.0000 0.0000 0.0000 10.2245
#
#
#
# Elastic Compliance Matrix: (Units=1/GPa)
#
#
# Indices 1 2 3 4 5 6 
#
# 1 0.019198 0.004086 -0.003063 0.000000 0.000000 0.000000
# 2 0.004086 0.019198 -0.003063 0.000000 0.000000 0.000000
# 3 -0.003063 -0.003063 0.018925 0.000000 0.000000 0.000000
# 4 0.000000 0.000000 0.000000 0.021754 0.000000 0.000000
# 5 0.000000 0.000000 0.000000 0.000000 0.021754 0.000000
# 6 0.000000 0.000000 0.000000 0.000000 0.000000 0.097804
#
#
# Mechanical properties :
#
#
# Convention : Reuss Voigt Hill
#
# Bulk Modulus (GPa) = 18.78330 19.32839 19.05585
# Shear Modulus (GPa) = 22.67967 31.25600 26.96784
#
# Velocity S-wave (km/s) = 3.39399 3.98436 3.70097
# Velocity P-wave (km/s) = 4.98989 5.56631 5.28597
#
# Compressibility (1/GPa) = 0.05323879
#
# Stress axis : x y z
#
# Youngs Moduli (GPa) = 52.08813 52.08813 52.84085
#
# Poissons Ratio (x) = -0.21281 0.16187
# Poissons Ratio (y) = -0.21281 0.16187
# Poissons Ratio (z) = 0.15957 0.15957
#
# Static dielectric constant tensor:
#      x y z
#    x 2.630480 0.000000 0.000000 
#    y 0.000000 2.630480 0.000000 
#    z 0.000000 0.000000 3.301610 
# 
# 
# High freq. dielectric constant tensor:
#      x y z
#    x 1.780720 0.000000 0.000000 
#    y 0.000000 1.780720 0.000000 
#    z 0.000000 0.000000 1.714080 
# 
# From -- ./inp_files/3564.got.cif
#   From: 2010.03.12/outbox.cif.g09.slc.cpg/sg114_2_cif.got.tgz:3564.got - 2010.04.14 02:08:34.
