data_PCOD8308431
_publ_section_title
;
Structure prediction by ZEFSAII (Michael W. Deem and Ramdas Pophale) SiO2 
 PCOD8308431
Probable space group: P -4 2 C
;
_chemical_formula_sum "Si O2"
_cell_formula_units_Z 38
_cell_length_a 8.927458
_cell_length_b 8.927458
_cell_length_c 20.886835
_cell_angle_alpha 90.000000
_cell_angle_beta 90.000000
_cell_angle_gamma 90.000000
_cell_volume 1664.670439
_symmetry_space_group_name_H-M "P -4 2 C"
_symmetry_group_IT_number 112
_symmetry_cell_setting 'tetragonal'
loop_
_space_group_symop_operation_xyz
x,y,z
y,-x,-z
-x,-y,z
-y,x,-z
x,-y,1/2-z
-x,y,1/2-z
-y,-x,1/2+z
y,x,1/2+z
loop_
_atom_site_type_symbol
_atom_site_label
_atom_site_fract_x
_atom_site_fract_y
_atom_site_fract_z
Si Si1 0.500000 0.500000 0.750000
Si Si2 0.500000 0.000000 0.250000
Si Si3 0.010340 0.675918 0.179366
Si Si4 0.656872 0.745984 0.331583
Si Si5 0.266574 0.834926 0.941080
Si Si6 0.000000 0.000000 0.000000
Si Si7 0.498297 0.837635 0.451202
O O1 0.599722 0.389270 0.707793
O O2 0.607509 0.895980 0.293725
O O3 0.166822 0.739867 0.152554
O O4 0.000000 0.500000 0.184924
O O5 0.000000 0.748571 0.250000
O O6 0.867296 0.716541 0.134645
O O7 0.582613 0.730054 0.401606
O O8 0.214873 0.670068 0.958578
O O9 0.422304 0.853713 0.979477
O O10 0.145376 0.959141 0.959479
O O11 0.500000 0.000000 0.418348
#
# Coordination Sequence:
#
# PCOD8308431 Si02
#       7
#     2   2   8   8   8   2   8
#     4  10  24  42  74 108 156 198 254 316 372 466
#     4  10  24  46  74 110 160 190 252 310 384 468
#     4  11  27  48  77 108 150 198 253 316 379 464
#     4  11  25  46  74 109 149 201 248 310 381 451
#     4  12  28  48  74 110 148 196 254 312 388 454
#     4  12  24  48  78 104 148 208 240 314 376 456
#     4  12  27  47  74 108 149 194 250 318 378 462
#
# _framework density 22.827342000000002
#
# number of rings (size 3 to 8) (size 9 to 14) (size 15 to 20)
#    0.000    0.632    3.158    3.158   11.789    0.421 
#    0.000    0.000    0.000    0.000    0.000    0.000 
#    0.000    0.000    0.000    0.000    0.000    0.000 
#
# Total GULP energy -471067.623801 kJ/mol
# GULP energy per Si atom -12396.516416 kJ/mol
# Density = 2.277539 g / cm^3
# Si number density = 22.827342 Si / 1000 Ang^3
#
#
#
# Elastic Constant Matrix: (Units=GPa)
#
#
# Indices 1 2 3 4 5 6 
#
# 1 130.7756 31.2402 41.7572 0.0000 0.0000 0.0000
# 2 31.2402 130.7756 41.7572 0.0000 0.0000 0.0000
# 3 41.7572 41.7572 150.7019 0.0000 0.0000 0.0000
# 4 0.0000 0.0000 0.0000 33.6384 0.0000 0.0000
# 5 0.0000 0.0000 0.0000 0.0000 33.6384 0.0000
# 6 0.0000 0.0000 0.0000 0.0000 0.0000 37.5236
#
#
#
# Elastic Compliance Matrix: (Units=1/GPa)
#
#
# Indices 1 2 3 4 5 6 
#
# 1 0.008624 -0.001423 -0.001995 0.000000 0.000000 0.000000
# 2 -0.001423 0.008624 -0.001995 0.000000 0.000000 0.000000
# 3 -0.001995 -0.001995 0.007741 0.000000 0.000000 0.000000
# 4 0.000000 0.000000 0.000000 0.029728 0.000000 0.000000
# 5 0.000000 0.000000 0.000000 0.000000 0.029728 0.000000
# 6 0.000000 0.000000 0.000000 0.000000 0.000000 0.026650
#
#
# Mechanical properties :
#
#
# Convention : Reuss Voigt Hill
#
# Bulk Modulus (GPa) = 70.61204 71.30691 70.95947
# Shear Modulus (GPa) = 39.48139 40.79330 40.13734
#
# Velocity S-wave (km/s) = 4.16332 4.23192 4.19776
# Velocity P-wave (km/s) = 7.35603 7.42861 7.39241
#
# Compressibility (1/GPa) = 0.01416189
#
# Stress axis : x y z
#
# Youngs Moduli (GPa) = 115.95960 115.95960 129.17733
#
# Poissons Ratio (x) = 0.16501 0.25774
# Poissons Ratio (y) = 0.16501 0.25774
# Poissons Ratio (z) = 0.23136 0.23136
#
# Static dielectric constant tensor:
#      x y z
#    x 4.096980 0.000000 0.000000 
#    y 0.000000 4.096980 0.000000 
#    z 0.000000 0.000000 4.415230 
# 
# 
# High freq. dielectric constant tensor:
#      x y z
#    x 1.906140 0.000000 0.000000 
#    y 0.000000 1.906140 0.000000 
#    z 0.000000 0.000000 1.910760 
# 
# From -- ./inp_files/5440.got.cif
#   From: 2010.03.12/outbox.cif.g09.slc.cpg/sg112_3_cif.got.tgz:5440.got - 2010.04.14 02:02:48.
