data_PCOD8308003
_publ_section_title
;
Structure prediction by ZEFSAII (Michael W. Deem and Ramdas Pophale) SiO2 
 PCOD8308003
Probable space group: I 41 C D
;
_chemical_formula_sum "Si O2"
_cell_formula_units_Z 112
_cell_length_a 25.636971
_cell_length_b 25.636971
_cell_length_c 10.235047
_cell_angle_alpha 90.000000
_cell_angle_beta 90.000000
_cell_angle_gamma 90.000000
_cell_volume 6727.028468
_symmetry_space_group_name_H-M "I 41 C D"
_symmetry_group_IT_number 110
_symmetry_cell_setting 'tetragonal'
loop_
_space_group_symop_operation_xyz
x,y,z
-y,1/2+x,1/4+z
-x,-y,z
y,1/2-x,1/4+z
-x,y,1/2+z
x,-y,1/2+z
1/2-y,-x,1/4+z
1/2+y,x,1/4+z
1/2+x,1/2+y,1/2+z
1/2-y,x,3/4+z
1/2-x,1/2-y,1/2+z
1/2+y,-x,3/4+z
1/2-x,1/2+y,z
1/2+x,1/2-y,z
-y,1/2-x,3/4+z
y,1/2+x,3/4+z
loop_
_atom_site_type_symbol
_atom_site_label
_atom_site_fract_x
_atom_site_fract_y
_atom_site_fract_z
Si Si1 0.792994 0.250003 0.816010
Si Si2 0.712055 0.446743 0.944575
Si Si3 0.287896 0.053247 0.187471
Si Si4 0.933901 0.280119 0.182709
Si Si5 0.860498 0.353086 0.793529
Si Si6 0.219938 0.433891 0.199323
Si Si7 0.353065 0.139478 0.088502
O O1 0.756035 0.243993 0.690981
O O2 0.828483 0.299915 0.794471
O O3 0.828446 0.200068 0.837608
O O4 0.698106 0.507264 0.926135
O O5 0.740059 0.423263 0.817100
O O6 0.749976 0.438482 0.066024
O O7 0.658432 0.415305 0.970520
O O8 0.259895 0.076725 0.314954
O O9 0.341519 0.084683 0.161533
O O10 0.301841 0.992725 0.205897
O O11 0.921788 0.250036 0.316024
O O12 0.896778 0.330027 0.170032
O O13 0.829965 0.396759 0.711955
O O14 0.872042 0.372093 0.941009
#
# Coordination Sequence:
#
# PCOD8308003 Si02
#       7
#    16  16  16  16  16  16  16
#     4  10  20  30  46  70 106 138 168 204 256 320
#     4  10  18  37  54  76 110 140 187 216 259 330
#     4  10  18  37  54  76 110 140 187 216 259 330
#     4  10  22  33  54  82 108 144 178 227 265 313
#     4  11  19  35  55  76 102 148 180 216 268 324
#     4  10  22  33  54  82 108 144 178 227 265 313
#     4  11  19  35  55  76 102 148 180 216 268 324
#
# _framework density 16.649253000000002
#
# number of rings (size 3 to 8) (size 9 to 14) (size 15 to 20)
#    0.000    1.714    4.286    1.714    2.000    1.143 
#    0.000    0.000    0.000    0.857    0.000    2.000 
#    0.000    0.000    0.000    0.000    0.000    0.000 
#
# Total GULP energy -694536.031788 kJ/mol
# GULP energy per Si atom -12402.429139 kJ/mol
# Density = 1.661136 g / cm^3
# Si number density = 16.649253 Si / 1000 Ang^3
#
#
#
# Elastic Constant Matrix: (Units=GPa)
#
#
# Indices 1 2 3 4 5 6 
#
# 1 88.2631 52.4026 35.4696 0.0000 0.0000 0.0000
# 2 52.4026 88.2631 35.4696 0.0000 0.0000 0.0000
# 3 35.4696 35.4696 113.1386 0.0000 0.0000 0.0000
# 4 0.0000 0.0000 0.0000 9.9101 0.0000 0.0000
# 5 0.0000 0.0000 0.0000 0.0000 9.9101 0.0000
# 6 0.0000 0.0000 0.0000 0.0000 0.0000 24.5100
#
#
#
# Elastic Compliance Matrix: (Units=1/GPa)
#
#
# Indices 1 2 3 4 5 6 
#
# 1 0.018165 -0.009721 -0.002647 0.000000 0.000000 0.000000
# 2 -0.009721 0.018165 -0.002647 0.000000 0.000000 0.000000
# 3 -0.002647 -0.002647 0.010499 0.000000 0.000000 0.000000
# 4 0.000000 0.000000 0.000000 0.100907 0.000000 0.000000
# 5 0.000000 0.000000 0.000000 0.000000 0.100907 0.000000
# 6 0.000000 0.000000 0.000000 0.000000 0.000000 0.040800
#
#
# Mechanical properties :
#
#
# Convention : Reuss Voigt Hill
#
# Bulk Modulus (GPa) = 59.53196 59.59424 59.56310
# Shear Modulus (GPa) = 15.38122 19.95425 17.66774
#
# Velocity S-wave (km/s) = 3.04277 3.46570 3.26110
# Velocity P-wave (km/s) = 6.94109 7.20322 7.07337
#
# Compressibility (1/GPa) = 0.01679770
#
# Stress axis : x y z
#
# Youngs Moduli (GPa) = 55.05095 55.05095 95.25093
#
# Poissons Ratio (x) = 0.53514 0.25215
# Poissons Ratio (y) = 0.53514 0.25215
# Poissons Ratio (z) = 0.14573 0.14573
#
# Static dielectric constant tensor:
#      x y z
#    x 3.158650 0.000000 0.000000 
#    y 0.000000 3.158650 0.000000 
#    z 0.000000 0.000000 3.515300 
# 
# 
# High freq. dielectric constant tensor:
#      x y z
#    x 1.624860 0.000000 0.000000 
#    y 0.000000 1.624860 0.000000 
#    z 0.000000 0.000000 1.658630 
# 
# From -- ./inp_files/972.got.cif
#   From: 2010.03.12/outbox.cif.g09.slc.cpg/sg110_1_cif.got.tgz:972.got - 2010.04.14 01:58:01.
