data_PCOD8308391
_publ_section_title
;
Structure prediction by ZEFSAII (Michael W. Deem and Ramdas Pophale) SiO2 
 PCOD8308391
Probable space group: P -4 2 C
;
_chemical_formula_sum "Si O2"
_cell_formula_units_Z 48
_cell_length_a 9.234722
_cell_length_b 9.234722
_cell_length_c 28.054110
_cell_angle_alpha 90.000000
_cell_angle_beta 90.000000
_cell_angle_gamma 90.000000
_cell_volume 2392.457037
_symmetry_space_group_name_H-M "P -4 2 C"
_symmetry_group_IT_number 112
_symmetry_cell_setting 'tetragonal'
loop_
_space_group_symop_operation_xyz
x,y,z
y,-x,-z
-x,-y,z
-y,x,-z
x,-y,1/2-z
-x,y,1/2-z
-y,-x,1/2+z
y,x,1/2+z
loop_
_atom_site_type_symbol
_atom_site_label
_atom_site_fract_x
_atom_site_fract_y
_atom_site_fract_z
Si Si1 0.162135 0.477546 0.388705
Si Si2 0.789011 0.152661 0.547340
Si Si3 0.242054 0.817654 0.945548
Si Si4 0.344504 0.571606 0.203718
Si Si5 0.918738 0.653667 0.794368
Si Si6 0.007895 0.327596 0.604300
O O1 0.193343 0.325634 0.412721
O O2 0.190067 0.590611 0.431408
O O3 0.262305 0.482802 0.342775
O O4 0.000000 0.500000 0.369620
O O5 0.737283 0.208538 0.495461
O O6 0.929370 0.245861 0.560858
O O7 0.818826 0.981013 0.548676
O O8 0.171199 0.728317 0.901817
O O9 0.500000 0.500000 0.198892
O O10 0.267004 0.500000 0.250000
O O11 0.356566 0.745387 0.211588
O O12 0.949409 0.730628 0.844826
O O13 0.000000 0.500000 0.797365
O O14 0.000000 0.736179 0.750000
O O15 0.000000 0.500000 0.598436
#
# Coordination Sequence:
#
# PCOD8308391 Si02
#       6
#     8   8   8   8   8   8
#     4  10  25  43  62  91 132 164 205 261 317 372
#     4  11  22  43  60  92 122 170 211 251 309 374
#     4  11  24  38  67  86 126 171 207 255 309 377
#     4  11  23  40  68  94 123 164 207 256 320 380
#     4  10  21  39  63  93 127 158 205 262 310 370
#     4  11  24  37  65  93 123 162 208 259 306 365
#
# _framework density 20.063058000000002
#
# number of rings (size 3 to 8) (size 9 to 14) (size 15 to 20)
#    0.000    1.333    3.333    2.500    9.333    0.333 
#    0.000    0.000    0.000    2.000    0.000    0.000 
#    0.000    0.000    0.000    0.000    0.000    0.000 
#
# Total GULP energy -594853.668506 kJ/mol
# GULP energy per Si atom -12392.784761 kJ/mol
# Density = 2.001739 g / cm^3
# Si number density = 20.063058 Si / 1000 Ang^3
#
#
#
# Elastic Constant Matrix: (Units=GPa)
#
#
# Indices 1 2 3 4 5 6 
#
# 1 70.3064 14.4041 35.1744 0.0000 0.0000 0.0000
# 2 14.4041 70.3064 35.1744 0.0000 0.0000 0.0000
# 3 35.1744 35.1744 144.9513 0.0000 0.0000 0.0000
# 4 0.0000 0.0000 0.0000 11.9921 0.0000 0.0000
# 5 0.0000 0.0000 0.0000 0.0000 11.9921 0.0000
# 6 0.0000 0.0000 0.0000 0.0000 0.0000 28.8905
#
#
#
# Elastic Compliance Matrix: (Units=1/GPa)
#
#
# Indices 1 2 3 4 5 6 
#
# 1 0.016336 -0.001552 -0.003588 0.000000 0.000000 0.000000
# 2 -0.001552 0.016336 -0.003588 0.000000 0.000000 0.000000
# 3 -0.003588 -0.003588 0.008640 0.000000 0.000000 0.000000
# 4 0.000000 0.000000 0.000000 0.083388 0.000000 0.000000
# 5 0.000000 0.000000 0.000000 0.000000 0.083388 0.000000
# 6 0.000000 0.000000 0.000000 0.000000 0.000000 0.034613
#
#
# Mechanical properties :
#
#
# Convention : Reuss Voigt Hill
#
# Bulk Modulus (GPa) = 41.91437 50.56332 46.23885
# Shear Modulus (GPa) = 18.64912 23.96238 21.30575
#
# Velocity S-wave (km/s) = 3.05212 3.45969 3.26228
# Velocity P-wave (km/s) = 5.77557 6.41998 6.10629
#
# Compressibility (1/GPa) = 0.02385816
#
# Stress axis : x y z
#
# Youngs Moduli (GPa) = 61.21330 61.21330 115.74031
#
# Poissons Ratio (x) = 0.09501 0.41523
# Poissons Ratio (y) = 0.09501 0.41523
# Poissons Ratio (z) = 0.21961 0.21961
#
# Static dielectric constant tensor:
#      x y z
#    x 3.593310 0.000000 0.000000 
#    y 0.000000 3.593310 0.000000 
#    z 0.000000 0.000000 4.322780 
# 
# 
# High freq. dielectric constant tensor:
#      x y z
#    x 1.774880 0.000000 0.000000 
#    y 0.000000 1.774880 0.000000 
#    z 0.000000 0.000000 1.805360 
# 
# From -- ./inp_files/6281.got.cif
#   From: 2010.03.12/outbox.cif.g09.slc.cpg/sg112_4_cif.got.tgz:6281.got - 2010.04.14 02:02:48.
