data_PCOD8308928
_publ_section_title
;
Structure prediction by ZEFSAII (Michael W. Deem and Ramdas Pophale) SiO2 
 PCOD8308928
Probable space group: P -4 21 C
;
_chemical_formula_sum "Si O2"
_cell_formula_units_Z 60
_cell_length_a 13.189453
_cell_length_b 13.189453
_cell_length_c 14.350434
_cell_angle_alpha 90.000000
_cell_angle_beta 90.000000
_cell_angle_gamma 90.000000
_cell_volume 2496.425470
_symmetry_space_group_name_H-M "P -4 21 C"
_symmetry_group_IT_number 114
_symmetry_cell_setting 'tetragonal'
loop_
_space_group_symop_operation_xyz
x,y,z
y,-x,-z
-x,-y,z
-y,x,-z
1/2+x,1/2-y,1/2-z
1/2-x,1/2+y,1/2-z
1/2-y,1/2-x,1/2+z
1/2+y,1/2+x,1/2+z
loop_
_atom_site_type_symbol
_atom_site_label
_atom_site_fract_x
_atom_site_fract_y
_atom_site_fract_z
Si Si1 0.419437 0.305585 0.437337
Si Si2 0.356096 0.143828 0.797676
Si Si3 0.704501 0.012735 0.439918
Si Si4 0.000000 0.000000 0.158250
Si Si5 0.676907 0.235422 0.247027
Si Si6 0.149680 0.916491 0.296392
Si Si7 0.619004 0.231020 0.453947
Si Si8 0.977179 0.273555 0.354971
O O1 0.389689 0.250362 0.342687
O O2 0.485693 0.405269 0.411121
O O3 0.503305 0.238299 0.492442
O O4 0.317553 0.314157 0.497053
O O5 0.451427 0.131219 0.867607
O O6 0.339472 0.261344 0.771023
O O7 0.365112 0.076797 0.703478
O O8 0.813479 0.026476 0.390304
O O9 0.659311 0.119503 0.472682
O O10 0.714514 0.950219 0.535721
O O11 0.899414 0.002192 0.224428
O O12 0.750174 0.136643 0.252050
O O13 0.616900 0.250099 0.343132
O O14 0.597457 0.220347 0.163366
O O15 0.065084 0.835232 0.324367
#
# Coordination Sequence:
#
# PCOD8308928 Si02
#       8
#     8   8   8   4   8   8   8   8
#     4  12  24  45  77 105 153 194 258 327 392 469
#     4  11  25  45  75 107 151 204 249 324 394 484
#     4  11  28  44  79 108 157 204 261 322 402 483
#     4  12  22  45  73 118 146 196 262 323 409 456
#     4  10  21  46  73 105 155 201 245 333 395 469
#     4  10  25  42  70 117 150 196 261 325 393 476
#     4  11  25  47  72 111 150 196 263 323 394 467
#     4  11  23  48  77 108 152 204 256 317 403 475
#
# _framework density 24.034362999999999
#
# number of rings (size 3 to 8) (size 9 to 14) (size 15 to 20)
#    0.000    1.067    4.000    1.600   11.200    0.533 
#    0.000    0.000    5.867    0.000    0.000    0.000 
#    0.000    0.000    0.000    0.000    0.000    0.000 
#
# Total GULP energy -743559.601890 kJ/mol
# GULP energy per Si atom -12392.660032 kJ/mol
# Density = 2.397966 g / cm^3
# Si number density = 24.034363 Si / 1000 Ang^3
#
#
#
# Elastic Constant Matrix: (Units=GPa)
#
#
# Indices 1 2 3 4 5 6 
#
# 1 98.1546 25.4926 30.2810 0.0000 0.0000 0.0000
# 2 25.4926 98.1546 30.2810 0.0000 0.0000 0.0000
# 3 30.2810 30.2810 117.5553 0.0000 0.0000 0.0000
# 4 0.0000 0.0000 0.0000 32.5151 0.0000 0.0000
# 5 0.0000 0.0000 0.0000 0.0000 32.5151 0.0000
# 6 0.0000 0.0000 0.0000 0.0000 0.0000 33.0561
#
#
#
# Elastic Compliance Matrix: (Units=1/GPa)
#
#
# Indices 1 2 3 4 5 6 
#
# 1 0.011509 -0.002254 -0.002384 0.000000 0.000000 0.000000
# 2 -0.002254 0.011509 -0.002384 0.000000 0.000000 0.000000
# 3 -0.002384 -0.002384 0.009735 0.000000 0.000000 0.000000
# 4 0.000000 0.000000 0.000000 0.030755 0.000000 0.000000
# 5 0.000000 0.000000 0.000000 0.000000 0.030755 0.000000
# 6 0.000000 0.000000 0.000000 0.000000 0.000000 0.030252
#
#
# Mechanical properties :
#
#
# Convention : Reuss Voigt Hill
#
# Bulk Modulus (GPa) = 53.44990 53.99706 53.72348
# Shear Modulus (GPa) = 34.53193 34.80460 34.66826
#
# Velocity S-wave (km/s) = 3.79459 3.80954 3.80207
# Velocity P-wave (km/s) = 6.44095 6.47036 6.45567
#
# Compressibility (1/GPa) = 0.01870911
#
# Stress axis : x y z
#
# Youngs Moduli (GPa) = 86.89016 86.89016 102.72378
#
# Poissons Ratio (x) = 0.19581 0.24490
# Poissons Ratio (y) = 0.19581 0.24490
# Poissons Ratio (z) = 0.20715 0.20715
#
# Static dielectric constant tensor:
#      x y z
#    x 4.329960 0.000000 0.000000 
#    y 0.000000 4.329960 0.000000 
#    z 0.000000 0.000000 4.421790 
# 
# 
# High freq. dielectric constant tensor:
#      x y z
#    x 1.948070 0.000000 0.000000 
#    y 0.000000 1.948070 0.000000 
#    z 0.000000 0.000000 1.957140 
# 
# From -- ./inp_files/2297.got.cif
#   From: 2010.03.12/outbox.cif.g09.slc.cpg/sg114_2_cif.got.tgz:2297.got - 2010.04.14 02:08:34.
