data_PCOD8308052
_publ_section_title
;
Structure prediction by ZEFSAII (Michael W. Deem and Ramdas Pophale) SiO2 
 PCOD8308052
Probable space group: I 41 C D
;
_chemical_formula_sum "Si O2"
_cell_formula_units_Z 48
_cell_length_a 18.471266
_cell_length_b 18.471266
_cell_length_c 5.420091
_cell_angle_alpha 90.000000
_cell_angle_beta 90.000000
_cell_angle_gamma 90.000000
_cell_volume 1849.268207
_symmetry_space_group_name_H-M "I 41 C D"
_symmetry_group_IT_number 110
_symmetry_cell_setting 'tetragonal'
loop_
_space_group_symop_operation_xyz
x,y,z
-y,1/2+x,1/4+z
-x,-y,z
y,1/2-x,1/4+z
-x,y,1/2+z
x,-y,1/2+z
1/2-y,-x,1/4+z
1/2+y,x,1/4+z
1/2+x,1/2+y,1/2+z
1/2-y,x,3/4+z
1/2-x,1/2-y,1/2+z
1/2+y,-x,3/4+z
1/2-x,1/2+y,z
1/2+x,1/2-y,z
-y,1/2-x,3/4+z
y,1/2+x,3/4+z
loop_
_atom_site_type_symbol
_atom_site_label
_atom_site_fract_x
_atom_site_fract_y
_atom_site_fract_z
Si Si1 0.477031 0.626570 0.607420
Si Si2 0.178503 0.171593 0.685971
Si Si3 0.534645 0.214673 0.178106
O O1 0.511957 0.584306 0.371184
O O2 0.393340 0.643011 0.551994
O O3 0.522618 0.699348 0.671390
O O4 0.164758 0.254610 0.750885
O O5 0.196780 0.120626 0.922370
O O6 0.500950 0.180321 0.427551
#
# Coordination Sequence:
#
# PCOD8308052 Si02
#       3
#    16  16  16
#     4  10  22  45  61  94 142 183 208 282 362 405
#     4  12  26  38  74 113 130 177 246 300 332 418
#     4  10  22  45  61  94 142 183 208 282 362 405
#
# _framework density 25.956212000000001
#
# number of rings (size 3 to 8) (size 9 to 14) (size 15 to 20)
#    0.000    1.333    6.667    0.000    9.333    2.667 
#    0.000    0.000    0.000    6.000    0.000    0.000 
#    0.000    0.000    0.000    0.000    0.000    0.000 
#
# Total GULP energy -297393.945680 kJ/mol
# GULP energy per Si atom -12391.414403 kJ/mol
# Density = 2.589713 g / cm^3
# Si number density = 25.956212 Si / 1000 Ang^3
#
#
#
# Elastic Constant Matrix: (Units=GPa)
#
#
# Indices 1 2 3 4 5 6 
#
# 1 73.0141 -16.2989 4.3119 0.0000 0.0000 0.0000
# 2 -16.2989 73.0141 4.3119 0.0000 0.0000 0.0000
# 3 4.3119 4.3119 197.0318 0.0000 0.0000 0.0000
# 4 0.0000 0.0000 0.0000 24.7159 0.0000 0.0000
# 5 0.0000 0.0000 0.0000 0.0000 24.7159 0.0000
# 6 0.0000 0.0000 0.0000 0.0000 0.0000 4.1163
#
#
#
# Elastic Compliance Matrix: (Units=1/GPa)
#
#
# Indices 1 2 3 4 5 6 
#
# 1 0.014444 0.003247 -0.000387 0.000000 0.000000 0.000000
# 2 0.003247 0.014444 -0.000387 0.000000 0.000000 0.000000
# 3 -0.000387 -0.000387 0.005092 0.000000 0.000000 0.000000
# 4 0.000000 0.000000 0.000000 0.040460 0.000000 0.000000
# 5 0.000000 0.000000 0.000000 0.000000 0.040460 0.000000
# 6 0.000000 0.000000 0.000000 0.000000 0.000000 0.242939
#
#
# Mechanical properties :
#
#
# Convention : Reuss Voigt Hill
#
# Bulk Modulus (GPa) = 25.69025 36.41223 31.05124
# Shear Modulus (GPa) = 13.66614 34.09194 23.87904
#
# Velocity S-wave (km/s) = 2.29706 3.62807 3.03640
# Velocity P-wave (km/s) = 4.11757 5.62222 4.92766
#
# Compressibility (1/GPa) = 0.03892528
#
# Stress axis : x y z
#
# Youngs Moduli (GPa) = 69.23434 69.23434 196.37610
#
# Poissons Ratio (x) = -0.22481 0.07603
# Poissons Ratio (y) = -0.22481 0.07603
# Poissons Ratio (z) = 0.02680 0.02680
#
# Static dielectric constant tensor:
#      x y z
#    x 4.592310 0.000000 0.000000 
#    y 0.000000 4.592310 0.000000 
#    z 0.000000 0.000000 5.848540 
# 
# 
# High freq. dielectric constant tensor:
#      x y z
#    x 2.014800 0.000000 0.000000 
#    y 0.000000 2.014800 0.000000 
#    z 0.000000 0.000000 2.048270 
# 
# From -- ./inp_files/35.got.cif
#   From: 2010.03.12/outbox.cif.g09.slc.cpg/sg110_1_cif.got.tgz:35.got - 2010.04.14 01:58:01.
