data_PCOD8308660
_publ_section_title
;
Structure prediction by ZEFSAII (Michael W. Deem and Ramdas Pophale) SiO2 
 PCOD8308660
Probable space group: P -4 21 M 
;
_chemical_formula_sum "Si O2"
_cell_formula_units_Z 64
_cell_length_a 16.661975
_cell_length_b 16.661975
_cell_length_c 12.436506
_cell_angle_alpha 90.000000
_cell_angle_beta 90.000000
_cell_angle_gamma 90.000000
_cell_volume 3452.640342
_symmetry_space_group_name_H-M "P -4 21 M "
_symmetry_group_IT_number 113
_symmetry_cell_setting 'tetragonal'
loop_
_space_group_symop_operation_xyz
x,y,z
y,-x,-z
-x,-y,z
-y,x,-z
1/2+x,1/2-y,-z
1/2-x,1/2+y,-z
1/2-y,1/2-x,z
1/2+y,1/2+x,z
loop_
_atom_site_type_symbol
_atom_site_label
_atom_site_fract_x
_atom_site_fract_y
_atom_site_fract_z
Si Si1 0.192266 0.564128 0.652809
Si Si2 0.386756 0.452342 0.537283
Si Si3 0.894124 0.939487 0.035761
Si Si4 0.670510 0.692366 0.879786
Si Si5 0.678212 0.698699 0.481546
Si Si6 0.130926 0.495120 0.443343
Si Si7 0.728572 0.900278 0.688466
Si Si8 0.815571 0.025909 0.228628
O O1 0.114857 0.614857 0.691047
O O2 0.261207 0.623103 0.608783
O O3 0.170068 0.499435 0.561482
O O4 0.228871 0.515270 0.752479
O O5 0.398307 0.532152 0.467419
O O6 0.319545 0.398317 0.475699
O O7 0.364554 0.468357 0.660182
O O8 0.868376 0.968187 0.153462
O O9 0.829399 0.874745 0.990814
O O10 0.982424 0.899012 0.042793
O O11 0.743359 0.756642 0.897049
O O12 0.599813 0.724069 0.800872
O O13 0.704402 0.610898 0.826262
O O14 0.768796 0.731205 0.469538
O O15 0.644309 0.718712 0.599245
O O16 0.091887 0.408114 0.423299
O O17 0.199578 0.511825 0.352949
O O18 0.064673 0.564673 0.439016
O O19 0.648200 0.851801 0.710072
#
# Coordination Sequence:
#
# PCOD8308660 Si02
#       8
#     8   8   8   8   8   8   8   8
#     4   9  18  32  50  75 111 151 187 221 269 329
#     4  11  22  32  49  82 114 146 185 226 275 330
#     4   9  21  40  58  78 102 137 181 233 285 339
#     4  10  20  35  59  85 106 137 186 242 288 334
#     4   9  16  32  50  71 107 145 179 218 266 323
#     4   8  14  26  46  73 107 146 182 213 251 312
#     4   8  14  26  48  73  99 135 176 219 264 314
#     4  11  21  36  56  82 110 148 184 229 286 340
#
# _framework density 18.536536999999999
#
# number of rings (size 3 to 8) (size 9 to 14) (size 15 to 20)
#    0.000    2.625    2.500    1.500    0.000    5.000 
#    0.000    0.000    0.000    3.000    0.000    0.000 
#    0.000    0.000    0.000    0.000    0.000    0.000 
#
# Total GULP energy -792924.204547 kJ/mol
# GULP energy per Si atom -12389.440696 kJ/mol
# Density = 1.849435 g / cm^3
# Si number density = 18.536537 Si / 1000 Ang^3
#
#
#
# Elastic Constant Matrix: (Units=GPa)
#
#
# Indices 1 2 3 4 5 6 
#
# 1 85.7022 51.1831 40.9796 0.0000 0.0000 0.0000
# 2 51.1831 85.7020 40.9796 0.0000 0.0000 0.0000
# 3 40.9796 40.9796 56.2177 0.0000 0.0000 0.0000
# 4 0.0000 0.0000 0.0000 22.2191 0.0000 0.0000
# 5 0.0000 0.0000 0.0000 0.0000 22.2197 0.0000
# 6 0.0000 0.0000 0.0000 0.0000 0.0000 34.0552
#
#
#
# Elastic Compliance Matrix: (Units=1/GPa)
#
#
# Indices 1 2 3 4 5 6 
#
# 1 0.020966 -0.008003 -0.009449 0.000000 0.000000 0.000000
# 2 -0.008003 0.020966 -0.009449 0.000000 0.000000 0.000000
# 3 -0.009449 -0.009449 0.031564 0.000000 0.000000 0.000000
# 4 0.000000 0.000000 0.000000 0.045006 0.000000 0.000000
# 5 0.000000 0.000000 0.000000 0.000000 0.045005 0.000000
# 6 0.000000 0.000000 0.000000 0.000000 0.000000 0.029364
#
#
# Mechanical properties :
#
#
# Convention : Reuss Voigt Hill
#
# Bulk Modulus (GPa) = 50.77993 54.87851 52.82922
# Shear Modulus (GPa) = 19.74403 21.99742 20.87072
#
# Velocity S-wave (km/s) = 3.26719 3.44860 3.35912
# Velocity P-wave (km/s) = 6.45652 6.74737 6.60355
#
# Compressibility (1/GPa) = 0.01969282
#
# Stress axis : x y z
#
# Youngs Moduli (GPa) = 47.69544 47.69535 31.68146
#
# Poissons Ratio (x) = 0.38172 0.29937
# Poissons Ratio (y) = 0.38172 0.29937
# Poissons Ratio (z) = 0.45070 0.45069
#
# Static dielectric constant tensor:
#      x y z
#    x 3.598160 0.000000 0.000000 
#    y 0.000000 3.598150 0.000000 
#    z 0.000000 0.000000 3.129490 
# 
# 
# High freq. dielectric constant tensor:
#      x y z
#    x 1.717390 0.000000 0.000000 
#    y 0.000000 1.717390 0.000000 
#    z 0.000000 0.000000 1.681500 
# 
# From -- ./inp_files/2050.got.cif
#   From: 2010.03.12/outbox.cif.g09.slc.cpg/sg113_cif.got.tgz:2050.got - 2010.04.14 02:06:34.
