data_PCOD8308683
_publ_section_title
;
Structure prediction by ZEFSAII (Michael W. Deem and Ramdas Pophale) SiO2 
 PCOD8308683
Probable space group: P -4 21 M 
;
_chemical_formula_sum "Si O2"
_cell_formula_units_Z 56
_cell_length_a 14.606666
_cell_length_b 14.606666
_cell_length_c 13.275047
_cell_angle_alpha 90.000000
_cell_angle_beta 90.000000
_cell_angle_gamma 90.000000
_cell_volume 2832.293559
_symmetry_space_group_name_H-M "P -4 21 M "
_symmetry_group_IT_number 113
_symmetry_cell_setting 'tetragonal'
loop_
_space_group_symop_operation_xyz
x,y,z
y,-x,-z
-x,-y,z
-y,x,-z
1/2+x,1/2-y,-z
1/2-x,1/2+y,-z
1/2-y,1/2-x,z
1/2+y,1/2+x,z
loop_
_atom_site_type_symbol
_atom_site_label
_atom_site_fract_x
_atom_site_fract_y
_atom_site_fract_z
Si Si1 0.995620 0.355706 0.182109
Si Si2 0.238422 0.593045 0.772509
Si Si3 0.245315 0.894584 0.306784
Si Si4 0.839170 0.810628 0.909318
Si Si5 0.069823 0.132951 0.501847
Si Si6 0.474936 0.245566 0.006906
Si Si7 0.882413 0.771382 0.299555
O O1 0.893695 0.393695 0.213965
O O2 0.996668 0.343141 0.060794
O O3 0.066946 0.433055 0.211297
O O4 0.027194 0.262900 0.239038
O O5 0.159663 0.659663 0.730685
O O6 0.229598 0.500621 0.708845
O O7 0.337509 0.641415 0.757977
O O8 0.219951 0.575798 0.890250
O O9 0.339001 0.839001 0.325673
O O10 0.192785 0.855920 0.209781
O O11 0.177764 0.883436 0.400673
O O12 0.764923 0.735078 0.943536
O O13 0.807257 0.911852 0.935274
O O14 0.931356 0.796993 0.971181
O O15 0.084017 0.200826 0.409381
O O16 0.962432 0.119328 0.521797
O O17 0.808744 0.691257 0.309137
#
# Coordination Sequence:
#
# PCOD8308683 Si02
#       7
#     8   8   8   8   8   8   8
#     4  10  21  36  57  88 123 163 207 250 302 361
#     4  10  20  37  61  88 120 164 204 241 298 360
#     4  10  22  41  61  88 123 153 198 256 304 354
#     4  10  22  38  58  88 122 161 203 247 299 356
#     4  11  23  41  64  89 115 153 204 250 304 373
#     4  11  21  37  59  86 124 163 203 246 293 355
#     4  10  21  40  63  86 121 159 199 252 308 369
#
# _framework density 19.771961999999998
#
# number of rings (size 3 to 8) (size 9 to 14) (size 15 to 20)
#    0.000    1.714    1.429    3.000    2.000    2.286 
#    0.000    1.429    0.000    1.714    0.000    0.000 
#    0.000    0.000    0.000    0.000    0.000    0.000 
#
# Total GULP energy -694340.647544 kJ/mol
# GULP energy per Si atom -12398.940135 kJ/mol
# Density = 1.972696 g / cm^3
# Si number density = 19.771962 Si / 1000 Ang^3
#
#
#
# Elastic Constant Matrix: (Units=GPa)
#
#
# Indices 1 2 3 4 5 6 
#
# 1 89.3522 55.7933 46.4261 0.0000 0.0000 0.0000
# 2 55.7933 89.3533 46.4263 0.0000 0.0000 0.0000
# 3 46.4261 46.4263 106.3100 0.0000 0.0000 0.0000
# 4 0.0000 0.0000 0.0000 31.7342 0.0000 0.0000
# 5 0.0000 0.0000 0.0000 0.0000 31.7344 0.0000
# 6 0.0000 0.0000 0.0000 0.0000 0.0000 24.5672
#
#
#
# Elastic Compliance Matrix: (Units=1/GPa)
#
#
# Indices 1 2 3 4 5 6 
#
# 1 0.019679 -0.010119 -0.004175 0.000000 0.000000 0.000000
# 2 -0.010119 0.019679 -0.004175 0.000000 0.000000 0.000000
# 3 -0.004175 -0.004175 0.013053 0.000000 0.000000 0.000000
# 4 0.000000 0.000000 0.000000 0.031512 0.000000 0.000000
# 5 0.000000 0.000000 0.000000 0.000000 0.031512 0.000000
# 6 0.000000 0.000000 0.000000 0.000000 0.000000 0.040705
#
#
# Mechanical properties :
#
#
# Convention : Reuss Voigt Hill
#
# Bulk Modulus (GPa) = 64.62635 64.70075 64.66355
# Shear Modulus (GPa) = 25.22257 26.69848 25.96053
#
# Velocity S-wave (km/s) = 3.57553 3.67866 3.62746
# Velocity P-wave (km/s) = 7.05710 7.13007 7.09368
#
# Compressibility (1/GPa) = 0.01547357
#
# Stress axis : x y z
#
# Youngs Moduli (GPa) = 50.81476 50.81540 76.61041
#
# Poissons Ratio (x) = 0.51419 0.31986
# Poissons Ratio (y) = 0.51418 0.31986
# Poissons Ratio (z) = 0.21216 0.21216
#
# Static dielectric constant tensor:
#      x y z
#    x 3.707050 0.000000 0.000000 
#    y 0.000000 3.707050 0.000000 
#    z 0.000000 0.000000 3.564270 
# 
# 
# High freq. dielectric constant tensor:
#      x y z
#    x 1.773940 0.000000 0.000000 
#    y 0.000000 1.773940 0.000000 
#    z 0.000000 0.000000 1.769000 
# 
# From -- ./inp_files/1939.got.cif
#   From: 2010.03.12/outbox.cif.g09.slc.cpg/sg113_cif.got.tgz:1939.got - 2010.04.14 02:06:34.
