data_PCOD8308618
_publ_section_title
;
Structure prediction by ZEFSAII (Michael W. Deem and Ramdas Pophale) SiO2 
 PCOD8308618
Probable space group: P -4 21 M 
;
_chemical_formula_sum "Si O2"
_cell_formula_units_Z 64
_cell_length_a 20.232059
_cell_length_b 20.232059
_cell_length_c 8.356524
_cell_angle_alpha 90.000000
_cell_angle_beta 90.000000
_cell_angle_gamma 90.000000
_cell_volume 3420.627874
_symmetry_space_group_name_H-M "P -4 21 M "
_symmetry_group_IT_number 113
_symmetry_cell_setting 'tetragonal'
loop_
_space_group_symop_operation_xyz
x,y,z
y,-x,-z
-x,-y,z
-y,x,-z
1/2+x,1/2-y,-z
1/2-x,1/2+y,-z
1/2-y,1/2-x,z
1/2+y,1/2+x,z
loop_
_atom_site_type_symbol
_atom_site_label
_atom_site_fract_x
_atom_site_fract_y
_atom_site_fract_z
Si Si1 0.683290 0.997571 0.595297
Si Si2 0.001016 0.606752 0.097496
Si Si3 0.485797 0.396630 0.535758
Si Si4 0.042941 0.192124 0.209042
Si Si5 0.258343 0.991404 0.098312
Si Si6 0.175294 0.218171 0.357114
Si Si7 0.288940 0.892705 0.367098
Si Si8 0.730943 0.419797 0.622292
O O1 0.622839 0.984081 0.715218
O O2 0.744981 0.014551 0.703648
O O3 0.666890 0.058158 0.476332
O O4 0.704750 0.935243 0.486843
O O5 0.931404 0.568597 0.085303
O O6 0.060483 0.560483 0.035480
O O7 0.996702 0.670886 0.987133
O O8 0.428633 0.451626 0.558573
O O9 0.512417 0.373940 0.710970
O O10 0.458587 0.334310 0.437316
O O11 0.122910 0.195983 0.221641
O O12 0.021054 0.197998 0.024499
O O13 0.256174 0.929962 0.219624
O O14 0.244521 0.058642 0.194782
O O15 0.216335 0.283666 0.304573
O O16 0.137467 0.230469 0.524337
O O17 0.225276 0.158500 0.385355
O O18 0.335543 0.835543 0.298305
#
# Coordination Sequence:
#
# PCOD8308618 Si02
#       8
#     8   8   8   8   8   8   8   8
#     4   8  17  32  55  76 103 145 182 232 275 322
#     4  10  20  35  55  80 112 149 192 236 283 345
#     4  10  19  35  62  84 106 150 190 235 282 332
#     4   9  18  36  53  81 111 142 188 228 277 336
#     4  10  21  35  55  82 115 153 175 232 294 340
#     4  10  20  35  57  81 109 148 192 236 272 330
#     4   9  17  32  56  82 105 140 194 237 271 318
#     4  10  20  36  55  83 115 145 189 233 283 345
#
# _framework density 18.710013
#
# number of rings (size 3 to 8) (size 9 to 14) (size 15 to 20)
#    0.000    2.500    1.250    1.500    0.000    4.500 
#    2.250    3.125    0.000    8.250    0.000    0.000 
#    0.000    0.000    0.000    0.000    0.000    0.000 
#
# Total GULP energy -793269.245644 kJ/mol
# GULP energy per Si atom -12394.831963 kJ/mol
# Density = 1.866743 g / cm^3
# Si number density = 18.710013 Si / 1000 Ang^3
#
#
#
# Elastic Constant Matrix: (Units=GPa)
#
#
# Indices 1 2 3 4 5 6 
#
# 1 73.6040 22.3651 25.8669 0.0000 0.0000 0.0000
# 2 22.3651 73.6004 25.8662 0.0000 0.0000 0.0000
# 3 25.8669 25.8662 84.5651 0.0000 0.0000 0.0000
# 4 0.0000 0.0000 0.0000 17.0630 0.0000 0.0000
# 5 0.0000 0.0000 0.0000 0.0000 17.0619 0.0000
# 6 0.0000 0.0000 0.0000 0.0000 0.0000 25.6144
#
#
#
# Elastic Compliance Matrix: (Units=1/GPa)
#
#
# Indices 1 2 3 4 5 6 
#
# 1 0.015997 -0.003520 -0.003817 0.000000 0.000000 0.000000
# 2 -0.003520 0.015998 -0.003817 0.000000 0.000000 0.000000
# 3 -0.003817 -0.003817 0.014160 0.000000 0.000000 0.000000
# 4 0.000000 0.000000 0.000000 0.058606 0.000000 0.000000
# 5 0.000000 0.000000 0.000000 0.000000 0.058610 0.000000
# 6 0.000000 0.000000 0.000000 0.000000 0.000000 0.039041
#
#
# Mechanical properties :
#
#
# Convention : Reuss Voigt Hill
#
# Bulk Modulus (GPa) = 41.93081 42.21846 42.07463
# Shear Modulus (GPa) = 21.48989 22.45926 21.97457
#
# Velocity S-wave (km/s) = 3.39274 3.46842 3.43079
# Velocity P-wave (km/s) = 6.14875 6.21720 6.18307
#
# Compressibility (1/GPa) = 0.02384881
#
# Stress axis : x y z
#
# Youngs Moduli (GPa) = 62.51176 62.50872 70.62118
#
# Poissons Ratio (x) = 0.22001 0.26953
# Poissons Ratio (y) = 0.22002 0.26954
# Poissons Ratio (z) = 0.23858 0.23858
#
# Static dielectric constant tensor:
#      x y z
#    x 3.452500 0.000000 0.000000 
#    y 0.000000 3.452500 0.000000 
#    z 0.000000 0.000000 3.594690 
# 
# 
# High freq. dielectric constant tensor:
#      x y z
#    x 1.722000 0.000000 0.000000 
#    y 0.000000 1.722000 0.000000 
#    z 0.000000 0.000000 1.711050 
# 
# From -- ./inp_files/1378.got.cif
#   From: 2010.03.12/outbox.cif.g09.slc.cpg/sg113_cif.got.tgz:1378.got - 2010.04.14 02:06:34.
