data_PCOD8308005
_publ_section_title
;
Structure prediction by ZEFSAII (Michael W. Deem and Ramdas Pophale) SiO2 
 PCOD8308005
Probable space group: I 41 C D
;
_chemical_formula_sum "Si O2"
_cell_formula_units_Z 112
_cell_length_a 14.617222
_cell_length_b 14.617222
_cell_length_c 24.256710
_cell_angle_alpha 90.000000
_cell_angle_beta 90.000000
_cell_angle_gamma 90.000000
_cell_volume 5182.765771
_symmetry_space_group_name_H-M "I 41 C D"
_symmetry_group_IT_number 110
_symmetry_cell_setting 'tetragonal'
loop_
_space_group_symop_operation_xyz
x,y,z
-y,1/2+x,1/4+z
-x,-y,z
y,1/2-x,1/4+z
-x,y,1/2+z
x,-y,1/2+z
1/2-y,-x,1/4+z
1/2+y,x,1/4+z
1/2+x,1/2+y,1/2+z
1/2-y,x,3/4+z
1/2-x,1/2-y,1/2+z
1/2+y,-x,3/4+z
1/2-x,1/2+y,z
1/2+x,1/2-y,z
-y,1/2-x,3/4+z
y,1/2+x,3/4+z
loop_
_atom_site_type_symbol
_atom_site_label
_atom_site_fract_x
_atom_site_fract_y
_atom_site_fract_z
Si Si1 0.523146 0.368867 0.710320
Si Si2 0.548099 0.412367 0.586131
Si Si3 0.288882 0.702445 0.712948
Si Si4 0.735211 0.092568 0.320077
Si Si5 0.828816 0.141405 0.673998
Si Si6 0.060832 0.921582 0.327706
Si Si7 0.451592 0.230454 0.377513
O O1 0.534605 0.420345 0.652329
O O2 0.600267 0.288481 0.712643
O O3 0.417257 0.338655 0.712976
O O4 0.548583 0.433385 0.761728
O O5 0.500000 0.500000 0.558261
O O6 0.502608 0.321098 0.559682
O O7 0.657734 0.422722 0.579152
O O8 0.248411 0.657623 0.768048
O O9 0.253020 0.804985 0.703888
O O10 0.252410 0.637432 0.664354
O O11 0.679102 0.152888 0.363108
O O12 0.833655 0.063166 0.344222
O O13 0.802985 0.034786 0.666918
O O14 0.022055 0.823588 0.346687
O O15 0.000000 0.000000 0.356895
#
# Coordination Sequence:
#
# PCOD8308005 Si02
#       7
#    16  16  16  16  16  16  16
#     4   9  21  38  66  88 120 169 217 249 320 386
#     4  10  18  38  67  89 119 163 217 264 306 384
#     4  10  23  42  60  94 133 161 213 273 314 388
#     4  10  22  42  63  93 127 166 214 262 330 376
#     4  11  22  41  67  93 126 172 213 268 316 390
#     4  11  24  41  62  94 133 168 210 268 328 385
#     4  11  23  40  64  97 126 167 222 262 319 396
#
# _framework density 21.610084000000001
#
# number of rings (size 3 to 8) (size 9 to 14) (size 15 to 20)
#    0.000    1.714    4.286    0.429    6.000    3.429 
#    5.143    0.714    0.000    0.000    0.000    0.000 
#    0.000    0.000    0.000    0.000    0.000    0.000 
#
# Total GULP energy -693905.331744 kJ/mol
# GULP energy per Si atom -12391.166638 kJ/mol
# Density = 2.156090 g / cm^3
# Si number density = 21.610084 Si / 1000 Ang^3
#
#
#
# Elastic Constant Matrix: (Units=GPa)
#
#
# Indices 1 2 3 4 5 6 
#
# 1 129.4604 49.6294 -0.2737 0.0000 0.0000 0.0000
# 2 49.6294 129.4604 -0.2737 0.0000 0.0000 0.0000
# 3 -0.2737 -0.2737 27.6689 0.0000 0.0000 0.0000
# 4 0.0000 0.0000 0.0000 15.8064 0.0000 0.0000
# 5 0.0000 0.0000 0.0000 0.0000 15.8064 0.0000
# 6 0.0000 0.0000 0.0000 0.0000 0.0000 40.7728
#
#
#
# Elastic Compliance Matrix: (Units=1/GPa)
#
#
# Indices 1 2 3 4 5 6 
#
# 1 0.009055 -0.003471 0.000055 0.000000 0.000000 0.000000
# 2 -0.003471 0.009055 0.000055 0.000000 0.000000 0.000000
# 3 0.000055 0.000055 0.036143 0.000000 0.000000 0.000000
# 4 0.000000 0.000000 0.000000 0.063266 0.000000 0.000000
# 5 0.000000 0.000000 0.000000 0.000000 0.063266 0.000000
# 6 0.000000 0.000000 0.000000 0.000000 0.000000 0.024526
#
#
# Mechanical properties :
#
#
# Convention : Reuss Voigt Hill
#
# Bulk Modulus (GPa) = 21.03863 42.75042 31.89452
# Shear Modulus (GPa) = 21.94177 30.31096 26.12636
#
# Velocity S-wave (km/s) = 3.18991 3.74923 3.48082
# Velocity P-wave (km/s) = 4.82950 6.21031 5.56291
#
# Compressibility (1/GPa) = 0.04753161
#
# Stress axis : x y z
#
# Youngs Moduli (GPa) = 110.43369 110.43369 27.66807
#
# Poissons Ratio (x) = 0.38334 -0.00153
# Poissons Ratio (y) = 0.38334 -0.00153
# Poissons Ratio (z) = -0.00610 -0.00610
#
# Static dielectric constant tensor:
#      x y z
#    x 4.083240 0.000000 0.000000 
#    y 0.000000 4.083240 0.000000 
#    z 0.000000 0.000000 3.582450 
# 
# 
# High freq. dielectric constant tensor:
#      x y z
#    x 1.851430 0.000000 0.000000 
#    y 0.000000 1.851430 0.000000 
#    z 0.000000 0.000000 1.818260 
# 
# From -- ./inp_files/2668.got.cif
#   From: 2010.03.12/outbox.cif.g09.slc.cpg/sg110_2_cif.got.tgz:2668.got - 2010.04.14 01:58:01.
