data_PCOD8308236
_publ_section_title
;
Structure prediction by ZEFSAII (Michael W. Deem and Ramdas Pophale) SiO2 
 PCOD8308236
Probable space group: P -4 2 M 
;
_chemical_formula_sum "Si O2"
_cell_formula_units_Z 36
_cell_length_a 16.181539
_cell_length_b 16.181539
_cell_length_c 7.493202
_cell_angle_alpha 90.000000
_cell_angle_beta 90.000000
_cell_angle_gamma 90.000000
_cell_volume 1962.036530
_symmetry_space_group_name_H-M "P -4 2 M "
_symmetry_group_IT_number 111
_symmetry_cell_setting 'tetragonal'
loop_
_space_group_symop_operation_xyz
x,y,z
y,-x,-z
-x,-y,z
-y,x,-z
x,-y,-z
-x,y,-z
-y,-x,z
y,x,z
loop_
_atom_site_type_symbol
_atom_site_label
_atom_site_fract_x
_atom_site_fract_y
_atom_site_fract_z
Si Si1 0.742907 0.992847 0.702119
Si Si2 0.403940 0.729410 0.504509
Si Si3 0.309596 0.825240 0.795163
Si Si4 0.000000 0.130286 0.000000
Si Si5 0.312871 0.180371 0.794596
O O1 0.818333 0.971339 0.830487
O O2 0.683087 0.913910 0.723662
O O3 0.774366 0.000000 0.500000
O O4 0.699795 0.077310 0.762253
O O5 0.500000 0.709983 0.500000
O O6 0.356960 0.643041 0.532841
O O7 0.380817 0.791190 0.666178
O O8 0.381001 0.769890 0.315657
O O9 0.223120 0.776881 0.756901
O O10 0.337957 0.813221 0.998521
O O11 0.076627 0.076627 0.066340
O O12 0.222575 0.222575 0.762160
#
# Coordination Sequence:
#
# PCOD8308236 Si02
#       5
#     8   8   8   4   8
#     4  12  21  33  57  83 113 153 203 244 288 333
#     4  10  22  40  63  91 118 144 182 232 289 356
#     4  10  20  36  58  83 114 156 200 239 281 336
#     4  11  24  36  48  76 117 158 202 252 295 330
#     4  10  20  36  58  83 114 156 200 239 281 336
#
# _framework density 18.348284
#
# number of rings (size 3 to 8) (size 9 to 14) (size 15 to 20)
#    0.000    1.444    4.444    1.333    0.000    3.778 
#    0.000    3.333    0.000    2.667    0.000    6.222 
#    0.000    0.000    0.000    0.000    0.000    0.000 
#
# Total GULP energy -446408.730919 kJ/mol
# GULP energy per Si atom -12400.242526 kJ/mol
# Density = 1.830652 g / cm^3
# Si number density = 18.348284 Si / 1000 Ang^3
#
#
#
# Elastic Constant Matrix: (Units=GPa)
#
#
# Indices 1 2 3 4 5 6 
#
# 1 112.7199 34.7603 29.2237 0.0000 0.0000 0.0000
# 2 34.7603 112.7195 29.2233 0.0000 0.0000 0.0000
# 3 29.2237 29.2233 137.0815 0.0000 0.0000 0.0000
# 4 0.0000 0.0000 0.0000 22.8385 0.0000 0.0000
# 5 0.0000 0.0000 0.0000 0.0000 22.8381 0.0000
# 6 0.0000 0.0000 0.0000 0.0000 0.0000 10.5513
#
#
#
# Elastic Compliance Matrix: (Units=1/GPa)
#
#
# Indices 1 2 3 4 5 6 
#
# 1 0.010117 -0.002710 -0.001579 0.000000 0.000000 0.000000
# 2 -0.002710 0.010117 -0.001579 0.000000 0.000000 0.000000
# 3 -0.001579 -0.001579 0.007968 0.000000 0.000000 0.000000
# 4 0.000000 0.000000 0.000000 0.043786 0.000000 0.000000
# 5 0.000000 0.000000 0.000000 0.000000 0.043787 0.000000
# 6 0.000000 0.000000 0.000000 0.000000 0.000000 0.094775
#
#
# Mechanical properties :
#
#
# Convention : Reuss Voigt Hill
#
# Bulk Modulus (GPa) = 60.73443 60.99284 60.86363
# Shear Modulus (GPa) = 21.95157 29.19981 25.57569
#
# Velocity S-wave (km/s) = 3.46263 3.99359 3.73755
# Velocity P-wave (km/s) = 7.01136 7.38775 7.20201
#
# Compressibility (1/GPa) = 0.01646513
#
# Stress axis : x y z
#
# Youngs Moduli (GPa) = 98.84612 98.84585 125.50011
#
# Poissons Ratio (x) = 0.26792 0.19815
# Poissons Ratio (y) = 0.26792 0.19815
# Poissons Ratio (z) = 0.15607 0.15607
#
# Static dielectric constant tensor:
#      x y z
#    x 3.226620 0.000000 0.000000 
#    y 0.000000 3.226620 0.000000 
#    z 0.000000 0.000000 3.786300 
# 
# 
# High freq. dielectric constant tensor:
#      x y z
#    x 1.692410 0.000000 0.000000 
#    y 0.000000 1.692410 0.000000 
#    z 0.000000 0.000000 1.733560 
# 
# From -- ./inp_files/1392.got.cif
#   From: 2010.03.12/outbox.cif.g09.slc.cpg/sg111_1_cif.got.tgz:1392.got - 2010.04.14 01:59:48.
