data_PCOD8308673
_publ_section_title
;
Structure prediction by ZEFSAII (Michael W. Deem and Ramdas Pophale) SiO2 
 PCOD8308673
Probable space group: P -4 21 M 
;
_chemical_formula_sum "Si O2"
_cell_formula_units_Z 56
_cell_length_a 13.895321
_cell_length_b 13.895321
_cell_length_c 15.673449
_cell_angle_alpha 90.000000
_cell_angle_beta 90.000000
_cell_angle_gamma 90.000000
_cell_volume 3026.228682
_symmetry_space_group_name_H-M "P -4 21 M "
_symmetry_group_IT_number 113
_symmetry_cell_setting 'tetragonal'
loop_
_space_group_symop_operation_xyz
x,y,z
y,-x,-z
-x,-y,z
-y,x,-z
1/2+x,1/2-y,-z
1/2-x,1/2+y,-z
1/2-y,1/2-x,z
1/2+y,1/2+x,z
loop_
_atom_site_type_symbol
_atom_site_label
_atom_site_fract_x
_atom_site_fract_y
_atom_site_fract_z
Si Si1 0.594858 0.622756 0.993383
Si Si2 0.306837 0.959827 0.257585
Si Si3 0.610581 0.524941 0.267261
Si Si4 0.187524 0.158704 0.812836
Si Si5 0.130249 0.781022 0.833850
Si Si6 0.500282 0.158013 0.448343
Si Si7 0.643272 0.506854 0.463636
O O1 0.655377 0.649719 0.909750
O O2 0.625310 0.518220 0.028294
O O3 0.617220 0.698654 0.066561
O O4 0.411168 0.911168 0.241962
O O5 0.222982 0.882718 0.244251
O O6 0.298904 0.999836 0.353369
O O7 0.294020 0.047214 0.192576
O O8 0.500000 0.500000 0.246888
O O9 0.684982 0.447071 0.228374
O O10 0.630032 0.625791 0.224031
O O11 0.630646 0.537157 0.366388
O O12 0.294965 0.205036 0.810781
O O13 0.233295 0.733295 0.819856
O O14 0.595948 0.095948 0.464805
O O15 0.497845 0.244581 0.515483
O O16 0.405480 0.094521 0.462646
O O17 0.589832 0.405129 0.478468
#
# Coordination Sequence:
#
# PCOD8308673 Si02
#       7
#     8   8   8   8   8   8   8
#     4  11  20  38  62  87 118 155 191 242 293 344
#     4  10  20  36  59  88 121 153 191 243 298 349
#     4  12  21  40  62  85 124 155 198 245 291 344
#     4  11  22  37  62  90 116 153 198 240 290 351
#     4  12  24  37  61  93 120 155 198 243 294 348
#     4  10  22  40  60  84 118 158 199 242 290 349
#     4  11  22  37  59  86 120 157 194 243 296 345
#
# _framework density 18.504881000000001
#
# number of rings (size 3 to 8) (size 9 to 14) (size 15 to 20)
#    0.000    1.000    5.714    2.571    0.000    2.571 
#    0.000    0.000    0.000    0.429    0.000    0.000 
#    0.000    0.000    0.000    0.000    0.000    0.000 
#
# Total GULP energy -694623.267358 kJ/mol
# GULP energy per Si atom -12403.986917 kJ/mol
# Density = 1.846276 g / cm^3
# Si number density = 18.504881 Si / 1000 Ang^3
#
#
#
# Elastic Constant Matrix: (Units=GPa)
#
#
# Indices 1 2 3 4 5 6 
#
# 1 99.1999 51.9820 29.8947 0.0000 0.0000 0.0000
# 2 51.9820 99.2010 29.8951 0.0000 0.0000 0.0000
# 3 29.8947 29.8951 71.1882 0.0000 0.0000 0.0000
# 4 0.0000 0.0000 0.0000 25.1049 0.0000 0.0000
# 5 0.0000 0.0000 0.0000 0.0000 25.1039 0.0000
# 6 0.0000 0.0000 0.0000 0.0000 0.0000 31.8078
#
#
#
# Elastic Compliance Matrix: (Units=1/GPa)
#
#
# Indices 1 2 3 4 5 6 
#
# 1 0.014555 -0.006623 -0.003331 0.000000 0.000000 0.000000
# 2 -0.006623 0.014555 -0.003331 0.000000 0.000000 0.000000
# 3 -0.003331 -0.003331 0.016845 0.000000 0.000000 0.000000
# 4 0.000000 0.000000 0.000000 0.039833 0.000000 0.000000
# 5 0.000000 0.000000 0.000000 0.000000 0.039834 0.000000
# 6 0.000000 0.000000 0.000000 0.000000 0.000000 0.031439
#
#
# Mechanical properties :
#
#
# Convention : Reuss Voigt Hill
#
# Bulk Modulus (GPa) = 51.58658 54.79252 53.18955
# Shear Modulus (GPa) = 26.30297 26.92448 26.61372
#
# Velocity S-wave (km/s) = 3.77425 3.81858 3.79648
# Velocity P-wave (km/s) = 6.85062 7.00829 6.92990
#
# Compressibility (1/GPa) = 0.01938489
#
# Stress axis : x y z
#
# Youngs Moduli (GPa) = 68.70460 68.70515 59.36533
#
# Poissons Ratio (x) = 0.45505 0.19774
# Poissons Ratio (y) = 0.45504 0.19774
# Poissons Ratio (z) = 0.22885 0.22885
#
# Static dielectric constant tensor:
#      x y z
#    x 3.471720 0.000000 0.000000 
#    y 0.000000 3.471720 0.000000 
#    z 0.000000 0.000000 3.400310 
# 
# 
# High freq. dielectric constant tensor:
#      x y z
#    x 1.713630 0.000000 0.000000 
#    y 0.000000 1.713630 0.000000 
#    z 0.000000 0.000000 1.724610 
# 
# From -- ./inp_files/2299.got.cif
#   From: 2010.03.12/outbox.cif.g09.slc.cpg/sg113_cif.got.tgz:2299.got - 2010.04.14 02:06:34.
