data_PCOD8308480
_publ_section_title
;
Structure prediction by ZEFSAII (Michael W. Deem and Ramdas Pophale) SiO2 
 PCOD8308480
Probable space group: P -4 2 C
;
_chemical_formula_sum "Si O2"
_cell_formula_units_Z 40
_cell_length_a 14.741640
_cell_length_b 14.741640
_cell_length_c 8.828622
_cell_angle_alpha 90.000000
_cell_angle_beta 90.000000
_cell_angle_gamma 90.000000
_cell_volume 1918.600376
_symmetry_space_group_name_H-M "P -4 2 C"
_symmetry_group_IT_number 112
_symmetry_cell_setting 'tetragonal'
loop_
_space_group_symop_operation_xyz
x,y,z
y,-x,-z
-x,-y,z
-y,x,-z
x,-y,1/2-z
-x,y,1/2-z
-y,-x,1/2+z
y,x,1/2+z
loop_
_atom_site_type_symbol
_atom_site_label
_atom_site_fract_x
_atom_site_fract_y
_atom_site_fract_z
Si Si1 0.083234 0.589915 0.631862
Si Si2 0.827890 0.408990 0.919484
Si Si3 0.770501 0.881964 0.902234
Si Si4 0.629329 0.525055 0.574241
Si Si5 0.239021 0.914271 0.938775
O O1 0.171497 0.612919 0.738125
O O2 0.097029 0.489833 0.557925
O O3 0.076142 0.658477 0.494986
O O4 0.000000 0.597134 0.750000
O O5 0.729300 0.441819 0.969284
O O6 0.856672 0.322444 0.015761
O O7 0.756857 0.867333 0.724104
O O8 0.801738 0.984695 0.935939
O O9 0.853784 0.819381 0.949063
O O10 0.606659 0.439143 0.467587
O O11 0.618300 0.500000 0.750000
#
# Coordination Sequence:
#
# PCOD8308480 Si02
#       5
#     8   8   8   8   8
#     4  11  22  43  72  98 138 178 216 280 349 403
#     4  11  23  41  69 101 128 178 225 278 341 408
#     4  11  26  45  69 103 140 178 236 280 348 408
#     4  11  24  44  61  89 129 172 222 274 334 403
#     4  11  26  45  69 103 139 183 226 292 339 417
#
# _framework density 20.848531999999999
#
# number of rings (size 3 to 8) (size 9 to 14) (size 15 to 20)
#    0.000    1.000    4.000    3.600    2.800    2.800 
#    3.600    4.000    0.000    0.000    0.000    0.000 
#    0.000    0.000    0.000    0.000    0.000    0.000 
#
# Total GULP energy -495866.541023 kJ/mol
# GULP energy per Si atom -12396.663526 kJ/mol
# Density = 2.080108 g / cm^3
# Si number density = 20.848532 Si / 1000 Ang^3
#
#
#
# Elastic Constant Matrix: (Units=GPa)
#
#
# Indices 1 2 3 4 5 6 
#
# 1 108.0113 46.9648 46.3491 0.0000 0.0000 0.0000
# 2 46.9648 108.0113 46.3491 0.0000 0.0000 0.0000
# 3 46.3491 46.3491 95.3107 0.0000 0.0000 0.0000
# 4 0.0000 0.0000 0.0000 33.7903 0.0000 0.0000
# 5 0.0000 0.0000 0.0000 0.0000 33.7903 0.0000
# 6 0.0000 0.0000 0.0000 0.0000 0.0000 32.7376
#
#
#
# Elastic Compliance Matrix: (Units=1/GPa)
#
#
# Indices 1 2 3 4 5 6 
#
# 1 0.012740 -0.003641 -0.004425 0.000000 0.000000 0.000000
# 2 -0.003641 0.012740 -0.004425 0.000000 0.000000 0.000000
# 3 -0.004425 -0.004425 0.014796 0.000000 0.000000 0.000000
# 4 0.000000 0.000000 0.000000 0.029594 0.000000 0.000000
# 5 0.000000 0.000000 0.000000 0.000000 0.029594 0.000000
# 6 0.000000 0.000000 0.000000 0.000000 0.000000 0.030546
#
#
# Mechanical properties :
#
#
# Convention : Reuss Voigt Hill
#
# Bulk Modulus (GPa) = 65.38284 65.62881 65.50582
# Shear Modulus (GPa) = 31.23237 31.50831 31.37034
#
# Velocity S-wave (km/s) = 3.87468 3.89176 3.88323
# Velocity P-wave (km/s) = 7.17262 7.19316 7.18290
#
# Compressibility (1/GPa) = 0.01529453
#
# Stress axis : x y z
#
# Youngs Moduli (GPa) = 78.49185 78.49185 67.58722
#
# Poissons Ratio (x) = 0.28577 0.29907
# Poissons Ratio (y) = 0.28577 0.29907
# Poissons Ratio (z) = 0.34733 0.34733
#
# Static dielectric constant tensor:
#      x y z
#    x 3.953910 0.000000 0.000000 
#    y 0.000000 3.953910 0.000000 
#    z 0.000000 0.000000 3.942110 
# 
# 
# High freq. dielectric constant tensor:
#      x y z
#    x 1.824180 0.000000 0.000000 
#    y 0.000000 1.824180 0.000000 
#    z 0.000000 0.000000 1.813470 
# 
# From -- ./inp_files/1260.got.cif
#   From: 2010.03.12/outbox.cif.g09.slc.cpg/sg112_1_cif.got.tgz:1260.got - 2010.04.14 02:02:48.
