data_PCOD8308853
_publ_section_title
;
Structure prediction by ZEFSAII (Michael W. Deem and Ramdas Pophale) SiO2 
 PCOD8308853
Probable space group: P -4 21 C
;
_chemical_formula_sum "Si O2"
_cell_formula_units_Z 56
_cell_length_a 11.983894
_cell_length_b 11.983894
_cell_length_c 19.670593
_cell_angle_alpha 90.000000
_cell_angle_beta 90.000000
_cell_angle_gamma 90.000000
_cell_volume 2824.966945
_symmetry_space_group_name_H-M "P -4 21 C"
_symmetry_group_IT_number 114
_symmetry_cell_setting 'tetragonal'
loop_
_space_group_symop_operation_xyz
x,y,z
y,-x,-z
-x,-y,z
-y,x,-z
1/2+x,1/2-y,1/2-z
1/2-x,1/2+y,1/2-z
1/2-y,1/2-x,1/2+z
1/2+y,1/2+x,1/2+z
loop_
_atom_site_type_symbol
_atom_site_label
_atom_site_fract_x
_atom_site_fract_y
_atom_site_fract_z
Si Si1 0.394030 0.077805 0.978143
Si Si2 0.500672 0.656772 0.462681
Si Si3 0.785934 0.364723 0.151392
Si Si4 0.758141 0.581591 0.797690
Si Si5 0.586926 0.900378 0.129552
Si Si6 0.938432 0.162149 0.187268
Si Si7 0.771850 0.530812 0.269901
O O1 0.289617 0.995582 0.966745
O O2 0.396244 0.180650 0.925408
O O3 0.500000 0.000000 0.967525
O O4 0.381906 0.131551 0.052666
O O5 0.605884 0.612427 0.506870
O O6 0.516895 0.618849 0.384935
O O7 0.664880 0.305862 0.151222
O O8 0.877981 0.281598 0.182125
O O9 0.781693 0.476023 0.196004
O O10 0.791458 0.469188 0.837521
O O11 0.676030 0.545134 0.736663
O O12 0.866469 0.642637 0.767722
O O13 0.500000 0.000000 0.127360
O O14 0.694703 0.940250 0.172240
O O15 0.854226 0.069405 0.216378
#
# Coordination Sequence:
#
# PCOD8308853 Si02
#       7
#     8   8   8   8   8   8   8
#     4  10  22  37  60  87 120 163 206 250 307 374
#     4  10  22  39  59  91 127 159 198 265 329 370
#     4  10  22  36  58  89 118 154 204 248 295 367
#     4  10  21  37  58  88 120 155 201 252 300 361
#     4   9  18  36  60  80 113 161 201 245 300 357
#     4  10  21  37  59  90 121 155 202 255 302 371
#     4  10  20  36  63  86 118 160 203 245 305 364
#
# _framework density 19.823242
#
# number of rings (size 3 to 8) (size 9 to 14) (size 15 to 20)
#    0.000    2.143    1.429    0.857    4.000    7.429 
#    0.000    1.429    0.000    0.000    0.000    0.000 
#    0.000    0.000    0.000    0.000    0.000    0.000 
#
# Total GULP energy -694464.301684 kJ/mol
# GULP energy per Si atom -12401.148244 kJ/mol
# Density = 1.977812 g / cm^3
# Si number density = 19.823242 Si / 1000 Ang^3
#
#
#
# Elastic Constant Matrix: (Units=GPa)
#
#
# Indices 1 2 3 4 5 6 
#
# 1 91.1843 36.5903 46.1988 0.0000 0.0000 0.0000
# 2 36.5903 91.1843 46.1988 0.0000 0.0000 0.0000
# 3 46.1988 46.1988 140.2452 0.0000 0.0000 0.0000
# 4 0.0000 0.0000 0.0000 29.6054 0.0000 0.0000
# 5 0.0000 0.0000 0.0000 0.0000 29.6054 0.0000
# 6 0.0000 0.0000 0.0000 0.0000 0.0000 27.7642
#
#
#
# Elastic Compliance Matrix: (Units=1/GPa)
#
#
# Indices 1 2 3 4 5 6 
#
# 1 0.014295 -0.004022 -0.003384 0.000000 0.000000 0.000000
# 2 -0.004022 0.014295 -0.003384 0.000000 0.000000 0.000000
# 3 -0.003384 -0.003384 0.009360 0.000000 0.000000 0.000000
# 4 0.000000 0.000000 0.000000 0.033778 0.000000 0.000000
# 5 0.000000 0.000000 0.000000 0.000000 0.033778 0.000000
# 6 0.000000 0.000000 0.000000 0.000000 0.000000 0.036018
#
#
# Mechanical properties :
#
#
# Convention : Reuss Voigt Hill
#
# Bulk Modulus (GPa) = 61.08709 64.50997 62.79853
# Shear Modulus (GPa) = 29.66294 30.30341 29.98318
#
# Velocity S-wave (km/s) = 3.87249 3.91408 3.89334
# Velocity P-wave (km/s) = 7.13286 7.28285 7.20825
#
# Compressibility (1/GPa) = 0.01637007
#
# Stress axis : x y z
#
# Youngs Moduli (GPa) = 69.95321 69.95321 106.83746
#
# Poissons Ratio (x) = 0.28133 0.36156
# Poissons Ratio (y) = 0.28133 0.36156
# Poissons Ratio (z) = 0.23674 0.23674
#
# Static dielectric constant tensor:
#      x y z
#    x 3.523270 0.000000 0.000000 
#    y 0.000000 3.523270 0.000000 
#    z 0.000000 0.000000 3.737910 
# 
# 
# High freq. dielectric constant tensor:
#      x y z
#    x 1.766420 0.000000 0.000000 
#    y 0.000000 1.766420 0.000000 
#    z 0.000000 0.000000 1.774260 
# 
# From -- ./inp_files/3176.got.cif
#   From: 2010.03.12/outbox.cif.g09.slc.cpg/sg114_2_cif.got.tgz:3176.got - 2010.04.14 02:08:34.
