data_PCOD8308834
_publ_section_title
;
Structure prediction by ZEFSAII (Michael W. Deem and Ramdas Pophale) SiO2 
 PCOD8308834
Probable space group: P -4 21 C
;
_chemical_formula_sum "Si O2"
_cell_formula_units_Z 48
_cell_length_a 12.080511
_cell_length_b 12.080511
_cell_length_c 17.539554
_cell_angle_alpha 90.000000
_cell_angle_beta 90.000000
_cell_angle_gamma 90.000000
_cell_volume 2559.700517
_symmetry_space_group_name_H-M "P -4 21 C"
_symmetry_group_IT_number 114
_symmetry_cell_setting 'tetragonal'
loop_
_space_group_symop_operation_xyz
x,y,z
y,-x,-z
-x,-y,z
-y,x,-z
1/2+x,1/2-y,1/2-z
1/2-x,1/2+y,1/2-z
1/2-y,1/2-x,1/2+z
1/2+y,1/2+x,1/2+z
loop_
_atom_site_type_symbol
_atom_site_label
_atom_site_fract_x
_atom_site_fract_y
_atom_site_fract_z
Si Si1 0.129261 0.017872 0.750515
Si Si2 0.412339 0.174424 0.640937
Si Si3 0.762430 0.639126 0.636874
Si Si4 0.393504 0.768803 0.735385
Si Si5 0.394079 0.932995 0.006082
Si Si6 0.047913 0.293111 0.364442
O O1 0.155092 0.145677 0.765918
O O2 0.192758 0.950295 0.815740
O O3 0.169683 0.983106 0.664674
O O4 0.000000 0.000000 0.755659
O O5 0.311936 0.254013 0.618386
O O6 0.476294 0.225544 0.714435
O O7 0.495360 0.167928 0.570018
O O8 0.372562 0.051818 0.664046
O O9 0.872308 0.678000 0.681726
O O10 0.803915 0.586692 0.558564
O O11 0.323485 0.836957 0.674399
O O12 0.500000 0.000000 0.973648
O O13 0.435506 0.815446 0.044615
#
# Coordination Sequence:
#
# PCOD8308834 Si02
#       6
#     8   8   8   8   8   8
#     4  11  21  36  59  91 121 147 195 251 299 350
#     4  10  19  39  60  83 120 156 189 242 296 348
#     4  11  22  36  61  90 118 153 198 243 297 353
#     4  10  20  36  60  86 116 150 193 241 292 347
#     4   9  21  39  57  84 117 154 199 236 283 357
#     4   9  20  39  61  79 116 164 192 234 295 353
#
# _framework density 18.752195
#
# number of rings (size 3 to 8) (size 9 to 14) (size 15 to 20)
#    0.000    2.000    3.333    1.500    0.000    5.333 
#    0.000    3.333    0.000    0.000    0.000    0.000 
#    0.000    0.000    0.000    0.000    0.000    0.000 
#
# Total GULP energy -594853.082827 kJ/mol
# GULP energy per Si atom -12392.772559 kJ/mol
# Density = 1.870951 g / cm^3
# Si number density = 18.752195 Si / 1000 Ang^3
#
#
#
# Elastic Constant Matrix: (Units=GPa)
#
#
# Indices 1 2 3 4 5 6 
#
# 1 107.8837 35.7550 52.2639 0.0000 0.0000 0.0000
# 2 35.7550 107.8837 52.2639 0.0000 0.0000 0.0000
# 3 52.2639 52.2639 91.0032 0.0000 0.0000 0.0000
# 4 0.0000 0.0000 0.0000 29.4228 0.0000 0.0000
# 5 0.0000 0.0000 0.0000 0.0000 29.4228 0.0000
# 6 0.0000 0.0000 0.0000 0.0000 0.0000 31.0768
#
#
#
# Elastic Compliance Matrix: (Units=1/GPa)
#
#
# Indices 1 2 3 4 5 6 
#
# 1 0.012912 -0.000952 -0.006869 0.000000 0.000000 0.000000
# 2 -0.000952 0.012912 -0.006869 0.000000 0.000000 0.000000
# 3 -0.006869 -0.006869 0.018879 0.000000 0.000000 0.000000
# 4 0.000000 0.000000 0.000000 0.033987 0.000000 0.000000
# 5 0.000000 0.000000 0.000000 0.000000 0.033987 0.000000
# 6 0.000000 0.000000 0.000000 0.000000 0.000000 0.032178
#
#
# Mechanical properties :
#
#
# Convention : Reuss Voigt Hill
#
# Bulk Modulus (GPa) = 65.25932 65.25958 65.25945
# Shear Modulus (GPa) = 27.87941 29.08367 28.48154
#
# Velocity S-wave (km/s) = 3.85999 3.94248 3.90145
# Velocity P-wave (km/s) = 7.39882 7.45659 7.42776
#
# Compressibility (1/GPa) = 0.01532348
#
# Stress axis : x y z
#
# Youngs Moduli (GPa) = 77.44512 77.44512 52.97010
#
# Poissons Ratio (x) = 0.07371 0.36386
# Poissons Ratio (y) = 0.07371 0.36386
# Poissons Ratio (z) = 0.53198 0.53198
#
# Static dielectric constant tensor:
#      x y z
#    x 3.619370 0.000000 0.000000 
#    y 0.000000 3.619370 0.000000 
#    z 0.000000 0.000000 3.332890 
# 
# 
# High freq. dielectric constant tensor:
#      x y z
#    x 1.733160 0.000000 0.000000 
#    y 0.000000 1.733160 0.000000 
#    z 0.000000 0.000000 1.704730 
# 
# From -- ./inp_files/2605.got.cif
#   From: 2010.03.12/outbox.cif.g09.slc.cpg/sg114_2_cif.got.tgz:2605.got - 2010.04.14 02:08:34.
