data_PCOD8308329
_publ_section_title
;
Structure prediction by ZEFSAII (Michael W. Deem and Ramdas Pophale) SiO2 
 PCOD8308329
Probable space group: P -4 2 C
;
_chemical_formula_sum "Si O2"
_cell_formula_units_Z 46
_cell_length_a 11.178955
_cell_length_b 11.178955
_cell_length_c 18.295463
_cell_angle_alpha 90.000000
_cell_angle_beta 90.000000
_cell_angle_gamma 90.000000
_cell_volume 2286.366354
_symmetry_space_group_name_H-M "P -4 2 C"
_symmetry_group_IT_number 112
_symmetry_cell_setting 'tetragonal'
loop_
_space_group_symop_operation_xyz
x,y,z
y,-x,-z
-x,-y,z
-y,x,-z
x,-y,1/2-z
-x,y,1/2-z
-y,-x,1/2+z
y,x,1/2+z
loop_
_atom_site_type_symbol
_atom_site_label
_atom_site_fract_x
_atom_site_fract_y
_atom_site_fract_z
Si Si1 0.500000 0.000000 0.750000
Si Si2 0.037997 0.373066 0.975029
Si Si3 0.153935 0.388684 0.126772
Si Si4 0.459914 0.629173 0.667323
Si Si5 0.155124 0.299828 0.621809
Si Si6 0.802933 0.431587 0.641923
Si Si7 0.000000 0.352965 0.750000
O O1 0.585956 0.082052 0.799175
O O2 0.159605 0.350277 0.928933
O O3 0.000000 0.500000 0.939620
O O4 0.928064 0.285246 0.951948
O O5 0.059480 0.391684 0.060484
O O6 0.263572 0.483477 0.118400
O O7 0.198673 0.253859 0.123827
O O8 0.500000 0.500000 0.635987
O O9 0.500000 0.648263 0.750000
O O10 0.316773 0.634033 0.668811
O O11 0.221447 0.428750 0.624131
O O12 0.072164 0.272720 0.692142
O O13 0.904520 0.432467 0.704352
#
# Coordination Sequence:
#
# PCOD8308329 Si02
#       7
#     2   8   8   8   8   8   4
#     4  12  28  44  62  98 128 198 216 270 358 428
#     4   9  21  40  60  85 125 168 219 264 320 405
#     4  12  23  43  65  91 135 174 224 269 345 426
#     4  11  22  35  58  99 140 167 204 272 349 414
#     4  10  20  37  63  89 119 168 214 278 321 385
#     4  10  19  34  56  96 130 166 211 259 338 394
#     4  10  19  32  60  93 128 163 218 268 319 394
#
# _framework density 20.119261000000002
#
# number of rings (size 3 to 8) (size 9 to 14) (size 15 to 20)
#    0.000    1.565    3.478    3.652    2.435    2.783 
#    0.000    0.000    0.000    3.130    0.000    0.000 
#    0.000    0.000    0.000    0.000    0.000    0.000 
#
# Total GULP energy -569987.319716 kJ/mol
# GULP energy per Si atom -12391.028689 kJ/mol
# Density = 2.007347 g / cm^3
# Si number density = 20.119261 Si / 1000 Ang^3
#
#
#
# Elastic Constant Matrix: (Units=GPa)
#
#
# Indices 1 2 3 4 5 6 
#
# 1 115.1527 45.0697 47.2273 0.0000 0.0000 0.0000
# 2 45.0697 115.1527 47.2273 0.0000 0.0000 0.0000
# 3 47.2273 47.2273 128.2480 0.0000 0.0000 0.0000
# 4 0.0000 0.0000 0.0000 21.6649 0.0000 0.0000
# 5 0.0000 0.0000 0.0000 0.0000 21.6649 0.0000
# 6 0.0000 0.0000 0.0000 0.0000 0.0000 28.3977
#
#
#
# Elastic Compliance Matrix: (Units=1/GPa)
#
#
# Indices 1 2 3 4 5 6 
#
# 1 0.011120 -0.003148 -0.002936 0.000000 0.000000 0.000000
# 2 -0.003148 0.011120 -0.002936 0.000000 0.000000 0.000000
# 3 -0.002936 -0.002936 0.009960 0.000000 0.000000 0.000000
# 4 0.000000 0.000000 0.000000 0.046158 0.000000 0.000000
# 5 0.000000 0.000000 0.000000 0.000000 0.046158 0.000000
# 6 0.000000 0.000000 0.000000 0.000000 0.000000 0.035214
#
#
# Mechanical properties :
#
#
# Convention : Reuss Voigt Hill
#
# Bulk Modulus (GPa) = 70.61770 70.84465 70.73117
# Shear Modulus (GPa) = 27.39886 28.94746 28.17316
#
# Velocity S-wave (km/s) = 3.69429 3.79726 3.74613
# Velocity P-wave (km/s) = 7.30567 7.38338 7.34463
#
# Compressibility (1/GPa) = 0.01416076
#
# Stress axis : x y z
#
# Youngs Moduli (GPa) = 89.92498 89.92498 100.40652
#
# Poissons Ratio (x) = 0.28312 0.29476
# Poissons Ratio (y) = 0.28312 0.29476
# Poissons Ratio (z) = 0.26399 0.26399
#
# Static dielectric constant tensor:
#      x y z
#    x 3.553520 0.000000 0.000000 
#    y 0.000000 3.553520 0.000000 
#    z 0.000000 0.000000 3.633600 
# 
# 
# High freq. dielectric constant tensor:
#      x y z
#    x 1.768420 0.000000 0.000000 
#    y 0.000000 1.768420 0.000000 
#    z 0.000000 0.000000 1.787750 
# 
# From -- ./inp_files/4163.got.cif
#   From: 2010.03.12/outbox.cif.g09.slc.cpg/sg112_3_cif.got.tgz:4163.got - 2010.04.14 02:02:48.
