data_PCOD8308554
_publ_section_title
;
Structure prediction by ZEFSAII (Michael W. Deem and Ramdas Pophale) SiO2 
 PCOD8308554
Probable space group: P -4 21 M 
;
_chemical_formula_sum "Si O2"
_cell_formula_units_Z 56
_cell_length_a 15.268336
_cell_length_b 15.268336
_cell_length_c 14.471441
_cell_angle_alpha 90.000000
_cell_angle_beta 90.000000
_cell_angle_gamma 90.000000
_cell_volume 3373.612487
_symmetry_space_group_name_H-M "P -4 21 M "
_symmetry_group_IT_number 113
_symmetry_cell_setting 'tetragonal'
loop_
_space_group_symop_operation_xyz
x,y,z
y,-x,-z
-x,-y,z
-y,x,-z
1/2+x,1/2-y,-z
1/2-x,1/2+y,-z
1/2-y,1/2-x,z
1/2+y,1/2+x,z
loop_
_atom_site_type_symbol
_atom_site_label
_atom_site_fract_x
_atom_site_fract_y
_atom_site_fract_z
Si Si1 0.289449 0.534034 0.567175
Si Si2 0.562198 0.580908 0.596944
Si Si3 0.361522 0.539300 0.099242
Si Si4 0.355849 0.999561 0.574805
Si Si5 0.519609 0.284413 0.728423
Si Si6 0.352754 0.289018 0.257745
Si Si7 0.138285 0.029879 0.105415
O O1 0.339704 0.453945 0.618571
O O2 0.354538 0.572721 0.489979
O O3 0.202275 0.499315 0.517630
O O4 0.266958 0.608220 0.641519
O O5 0.500000 0.500000 0.572564
O O6 0.520063 0.627921 0.683977
O O7 0.280871 0.529059 0.171760
O O8 0.420438 0.453289 0.108571
O O9 0.425668 0.621959 0.121219
O O10 0.320461 0.545836 0.996612
O O11 0.411388 0.911388 0.573135
O O12 0.300538 0.002933 0.669081
O O13 0.414768 0.085232 0.574598
O O14 0.623788 0.294049 0.737033
O O15 0.290499 0.209502 0.227349
O O16 0.430958 0.296956 0.182847
#
# Coordination Sequence:
#
# PCOD8308554 Si02
#       7
#     8   8   8   8   8   8   8
#     4  11  18  30  48  70  95 124 161 193 238 290
#     4  11  17  28  46  74  99 125 146 183 244 294
#     4   8  14  27  47  70  90 121 152 191 236 298
#     4  10  22  38  49  61  89 131 172 205 235 275
#     4  10  19  29  50  72  95 122 158 196 241 290
#     4  11  20  28  43  71 101 127 158 197 237 280
#     4   8  15  27  44  68  99 120 150 184 240 298
#
# _framework density 16.599416999999999
#
# number of rings (size 3 to 8) (size 9 to 14) (size 15 to 20)
#    0.000    2.143    2.857    3.429    2.000    0.000 
#    0.000    3.571    0.000    0.000    0.000   10.000 
#    0.000    2.286    0.000    0.000    0.000    0.000 
#
# Total GULP energy -694047.333392 kJ/mol
# GULP energy per Si atom -12393.702382 kJ/mol
# Density = 1.656164 g / cm^3
# Si number density = 16.599417 Si / 1000 Ang^3
#
#
#
# Elastic Constant Matrix: (Units=GPa)
#
#
# Indices 1 2 3 4 5 6 
#
# 1 74.6506 37.6891 38.4551 0.0000 0.0000 0.0000
# 2 37.6891 74.6518 38.4557 0.0000 0.0000 0.0000
# 3 38.4551 38.4557 108.0258 0.0000 0.0000 0.0000
# 4 0.0000 0.0000 0.0000 12.7011 0.0000 0.0000
# 5 0.0000 0.0000 0.0000 0.0000 12.7015 0.0000
# 6 0.0000 0.0000 0.0000 0.0000 0.0000 20.8690
#
#
#
# Elastic Compliance Matrix: (Units=1/GPa)
#
#
# Indices 1 2 3 4 5 6 
#
# 1 0.019413 -0.007642 -0.004190 0.000000 0.000000 0.000000
# 2 -0.007642 0.019412 -0.004190 0.000000 0.000000 0.000000
# 3 -0.004190 -0.004190 0.012240 0.000000 0.000000 0.000000
# 4 0.000000 0.000000 0.000000 0.078734 0.000000 0.000000
# 5 0.000000 0.000000 0.000000 0.000000 0.078731 0.000000
# 6 0.000000 0.000000 0.000000 0.000000 0.000000 0.047918
#
#
# Mechanical properties :
#
#
# Convention : Reuss Voigt Hill
#
# Bulk Modulus (GPa) = 52.57489 54.05866 53.31678
# Shear Modulus (GPa) = 16.95882 18.76953 17.86417
#
# Velocity S-wave (km/s) = 3.19980 3.36629 3.28410
# Velocity P-wave (km/s) = 6.73744 6.90988 6.82421
#
# Compressibility (1/GPa) = 0.01902049
#
# Stress axis : x y z
#
# Youngs Moduli (GPa) = 51.51318 51.51385 81.69833
#
# Poissons Ratio (x) = 0.39369 0.34231
# Poissons Ratio (y) = 0.39368 0.34231
# Poissons Ratio (z) = 0.21584 0.21584
#
# Static dielectric constant tensor:
#      x y z
#    x 3.011620 0.000000 0.000000 
#    y 0.000000 3.011620 0.000000 
#    z 0.000000 0.000000 3.451740 
# 
# 
# High freq. dielectric constant tensor:
#      x y z
#    x 1.610800 0.000000 0.000000 
#    y 0.000000 1.610800 0.000000 
#    z 0.000000 0.000000 1.650470 
# 
# From -- ./inp_files/2282.got.cif
#   From: 2010.03.12/outbox.cif.g09.slc.cpg/sg113_cif.got.tgz:2282.got - 2010.04.14 02:06:34.
