data_PCOD8308625
_publ_section_title
;
Structure prediction by ZEFSAII (Michael W. Deem and Ramdas Pophale) SiO2 
 PCOD8308625
Probable space group: P -4 21 M 
;
_chemical_formula_sum "Si O2"
_cell_formula_units_Z 56
_cell_length_a 12.298147
_cell_length_b 12.298147
_cell_length_c 20.581291
_cell_angle_alpha 90.000000
_cell_angle_beta 90.000000
_cell_angle_gamma 90.000000
_cell_volume 3112.805413
_symmetry_space_group_name_H-M "P -4 21 M "
_symmetry_group_IT_number 113
_symmetry_cell_setting 'tetragonal'
loop_
_space_group_symop_operation_xyz
x,y,z
y,-x,-z
-x,-y,z
-y,x,-z
1/2+x,1/2-y,-z
1/2-x,1/2+y,-z
1/2-y,1/2-x,z
1/2+y,1/2+x,z
loop_
_atom_site_type_symbol
_atom_site_label
_atom_site_fract_x
_atom_site_fract_y
_atom_site_fract_z
Si Si1 0.439590 0.762853 0.517664
Si Si2 0.324823 0.003052 0.652698
Si Si3 0.997443 0.322317 0.085271
Si Si4 0.104113 0.924508 0.707093
Si Si5 0.288349 0.607430 0.584688
Si Si6 0.575638 0.394740 0.852283
Si Si7 0.163551 0.033615 0.021531
O O1 0.344407 0.844407 0.501440
O O2 0.517520 0.807163 0.575115
O O3 0.390282 0.649561 0.542779
O O4 0.497650 0.749851 0.448926
O O5 0.392781 0.107220 0.677885
O O6 0.391501 0.891501 0.665091
O O7 0.211551 0.995197 0.690675
O O8 0.108058 0.391943 0.085390
O O9 0.011110 0.216870 0.131353
O O10 0.896861 0.396861 0.109833
O O11 0.971833 0.282077 0.011633
O O12 0.087744 0.823600 0.658818
O O13 0.115869 0.876280 0.779807
O O14 0.000000 0.000000 0.700714
O O15 0.191707 0.691707 0.585401
O O16 0.500000 0.500000 0.856111
O O17 0.670843 0.415501 0.905667
O O18 0.086777 0.110951 0.977115
#
# Coordination Sequence:
#
# PCOD8308625 Si02
#       7
#     8   8   8   8   8   8   8
#     4   9  19  33  54  80 103 136 177 223 278 325
#     4   9  18  35  57  79 106 139 178 227 283 333
#     4  10  21  34  54  89 117 133 170 230 283 315
#     4  10  22  35  53  78 108 146 182 222 263 315
#     4  10  21  35  52  78 109 136 176 227 267 322
#     4  10  19  38  56  75 108 149 190 213 252 325
#     4   9  15  32  57  78 104 141 177 211 251 317
#
# _framework density 17.990203999999999
#
# number of rings (size 3 to 8) (size 9 to 14) (size 15 to 20)
#    0.000    2.429    2.857    1.714    4.000    4.857 
#    0.000    1.429    0.000    1.714    0.000    0.000 
#    0.000    0.000    0.000    0.000    0.000    0.000 
#
# Total GULP energy -694038.451682 kJ/mol
# GULP energy per Si atom -12393.543780 kJ/mol
# Density = 1.794926 g / cm^3
# Si number density = 17.990204 Si / 1000 Ang^3
#
#
#
# Elastic Constant Matrix: (Units=GPa)
#
#
# Indices 1 2 3 4 5 6 
#
# 1 89.3253 29.2530 41.7442 0.0000 0.0000 0.0000
# 2 29.2530 89.3255 41.7440 0.0000 0.0000 0.0000
# 3 41.7442 41.7440 146.9009 0.0000 0.0000 0.0000
# 4 0.0000 0.0000 0.0000 22.3687 0.0000 0.0000
# 5 0.0000 0.0000 0.0000 0.0000 22.3693 0.0000
# 6 0.0000 0.0000 0.0000 0.0000 0.0000 10.5443
#
#
#
# Elastic Compliance Matrix: (Units=1/GPa)
#
#
# Indices 1 2 3 4 5 6 
#
# 1 0.013595 -0.003052 -0.002996 0.000000 0.000000 0.000000
# 2 -0.003052 0.013595 -0.002996 0.000000 0.000000 0.000000
# 3 -0.002996 -0.002996 0.008510 0.000000 0.000000 0.000000
# 4 0.000000 0.000000 0.000000 0.044705 0.000000 0.000000
# 5 0.000000 0.000000 0.000000 0.000000 0.044704 0.000000
# 6 0.000000 0.000000 0.000000 0.000000 0.000000 0.094838
#
#
# Mechanical properties :
#
#
# Convention : Reuss Voigt Hill
#
# Bulk Modulus (GPa) = 56.78046 61.22604 59.00325
# Shear Modulus (GPa) = 20.49984 25.24383 22.87183
#
# Velocity S-wave (km/s) = 3.37931 3.74999 3.56947
# Velocity P-wave (km/s) = 6.84520 7.27027 7.06093
#
# Compressibility (1/GPa) = 0.01761169
#
# Stress axis : x y z
#
# Youngs Moduli (GPa) = 73.55871 73.55906 117.50989
#
# Poissons Ratio (x) = 0.22450 0.35204
# Poissons Ratio (y) = 0.22450 0.35204
# Poissons Ratio (z) = 0.22037 0.22037
#
# Static dielectric constant tensor:
#      x y z
#    x 3.229380 0.000000 0.000000 
#    y 0.000000 3.229370 0.000000 
#    z 0.000000 0.000000 3.549230 
# 
# 
# High freq. dielectric constant tensor:
#      x y z
#    x 1.685600 0.000000 0.000000 
#    y 0.000000 1.685600 0.000000 
#    z 0.000000 0.000000 1.691340 
# 
# From -- ./inp_files/2677.got.cif
#   From: 2010.03.12/outbox.cif.g09.slc.cpg/sg113_cif.got.tgz:2677.got - 2010.04.14 02:06:34.
