data_PCOD8308548
_publ_section_title
;
Structure prediction by ZEFSAII (Michael W. Deem and Ramdas Pophale) SiO2 
 PCOD8308548
Probable space group: P -4 21 M 
;
_chemical_formula_sum "Si O2"
_cell_formula_units_Z 56
_cell_length_a 12.215817
_cell_length_b 12.215817
_cell_length_c 20.428886
_cell_angle_alpha 90.000000
_cell_angle_beta 90.000000
_cell_angle_gamma 90.000000
_cell_volume 3048.524721
_symmetry_space_group_name_H-M "P -4 21 M "
_symmetry_group_IT_number 113
_symmetry_cell_setting 'tetragonal'
loop_
_space_group_symop_operation_xyz
x,y,z
y,-x,-z
-x,-y,z
-y,x,-z
1/2+x,1/2-y,-z
1/2-x,1/2+y,-z
1/2-y,1/2-x,z
1/2+y,1/2+x,z
loop_
_atom_site_type_symbol
_atom_site_label
_atom_site_fract_x
_atom_site_fract_y
_atom_site_fract_z
Si Si1 0.959946 0.877102 0.709233
Si Si2 0.915752 0.098619 0.148067
Si Si3 0.503161 0.179170 0.905486
Si Si4 0.175747 0.846188 0.647477
Si Si5 0.333970 0.464312 0.981867
Si Si6 0.261067 0.591059 0.370306
Si Si7 0.149253 0.088362 0.493829
O O1 0.070794 0.812408 0.691583
O O2 0.914032 0.856876 0.782161
O O3 0.863288 0.842144 0.660071
O O4 0.000000 0.000000 0.696275
O O5 0.978518 0.215873 0.141425
O O6 0.823283 0.086404 0.091328
O O7 0.000000 0.000000 0.138741
O O8 0.395569 0.104432 0.907587
O O9 0.607450 0.107450 0.880017
O O10 0.530455 0.219294 0.979535
O O11 0.269544 0.769544 0.674800
O O12 0.153038 0.819610 0.571394
O O13 0.224664 0.968083 0.655966
O O14 0.385696 0.585429 0.976671
O O15 0.147056 0.647056 0.346787
O O16 0.260865 0.599572 0.449232
O O17 0.037843 0.134376 0.525696
#
# Coordination Sequence:
#
# PCOD8308548 Si02
#       7
#     8   8   8   8   8   8   8
#     4   9  19  35  54  75 102 143 187 222 255 317
#     4  10  18  36  57  77 106 144 192 223 256 317
#     4  10  21  35  54  85 118 142 171 222 283 327
#     4  10  19  33  53  79 108 138 176 228 278 317
#     4   9  15  31  54  79 103 139 181 218 257 311
#     4  10  19  32  51  77 107 141 178 220 273 330
#     4   9  15  28  53  79 101 133 183 229 269 316
#
# _framework density 18.369539
#
# number of rings (size 3 to 8) (size 9 to 14) (size 15 to 20)
#    0.000    2.429    4.286    0.429    0.000    3.143 
#    0.000    7.143    0.000    0.429    0.000    0.000 
#    0.000    0.000    0.000    0.000    0.000    0.000 
#
# Total GULP energy -693744.152901 kJ/mol
# GULP energy per Si atom -12388.288445 kJ/mol
# Density = 1.832773 g / cm^3
# Si number density = 18.369539 Si / 1000 Ang^3
#
#
#
# Elastic Constant Matrix: (Units=GPa)
#
#
# Indices 1 2 3 4 5 6 
#
# 1 85.3807 51.4043 32.2044 0.0000 0.0000 0.0000
# 2 51.4043 85.3801 32.2043 0.0000 0.0000 0.0000
# 3 32.2044 32.2043 95.3188 0.0000 0.0000 0.0000
# 4 0.0000 0.0000 0.0000 13.7566 0.0000 0.0000
# 5 0.0000 0.0000 0.0000 0.0000 13.7563 0.0000
# 6 0.0000 0.0000 0.0000 0.0000 0.0000 24.0563
#
#
#
# Elastic Compliance Matrix: (Units=1/GPa)
#
#
# Indices 1 2 3 4 5 6 
#
# 1 0.019063 -0.010369 -0.002937 0.000000 0.000000 0.000000
# 2 -0.010369 0.019063 -0.002937 0.000000 0.000000 0.000000
# 3 -0.002937 -0.002937 0.012476 0.000000 0.000000 0.000000
# 4 0.000000 0.000000 0.000000 0.072692 0.000000 0.000000
# 5 0.000000 0.000000 0.000000 0.000000 0.072694 0.000000
# 6 0.000000 0.000000 0.000000 0.000000 0.000000 0.041569
#
#
# Mechanical properties :
#
#
# Convention : Reuss Voigt Hill
#
# Bulk Modulus (GPa) = 55.20463 55.30061 55.25262
# Shear Modulus (GPa) = 18.11047 20.33162 19.22105
#
# Velocity S-wave (km/s) = 3.14331 3.33049 3.23825
# Velocity P-wave (km/s) = 6.57962 6.70518 6.64269
#
# Compressibility (1/GPa) = 0.01811442
#
# Stress axis : x y z
#
# Youngs Moduli (GPa) = 52.45739 52.45708 80.15457
#
# Poissons Ratio (x) = 0.54394 0.23544
# Poissons Ratio (y) = 0.54395 0.23544
# Poissons Ratio (z) = 0.15408 0.15408
#
# Static dielectric constant tensor:
#      x y z
#    x 3.233750 0.000000 0.000000 
#    y 0.000000 3.233760 0.000000 
#    z 0.000000 0.000000 3.480740 
# 
# 
# High freq. dielectric constant tensor:
#      x y z
#    x 1.689570 0.000000 0.000000 
#    y 0.000000 1.689570 0.000000 
#    z 0.000000 0.000000 1.708320 
# 
# From -- ./inp_files/2837.got.cif
#   From: 2010.03.12/outbox.cif.g09.slc.cpg/sg113_cif.got.tgz:2837.got - 2010.04.14 02:06:34.
