data_PCOD8308392
_publ_section_title
;
Structure prediction by ZEFSAII (Michael W. Deem and Ramdas Pophale) SiO2 
 PCOD8308392
Probable space group: P -4 2 C
;
_chemical_formula_sum "Si O2"
_cell_formula_units_Z 50
_cell_length_a 9.070316
_cell_length_b 9.070316
_cell_length_c 29.904317
_cell_angle_alpha 90.000000
_cell_angle_beta 90.000000
_cell_angle_gamma 90.000000
_cell_volume 2460.247069
_symmetry_space_group_name_H-M "P -4 2 C"
_symmetry_group_IT_number 112
_symmetry_cell_setting 'tetragonal'
loop_
_space_group_symop_operation_xyz
x,y,z
y,-x,-z
-x,-y,z
-y,x,-z
x,-y,1/2-z
-x,y,1/2-z
-y,-x,1/2+z
y,x,1/2+z
loop_
_atom_site_type_symbol
_atom_site_label
_atom_site_fract_x
_atom_site_fract_y
_atom_site_fract_z
Si Si1 0.812190 0.668125 0.878087
Si Si2 0.533471 0.733084 0.992653
Si Si3 0.930705 0.712091 0.556625
Si Si4 0.733428 0.664145 0.636492
Si Si5 0.000000 0.000000 0.500000
Si Si6 0.327020 0.980970 0.298875
Si Si7 0.474183 0.831332 0.604806
O O1 0.732431 0.511911 0.870355
O O2 0.696979 0.795506 0.889095
O O3 0.924359 0.645850 0.919353
O O4 0.896606 0.727665 0.834036
O O5 0.478025 0.797802 0.945858
O O6 0.659264 0.609171 0.983839
O O7 0.592009 0.868004 0.022030
O O8 0.810183 0.745744 0.594593
O O9 0.969063 0.861645 0.531387
O O10 0.817823 0.707582 0.682177
O O11 0.568176 0.727496 0.638465
O O12 0.500000 0.000000 0.294260
O O13 0.251503 0.000000 0.250000
O O14 0.500000 0.000000 0.617331
#
# Coordination Sequence:
#
# PCOD8308392 Si02
#       7
#     8   8   8   8   2   8   8
#     4  10  22  39  65  88 121 156 201 254 311 374
#     4  11  24  40  60  86 116 163 215 262 302 362
#     4  11  23  39  58  83 117 159 205 257 302 350
#     4  10  21  40  62  90 119 158 199 253 311 365
#     4  12  28  36  52  88 118 168 208 260 292 360
#     4   8  16  36  68  99 119 148 197 256 312 373
#     4  12  26  39  58  86 122 167 204 254 307 368
#
# _framework density 20.323160999999999
#
# number of rings (size 3 to 8) (size 9 to 14) (size 15 to 20)
#    0.000    1.600    1.600    3.840    6.720    3.840 
#    0.000    0.800    0.000    6.720    0.000    0.000 
#    0.000    0.000    0.000    0.000    0.000    0.000 
#
# Total GULP energy -620047.571630 kJ/mol
# GULP energy per Si atom -12400.951433 kJ/mol
# Density = 2.027690 g / cm^3
# Si number density = 20.323161 Si / 1000 Ang^3
#
#
#
# Elastic Constant Matrix: (Units=GPa)
#
#
# Indices 1 2 3 4 5 6 
#
# 1 100.2488 45.7627 36.5001 0.0000 0.0000 0.0000
# 2 45.7627 100.2488 36.5001 0.0000 0.0000 0.0000
# 3 36.5001 36.5001 114.0487 0.0000 0.0000 0.0000
# 4 0.0000 0.0000 0.0000 12.5524 0.0000 0.0000
# 5 0.0000 0.0000 0.0000 0.0000 12.5524 0.0000
# 6 0.0000 0.0000 0.0000 0.0000 0.0000 33.6984
#
#
#
# Elastic Compliance Matrix: (Units=1/GPa)
#
#
# Indices 1 2 3 4 5 6 
#
# 1 0.013253 -0.005100 -0.002609 0.000000 0.000000 0.000000
# 2 -0.005100 0.013253 -0.002609 0.000000 0.000000 0.000000
# 3 -0.002609 -0.002609 0.010438 0.000000 0.000000 0.000000
# 4 0.000000 0.000000 0.000000 0.079666 0.000000 0.000000
# 5 0.000000 0.000000 0.000000 0.000000 0.079666 0.000000
# 6 0.000000 0.000000 0.000000 0.000000 0.000000 0.029675
#
#
# Mechanical properties :
#
#
# Convention : Reuss Voigt Hill
#
# Bulk Modulus (GPa) = 61.32128 61.34133 61.33130
# Shear Modulus (GPa) = 19.83931 24.81290 22.32610
#
# Velocity S-wave (km/s) = 3.12780 3.49795 3.31804
# Velocity P-wave (km/s) = 6.57896 6.82369 6.70244
#
# Compressibility (1/GPa) = 0.01630755
#
# Stress axis : x y z
#
# Youngs Moduli (GPa) = 75.45266 75.45266 95.80007
#
# Poissons Ratio (x) = 0.38481 0.24998
# Poissons Ratio (y) = 0.38481 0.24998
# Poissons Ratio (z) = 0.19689 0.19689
#
# Static dielectric constant tensor:
#      x y z
#    x 3.625590 0.000000 0.000000 
#    y 0.000000 3.625590 0.000000 
#    z 0.000000 0.000000 4.082180 
# 
# 
# High freq. dielectric constant tensor:
#      x y z
#    x 1.788940 0.000000 0.000000 
#    y 0.000000 1.788940 0.000000 
#    z 0.000000 0.000000 1.775370 
# 
# From -- ./inp_files/6341.got.cif
#   From: 2010.03.12/outbox.cif.g09.slc.cpg/sg112_4_cif.got.tgz:6341.got - 2010.04.14 02:02:48.
