data_PCOD8308889
_publ_section_title
;
Structure prediction by ZEFSAII (Michael W. Deem and Ramdas Pophale) SiO2 
 PCOD8308889
Probable space group: P -4 21 C
;
_chemical_formula_sum "Si O2"
_cell_formula_units_Z 40
_cell_length_a 8.888256
_cell_length_b 8.888256
_cell_length_c 25.272283
_cell_angle_alpha 90.000000
_cell_angle_beta 90.000000
_cell_angle_gamma 90.000000
_cell_volume 1996.538023
_symmetry_space_group_name_H-M "P -4 21 C"
_symmetry_group_IT_number 114
_symmetry_cell_setting 'tetragonal'
loop_
_space_group_symop_operation_xyz
x,y,z
y,-x,-z
-x,-y,z
-y,x,-z
1/2+x,1/2-y,1/2-z
1/2-x,1/2+y,1/2-z
1/2-y,1/2-x,1/2+z
1/2+y,1/2+x,1/2+z
loop_
_atom_site_type_symbol
_atom_site_label
_atom_site_fract_x
_atom_site_fract_y
_atom_site_fract_z
Si Si1 0.836775 0.315974 0.612067
Si Si2 0.661022 0.186674 0.400613
Si Si3 0.811353 0.156142 0.506252
Si Si4 0.661099 0.183792 0.209313
Si Si5 0.812898 0.335173 0.305731
O O1 0.781654 0.486623 0.608744
O O2 0.766627 0.226854 0.562474
O O3 0.779400 0.249286 0.666424
O O4 0.015615 0.297447 0.613114
O O5 0.697292 0.218678 0.462058
O O6 0.761457 0.297598 0.365188
O O7 0.977475 0.204140 0.488138
O O8 0.706312 0.240485 0.267127
O O9 0.484802 0.212197 0.202230
O O10 0.707743 0.011018 0.204387
#
# Coordination Sequence:
#
# PCOD8308889 Si02
#       5
#     8   8   8   8   8
#     4  10  21  37  58  85 116 149 187 231 278 330
#     4  10  21  37  58  85 116 149 187 231 278 330
#     4   9  18  34  56  81 112 152 192 229 274 327
#     4  11  24  40  59  84 113 146 186 231 279 333
#     4  11  24  40  59  84 113 146 186 231 279 333
#
# _framework density 20.034682
#
# number of rings (size 3 to 8) (size 9 to 14) (size 15 to 20)
#    0.000    1.800    0.000    3.600    0.000   12.000 
#    0.000    4.000    0.000    0.000    0.000    0.000 
#    0.000    0.000    0.000    0.000    0.000    0.000 
#
# Total GULP energy -496254.606378 kJ/mol
# GULP energy per Si atom -12406.365159 kJ/mol
# Density = 1.998908 g / cm^3
# Si number density = 20.034682 Si / 1000 Ang^3
#
#
#
# Elastic Constant Matrix: (Units=GPa)
#
#
# Indices 1 2 3 4 5 6 
#
# 1 47.9076 17.4823 5.1961 0.0000 0.0000 0.0000
# 2 17.4823 47.9076 5.1961 0.0000 0.0000 0.0000
# 3 5.1961 5.1961 71.6369 0.0000 0.0000 0.0000
# 4 0.0000 0.0000 0.0000 38.2594 0.0000 0.0000
# 5 0.0000 0.0000 0.0000 0.0000 38.2594 0.0000
# 6 0.0000 0.0000 0.0000 0.0000 0.0000 25.0669
#
#
#
# Elastic Compliance Matrix: (Units=1/GPa)
#
#
# Indices 1 2 3 4 5 6 
#
# 1 0.024169 -0.008698 -0.001122 0.000000 0.000000 0.000000
# 2 -0.008698 0.024169 -0.001122 0.000000 0.000000 0.000000
# 3 -0.001122 -0.001122 0.014122 0.000000 0.000000 0.000000
# 4 0.000000 0.000000 0.000000 0.026137 0.000000 0.000000
# 5 0.000000 0.000000 0.000000 0.000000 0.026137 0.000000
# 6 0.000000 0.000000 0.000000 0.000000 0.000000 0.039893
#
#
# Mechanical properties :
#
#
# Convention : Reuss Voigt Hill
#
# Bulk Modulus (GPa) = 24.64524 24.80012 24.72268
# Shear Modulus (GPa) = 26.31042 29.62232 27.96637
#
# Velocity S-wave (km/s) = 3.62780 3.84937 3.74022
# Velocity P-wave (km/s) = 5.46589 5.67118 5.56948
#
# Compressibility (1/GPa) = 0.04057579
#
# Stress axis : x y z
#
# Youngs Moduli (GPa) = 41.37483 41.37483 70.81111
#
# Poissons Ratio (x) = 0.35988 0.07946
# Poissons Ratio (y) = 0.35988 0.07946
# Poissons Ratio (z) = 0.04643 0.04643
#
# Static dielectric constant tensor:
#      x y z
#    x 3.637560 0.000000 0.000000 
#    y 0.000000 3.637560 0.000000 
#    z 0.000000 0.000000 3.707830 
# 
# 
# High freq. dielectric constant tensor:
#      x y z
#    x 1.781470 0.000000 0.000000 
#    y 0.000000 1.781470 0.000000 
#    z 0.000000 0.000000 1.796120 
# 
# From -- ./inp_files/3336.got.cif
#   From: 2010.03.12/outbox.cif.g09.slc.cpg/sg114_2_cif.got.tgz:3336.got - 2010.04.14 02:08:34.
