data_PCOD8308473
_publ_section_title
;
Structure prediction by ZEFSAII (Michael W. Deem and Ramdas Pophale) SiO2 
 PCOD8308473
Probable space group: P -4 2 C
;
_chemical_formula_sum "Si O2"
_cell_formula_units_Z 18
_cell_length_a 10.047550
_cell_length_b 10.047550
_cell_length_c 8.598982
_cell_angle_alpha 90.000000
_cell_angle_beta 90.000000
_cell_angle_gamma 90.000000
_cell_volume 868.095274
_symmetry_space_group_name_H-M "P -4 2 C"
_symmetry_group_IT_number 112
_symmetry_cell_setting 'tetragonal'
loop_
_space_group_symop_operation_xyz
x,y,z
y,-x,-z
-x,-y,z
-y,x,-z
x,-y,1/2-z
-x,y,1/2-z
-y,-x,1/2+z
y,x,1/2+z
loop_
_atom_site_type_symbol
_atom_site_label
_atom_site_fract_x
_atom_site_fract_y
_atom_site_fract_z
Si Si1 0.646532 0.143061 0.689770
Si Si2 0.239230 0.384328 0.645410
Si Si3 0.500000 0.500000 0.500000
O O1 0.500000 0.176578 0.750000
O O2 0.644416 0.146532 0.502666
O O3 0.750992 0.250948 0.752484
O O4 0.694918 0.000000 0.750000
O O5 0.171674 0.500000 0.750000
O O6 0.388099 0.430061 0.603140
#
# Coordination Sequence:
#
# PCOD8308473 Si02
#       3
#     8   8   2
#     4  11  22  37  57  92 126 155 202 262 307 360
#     4  12  20  36  63  90 123 162 201 248 310 369
#     4  12  18  28  62  96 114 156 202 240 286 388
#
# _framework density 20.735050999999999
#
# number of rings (size 3 to 8) (size 9 to 14) (size 15 to 20)
#    0.000    0.444    8.889    0.667    0.000    0.000 
#    0.000   15.556    0.000    4.000    0.000    0.000 
#    0.000    0.000    0.000    0.000    0.000    0.000 
#
# Total GULP energy -223246.337467 kJ/mol
# GULP energy per Si atom -12402.574304 kJ/mol
# Density = 2.068786 g / cm^3
# Si number density = 20.735051 Si / 1000 Ang^3
#
#
#
# Elastic Constant Matrix: (Units=GPa)
#
#
# Indices 1 2 3 4 5 6 
#
# 1 108.4319 15.3045 58.7363 0.0000 0.0000 0.0000
# 2 15.3045 108.4319 58.7363 0.0000 0.0000 0.0000
# 3 58.7363 58.7363 184.8609 0.0000 0.0000 0.0000
# 4 0.0000 0.0000 0.0000 14.8550 0.0000 0.0000
# 5 0.0000 0.0000 0.0000 0.0000 14.8550 0.0000
# 6 0.0000 0.0000 0.0000 0.0000 0.0000 1.9887
#
#
#
# Elastic Compliance Matrix: (Units=1/GPa)
#
#
# Indices 1 2 3 4 5 6 
#
# 1 0.011155 0.000417 -0.003677 0.000000 0.000000 0.000000
# 2 0.000417 0.011155 -0.003677 0.000000 0.000000 0.000000
# 3 -0.003677 -0.003677 0.007746 0.000000 0.000000 0.000000
# 4 0.000000 0.000000 0.000000 0.067318 0.000000 0.000000
# 5 0.000000 0.000000 0.000000 0.000000 0.067318 0.000000
# 6 0.000000 0.000000 0.000000 0.000000 0.000000 0.502845
#
#
# Mechanical properties :
#
#
# Convention : Reuss Voigt Hill
#
# Bulk Modulus (GPa) = 61.79230 74.14208 67.96719
# Shear Modulus (GPa) = 7.28010 24.26957 15.77483
#
# Velocity S-wave (km/s) = 1.87580 3.42491 2.76122
# Velocity P-wave (km/s) = 5.87853 7.17458 6.55864
#
# Compressibility (1/GPa) = 0.01618325
#
# Stress axis : x y z
#
# Youngs Moduli (GPa) = 89.64390 89.64390 129.09804
#
# Poissons Ratio (x) = -0.03741 0.47469
# Poissons Ratio (y) = -0.03741 0.47469
# Poissons Ratio (z) = 0.32962 0.32962
#
# Static dielectric constant tensor:
#      x y z
#    x 3.506570 0.000000 0.000000 
#    y 0.000000 3.506570 0.000000 
#    z 0.000000 0.000000 4.029900 
# 
# 
# High freq. dielectric constant tensor:
#      x y z
#    x 1.780660 0.000000 0.000000 
#    y 0.000000 1.780660 0.000000 
#    z 0.000000 0.000000 1.833770 
# 
# From -- ./inp_files/654.got.cif
#   From: 2010.03.12/outbox.cif.g09.slc.cpg/sg112_1_cif.got.tgz:654.got - 2010.04.14 02:02:48.
