data_PCOD8308088
_publ_section_title
;
Structure prediction by ZEFSAII (Michael W. Deem and Ramdas Pophale) SiO2 
 PCOD8308088
Probable space group: I 41 C D
;
_chemical_formula_sum "Si O2"
_cell_formula_units_Z 40
_cell_length_a 10.840798
_cell_length_b 10.840798
_cell_length_c 13.983299
_cell_angle_alpha 90.000000
_cell_angle_beta 90.000000
_cell_angle_gamma 90.000000
_cell_volume 1643.357868
_symmetry_space_group_name_H-M "I 41 C D"
_symmetry_group_IT_number 110
_symmetry_cell_setting 'tetragonal'
loop_
_space_group_symop_operation_xyz
x,y,z
-y,1/2+x,1/4+z
-x,-y,z
y,1/2-x,1/4+z
-x,y,1/2+z
x,-y,1/2+z
1/2-y,-x,1/4+z
1/2+y,x,1/4+z
1/2+x,1/2+y,1/2+z
1/2-y,x,3/4+z
1/2-x,1/2-y,1/2+z
1/2+y,-x,3/4+z
1/2-x,1/2+y,z
1/2+x,1/2-y,z
-y,1/2-x,3/4+z
y,1/2+x,3/4+z
loop_
_atom_site_type_symbol
_atom_site_label
_atom_site_fract_x
_atom_site_fract_y
_atom_site_fract_z
Si Si1 0.616318 0.336227 0.913040
Si Si2 0.163772 0.116319 0.124806
Si Si3 0.000000 0.000000 0.768924
O O1 0.500000 0.249999 0.893922
O O2 0.750000 0.271145 0.893924
O O3 0.609060 0.446855 0.835745
O O4 0.608197 0.391800 0.018923
O O5 0.053144 0.109060 0.202102
#
# Coordination Sequence:
#
# PCOD8308088 Si02
#       3
#    16  16   8
#     4  12  27  51  83 117 167 223 289 356 441 523
#     4  12  27  51  83 117 167 223 289 356 441 523
#     4  12  26  48  80 122 156 224 282 372 428 522
#
# _framework density 24.340408
#
# number of rings (size 3 to 8) (size 9 to 14) (size 15 to 20)
#    0.000    0.000    8.000    1.200    0.000    9.600 
#    0.000    0.000    0.000    0.000    0.000    0.000 
#    0.000    0.000    0.000    0.000    0.000    0.000 
#
# Total GULP energy -247950.319756 kJ/mol
# GULP energy per Si atom -12397.515988 kJ/mol
# Density = 2.428501 g / cm^3
# Si number density = 24.340408 Si / 1000 Ang^3
#
#
#
# Elastic Constant Matrix: (Units=GPa)
#
#
# Indices 1 2 3 4 5 6 
#
# 1 163.3102 66.5361 72.2751 0.0000 0.0000 0.0000
# 2 66.5361 163.3102 72.2751 0.0000 0.0000 0.0000
# 3 72.2751 72.2751 241.3919 0.0000 0.0000 0.0000
# 4 0.0000 0.0000 0.0000 35.3855 0.0000 0.0000
# 5 0.0000 0.0000 0.0000 0.0000 35.3855 0.0000
# 6 0.0000 0.0000 0.0000 0.0000 0.0000 49.7080
#
#
#
# Elastic Compliance Matrix: (Units=1/GPa)
#
#
# Indices 1 2 3 4 5 6 
#
# 1 0.007847 -0.002487 -0.001605 0.000000 0.000000 0.000000
# 2 -0.002487 0.007847 -0.001605 0.000000 0.000000 0.000000
# 3 -0.001605 -0.001605 0.005104 0.000000 0.000000 0.000000
# 4 0.000000 0.000000 0.000000 0.028260 0.000000 0.000000
# 5 0.000000 0.000000 0.000000 0.000000 0.028260 0.000000
# 6 0.000000 0.000000 0.000000 0.000000 0.000000 0.020117
#
#
# Mechanical properties :
#
#
# Convention : Reuss Voigt Hill
#
# Bulk Modulus (GPa) = 106.33413 110.02056 108.17734
# Shear Modulus (GPa) = 44.65791 47.89087 46.27439
#
# Velocity S-wave (km/s) = 4.28801 4.44052 4.36493
# Velocity P-wave (km/s) = 8.26421 8.46108 8.36322
#
# Compressibility (1/GPa) = 0.00940432
#
# Stress axis : x y z
#
# Youngs Moduli (GPa) = 127.44244 127.44244 195.93806
#
# Poissons Ratio (x) = 0.31691 0.31445
# Poissons Ratio (y) = 0.31691 0.31445
# Poissons Ratio (z) = 0.20453 0.20453
#
# Static dielectric constant tensor:
#      x y z
#    x 4.478590 0.000000 0.000000 
#    y 0.000000 4.478590 0.000000 
#    z 0.000000 0.000000 5.169230 
# 
# 
# High freq. dielectric constant tensor:
#      x y z
#    x 1.956660 0.000000 0.000000 
#    y 0.000000 1.956660 0.000000 
#    z 0.000000 0.000000 2.008600 
# 
# From -- ./inp_files/1075.got.cif
#   From: 2010.03.12/outbox.cif.g09.slc.cpg/sg110_1_cif.got.tgz:1075.got - 2010.04.14 01:58:01.
