data_PCOD8308162
_publ_section_title
;
Structure prediction by ZEFSAII (Michael W. Deem and Ramdas Pophale) SiO2 
 PCOD8308162
Probable space group: P -4 2 M 
;
_chemical_formula_sum "Si O2"
_cell_formula_units_Z 48
_cell_length_a 12.664071
_cell_length_b 12.664071
_cell_length_c 17.777872
_cell_angle_alpha 90.000000
_cell_angle_beta 90.000000
_cell_angle_gamma 90.000000
_cell_volume 2851.191899
_symmetry_space_group_name_H-M "P -4 2 M "
_symmetry_group_IT_number 111
_symmetry_cell_setting 'tetragonal'
loop_
_space_group_symop_operation_xyz
x,y,z
y,-x,-z
-x,-y,z
-y,x,-z
x,-y,-z
-x,y,-z
-y,-x,z
y,x,z
loop_
_atom_site_type_symbol
_atom_site_label
_atom_site_fract_x
_atom_site_fract_y
_atom_site_fract_z
Si Si1 0.613362 0.217126 0.297764
Si Si2 0.328569 0.495318 0.916288
Si Si3 0.249570 0.076380 0.437745
Si Si4 0.405101 0.226992 0.221077
Si Si5 0.780158 0.612111 0.526947
Si Si6 0.620183 0.989687 0.297189
O O1 0.695290 0.304711 0.269171
O O2 0.494267 0.257878 0.282177
O O3 0.621535 0.194492 0.385723
O O4 0.640692 0.104267 0.257634
O O5 0.424444 0.575557 0.910932
O O6 0.378188 0.378188 0.898527
O O7 0.237570 0.533602 0.858800
O O8 0.278995 0.500000 0.000000
O O9 0.165699 0.165699 0.414854
O O10 0.353585 0.118298 0.479823
O O11 0.291486 0.023150 0.361599
O O12 0.194801 0.000000 0.500000
O O13 0.304997 0.304997 0.228499
O O14 0.368899 0.105821 0.236369
O O15 0.742231 0.500000 0.500000
O O16 0.685272 0.685272 0.502820
O O17 0.500000 0.000000 0.329591
#
# Coordination Sequence:
#
# PCOD8308162 Si02
#       6
#     8   8   8   8   8   8
#     4  10  20  33  48  66  92 128 165 199 239 293
#     4   8  14  26  46  73 105 138 166 193 233 288
#     4  11  22  34  50  68  87 115 158 210 253 289
#     4  10  19  31  49  76 102 125 158 199 240 286
#     4  10  20  32  46  65  88 117 155 197 243 292
#     4  10  20  33  50  69  95 129 162 196 245 302
#
# _framework density 16.835065
#
# number of rings (size 3 to 8) (size 9 to 14) (size 15 to 20)
#    0.000    2.167    1.667    3.500    0.000    3.333 
#    0.000    1.667    0.000    6.000    0.000    0.000 
#    0.000    0.000    0.000    0.000    0.000  101.833 
#
# Total GULP energy -594660.298108 kJ/mol
# GULP energy per Si atom -12388.756211 kJ/mol
# Density = 1.679675 g / cm^3
# Si number density = 16.835065 Si / 1000 Ang^3
#
#
#
# Elastic Constant Matrix: (Units=GPa)
#
#
# Indices 1 2 3 4 5 6 
#
# 1 75.9231 26.4639 19.0056 0.0000 0.0000 0.0000
# 2 26.4639 75.9201 19.0043 0.0000 0.0000 0.0000
# 3 19.0056 19.0043 56.1893 0.0000 0.0000 0.0000
# 4 0.0000 0.0000 0.0000 16.5736 0.0000 0.0000
# 5 0.0000 0.0000 0.0000 0.0000 16.5736 0.0000
# 6 0.0000 0.0000 0.0000 0.0000 0.0000 180.0434
#
#
#
# Elastic Compliance Matrix: (Units=1/GPa)
#
#
# Indices 1 2 3 4 5 6 
#
# 1 0.015694 -0.004525 -0.003778 0.000000 0.000000 0.000000
# 2 -0.004525 0.015695 -0.003778 0.000000 0.000000 0.000000
# 3 -0.003778 -0.003778 0.020353 0.000000 0.000000 0.000000
# 4 0.000000 0.000000 0.000000 0.060337 0.000000 0.000000
# 5 0.000000 0.000000 0.000000 0.000000 0.060337 0.000000
# 6 0.000000 0.000000 0.000000 0.000000 0.000000 0.005554
#
#
# Mechanical properties :
#
#
# Convention : Reuss Voigt Hill
#
# Bulk Modulus (GPa) = 36.25802 37.44223 36.85013
# Shear Modulus (GPa) = 23.66032 52.20869 37.93450
#
# Velocity S-wave (km/s) = 3.75296 5.57487 4.75205
# Velocity P-wave (km/s) = 6.35323 7.98297 7.21427
#
# Compressibility (1/GPa) = 0.02758011
#
# Stress axis : x y z
#
# Youngs Moduli (GPa) = 63.71794 63.71599 49.13384
#
# Poissons Ratio (x) = 0.28831 0.18563
# Poissons Ratio (y) = 0.28832 0.18561
# Poissons Ratio (z) = 0.24073 0.24070
#
# Static dielectric constant tensor:
#      x y z
#    x 3.259970 0.000000 0.000000 
#    y 0.000000 3.259970 0.000000 
#    z 0.000000 0.000000 3.131680 
# 
# 
# High freq. dielectric constant tensor:
#      x y z
#    x 1.643850 0.000000 0.000000 
#    y 0.000000 1.643850 0.000000 
#    z 0.000000 0.000000 1.620180 
# 
# From -- ./inp_files/3667.got.cif
#   From: 2010.03.12/outbox.cif.g09.slc.cpg/sg111_2_cif.got.tgz:3667.got - 2010.04.14 01:59:48.
