data_PCOD8308979
_publ_section_title
;
Structure prediction by ZEFSAII (Michael W. Deem and Ramdas Pophale) SiO2 
 PCOD8308979
Probable space group: P -4 21 C
;
_chemical_formula_sum "Si O2"
_cell_formula_units_Z 40
_cell_length_a 9.098595
_cell_length_b 9.098595
_cell_length_c 23.460128
_cell_angle_alpha 90.000000
_cell_angle_beta 90.000000
_cell_angle_gamma 90.000000
_cell_volume 1942.133347
_symmetry_space_group_name_H-M "P -4 21 C"
_symmetry_group_IT_number 114
_symmetry_cell_setting 'tetragonal'
loop_
_space_group_symop_operation_xyz
x,y,z
y,-x,-z
-x,-y,z
-y,x,-z
1/2+x,1/2-y,1/2-z
1/2-x,1/2+y,1/2-z
1/2-y,1/2-x,1/2+z
1/2+y,1/2+x,1/2+z
loop_
_atom_site_type_symbol
_atom_site_label
_atom_site_fract_x
_atom_site_fract_y
_atom_site_fract_z
Si Si1 0.844309 0.318350 0.054165
Si Si2 0.102977 0.134547 0.647478
Si Si3 0.158251 0.326189 0.542524
Si Si4 0.833554 0.518793 0.774917
Si Si5 0.208790 0.669806 0.183815
O O1 0.831990 0.484562 0.032194
O O2 0.785678 0.287532 0.117615
O O3 0.014489 0.272748 0.055201
O O4 0.742568 0.223533 0.013576
O O5 0.181928 0.216912 0.595277
O O6 0.001539 0.241364 0.686745
O O7 0.236825 0.080822 0.684398
O O8 0.000000 0.000000 0.625249
O O9 0.775785 0.685457 0.779060
O O10 0.818791 0.454668 0.710385
O O11 0.000000 0.500000 0.796288
#
# Coordination Sequence:
#
# PCOD8308979 Si02
#       5
#     8   8   8   8   8
#     4  10  24  41  65  93 124 166 213 259 325 377
#     4   9  21  41  63  94 126 165 212 257 314 378
#     4  10  23  41  66  90 126 166 207 267 313 385
#     4  11  23  38  65  92 129 163 210 261 308 375
#     4  10  23  41  64  94 127 167 210 258 317 377
#
# _framework density 20.595907
#
# number of rings (size 3 to 8) (size 9 to 14) (size 15 to 20)
#    0.000    2.000    0.000    1.200   16.800    2.000 
#    0.000    0.000    4.400    0.000    0.000    0.000 
#    0.000    0.000    0.000    0.000    0.000    0.000 
#
# Total GULP energy -495882.052835 kJ/mol
# GULP energy per Si atom -12397.051321 kJ/mol
# Density = 2.054903 g / cm^3
# Si number density = 20.595907 Si / 1000 Ang^3
#
#
#
# Elastic Constant Matrix: (Units=GPa)
#
#
# Indices 1 2 3 4 5 6 
#
# 1 92.3413 34.8851 59.2507 0.0000 0.0000 0.0000
# 2 34.8851 92.3413 59.2507 0.0000 0.0000 0.0000
# 3 59.2507 59.2507 108.5917 0.0000 0.0000 0.0000
# 4 0.0000 0.0000 0.0000 29.3171 0.0000 0.0000
# 5 0.0000 0.0000 0.0000 0.0000 29.3171 0.0000
# 6 0.0000 0.0000 0.0000 0.0000 0.0000 22.1775
#
#
#
# Elastic Compliance Matrix: (Units=1/GPa)
#
#
# Indices 1 2 3 4 5 6 
#
# 1 0.016694 -0.000711 -0.008720 0.000000 0.000000 0.000000
# 2 -0.000711 0.016694 -0.008720 0.000000 0.000000 0.000000
# 3 -0.008720 -0.008720 0.018725 0.000000 0.000000 0.000000
# 4 0.000000 0.000000 0.000000 0.034110 0.000000 0.000000
# 5 0.000000 0.000000 0.000000 0.000000 0.034110 0.000000
# 6 0.000000 0.000000 0.000000 0.000000 0.000000 0.045091
#
#
# Mechanical properties :
#
#
# Convention : Reuss Voigt Hill
#
# Bulk Modulus (GPa) = 63.25881 66.67193 64.96537
# Shear Modulus (GPa) = 24.15508 25.48818 24.82163
#
# Velocity S-wave (km/s) = 3.42835 3.52168 3.47533
# Velocity P-wave (km/s) = 6.81560 6.99843 6.90762
#
# Compressibility (1/GPa) = 0.01580808
#
# Stress axis : x y z
#
# Youngs Moduli (GPa) = 59.90350 59.90350 53.40430
#
# Poissons Ratio (x) = 0.04260 0.46571
# Poissons Ratio (y) = 0.04260 0.46571
# Poissons Ratio (z) = 0.52239 0.52239
#
# Static dielectric constant tensor:
#      x y z
#    x 3.902210 0.000000 0.000000 
#    y 0.000000 3.902210 0.000000 
#    z 0.000000 0.000000 3.539490 
# 
# 
# High freq. dielectric constant tensor:
#      x y z
#    x 1.809110 0.000000 0.000000 
#    y 0.000000 1.809110 0.000000 
#    z 0.000000 0.000000 1.800930 
# 
# From -- ./inp_files/3342.got.cif
#   From: 2010.03.12/outbox.cif.g09.slc.cpg/sg114_2_cif.got.tgz:3342.got - 2010.04.14 02:08:34.
