data_PCOD8308871
_publ_section_title
;
Structure prediction by ZEFSAII (Michael W. Deem and Ramdas Pophale) SiO2 
 PCOD8308871
Probable space group: P -4 21 C
;
_chemical_formula_sum "Si O2"
_cell_formula_units_Z 48
_cell_length_a 8.155724
_cell_length_b 8.155724
_cell_length_c 33.427163
_cell_angle_alpha 90.000000
_cell_angle_beta 90.000000
_cell_angle_gamma 90.000000
_cell_volume 2223.435624
_symmetry_space_group_name_H-M "P -4 21 C"
_symmetry_group_IT_number 114
_symmetry_cell_setting 'tetragonal'
loop_
_space_group_symop_operation_xyz
x,y,z
y,-x,-z
-x,-y,z
-y,x,-z
1/2+x,1/2-y,1/2-z
1/2-x,1/2+y,1/2-z
1/2-y,1/2-x,1/2+z
1/2+y,1/2+x,1/2+z
loop_
_atom_site_type_symbol
_atom_site_label
_atom_site_fract_x
_atom_site_fract_y
_atom_site_fract_z
Si Si1 0.589979 0.331442 0.664205
Si Si2 0.898722 0.247161 0.507572
Si Si3 0.316707 0.007338 0.778239
Si Si4 0.000000 0.000000 0.357183
Si Si5 0.500000 0.000000 0.049971
Si Si6 0.293364 0.155932 0.694504
Si Si7 0.211009 0.231434 0.408931
O O1 0.500000 0.500000 0.664537
O O2 0.723221 0.340471 0.700240
O O3 0.465915 0.176162 0.669892
O O4 0.680611 0.332217 0.621625
O O5 0.870030 0.403089 0.478544
O O6 0.840289 0.301010 0.551868
O O7 0.092246 0.204308 0.508257
O O8 0.234431 0.834872 0.787547
O O9 0.500000 0.000000 0.795161
O O10 0.316083 0.030002 0.730621
O O11 0.087547 0.857124 0.331544
O O12 0.867337 0.920895 0.386010
O O13 0.421184 0.865362 0.078263
#
# Coordination Sequence:
#
# PCOD8308871 Si02
#       7
#     8   8   8   4   4   8   8
#     4  10  24  44  60  94 134 175 216 274 340 384
#     4   9  19  39  65  92 122 162 208 257 319 397
#     4  11  24  42  67  91 131 179 227 282 327 403
#     4  12  26  40  67 104 126 180 222 274 347 390
#     4  10  20  40  66  96 122 166 204 262 326 394
#     4  11  26  41  67  96 132 179 228 277 332 408
#     4  11  22  41  64  95 131 163 212 274 320 400
#
# _framework density 21.588215000000002
#
# number of rings (size 3 to 8) (size 9 to 14) (size 15 to 20)
#    0.000    1.500    0.000    5.000   10.500    0.000 
#   13.500    0.000    0.000    0.000    0.000    0.000 
#    0.000    0.000    0.000    0.000    0.000    0.000 
#
# Total GULP energy -594977.224151 kJ/mol
# GULP energy per Si atom -12395.358836 kJ/mol
# Density = 2.153908 g / cm^3
# Si number density = 21.588215 Si / 1000 Ang^3
#
#
#
# Elastic Constant Matrix: (Units=GPa)
#
#
# Indices 1 2 3 4 5 6 
#
# 1 84.9263 12.1395 31.4878 0.0000 0.0000 0.0000
# 2 12.1395 84.9263 31.4878 0.0000 0.0000 0.0000
# 3 31.4878 31.4878 120.1139 0.0000 0.0000 0.0000
# 4 0.0000 0.0000 0.0000 40.3160 0.0000 0.0000
# 5 0.0000 0.0000 0.0000 0.0000 40.3160 0.0000
# 6 0.0000 0.0000 0.0000 0.0000 0.0000 23.5069
#
#
#
# Elastic Compliance Matrix: (Units=1/GPa)
#
#
# Indices 1 2 3 4 5 6 
#
# 1 0.013076 -0.000663 -0.003254 0.000000 0.000000 0.000000
# 2 -0.000663 0.013076 -0.003254 0.000000 0.000000 0.000000
# 3 -0.003254 -0.003254 0.010032 0.000000 0.000000 0.000000
# 4 0.000000 0.000000 0.000000 0.024804 0.000000 0.000000
# 5 0.000000 0.000000 0.000000 0.000000 0.024804 0.000000
# 6 0.000000 0.000000 0.000000 0.000000 0.000000 0.042541
#
#
# Mechanical properties :
#
#
# Convention : Reuss Voigt Hill
#
# Bulk Modulus (GPa) = 45.78348 48.91075 47.34711
# Shear Modulus (GPa) = 33.34326 35.15122 34.24724
#
# Velocity S-wave (km/s) = 3.93429 4.03955 3.98727
# Velocity P-wave (km/s) = 6.47239 6.66803 6.57094
#
# Compressibility (1/GPa) = 0.02184194
#
# Stress axis : x y z
#
# Youngs Moduli (GPa) = 76.47497 76.47497 99.68481
#
# Poissons Ratio (x) = 0.05067 0.32440
# Poissons Ratio (y) = 0.05067 0.32440
# Poissons Ratio (z) = 0.24887 0.24887
#
# Static dielectric constant tensor:
#      x y z
#    x 4.084400 0.000000 0.000000 
#    y 0.000000 4.084400 0.000000 
#    z 0.000000 0.000000 4.219950 
# 
# 
# High freq. dielectric constant tensor:
#      x y z
#    x 1.847420 0.000000 0.000000 
#    y 0.000000 1.847420 0.000000 
#    z 0.000000 0.000000 1.857260 
# 
# From -- ./inp_files/4006.got.cif
#   From: 2010.03.12/outbox.cif.g09.slc.cpg/sg114_3_cif.got.tgz:4006.got - 2010.04.14 02:08:34.
