data_PCOD8308681
_publ_section_title
;
Structure prediction by ZEFSAII (Michael W. Deem and Ramdas Pophale) SiO2 
 PCOD8308681
Probable space group: P -4 21 M 
;
_chemical_formula_sum "Si O2"
_cell_formula_units_Z 64
_cell_length_a 12.436156
_cell_length_b 12.436156
_cell_length_c 21.681113
_cell_angle_alpha 90.000000
_cell_angle_beta 90.000000
_cell_angle_gamma 90.000000
_cell_volume 3353.157055
_symmetry_space_group_name_H-M "P -4 21 M "
_symmetry_group_IT_number 113
_symmetry_cell_setting 'tetragonal'
loop_
_space_group_symop_operation_xyz
x,y,z
y,-x,-z
-x,-y,z
-y,x,-z
1/2+x,1/2-y,-z
1/2-x,1/2+y,-z
1/2-y,1/2-x,z
1/2+y,1/2+x,z
loop_
_atom_site_type_symbol
_atom_site_label
_atom_site_fract_x
_atom_site_fract_y
_atom_site_fract_z
Si Si1 0.426787 0.594420 0.256212
Si Si2 0.311625 0.635524 0.137261
Si Si3 0.040853 0.153431 0.973326
Si Si4 0.981482 0.884685 0.385381
Si Si5 0.998498 0.679609 0.470042
Si Si6 0.668151 0.002135 0.941743
Si Si7 0.927092 0.258285 0.597312
Si Si8 0.328283 0.001255 0.278337
O O1 0.500000 0.500000 0.228416
O O2 0.329077 0.611518 0.209252
O O3 0.384742 0.555582 0.323499
O O4 0.493430 0.706255 0.254697
O O5 0.243486 0.743486 0.129640
O O6 0.421590 0.649436 0.097865
O O7 0.250611 0.531770 0.111235
O O8 0.049792 0.274541 0.997746
O O9 0.918232 0.114547 0.980642
O O10 0.010654 0.776308 0.421262
O O11 0.854395 0.889545 0.372874
O O12 0.000000 0.000000 0.420607
O O13 0.098037 0.598037 0.461566
O O14 0.999862 0.741413 0.535740
O O15 0.886684 0.613317 0.462612
O O16 0.592651 0.092651 0.911979
O O17 0.599912 0.900089 0.964589
O O18 0.816822 0.316822 0.579764
O O19 0.994875 0.324318 0.647460
O O20 0.390752 0.109249 0.254078
O O21 0.395593 0.895593 0.258743
#
# Coordination Sequence:
#
# PCOD8308681 Si02
#       8
#     8   8   8   8   8   8   8   8
#     4  11  23  40  58  82 119 157 198 245 288 345
#     4  10  21  36  59  85 113 153 197 242 289 342
#     4   9  18  32  56  85 113 149 184 238 296 346
#     4  11  23  40  55  87 118 156 194 237 292 351
#     4  10  23  41  62  89 118 150 189 240 301 363
#     4   9  18  34  55  83 119 155 192 235 290 358
#     4  10  20  37  60  87 115 147 188 238 297 354
#     4  10  20  38  63  85 111 150 198 249 300 353
#
# _framework density 19.086489
#
# number of rings (size 3 to 8) (size 9 to 14) (size 15 to 20)
#    0.000    2.000    2.500    1.500    5.250    3.000 
#    0.000    2.500    0.000    3.750    0.000    0.000 
#    0.000    0.000    0.000    0.000    0.000    0.000 
#
# Total GULP energy -792867.813525 kJ/mol
# GULP energy per Si atom -12388.559586 kJ/mol
# Density = 1.904305 g / cm^3
# Si number density = 19.086489 Si / 1000 Ang^3
#
#
#
# Elastic Constant Matrix: (Units=GPa)
#
#
# Indices 1 2 3 4 5 6 
#
# 1 113.0540 42.8888 42.1443 0.0000 0.0000 0.0000
# 2 42.8888 113.0538 42.1443 0.0000 0.0000 0.0000
# 3 42.1443 42.1443 74.7435 0.0000 0.0000 0.0000
# 4 0.0000 0.0000 0.0000 23.1737 0.0000 0.0000
# 5 0.0000 0.0000 0.0000 0.0000 23.1738 0.0000
# 6 0.0000 0.0000 0.0000 0.0000 0.0000 18.2137
#
#
#
# Elastic Compliance Matrix: (Units=1/GPa)
#
#
# Indices 1 2 3 4 5 6 
#
# 1 0.011738 -0.002514 -0.005201 0.000000 0.000000 0.000000
# 2 -0.002514 0.011738 -0.005201 0.000000 0.000000 0.000000
# 3 -0.005201 -0.005201 0.019244 0.000000 0.000000 0.000000
# 4 0.000000 0.000000 0.000000 0.043152 0.000000 0.000000
# 5 0.000000 0.000000 0.000000 0.000000 0.043152 0.000000
# 6 0.000000 0.000000 0.000000 0.000000 0.000000 0.054904
#
#
# Mechanical properties :
#
#
# Convention : Reuss Voigt Hill
#
# Bulk Modulus (GPa) = 59.21280 61.68956 60.45118
# Shear Modulus (GPa) = 23.21378 24.49049 23.85213
#
# Velocity S-wave (km/s) = 3.49125 3.58597 3.53893
# Velocity P-wave (km/s) = 6.88059 7.03824 6.95986
#
# Compressibility (1/GPa) = 0.01688824
#
# Stress axis : x y z
#
# Youngs Moduli (GPa) = 85.19417 85.19404 51.96413
#
# Poissons Ratio (x) = 0.21420 0.27025
# Poissons Ratio (y) = 0.21420 0.27026
# Poissons Ratio (z) = 0.44308 0.44308
#
# Static dielectric constant tensor:
#      x y z
#    x 3.640120 0.000000 0.000000 
#    y 0.000000 3.640120 0.000000 
#    z 0.000000 0.000000 3.326430 
# 
# 
# High freq. dielectric constant tensor:
#      x y z
#    x 1.748460 0.000000 0.000000 
#    y 0.000000 1.748460 0.000000 
#    z 0.000000 0.000000 1.715460 
# 
# From -- ./inp_files/2878.got.cif
#   From: 2010.03.12/outbox.cif.g09.slc.cpg/sg113_cif.got.tgz:2878.got - 2010.04.14 02:06:34.
