data_PCOD8308809
_publ_section_title
;
Structure prediction by ZEFSAII (Michael W. Deem and Ramdas Pophale) SiO2 
 PCOD8308809
Probable space group: P -4 21 C
;
_chemical_formula_sum "Si O2"
_cell_formula_units_Z 60
_cell_length_a 10.737995
_cell_length_b 10.737995
_cell_length_c 24.129153
_cell_angle_alpha 90.000000
_cell_angle_beta 90.000000
_cell_angle_gamma 90.000000
_cell_volume 2782.200806
_symmetry_space_group_name_H-M "P -4 21 C"
_symmetry_group_IT_number 114
_symmetry_cell_setting 'tetragonal'
loop_
_space_group_symop_operation_xyz
x,y,z
y,-x,-z
-x,-y,z
-y,x,-z
1/2+x,1/2-y,1/2-z
1/2-x,1/2+y,1/2-z
1/2-y,1/2-x,1/2+z
1/2+y,1/2+x,1/2+z
loop_
_atom_site_type_symbol
_atom_site_label
_atom_site_fract_x
_atom_site_fract_y
_atom_site_fract_z
Si Si1 0.490402 0.854340 0.055845
Si Si2 0.640017 0.506462 0.197737
Si Si3 0.381210 0.718736 0.449051
Si Si4 0.000000 0.000000 0.890229
Si Si5 0.233049 0.793167 0.625058
Si Si6 0.518116 0.259663 0.683758
Si Si7 0.184528 0.738136 0.362713
Si Si8 0.674562 0.876824 0.967488
O O1 0.359499 0.787230 0.068749
O O2 0.573823 0.766942 0.094477
O O3 0.500000 0.000000 0.073131
O O4 0.541300 0.833136 0.992935
O O5 0.500000 0.500000 0.219334
O O6 0.658260 0.393608 0.153838
O O7 0.727770 0.496193 0.250916
O O8 0.664608 0.644529 0.176056
O O9 0.479959 0.613467 0.431839
O O10 0.314692 0.763851 0.393207
O O11 0.284837 0.671234 0.493674
O O12 0.470879 0.827964 0.472930
O O13 0.024642 0.114848 0.850629
O O14 0.345554 0.800166 0.670074
O O15 0.192218 0.662016 0.596949
O O16 0.397113 0.180645 0.666959
#
# Coordination Sequence:
#
# PCOD8308809 Si02
#       8
#     8   8   8   4   8   8   8   8
#     4  11  22  41  65  94 134 182 219 264 338 415
#     4  12  25  44  67  93 133 176 225 279 341 394
#     4  10  20  36  63  98 128 163 217 271 329 401
#     4  10  18  35  68  98 128 156 213 280 342 376
#     4  12  25  43  68  98 134 181 226 278 335 416
#     4  11  22  43  70  98 125 169 231 280 336 393
#     4  10  23  42  66  94 129 173 220 275 330 408
#     4  11  23  37  65  97 132 170 216 270 336 401
#
# _framework density 21.565663000000001
#
# number of rings (size 3 to 8) (size 9 to 14) (size 15 to 20)
#    0.000    1.067    4.667    2.400    1.867    3.200 
#    0.000    0.000    2.933    0.000    0.000    0.000 
#    0.000    0.000    0.000    0.000    0.000    0.000 
#
# Total GULP energy -743288.408947 kJ/mol
# GULP energy per Si atom -12388.140149 kJ/mol
# Density = 2.151658 g / cm^3
# Si number density = 21.565663 Si / 1000 Ang^3
#
#
#
# Elastic Constant Matrix: (Units=GPa)
#
#
# Indices 1 2 3 4 5 6 
#
# 1 84.3307 14.2843 20.8400 0.0000 0.0000 0.0000
# 2 14.2843 84.3307 20.8400 0.0000 0.0000 0.0000
# 3 20.8400 20.8400 83.2619 0.0000 0.0000 0.0000
# 4 0.0000 0.0000 0.0000 20.0609 0.0000 0.0000
# 5 0.0000 0.0000 0.0000 0.0000 20.0609 0.0000
# 6 0.0000 0.0000 0.0000 0.0000 0.0000 31.5722
#
#
#
# Elastic Compliance Matrix: (Units=1/GPa)
#
#
# Indices 1 2 3 4 5 6 
#
# 1 0.012808 -0.001468 -0.002838 0.000000 0.000000 0.000000
# 2 -0.001468 0.012808 -0.002838 0.000000 0.000000 0.000000
# 3 -0.002838 -0.002838 0.013431 0.000000 0.000000 0.000000
# 4 0.000000 0.000000 0.000000 0.049848 0.000000 0.000000
# 5 0.000000 0.000000 0.000000 0.000000 0.049848 0.000000
# 6 0.000000 0.000000 0.000000 0.000000 0.000000 0.031673
#
#
# Mechanical properties :
#
#
# Convention : Reuss Voigt Hill
#
# Bulk Modulus (GPa) = 40.39119 40.42799 40.40959
# Shear Modulus (GPa) = 25.91217 27.40274 26.65745
#
# Velocity S-wave (km/s) = 3.47010 3.56851 3.51964
# Velocity P-wave (km/s) = 5.90131 5.98048 5.94103
#
# Compressibility (1/GPa) = 0.02475788
#
# Stress axis : x y z
#
# Youngs Moduli (GPa) = 78.07519 78.07519 74.45383
#
# Poissons Ratio (x) = 0.11462 0.21133
# Poissons Ratio (y) = 0.11462 0.21133
# Poissons Ratio (z) = 0.22161 0.22161
#
# Static dielectric constant tensor:
#      x y z
#    x 4.034070 0.000000 0.000000 
#    y 0.000000 4.034070 0.000000 
#    z 0.000000 0.000000 3.801880 
# 
# 
# High freq. dielectric constant tensor:
#      x y z
#    x 1.850490 0.000000 0.000000 
#    y 0.000000 1.850490 0.000000 
#    z 0.000000 0.000000 1.840850 
# 
# From -- ./inp_files/3231.got.cif
#   From: 2010.03.12/outbox.cif.g09.slc.cpg/sg114_2_cif.got.tgz:3231.got - 2010.04.14 02:08:34.
