data_PCOD8308090
_publ_section_title
;
Structure prediction by ZEFSAII (Michael W. Deem and Ramdas Pophale) SiO2 
 PCOD8308090
Probable space group: I 41 C D
;
_chemical_formula_sum "Si O2"
_cell_formula_units_Z 104
_cell_length_a 21.483657
_cell_length_b 21.483657
_cell_length_c 13.884066
_cell_angle_alpha 90.000000
_cell_angle_beta 90.000000
_cell_angle_gamma 90.000000
_cell_volume 6408.156203
_symmetry_space_group_name_H-M "I 41 C D"
_symmetry_group_IT_number 110
_symmetry_cell_setting 'tetragonal'
loop_
_space_group_symop_operation_xyz
x,y,z
-y,1/2+x,1/4+z
-x,-y,z
y,1/2-x,1/4+z
-x,y,1/2+z
x,-y,1/2+z
1/2-y,-x,1/4+z
1/2+y,x,1/4+z
1/2+x,1/2+y,1/2+z
1/2-y,x,3/4+z
1/2-x,1/2-y,1/2+z
1/2+y,-x,3/4+z
1/2-x,1/2+y,z
1/2+x,1/2-y,z
-y,1/2-x,3/4+z
y,1/2+x,3/4+z
loop_
_atom_site_type_symbol
_atom_site_label
_atom_site_fract_x
_atom_site_fract_y
_atom_site_fract_z
Si Si1 0.905672 0.691944 0.790030
Si Si2 0.048243 0.875809 0.852950
Si Si3 0.326418 0.068061 0.503101
Si Si4 0.500000 0.000000 0.538676
Si Si5 0.548243 0.124191 0.974403
Si Si6 0.308057 0.094328 0.287322
Si Si7 0.326418 0.431939 0.824252
O O1 0.902054 0.766253 0.805825
O O2 0.945928 0.656780 0.870848
O O3 0.835412 0.664588 0.788676
O O4 0.939222 0.679945 0.688809
O O5 0.115728 0.885455 0.801675
O O6 0.002755 0.833953 0.788750
O O7 0.054072 0.843220 0.956504
O O8 0.018324 0.944556 0.861821
O O9 0.384272 0.114545 0.525678
O O10 0.320055 0.060778 0.388543
O O11 0.481676 0.055444 0.465531
O O12 0.502755 0.166047 0.038602
O O13 0.233747 0.097945 0.271527
#
# Coordination Sequence:
#
# PCOD8308090 Si02
#       7
#    16  16  16   8  16  16  16
#     4   9  17  29  47  66  86 118 149 178 215 260
#     4   9  16  29  46  66  91 118 142 183 224 252
#     4   9  17  29  45  66  89 112 149 180 213 266
#     4   8  16  28  42  68  96 114 148 184 222 272
#     4   9  16  29  46  66  91 118 142 183 224 252
#     4   9  17  29  47  66  86 118 149 178 215 260
#     4   9  17  29  45  66  89 112 149 180 213 266
#
# _framework density 16.229317999999999
#
# number of rings (size 3 to 8) (size 9 to 14) (size 15 to 20)
#    0.000    3.077    0.000    0.923    0.000    0.000 
#    0.000   33.077    0.000   14.769    0.000    0.000 
#    0.000    0.000    0.000    0.000    0.000    0.000 
#
# Total GULP energy -644297.814002 kJ/mol
# GULP energy per Si atom -12390.342577 kJ/mol
# Density = 1.619238 g / cm^3
# Si number density = 16.229318 Si / 1000 Ang^3
#
#
#
# Elastic Constant Matrix: (Units=GPa)
#
#
# Indices 1 2 3 4 5 6 
#
# 1 127.8281 67.9765 51.3773 0.0000 0.0000 0.0000
# 2 67.9765 127.8281 51.3773 0.0000 0.0000 0.0000
# 3 51.3773 51.3773 72.1941 0.0000 0.0000 0.0000
# 4 0.0000 0.0000 0.0000 23.3919 0.0000 0.0000
# 5 0.0000 0.0000 0.0000 0.0000 23.3919 0.0000
# 6 0.0000 0.0000 0.0000 0.0000 0.0000 19.0441
#
#
#
# Elastic Compliance Matrix: (Units=1/GPa)
#
#
# Indices 1 2 3 4 5 6 
#
# 1 0.012430 -0.004278 -0.005801 0.000000 0.000000 0.000000
# 2 -0.004278 0.012430 -0.005801 0.000000 0.000000 0.000000
# 3 -0.005801 -0.005801 0.022108 0.000000 0.000000 0.000000
# 4 0.000000 0.000000 0.000000 0.042750 0.000000 0.000000
# 5 0.000000 0.000000 0.000000 0.000000 0.042750 0.000000
# 6 0.000000 0.000000 0.000000 0.000000 0.000000 0.052510
#
#
# Mechanical properties :
#
#
# Convention : Reuss Voigt Hill
#
# Bulk Modulus (GPa) = 65.75919 74.36804 70.06361
# Shear Modulus (GPa) = 22.54220 23.64021 23.09121
#
# Velocity S-wave (km/s) = 3.73095 3.82073 3.77611
# Velocity P-wave (km/s) = 7.69199 8.08621 7.89156
#
# Compressibility (1/GPa) = 0.01520700
#
# Stress axis : x y z
#
# Youngs Moduli (GPa) = 80.45259 80.45259 45.23230
#
# Poissons Ratio (x) = 0.34420 0.26239
# Poissons Ratio (y) = 0.34420 0.26239
# Poissons Ratio (z) = 0.46670 0.46670
#
# Static dielectric constant tensor:
#      x y z
#    x 3.296100 0.000000 0.000000 
#    y 0.000000 3.296100 0.000000 
#    z 0.000000 0.000000 2.897030 
# 
# 
# High freq. dielectric constant tensor:
#      x y z
#    x 1.624470 0.000000 0.000000 
#    y 0.000000 1.624470 0.000000 
#    z 0.000000 0.000000 1.604130 
# 
# From -- ./inp_files/1338.got.cif
#   From: 2010.03.12/outbox.cif.g09.slc.cpg/sg110_1_cif.got.tgz:1338.got - 2010.04.14 01:58:01.
