data_PCOD8308804
_publ_section_title
;
Structure prediction by ZEFSAII (Michael W. Deem and Ramdas Pophale) SiO2 
 PCOD8308804
Probable space group: P -4 21 C
;
_chemical_formula_sum "Si O2"
_cell_formula_units_Z 56
_cell_length_a 14.893018
_cell_length_b 14.893018
_cell_length_c 14.131419
_cell_angle_alpha 90.000000
_cell_angle_beta 90.000000
_cell_angle_gamma 90.000000
_cell_volume 3134.376787
_symmetry_space_group_name_H-M "P -4 21 C"
_symmetry_group_IT_number 114
_symmetry_cell_setting 'tetragonal'
loop_
_space_group_symop_operation_xyz
x,y,z
y,-x,-z
-x,-y,z
-y,x,-z
1/2+x,1/2-y,1/2-z
1/2-x,1/2+y,1/2-z
1/2-y,1/2-x,1/2+z
1/2+y,1/2+x,1/2+z
loop_
_atom_site_type_symbol
_atom_site_label
_atom_site_fract_x
_atom_site_fract_y
_atom_site_fract_z
Si Si1 0.262476 0.894799 0.020269
Si Si2 0.738649 0.481698 0.320057
Si Si3 0.569501 0.921471 0.140645
Si Si4 0.597542 0.982678 0.940928
Si Si5 0.239325 0.823876 0.214697
Si Si6 0.051767 0.729358 0.224484
Si Si7 0.631445 0.308452 0.322045
O O1 0.268341 0.818896 0.102839
O O2 0.222749 0.985546 0.070668
O O3 0.199011 0.860531 0.935971
O O4 0.360592 0.922801 0.979561
O O5 0.836897 0.439741 0.306236
O O6 0.733621 0.570839 0.253584
O O7 0.666068 0.406536 0.291008
O O8 0.532387 0.827195 0.180208
O O9 0.500000 0.000000 0.165046
O O10 0.584429 0.913609 0.028059
O O11 0.662048 0.939203 0.863854
O O12 0.500000 0.000000 0.894513
O O13 0.142463 0.783684 0.233755
O O14 0.312273 0.771994 0.276073
O O15 0.971398 0.799871 0.209977
#
# Coordination Sequence:
#
# PCOD8308804 Si02
#       7
#     8   8   8   8   8   8   8
#     4   8  21  35  56  81 116 146 194 237 286 350
#     4   9  20  37  56  81 120 149 186 245 284 345
#     4  10  18  33  55  78 114 148 184 242 285 336
#     4   9  19  34  54  82 109 148 189 238 290 341
#     4  10  22  36  55  85 116 148 196 235 288 348
#     4  11  22  33  57  86 109 156 193 231 292 357
#     4  11  21  38  60  82 119 157 191 242 292 342
#
# _framework density 17.866392000000001
#
# number of rings (size 3 to 8) (size 9 to 14) (size 15 to 20)
#    0.857    1.429    1.429    1.286    8.000    1.714 
#    0.000    0.000    0.000    0.000    0.000    0.000 
#    0.000    2.286    0.000    0.000    0.000    0.000 
#
# Total GULP energy -693930.781758 kJ/mol
# GULP energy per Si atom -12391.621103 kJ/mol
# Density = 1.782573 g / cm^3
# Si number density = 17.866392 Si / 1000 Ang^3
#
#
#
# Elastic Constant Matrix: (Units=GPa)
#
#
# Indices 1 2 3 4 5 6 
#
# 1 64.7334 3.5731 10.6889 0.0000 0.0000 0.0000
# 2 3.5731 64.7334 10.6889 0.0000 0.0000 0.0000
# 3 10.6889 10.6889 51.7255 0.0000 0.0000 0.0000
# 4 0.0000 0.0000 0.0000 19.8967 0.0000 0.0000
# 5 0.0000 0.0000 0.0000 0.0000 19.8967 0.0000
# 6 0.0000 0.0000 0.0000 0.0000 0.0000 29.5954
#
#
#
# Elastic Compliance Matrix: (Units=1/GPa)
#
#
# Indices 1 2 3 4 5 6 
#
# 1 0.016001 -0.000349 -0.003234 0.000000 0.000000 0.000000
# 2 -0.000349 0.016001 -0.003234 0.000000 0.000000 0.000000
# 3 -0.003234 -0.003234 0.020670 0.000000 0.000000 0.000000
# 4 0.000000 0.000000 0.000000 0.050260 0.000000 0.000000
# 5 0.000000 0.000000 0.000000 0.000000 0.050260 0.000000
# 6 0.000000 0.000000 0.000000 0.000000 0.000000 0.033789
#
#
# Mechanical properties :
#
#
# Convention : Reuss Voigt Hill
#
# Bulk Modulus (GPa) = 25.61732 25.67712 25.64722
# Shear Modulus (GPa) = 23.40508 24.29384 23.84946
#
# Velocity S-wave (km/s) = 3.62333 3.69148 3.65756
# Velocity P-wave (km/s) = 5.64571 5.70722 5.67655
#
# Compressibility (1/GPa) = 0.03903609
#
# Stress axis : x y z
#
# Youngs Moduli (GPa) = 62.49481 62.49481 48.38026
#
# Poissons Ratio (x) = 0.02182 0.15648
# Poissons Ratio (y) = 0.02182 0.15648
# Poissons Ratio (z) = 0.20214 0.20214
#
# Static dielectric constant tensor:
#      x y z
#    x 3.228680 0.000000 0.000000 
#    y 0.000000 3.228680 0.000000 
#    z 0.000000 0.000000 3.250280 
# 
# 
# High freq. dielectric constant tensor:
#      x y z
#    x 1.681360 0.000000 0.000000 
#    y 0.000000 1.681360 0.000000 
#    z 0.000000 0.000000 1.677450 
# 
# From -- ./inp_files/2248.got.cif
#   From: 2010.03.12/outbox.cif.g09.slc.cpg/sg114_2_cif.got.tgz:2248.got - 2010.04.14 02:08:34.
