data_PCOD8308486
_publ_section_title
;
Structure prediction by ZEFSAII (Michael W. Deem and Ramdas Pophale) SiO2 
 PCOD8308486
Probable space group: P -4 2 C
;
_chemical_formula_sum "Si O2"
_cell_formula_units_Z 24
_cell_length_a 8.332691
_cell_length_b 8.332691
_cell_length_c 14.232134
_cell_angle_alpha 90.000000
_cell_angle_beta 90.000000
_cell_angle_gamma 90.000000
_cell_volume 988.190282
_symmetry_space_group_name_H-M "P -4 2 C"
_symmetry_group_IT_number 112
_symmetry_cell_setting 'tetragonal'
loop_
_space_group_symop_operation_xyz
x,y,z
y,-x,-z
-x,-y,z
-y,x,-z
x,-y,1/2-z
-x,y,1/2-z
-y,-x,1/2+z
y,x,1/2+z
loop_
_atom_site_type_symbol
_atom_site_label
_atom_site_fract_x
_atom_site_fract_y
_atom_site_fract_z
Si Si1 0.235392 0.177447 0.212140
Si Si2 0.675171 0.063752 0.628930
Si Si3 0.389077 0.726947 0.467771
O O1 0.216316 0.292891 0.302360
O O2 0.381031 0.236681 0.144121
O O3 0.072632 0.190876 0.148976
O O4 0.268298 0.000000 0.250000
O O5 0.688877 0.121547 0.521516
O O6 0.500000 0.000000 0.653882
O O7 0.569627 0.711980 0.505315
#
# Coordination Sequence:
#
# PCOD8308486 Si02
#       3
#     8   8   8
#     4  11  25  45  71 109 144 192 246 304 375 444
#     4  11  23  46  70 102 148 193 238 311 369 441
#     4  11  26  46  73 108 146 197 252 306 371 441
#
# _framework density 24.286822999999998
#
# number of rings (size 3 to 8) (size 9 to 14) (size 15 to 20)
#    0.000    1.000    3.333    4.000    4.667    1.333 
#    0.000    6.667    0.000    0.000    0.000    0.000 
#    0.000    0.000    0.000    0.000    0.000    0.000 
#
# Total GULP energy -297511.986466 kJ/mol
# GULP energy per Si atom -12396.332769 kJ/mol
# Density = 2.423154 g / cm^3
# Si number density = 24.286823 Si / 1000 Ang^3
#
#
#
# Elastic Constant Matrix: (Units=GPa)
#
#
# Indices 1 2 3 4 5 6 
#
# 1 99.2868 17.5579 31.6042 0.0000 0.0000 0.0000
# 2 17.5579 99.2868 31.6042 0.0000 0.0000 0.0000
# 3 31.6042 31.6042 105.1658 0.0000 0.0000 0.0000
# 4 0.0000 0.0000 0.0000 49.5323 0.0000 0.0000
# 5 0.0000 0.0000 0.0000 0.0000 49.5323 0.0000
# 6 0.0000 0.0000 0.0000 0.0000 0.0000 17.6565
#
#
#
# Elastic Compliance Matrix: (Units=1/GPa)
#
#
# Indices 1 2 3 4 5 6 
#
# 1 0.011228 -0.001008 -0.003071 0.000000 0.000000 0.000000
# 2 -0.001008 0.011228 -0.003071 0.000000 0.000000 0.000000
# 3 -0.003071 -0.003071 0.011355 0.000000 0.000000 0.000000
# 4 0.000000 0.000000 0.000000 0.020189 0.000000 0.000000
# 5 0.000000 0.000000 0.000000 0.000000 0.020189 0.000000
# 6 0.000000 0.000000 0.000000 0.000000 0.000000 0.056636
#
#
# Mechanical properties :
#
#
# Convention : Reuss Voigt Hill
#
# Bulk Modulus (GPa) = 51.25743 51.69690 51.47716
# Shear Modulus (GPa) = 32.97546 38.20911 35.59228
#
# Velocity S-wave (km/s) = 3.68876 3.97072 3.83234
# Velocity P-wave (km/s) = 6.26845 6.50802 6.38936
#
# Compressibility (1/GPa) = 0.01950937
#
# Stress axis : x y z
#
# Youngs Moduli (GPa) = 89.06564 89.06564 88.06917
#
# Poissons Ratio (x) = 0.08977 0.27048
# Poissons Ratio (y) = 0.08977 0.27048
# Poissons Ratio (z) = 0.27354 0.27354
#
# Static dielectric constant tensor:
#      x y z
#    x 4.264320 0.000000 0.000000 
#    y 0.000000 4.264320 0.000000 
#    z 0.000000 0.000000 4.633720 
# 
# 
# High freq. dielectric constant tensor:
#      x y z
#    x 1.950780 0.000000 0.000000 
#    y 0.000000 1.950780 0.000000 
#    z 0.000000 0.000000 1.977740 
# 
# From -- ./inp_files/3002.got.cif
#   From: 2010.03.12/outbox.cif.g09.slc.cpg/sg112_2_cif.got.tgz:3002.got - 2010.04.14 02:02:48.
