data_PCOD8308369
_publ_section_title
;
Structure prediction by ZEFSAII (Michael W. Deem and Ramdas Pophale) SiO2 
 PCOD8308369
Probable space group: P -4 2 C
;
_chemical_formula_sum "Si O2"
_cell_formula_units_Z 48
_cell_length_a 8.693663
_cell_length_b 8.693663
_cell_length_c 29.948595
_cell_angle_alpha 90.000000
_cell_angle_beta 90.000000
_cell_angle_gamma 90.000000
_cell_volume 2263.508112
_symmetry_space_group_name_H-M "P -4 2 C"
_symmetry_group_IT_number 112
_symmetry_cell_setting 'tetragonal'
loop_
_space_group_symop_operation_xyz
x,y,z
y,-x,-z
-x,-y,z
-y,x,-z
x,-y,1/2-z
-x,y,1/2-z
-y,-x,1/2+z
y,x,1/2+z
loop_
_atom_site_type_symbol
_atom_site_label
_atom_site_fract_x
_atom_site_fract_y
_atom_site_fract_z
Si Si1 0.445905 0.328376 0.204485
Si Si2 0.962041 0.229475 0.488377
Si Si3 0.034951 0.177562 0.392811
Si Si4 0.849257 0.407282 0.336531
Si Si5 0.682336 0.658502 0.875853
Si Si6 0.290429 0.573999 0.522963
O O1 0.500000 0.500000 0.209864
O O2 0.500000 0.239115 0.250000
O O3 0.258565 0.330675 0.201701
O O4 0.530135 0.263043 0.160061
O O5 0.884447 0.376674 0.511849
O O6 0.095735 0.165743 0.520624
O O7 0.038302 0.265132 0.440582
O O8 0.205895 0.192546 0.372901
O O9 0.905579 0.262472 0.364561
O O10 0.000000 0.000000 0.396523
O O11 0.735632 0.516115 0.365515
O O12 0.000000 0.500000 0.318077
O O13 0.674859 0.578914 0.924330
O O14 0.402407 0.687875 0.495341
#
# Coordination Sequence:
#
# PCOD8308369 Si02
#       6
#     8   8   8   8   8   8
#     4   9  19  37  64  90 118 151 194 257 313 365
#     4  11  20  37  53  74 110 155 198 247 280 341
#     4  11  20  36  57  80 114 157 205 245 297 353
#     4   9  20  35  62  86 114 151 190 248 299 367
#     4  10  20  38  55  84 117 150 198 244 308 356
#     4  11  24  33  51  82 115 154 187 235 293 363
#
# _framework density 21.206019000000001
#
# number of rings (size 3 to 8) (size 9 to 14) (size 15 to 20)
#    0.000    1.833    3.333    1.000    9.333    0.667 
#    0.000   15.000    0.000    3.000    0.000    0.000 
#    0.000    0.000    0.000    0.000    0.000    0.000 
#
# Total GULP energy -594810.670706 kJ/mol
# GULP energy per Si atom -12391.888973 kJ/mol
# Density = 2.115775 g / cm^3
# Si number density = 21.206019 Si / 1000 Ang^3
#
#
#
# Elastic Constant Matrix: (Units=GPa)
#
#
# Indices 1 2 3 4 5 6 
#
# 1 66.0075 17.0453 43.1841 0.0000 0.0000 0.0000
# 2 17.0453 66.0075 43.1841 0.0000 0.0000 0.0000
# 3 43.1841 43.1841 147.6017 0.0000 0.0000 0.0000
# 4 0.0000 0.0000 0.0000 12.0484 0.0000 0.0000
# 5 0.0000 0.0000 0.0000 0.0000 12.0484 0.0000
# 6 0.0000 0.0000 0.0000 0.0000 0.0000 28.8502
#
#
#
# Elastic Compliance Matrix: (Units=1/GPa)
#
#
# Indices 1 2 3 4 5 6 
#
# 1 0.018865 -0.001559 -0.005063 0.000000 0.000000 0.000000
# 2 -0.001559 0.018865 -0.005063 0.000000 0.000000 0.000000
# 3 -0.005063 -0.005063 0.009738 0.000000 0.000000 0.000000
# 4 0.000000 0.000000 0.000000 0.082998 0.000000 0.000000
# 5 0.000000 0.000000 0.000000 0.000000 0.082998 0.000000
# 6 0.000000 0.000000 0.000000 0.000000 0.000000 0.034662
#
#
# Mechanical properties :
#
#
# Convention : Reuss Voigt Hill
#
# Bulk Modulus (GPa) = 41.49967 54.04929 47.77448
# Shear Modulus (GPa) = 17.88722 22.33629 20.11176
#
# Velocity S-wave (km/s) = 2.90745 3.24898 3.08295
# Velocity P-wave (km/s) = 5.55727 6.29425 5.93721
#
# Compressibility (1/GPa) = 0.02409658
#
# Stress axis : x y z
#
# Youngs Moduli (GPa) = 53.00857 53.00857 102.69385
#
# Poissons Ratio (x) = 0.08264 0.51996
# Poissons Ratio (y) = 0.08264 0.51996
# Poissons Ratio (z) = 0.26839 0.26839
#
# Static dielectric constant tensor:
#      x y z
#    x 3.875930 0.000000 0.000000 
#    y 0.000000 3.875930 0.000000 
#    z 0.000000 0.000000 4.404300 
# 
# 
# High freq. dielectric constant tensor:
#      x y z
#    x 1.824090 0.000000 0.000000 
#    y 0.000000 1.824090 0.000000 
#    z 0.000000 0.000000 1.813580 
# 
# From -- ./inp_files/6314.got.cif
#   From: 2010.03.12/outbox.cif.g09.slc.cpg/sg112_4_cif.got.tgz:6314.got - 2010.04.14 02:02:48.
