data_PCOD8308474
_publ_section_title
;
Structure prediction by ZEFSAII (Michael W. Deem and Ramdas Pophale) SiO2 
 PCOD8308474
Probable space group: P -4 2 C
;
_chemical_formula_sum "Si O2"
_cell_formula_units_Z 34
_cell_length_a 11.162804
_cell_length_b 11.162804
_cell_length_c 13.929229
_cell_angle_alpha 90.000000
_cell_angle_beta 90.000000
_cell_angle_gamma 90.000000
_cell_volume 1735.696058
_symmetry_space_group_name_H-M "P -4 2 C"
_symmetry_group_IT_number 112
_symmetry_cell_setting 'tetragonal'
loop_
_space_group_symop_operation_xyz
x,y,z
y,-x,-z
-x,-y,z
-y,x,-z
x,-y,1/2-z
-x,y,1/2-z
-y,-x,1/2+z
y,x,1/2+z
loop_
_atom_site_type_symbol
_atom_site_label
_atom_site_fract_x
_atom_site_fract_y
_atom_site_fract_z
Si Si1 0.862395 0.875121 0.769622
Si Si2 0.500000 0.500000 0.000000
Si Si3 0.723837 0.885503 0.438747
Si Si4 0.166634 0.271220 0.593087
Si Si5 0.484617 0.278220 0.365561
O O1 0.842854 0.839854 0.879132
O O2 0.821495 0.765513 0.703719
O O3 0.000000 0.898129 0.750000
O O4 0.792237 0.000000 0.750000
O O5 0.451260 0.602587 0.073539
O O6 0.754418 0.831347 0.541706
O O7 0.609155 0.827870 0.386518
O O8 0.714131 0.029495 0.442706
O O9 0.233372 0.395465 0.583403
O O10 0.500000 0.301329 0.250000
#
# Coordination Sequence:
#
# PCOD8308474 Si02
#       5
#     8   2   8   8   8
#     4   9  18  33  55  85 122 161 196 237 297 368
#     4  12  26  48  68  86 116 160 210 264 312 358
#     4  11  22  37  61  91 126 164 202 249 304 366
#     4  11  22  37  61  91 126 164 202 249 304 366
#     4  12  24  43  68  90 117 160 214 261 306 358
#
# _framework density 19.588684000000001
#
# number of rings (size 3 to 8) (size 9 to 14) (size 15 to 20)
#    0.000    1.176    4.706    2.471    0.000    3.294 
#    0.000    0.000    0.000    0.000    0.000    9.882 
#    0.000    0.000    0.000    0.000    0.000    0.000 
#
# Total GULP energy -421199.703307 kJ/mol
# GULP energy per Si atom -12388.226568 kJ/mol
# Density = 1.954410 g / cm^3
# Si number density = 19.588684 Si / 1000 Ang^3
#
#
#
# Elastic Constant Matrix: (Units=GPa)
#
#
# Indices 1 2 3 4 5 6 
#
# 1 71.0629 3.2392 15.0805 0.0000 0.0000 0.0000
# 2 3.2392 71.0629 15.0805 0.0000 0.0000 0.0000
# 3 15.0805 15.0805 82.3883 0.0000 0.0000 0.0000
# 4 0.0000 0.0000 0.0000 27.8539 0.0000 0.0000
# 5 0.0000 0.0000 0.0000 0.0000 27.8539 0.0000
# 6 0.0000 0.0000 0.0000 0.0000 0.0000 11.9136
#
#
#
# Elastic Compliance Matrix: (Units=1/GPa)
#
#
# Indices 1 2 3 4 5 6 
#
# 1 0.014641 -0.000103 -0.002661 0.000000 0.000000 0.000000
# 2 -0.000103 0.014641 -0.002661 0.000000 0.000000 0.000000
# 3 -0.002661 -0.002661 0.013112 0.000000 0.000000 0.000000
# 4 0.000000 0.000000 0.000000 0.035902 0.000000 0.000000
# 5 0.000000 0.000000 0.000000 0.000000 0.035902 0.000000
# 6 0.000000 0.000000 0.000000 0.000000 0.000000 0.083938
#
#
# Mechanical properties :
#
#
# Convention : Reuss Voigt Hill
#
# Bulk Modulus (GPa) = 31.70105 32.36825 32.03465
# Shear Modulus (GPa) = 22.77894 26.26520 24.52207
#
# Velocity S-wave (km/s) = 3.41378 3.66571 3.54199
# Velocity P-wave (km/s) = 5.63533 5.87166 5.75471
#
# Compressibility (1/GPa) = 0.03154470
#
# Stress axis : x y z
#
# Youngs Moduli (GPa) = 68.29917 68.29917 76.26680
#
# Poissons Ratio (x) = 0.00701 0.20296
# Poissons Ratio (y) = 0.00701 0.20296
# Poissons Ratio (z) = 0.18176 0.18176
#
# Static dielectric constant tensor:
#      x y z
#    x 3.604030 0.000000 0.000000 
#    y 0.000000 3.604030 0.000000 
#    z 0.000000 0.000000 4.079090 
# 
# 
# High freq. dielectric constant tensor:
#      x y z
#    x 1.757800 0.000000 0.000000 
#    y 0.000000 1.757800 0.000000 
#    z 0.000000 0.000000 1.771500 
# 
# From -- ./inp_files/2249.got.cif
#   From: 2010.03.12/outbox.cif.g09.slc.cpg/sg112_2_cif.got.tgz:2249.got - 2010.04.14 02:02:48.
