data_PCOD8308833
_publ_section_title
;
Structure prediction by ZEFSAII (Michael W. Deem and Ramdas Pophale) SiO2 
 PCOD8308833
Probable space group: P -4 21 C
;
_chemical_formula_sum "Si O2"
_cell_formula_units_Z 40
_cell_length_a 14.318270
_cell_length_b 14.318270
_cell_length_c 9.516811
_cell_angle_alpha 90.000000
_cell_angle_beta 90.000000
_cell_angle_gamma 90.000000
_cell_volume 1951.068601
_symmetry_space_group_name_H-M "P -4 21 C"
_symmetry_group_IT_number 114
_symmetry_cell_setting 'tetragonal'
loop_
_space_group_symop_operation_xyz
x,y,z
y,-x,-z
-x,-y,z
-y,x,-z
1/2+x,1/2-y,1/2-z
1/2-x,1/2+y,1/2-z
1/2-y,1/2-x,1/2+z
1/2+y,1/2+x,1/2+z
loop_
_atom_site_type_symbol
_atom_site_label
_atom_site_fract_x
_atom_site_fract_y
_atom_site_fract_z
Si Si1 0.885505 0.749098 0.475403
Si Si2 0.580928 0.624712 0.500107
Si Si3 0.754710 0.666908 0.682407
Si Si4 0.090880 0.735264 0.509038
Si Si5 0.221278 0.636422 0.705842
O O1 0.828669 0.664959 0.553710
O O2 0.905287 0.724943 0.309599
O O3 0.828331 0.846015 0.484485
O O4 0.985145 0.761133 0.551714
O O5 0.615598 0.524455 0.440215
O O6 0.649117 0.658651 0.624474
O O7 0.575818 0.701140 0.376346
O O8 0.768731 0.764751 0.761777
O O9 0.129675 0.653614 0.610174
O O10 0.088230 0.692913 0.351578
#
# Coordination Sequence:
#
# PCOD8308833 Si02
#       5
#     8   8   8   8   8
#     4  10  21  38  62  89 119 158 199 244 299 349
#     4  11  22  36  62  94 119 150 196 252 307 352
#     4  10  19  39  58  87 122 161 192 238 299 356
#     4  10  21  38  62  89 119 158 199 244 299 349
#     4  10  19  39  58  87 122 161 192 238 299 356
#
# _framework density 20.501586
#
# number of rings (size 3 to 8) (size 9 to 14) (size 15 to 20)
#    0.000    1.800    6.000    1.200    0.000    6.800 
#    0.000    0.000    0.000    9.600    0.000    0.000 
#    0.000    0.000    0.000    0.000    0.000    0.000 
#
# Total GULP energy -495673.805974 kJ/mol
# GULP energy per Si atom -12391.845149 kJ/mol
# Density = 2.045492 g / cm^3
# Si number density = 20.501586 Si / 1000 Ang^3
#
#
#
# Elastic Constant Matrix: (Units=GPa)
#
#
# Indices 1 2 3 4 5 6 
#
# 1 68.4376 31.3161 25.3898 0.0000 0.0000 0.0000
# 2 31.3161 68.4376 25.3898 0.0000 0.0000 0.0000
# 3 25.3898 25.3898 130.0251 0.0000 0.0000 0.0000
# 4 0.0000 0.0000 0.0000 17.2901 0.0000 0.0000
# 5 0.0000 0.0000 0.0000 0.0000 17.2901 0.0000
# 6 0.0000 0.0000 0.0000 0.0000 0.0000 22.7472
#
#
#
# Elastic Compliance Matrix: (Units=1/GPa)
#
#
# Indices 1 2 3 4 5 6 
#
# 1 0.019035 -0.007904 -0.002174 0.000000 0.000000 0.000000
# 2 -0.007904 0.019035 -0.002174 0.000000 0.000000 0.000000
# 3 -0.002174 -0.002174 0.008540 0.000000 0.000000 0.000000
# 4 0.000000 0.000000 0.000000 0.057837 0.000000 0.000000
# 5 0.000000 0.000000 0.000000 0.000000 0.057837 0.000000
# 6 0.000000 0.000000 0.000000 0.000000 0.000000 0.043961
#
#
# Mechanical properties :
#
#
# Convention : Reuss Voigt Hill
#
# Bulk Modulus (GPa) = 45.23309 47.89909 46.56609
# Shear Modulus (GPa) = 20.99825 23.78577 22.39201
#
# Velocity S-wave (km/s) = 3.20382 3.40985 3.30844
# Velocity P-wave (km/s) = 5.98307 6.23836 6.11205
#
# Compressibility (1/GPa) = 0.02210771
#
# Stress axis : x y z
#
# Youngs Moduli (GPa) = 52.53518 52.53518 117.10044
#
# Poissons Ratio (x) = 0.41522 0.25452
# Poissons Ratio (y) = 0.41522 0.25452
# Poissons Ratio (z) = 0.11419 0.11419
#
# Static dielectric constant tensor:
#      x y z
#    x 3.574360 0.000000 0.000000 
#    y 0.000000 3.574360 0.000000 
#    z 0.000000 0.000000 4.211410 
# 
# 
# High freq. dielectric constant tensor:
#      x y z
#    x 1.779080 0.000000 0.000000 
#    y 0.000000 1.779080 0.000000 
#    z 0.000000 0.000000 1.815350 
# 
# From -- ./inp_files/784.got.cif
#   From: 2010.03.12/outbox.cif.g09.slc.cpg/sg114_1_cif.got.tgz:784.got - 2010.04.14 02:08:34.
