data_PCOD8308065
_publ_section_title
;
Structure prediction by ZEFSAII (Michael W. Deem and Ramdas Pophale) SiO2 
 PCOD8308065
Probable space group: I 41 C D
;
_chemical_formula_sum "Si O2"
_cell_formula_units_Z 96
_cell_length_a 14.959631
_cell_length_b 14.959631
_cell_length_c 21.987859
_cell_angle_alpha 90.000000
_cell_angle_beta 90.000000
_cell_angle_gamma 90.000000
_cell_volume 4920.675271
_symmetry_space_group_name_H-M "I 41 C D"
_symmetry_group_IT_number 110
_symmetry_cell_setting 'tetragonal'
loop_
_space_group_symop_operation_xyz
x,y,z
-y,1/2+x,1/4+z
-x,-y,z
y,1/2-x,1/4+z
-x,y,1/2+z
x,-y,1/2+z
1/2-y,-x,1/4+z
1/2+y,x,1/4+z
1/2+x,1/2+y,1/2+z
1/2-y,x,3/4+z
1/2-x,1/2-y,1/2+z
1/2+y,-x,3/4+z
1/2-x,1/2+y,z
1/2+x,1/2-y,z
-y,1/2-x,3/4+z
y,1/2+x,3/4+z
loop_
_atom_site_type_symbol
_atom_site_label
_atom_site_fract_x
_atom_site_fract_y
_atom_site_fract_z
Si Si1 0.572154 0.922882 0.826030
Si Si2 0.527462 0.323740 0.483942
Si Si3 0.676260 0.527462 0.976533
Si Si4 0.949879 0.375591 0.958768
Si Si5 0.422882 0.072154 0.634444
Si Si6 0.949879 0.124409 0.251706
O O1 0.534901 0.841770 0.785067
O O2 0.594886 0.883471 0.892177
O O3 0.500000 0.000000 0.832192
O O4 0.658742 0.967903 0.794345
O O5 0.612894 0.387106 0.480237
O O6 0.563334 0.223034 0.484970
O O7 0.465100 0.341770 0.425408
O O8 0.658742 0.467903 0.916130
O O9 0.776966 0.563334 0.975504
O O10 0.900024 0.444306 0.004354
O O11 0.055694 0.400024 0.956121
O O12 0.383470 0.094886 0.568298
O O13 0.500000 0.000000 0.628281
#
# Coordination Sequence:
#
# PCOD8308065 Si02
#       6
#    16  16  16  16  16  16
#     4   9  17  38  61  81 109 159 191 236 304 365
#     4   9  20  37  62  83 112 152 206 244 293 366
#     4   9  20  37  62  83 112 152 206 244 293 366
#     4  11  21  36  58  85 122 154 190 243 310 361
#     4   9  17  38  61  81 109 159 191 236 304 365
#     4  11  21  36  58  85 122 154 190 243 310 361
#
# _framework density 19.509516999999999
#
# number of rings (size 3 to 8) (size 9 to 14) (size 15 to 20)
#    0.000    2.333    3.333    3.000    0.000    1.333 
#    6.000    0.000    7.333    0.000    0.000    0.000 
#    0.000    0.000    0.000    0.000    0.000    0.000 
#
# Total GULP energy -595065.425211 kJ/mol
# GULP energy per Si atom -12397.196359 kJ/mol
# Density = 1.946511 g / cm^3
# Si number density = 19.509517 Si / 1000 Ang^3
#
#
#
# Elastic Constant Matrix: (Units=GPa)
#
#
# Indices 1 2 3 4 5 6 
#
# 1 106.1158 18.3115 34.5744 0.0000 0.0000 0.0000
# 2 18.3115 106.1158 34.5744 0.0000 0.0000 0.0000
# 3 34.5744 34.5744 130.0413 0.0000 0.0000 0.0000
# 4 0.0000 0.0000 0.0000 20.2962 0.0000 0.0000
# 5 0.0000 0.0000 0.0000 0.0000 20.2962 0.0000
# 6 0.0000 0.0000 0.0000 0.0000 0.0000 15.0701
#
#
#
# Elastic Compliance Matrix: (Units=1/GPa)
#
#
# Indices 1 2 3 4 5 6 
#
# 1 0.010410 -0.000979 -0.002507 0.000000 0.000000 0.000000
# 2 -0.000979 0.010410 -0.002507 0.000000 0.000000 0.000000
# 3 -0.002507 -0.002507 0.009023 0.000000 0.000000 0.000000
# 4 0.000000 0.000000 0.000000 0.049270 0.000000 0.000000
# 5 0.000000 0.000000 0.000000 0.000000 0.049270 0.000000
# 6 0.000000 0.000000 0.000000 0.000000 0.000000 0.066357
#
#
# Mechanical properties :
#
#
# Convention : Reuss Voigt Hill
#
# Bulk Modulus (GPa) = 56.00821 57.46595 56.73708
# Shear Modulus (GPa) = 23.50962 28.11998 25.81480
#
# Velocity S-wave (km/s) = 3.47513 3.80063 3.64151
# Velocity P-wave (km/s) = 6.69869 6.98419 6.84293
#
# Compressibility (1/GPa) = 0.01785453
#
# Stress axis : x y z
#
# Youngs Moduli (GPa) = 96.06539 96.06539 110.82703
#
# Poissons Ratio (x) = 0.09409 0.27787
# Poissons Ratio (y) = 0.09409 0.27787
# Poissons Ratio (z) = 0.24086 0.24086
#
# Static dielectric constant tensor:
#      x y z
#    x 3.331140 0.000000 0.000000 
#    y 0.000000 3.331140 0.000000 
#    z 0.000000 0.000000 3.970470 
# 
# 
# High freq. dielectric constant tensor:
#      x y z
#    x 1.738030 0.000000 0.000000 
#    y 0.000000 1.738030 0.000000 
#    z 0.000000 0.000000 1.765830 
# 
# From -- ./inp_files/2182.got.cif
#   From: 2010.03.12/outbox.cif.g09.slc.cpg/sg110_2_cif.got.tgz:2182.got - 2010.04.14 01:58:01.
