data_PCOD8308721
_publ_section_title
;
Structure prediction by ZEFSAII (Michael W. Deem and Ramdas Pophale) SiO2 
 PCOD8308721
Probable space group: P -4 21 M 
;
_chemical_formula_sum "Si O2"
_cell_formula_units_Z 56
_cell_length_a 11.252908
_cell_length_b 11.252908
_cell_length_c 20.892937
_cell_angle_alpha 90.000000
_cell_angle_beta 90.000000
_cell_angle_gamma 90.000000
_cell_volume 2645.629541
_symmetry_space_group_name_H-M "P -4 21 M "
_symmetry_group_IT_number 113
_symmetry_cell_setting 'tetragonal'
loop_
_space_group_symop_operation_xyz
x,y,z
y,-x,-z
-x,-y,z
-y,x,-z
1/2+x,1/2-y,-z
1/2-x,1/2+y,-z
1/2-y,1/2-x,z
1/2+y,1/2+x,z
loop_
_atom_site_type_symbol
_atom_site_label
_atom_site_fract_x
_atom_site_fract_y
_atom_site_fract_z
Si Si1 0.591994 0.600387 0.767225
Si Si2 0.158087 0.149829 0.907029
Si Si3 0.232467 0.552004 0.701247
Si Si4 0.239874 0.453418 0.564376
Si Si5 0.574443 0.734867 0.566960
Si Si6 0.247205 0.931446 0.688273
Si Si7 0.193555 0.500203 0.995281
O O1 0.500000 0.500000 0.745924
O O2 0.587740 0.611761 0.843390
O O3 0.724021 0.562039 0.742712
O O4 0.548741 0.721759 0.731947
O O5 0.255361 0.244639 0.886040
O O6 0.047900 0.217677 0.940732
O O7 0.219452 0.047022 0.949319
O O8 0.111181 0.611181 0.730000
O O9 0.201205 0.517287 0.629014
O O10 0.333216 0.650474 0.703536
O O11 0.146217 0.353784 0.544185
O O12 0.369036 0.395499 0.574800
O O13 0.244094 0.546444 0.507040
O O14 0.665195 0.834806 0.591221
O O15 0.460305 0.740354 0.612753
O O16 0.377870 0.877870 0.704159
O O17 0.109540 0.609540 0.970549
O O18 0.108646 0.391355 0.019476
#
# Coordination Sequence:
#
# PCOD8308721 Si02
#       7
#     8   8   8   8   8   8   8
#     4  10  22  38  58  88 122 156 197 246 297 357
#     4  10  22  38  62  92 122 162 203 241 296 364
#     4  10  21  39  60  83 116 156 200 249 304 365
#     4  11  23  37  56  83 113 150 199 252 309 369
#     4  11  23  37  56  83 113 150 199 252 309 369
#     4  10  21  39  60  83 116 156 200 249 304 365
#     4   9  20  39  60  90 130 163 202 257 304 350
#
# _framework density 21.166983999999999
#
# number of rings (size 3 to 8) (size 9 to 14) (size 15 to 20)
#    0.000    1.857    1.429    1.714    2.000    8.000 
#    0.000    0.000    0.000    0.000    0.000    0.000 
#    0.000    0.000    0.000    0.000    0.000    0.000 
#
# Total GULP energy -694216.931569 kJ/mol
# GULP energy per Si atom -12396.730921 kJ/mol
# Density = 2.111881 g / cm^3
# Si number density = 21.166984 Si / 1000 Ang^3
#
#
#
# Elastic Constant Matrix: (Units=GPa)
#
#
# Indices 1 2 3 4 5 6 
#
# 1 82.8614 52.8703 40.1764 0.0000 0.0000 0.0000
# 2 52.8703 82.8628 40.1758 0.0000 0.0000 0.0000
# 3 40.1764 40.1758 112.0987 0.0000 0.0000 0.0000
# 4 0.0000 0.0000 0.0000 20.9155 0.0000 0.0000
# 5 0.0000 0.0000 0.0000 0.0000 20.9168 0.0000
# 6 0.0000 0.0000 0.0000 0.0000 0.0000 37.4693
#
#
#
# Elastic Compliance Matrix: (Units=1/GPa)
#
#
# Indices 1 2 3 4 5 6 
#
# 1 0.021347 -0.011995 -0.003352 0.000000 0.000000 0.000000
# 2 -0.011995 0.021347 -0.003351 0.000000 0.000000 0.000000
# 3 -0.003352 -0.003351 0.011323 0.000000 0.000000 0.000000
# 4 0.000000 0.000000 0.000000 0.047811 0.000000 0.000000
# 5 0.000000 0.000000 0.000000 0.000000 0.047808 0.000000
# 6 0.000000 0.000000 0.000000 0.000000 0.000000 0.026689
#
#
# Mechanical properties :
#
#
# Convention : Reuss Voigt Hill
#
# Bulk Modulus (GPa) = 60.16898 60.47422 60.32160
# Shear Modulus (GPa) = 22.80372 25.50036 24.15204
#
# Velocity S-wave (km/s) = 3.28582 3.47468 3.38157
# Velocity P-wave (km/s) = 6.54852 6.68804 6.61865
#
# Compressibility (1/GPa) = 0.01661986
#
# Stress axis : x y z
#
# Youngs Moduli (GPa) = 46.84444 46.84567 88.31478
#
# Poissons Ratio (x) = 0.56193 0.29601
# Poissons Ratio (y) = 0.56192 0.29598
# Poissons Ratio (z) = 0.15701 0.15700
#
# Static dielectric constant tensor:
#      x y z
#    x 4.066720 0.000000 0.000000 
#    y 0.000000 4.066730 0.000000 
#    z 0.000000 0.000000 3.449170 
# 
# 
# High freq. dielectric constant tensor:
#      x y z
#    x 1.835180 0.000000 0.000000 
#    y 0.000000 1.835180 0.000000 
#    z 0.000000 0.000000 1.806930 
# 
# From -- ./inp_files/2742.got.cif
#   From: 2010.03.12/outbox.cif.g09.slc.cpg/sg113_cif.got.tgz:2742.got - 2010.04.14 02:06:34.
