data_PCOD8308355
_publ_section_title
;
Structure prediction by ZEFSAII (Michael W. Deem and Ramdas Pophale) SiO2 
 PCOD8308355
Probable space group: P -4 2 C
;
_chemical_formula_sum "Si O2"
_cell_formula_units_Z 40
_cell_length_a 9.712009
_cell_length_b 9.712009
_cell_length_c 22.762935
_cell_angle_alpha 90.000000
_cell_angle_beta 90.000000
_cell_angle_gamma 90.000000
_cell_volume 2147.071023
_symmetry_space_group_name_H-M "P -4 2 C"
_symmetry_group_IT_number 112
_symmetry_cell_setting 'tetragonal'
loop_
_space_group_symop_operation_xyz
x,y,z
y,-x,-z
-x,-y,z
-y,x,-z
x,-y,1/2-z
-x,y,1/2-z
-y,-x,1/2+z
y,x,1/2+z
loop_
_atom_site_type_symbol
_atom_site_label
_atom_site_fract_x
_atom_site_fract_y
_atom_site_fract_z
Si Si1 0.017017 0.838949 0.184875
Si Si2 0.340964 0.666450 0.498951
Si Si3 0.837199 0.271280 0.608201
Si Si4 0.159423 0.762957 0.890422
Si Si5 0.840551 0.519445 0.687418
O O1 0.912202 0.795700 0.133008
O O2 0.000000 0.769543 0.250000
O O3 0.164343 0.797432 0.159178
O O4 0.000000 0.000000 0.194208
O O5 0.504068 0.692453 0.505094
O O6 0.259817 0.741534 0.551661
O O7 0.282147 0.740256 0.441853
O O8 0.795735 0.417301 0.635782
O O9 0.998465 0.252842 0.590075
O O10 0.190440 0.672277 0.833305
O O11 0.762827 0.500000 0.750000
O O12 0.000000 0.500000 0.698850
#
# Coordination Sequence:
#
# PCOD8308355 Si02
#       5
#     8   8   8   8   8
#     4   9  18  34  57  89 121 143 172 225 286 331
#     4  11  24  40  55  74 112 152 191 234 280 323
#     4  10  20  35  56  85 110 146 185 225 273 328
#     4  10  20  35  56  85 110 146 185 225 273 328
#     4   9  16  30  55  83 109 137 182 229 264 315
#
# _framework density 18.630030999999999
#
# number of rings (size 3 to 8) (size 9 to 14) (size 15 to 20)
#    0.000    2.200    2.000    1.200    2.800    4.800 
#    0.000    0.000    0.000    7.200    0.000    0.000 
#    0.000    0.000    0.000    0.000    0.000    0.000 
#
# Total GULP energy -495645.950884 kJ/mol
# GULP energy per Si atom -12391.148772 kJ/mol
# Density = 1.858763 g / cm^3
# Si number density = 18.630031 Si / 1000 Ang^3
#
#
#
# Elastic Constant Matrix: (Units=GPa)
#
#
# Indices 1 2 3 4 5 6 
#
# 1 59.5983 24.4709 33.0858 0.0000 0.0000 0.0000
# 2 24.4709 59.5983 33.0858 0.0000 0.0000 0.0000
# 3 33.0858 33.0858 122.3159 0.0000 0.0000 0.0000
# 4 0.0000 0.0000 0.0000 313.3501 0.0000 0.0000
# 5 0.0000 0.0000 0.0000 0.0000 313.3501 0.0000
# 6 0.0000 0.0000 0.0000 0.0000 0.0000 18.3118
#
#
#
# Elastic Compliance Matrix: (Units=1/GPa)
#
#
# Indices 1 2 3 4 5 6 
#
# 1 0.021790 -0.006678 -0.004088 0.000000 0.000000 0.000000
# 2 -0.006678 0.021790 -0.004088 0.000000 0.000000 0.000000
# 3 -0.004088 -0.004088 0.010387 0.000000 0.000000 0.000000
# 4 0.000000 0.000000 0.000000 0.003191 0.000000 0.000000
# 5 0.000000 0.000000 0.000000 0.000000 0.003191 0.000000
# 6 0.000000 0.000000 0.000000 0.000000 0.000000 0.054609
#
#
# Mechanical properties :
#
#
# Convention : Reuss Voigt Hill
#
# Bulk Modulus (GPa) = 41.21895 46.97751 44.09823
# Shear Modulus (GPa) = 32.73257 139.06039 85.89648
#
# Velocity S-wave (km/s) = 4.19618 8.64900 6.79754
# Velocity P-wave (km/s) = 6.75650 11.18083 9.23746
#
# Compressibility (1/GPa) = 0.02426069
#
# Stress axis : x y z
#
# Youngs Moduli (GPa) = 45.89228 45.89228 96.27370
#
# Poissons Ratio (x) = 0.30645 0.39355
# Poissons Ratio (y) = 0.30645 0.39355
# Poissons Ratio (z) = 0.18760 0.18760
#
# Static dielectric constant tensor:
#      x y z
#    x 1.479610 0.000000 0.000000 
#    y 0.000000 1.479610 0.000000 
#    z 0.000000 0.000000 3.736520 
# 
# 
# High freq. dielectric constant tensor:
#      x y z
#    x 1.702420 0.000000 0.000000 
#    y 0.000000 1.702420 0.000000 
#    z 0.000000 0.000000 1.741200 
# 
# From -- ./inp_files/5336.got.cif
#   From: 2010.03.12/outbox.cif.g09.slc.cpg/sg112_3_cif.got.tgz:5336.got - 2010.04.14 02:02:48.
