data_PCOD8308850
_publ_section_title
;
Structure prediction by ZEFSAII (Michael W. Deem and Ramdas Pophale) SiO2 
 PCOD8308850
Probable space group: P -4 21 C
;
_chemical_formula_sum "Si O2"
_cell_formula_units_Z 32
_cell_length_a 7.576005
_cell_length_b 7.576005
_cell_length_c 23.925484
_cell_angle_alpha 90.000000
_cell_angle_beta 90.000000
_cell_angle_gamma 90.000000
_cell_volume 1373.223533
_symmetry_space_group_name_H-M "P -4 21 C"
_symmetry_group_IT_number 114
_symmetry_cell_setting 'tetragonal'
loop_
_space_group_symop_operation_xyz
x,y,z
y,-x,-z
-x,-y,z
-y,x,-z
1/2+x,1/2-y,1/2-z
1/2-x,1/2+y,1/2-z
1/2-y,1/2-x,1/2+z
1/2+y,1/2+x,1/2+z
loop_
_atom_site_type_symbol
_atom_site_label
_atom_site_fract_x
_atom_site_fract_y
_atom_site_fract_z
Si Si1 0.736299 0.241013 0.933403
Si Si2 0.500000 0.500000 0.500000
Si Si3 0.500000 0.000000 0.618046
Si Si4 0.000000 0.000000 0.500000
Si Si5 0.748128 0.621608 0.798131
Si Si6 0.391461 0.767893 0.815578
O O1 0.665453 0.154762 0.875561
O O2 0.867352 0.402686 0.922756
O O3 0.569620 0.330375 0.964956
O O4 0.837947 0.083504 0.965038
O O5 0.409480 0.851722 0.658449
O O6 0.603675 0.773610 0.809200
O O7 0.670385 0.431812 0.811635
O O8 0.808230 0.618008 0.733971
#
# Coordination Sequence:
#
# PCOD8308850 Si02
#       6
#     8   2   4   2   8   8
#     4  11  24  43  66  93 128 172 221 277 328 382
#     4  12  28  44  64 102 132 164 224 292 328 366
#     4  10  20  40  64  92 128 168 210 266 330 400
#     4  12  24  48  72  90 124 184 236 264 320 398
#     4  10  20  36  60  93 127 162 207 255 322 403
#     4  10  21  37  60  91 127 168 208 258 323 393
#
# _framework density 23.302831999999999
#
# number of rings (size 3 to 8) (size 9 to 14) (size 15 to 20)
#    0.000    1.500    0.000    7.500    0.000    4.000 
#    0.000    5.000    0.000    0.000    0.000    0.000 
#    0.000    0.000    0.000    0.000    0.000    0.000 
#
# Total GULP energy -396710.680069 kJ/mol
# GULP energy per Si atom -12397.208752 kJ/mol
# Density = 2.324979 g / cm^3
# Si number density = 23.302832 Si / 1000 Ang^3
#
#
#
# Elastic Constant Matrix: (Units=GPa)
#
#
# Indices 1 2 3 4 5 6 
#
# 1 77.3699 20.2065 43.1391 0.0000 0.0000 0.0000
# 2 20.2065 77.3699 43.1391 0.0000 0.0000 0.0000
# 3 43.1391 43.1391 141.3353 0.0000 0.0000 0.0000
# 4 0.0000 0.0000 0.0000 30.1985 0.0000 0.0000
# 5 0.0000 0.0000 0.0000 0.0000 30.1985 0.0000
# 6 0.0000 0.0000 0.0000 0.0000 0.0000 39.1934
#
#
#
# Elastic Compliance Matrix: (Units=1/GPa)
#
#
# Indices 1 2 3 4 5 6 
#
# 1 0.015765 -0.001729 -0.004284 0.000000 0.000000 0.000000
# 2 -0.001729 0.015765 -0.004284 0.000000 0.000000 0.000000
# 3 -0.004284 -0.004284 0.009691 0.000000 0.000000 0.000000
# 4 0.000000 0.000000 0.000000 0.033114 0.000000 0.000000
# 5 0.000000 0.000000 0.000000 0.000000 0.033114 0.000000
# 6 0.000000 0.000000 0.000000 0.000000 0.000000 0.025515
#
#
# Mechanical properties :
#
#
# Convention : Reuss Voigt Hill
#
# Bulk Modulus (GPa) = 48.48091 56.56053 52.52072
# Shear Modulus (GPa) = 31.16546 32.55745 31.86145
#
# Velocity S-wave (km/s) = 3.66103 3.74190 3.70168
# Velocity P-wave (km/s) = 6.22260 6.55696 6.39197
#
# Compressibility (1/GPa) = 0.02062667
#
# Stress axis : x y z
#
# Youngs Moduli (GPa) = 63.43091 63.43091 103.19114
#
# Poissons Ratio (x) = 0.10964 0.44211
# Poissons Ratio (y) = 0.10964 0.44211
# Poissons Ratio (z) = 0.27176 0.27176
#
# Static dielectric constant tensor:
#      x y z
#    x 4.400330 0.000000 0.000000 
#    y 0.000000 4.400330 0.000000 
#    z 0.000000 0.000000 4.409270 
# 
# 
# High freq. dielectric constant tensor:
#      x y z
#    x 1.917170 0.000000 0.000000 
#    y 0.000000 1.917170 0.000000 
#    z 0.000000 0.000000 1.930600 
# 
# From -- ./inp_files/2900.got.cif
#   From: 2010.03.12/outbox.cif.g09.slc.cpg/sg114_2_cif.got.tgz:2900.got - 2010.04.14 02:08:34.
