data_PCOD8308602
_publ_section_title
;
Structure prediction by ZEFSAII (Michael W. Deem and Ramdas Pophale) SiO2 
 PCOD8308602
Probable space group: P -4 21 M 
;
_chemical_formula_sum "Si O2"
_cell_formula_units_Z 28
_cell_length_a 9.191599
_cell_length_b 9.191599
_cell_length_c 17.370687
_cell_angle_alpha 90.000000
_cell_angle_beta 90.000000
_cell_angle_gamma 90.000000
_cell_volume 1467.571041
_symmetry_space_group_name_H-M "P -4 21 M "
_symmetry_group_IT_number 113
_symmetry_cell_setting 'tetragonal'
loop_
_space_group_symop_operation_xyz
x,y,z
y,-x,-z
-x,-y,z
-y,x,-z
1/2+x,1/2-y,-z
1/2-x,1/2+y,-z
1/2-y,1/2-x,z
1/2+y,1/2+x,z
loop_
_atom_site_type_symbol
_atom_site_label
_atom_site_fract_x
_atom_site_fract_y
_atom_site_fract_z
Si Si1 0.000000 0.000000 0.680431
Si Si2 0.801110 0.931314 0.035110
Si Si3 0.816178 0.919031 0.543203
Si Si4 0.762699 0.504335 0.794958
O O1 0.143821 0.023153 0.628194
O O2 0.977690 0.141116 0.731810
O O3 0.647944 0.852057 0.018854
O O4 0.808391 0.993780 0.120970
O O5 0.934645 0.818332 0.024087
O O6 0.661630 0.838371 0.544426
O O7 0.944325 0.808904 0.515242
O O8 0.837465 0.662536 0.785420
O O9 0.880350 0.380350 0.782809
#
# Coordination Sequence:
#
# PCOD8308602 Si02
#       4
#     4   8   8   8
#     4  10  19  34  57  80 106 136 176 220 259 306
#     4  10  20  34  53  76 102 136 178 221 265 314
#     4   9  20  36  55  80 107 137 174 214 258 309
#     4  10  21  36  54  77 106 141 178 216 264 319
#
# _framework density 19.079145
#
# number of rings (size 3 to 8) (size 9 to 14) (size 15 to 20)
#    0.000    2.571    0.000    3.429    0.000    6.857 
#    0.000    1.429    0.000    6.000    0.000    0.000 
#    0.000    0.000    0.000    0.000    0.000    0.000 
#
# Total GULP energy -347146.094542 kJ/mol
# GULP energy per Si atom -12398.074805 kJ/mol
# Density = 1.903572 g / cm^3
# Si number density = 19.079145 Si / 1000 Ang^3
#
#
#
# Elastic Constant Matrix: (Units=GPa)
#
#
# Indices 1 2 3 4 5 6 
#
# 1 76.5313 31.7533 51.5569 0.0000 0.0000 0.0000
# 2 31.7533 76.5262 51.5563 0.0000 0.0000 0.0000
# 3 51.5569 51.5563 119.8967 0.0000 0.0000 0.0000
# 4 0.0000 0.0000 0.0000 20.5205 0.0000 0.0000
# 5 0.0000 0.0000 0.0000 0.0000 20.5215 0.0000
# 6 0.0000 0.0000 0.0000 0.0000 0.0000 46.0821
#
#
#
# Elastic Compliance Matrix: (Units=1/GPa)
#
#
# Indices 1 2 3 4 5 6 
#
# 1 0.018986 -0.003347 -0.006725 0.000000 0.000000 0.000000
# 2 -0.003347 0.018987 -0.006725 0.000000 0.000000 0.000000
# 3 -0.006725 -0.006725 0.014124 0.000000 0.000000 0.000000
# 4 0.000000 0.000000 0.000000 0.048732 0.000000 0.000000
# 5 0.000000 0.000000 0.000000 0.000000 0.048729 0.000000
# 6 0.000000 0.000000 0.000000 0.000000 0.000000 0.021700
#
#
# Mechanical properties :
#
#
# Convention : Reuss Voigt Hill
#
# Bulk Modulus (GPa) = 54.04683 60.29859 57.17271
# Shear Modulus (GPa) = 23.69445 26.63069 25.16257
#
# Velocity S-wave (km/s) = 3.52789 3.74010 3.63554
# Velocity P-wave (km/s) = 6.70700 7.09395 6.90319
#
# Compressibility (1/GPa) = 0.01850247
#
# Stress axis : x y z
#
# Youngs Moduli (GPa) = 52.67164 52.66716 70.80113
#
# Poissons Ratio (x) = 0.17629 0.47611
# Poissons Ratio (y) = 0.17631 0.47615
# Poissons Ratio (z) = 0.35420 0.35420
#
# Static dielectric constant tensor:
#      x y z
#    x 3.451690 0.000000 0.000000 
#    y 0.000000 3.451710 0.000000 
#    z 0.000000 0.000000 3.561550 
# 
# 
# High freq. dielectric constant tensor:
#      x y z
#    x 1.735470 0.000000 0.000000 
#    y 0.000000 1.735470 0.000000 
#    z 0.000000 0.000000 1.745060 
# 
# From -- ./inp_files/2384.got.cif
#   From: 2010.03.12/outbox.cif.g09.slc.cpg/sg113_cif.got.tgz:2384.got - 2010.04.14 02:06:34.
