data_PCOD8308686
_publ_section_title
;
Structure prediction by ZEFSAII (Michael W. Deem and Ramdas Pophale) SiO2 
 PCOD8308686
Probable space group: P -4 21 M 
;
_chemical_formula_sum "Si O2"
_cell_formula_units_Z 48
_cell_length_a 14.063509
_cell_length_b 14.063509
_cell_length_c 11.470273
_cell_angle_alpha 90.000000
_cell_angle_beta 90.000000
_cell_angle_gamma 90.000000
_cell_volume 2268.616808
_symmetry_space_group_name_H-M "P -4 21 M "
_symmetry_group_IT_number 113
_symmetry_cell_setting 'tetragonal'
loop_
_space_group_symop_operation_xyz
x,y,z
y,-x,-z
-x,-y,z
-y,x,-z
1/2+x,1/2-y,-z
1/2-x,1/2+y,-z
1/2-y,1/2-x,z
1/2+y,1/2+x,z
loop_
_atom_site_type_symbol
_atom_site_label
_atom_site_fract_x
_atom_site_fract_y
_atom_site_fract_z
Si Si1 0.919353 0.580647 0.549305
Si Si2 0.123048 0.054464 0.442182
Si Si3 0.391457 0.485973 0.818567
Si Si4 0.214596 0.560256 0.935374
Si Si5 0.387126 0.266927 0.816258
Si Si6 0.578875 0.078875 0.186874
Si Si7 0.791835 0.446596 0.423103
O O1 0.890004 0.609997 0.682072
O O2 0.826426 0.546169 0.478479
O O3 0.000000 0.500000 0.554600
O O4 0.221587 0.103481 0.481432
O O5 0.032687 0.120770 0.463129
O O6 0.122655 0.013303 0.314658
O O7 0.500000 0.500000 0.860357
O O8 0.323019 0.558842 0.888432
O O9 0.362235 0.376862 0.839142
O O10 0.155146 0.655146 0.895991
O O11 0.166125 0.464597 0.886266
O O12 0.220011 0.557004 0.075330
O O13 0.286708 0.213293 0.795873
O O14 0.456472 0.257169 0.704120
O O15 0.500000 0.000000 0.200715
O O16 0.883084 0.383084 0.405247
#
# Coordination Sequence:
#
# PCOD8308686 Si02
#       7
#     4   8   8   8   8   4   8
#     4   9  18  33  61  93 127 158 199 255 312 386
#     4  11  20  40  60  84 124 158 202 261 313 373
#     4  12  24  40  68  89 126 175 220 264 333 396
#     4  10  24  42  65  96 132 169 220 278 329 391
#     4  10  23  42  62  93 129 167 218 267 322 390
#     4   9  18  39  63  97 131 168 210 264 337 389
#     4  10  20  38  62  92 125 161 204 258 323 390
#
# _framework density 21.158266999999999
#
# number of rings (size 3 to 8) (size 9 to 14) (size 15 to 20)
#    0.000    1.667    3.333    1.000    3.500    2.667 
#    3.000    3.333    5.500    0.000    0.000    0.000 
#    0.000    0.000    0.000    0.000    0.000    0.000 
#
# Total GULP energy -594923.638620 kJ/mol
# GULP energy per Si atom -12394.242471 kJ/mol
# Density = 2.111011 g / cm^3
# Si number density = 21.158267 Si / 1000 Ang^3
#
#
#
# Elastic Constant Matrix: (Units=GPa)
#
#
# Indices 1 2 3 4 5 6 
#
# 1 79.5860 19.2375 37.0257 0.0000 0.0000 0.0000
# 2 19.2375 79.5857 37.0254 0.0000 0.0000 0.0000
# 3 37.0257 37.0254 103.1250 0.0000 0.0000 0.0000
# 4 0.0000 0.0000 0.0000 32.9055 0.0000 0.0000
# 5 0.0000 0.0000 0.0000 0.0000 32.9058 0.0000
# 6 0.0000 0.0000 0.0000 0.0000 0.0000 24.7115
#
#
#
# Elastic Compliance Matrix: (Units=1/GPa)
#
#
# Indices 1 2 3 4 5 6 
#
# 1 0.015207 -0.001363 -0.004970 0.000000 0.000000 0.000000
# 2 -0.001363 0.015207 -0.004970 0.000000 0.000000 0.000000
# 3 -0.004970 -0.004970 0.013266 0.000000 0.000000 0.000000
# 4 0.000000 0.000000 0.000000 0.030390 0.000000 0.000000
# 5 0.000000 0.000000 0.000000 0.000000 0.030390 0.000000
# 6 0.000000 0.000000 0.000000 0.000000 0.000000 0.040467
#
#
# Mechanical properties :
#
#
# Convention : Reuss Voigt Hill
#
# Bulk Modulus (GPa) = 47.45697 49.87489 48.66593
# Shear Modulus (GPa) = 28.64364 29.37176 29.00770
#
# Velocity S-wave (km/s) = 3.68337 3.72989 3.70670
# Velocity P-wave (km/s) = 6.36929 6.49407 6.43198
#
# Compressibility (1/GPa) = 0.02107172
#
# Stress axis : x y z
#
# Youngs Moduli (GPa) = 65.75941 65.75941 75.38072
#
# Poissons Ratio (x) = 0.08966 0.37467
# Poissons Ratio (y) = 0.08966 0.37466
# Poissons Ratio (z) = 0.32685 0.32684
#
# Static dielectric constant tensor:
#      x y z
#    x 3.923190 0.000000 0.000000 
#    y 0.000000 3.923190 0.000000 
#    z 0.000000 0.000000 3.974470 
# 
# 
# High freq. dielectric constant tensor:
#      x y z
#    x 1.819530 0.000000 0.000000 
#    y 0.000000 1.819530 0.000000 
#    z 0.000000 0.000000 1.839160 
# 
# From -- ./inp_files/1873.got.cif
#   From: 2010.03.12/outbox.cif.g09.slc.cpg/sg113_cif.got.tgz:1873.got - 2010.04.14 02:06:34.
