data_PCOD8308606
_publ_section_title
;
Structure prediction by ZEFSAII (Michael W. Deem and Ramdas Pophale) SiO2 
 PCOD8308606
Probable space group: P -4 21 M 
;
_chemical_formula_sum "Si O2"
_cell_formula_units_Z 48
_cell_length_a 13.783156
_cell_length_b 13.783156
_cell_length_c 12.168800
_cell_angle_alpha 90.000000
_cell_angle_beta 90.000000
_cell_angle_gamma 90.000000
_cell_volume 2311.772518
_symmetry_space_group_name_H-M "P -4 21 M "
_symmetry_group_IT_number 113
_symmetry_cell_setting 'tetragonal'
loop_
_space_group_symop_operation_xyz
x,y,z
y,-x,-z
-x,-y,z
-y,x,-z
1/2+x,1/2-y,-z
1/2-x,1/2+y,-z
1/2-y,1/2-x,z
1/2+y,1/2+x,z
loop_
_atom_site_type_symbol
_atom_site_label
_atom_site_fract_x
_atom_site_fract_y
_atom_site_fract_z
Si Si1 0.152806 0.499198 0.579172
Si Si2 0.954616 0.897564 0.231648
Si Si3 0.200687 0.144171 0.810371
Si Si4 0.301082 0.953400 0.183287
Si Si5 0.472694 0.368010 0.450778
Si Si6 0.370775 0.285801 0.067863
O O1 0.082945 0.582945 0.534334
O O2 0.161560 0.510879 0.710326
O O3 0.255644 0.514965 0.521056
O O4 0.106264 0.393737 0.550250
O O5 0.889564 0.911059 0.341148
O O6 0.884592 0.861343 0.135562
O O7 0.038753 0.815151 0.245683
O O8 0.000000 0.000000 0.195084
O O9 0.304677 0.195324 0.780085
O O10 0.112301 0.212601 0.771589
O O11 0.189432 0.133096 0.940534
O O12 0.385357 0.885357 0.132066
O O13 0.269080 0.027954 0.090185
O O14 0.417541 0.419644 0.554660
O O15 0.281897 0.218104 0.103586
#
# Coordination Sequence:
#
# PCOD8308606 Si02
#       6
#     8   8   8   8   8   8
#     4  10  21  39  63  90 119 155 200 250 312 374
#     4  12  21  37  62  84 119 164 200 252 309 368
#     4  10  22  37  56  88 123 159 205 249 299 371
#     4  10  19  34  57  86 119 156 196 247 306 362
#     4  11  23  39  58  88 125 155 204 261 308 359
#     4  11  22  35  57  92 125 156 202 252 303 375
#
# _framework density 20.763286999999998
#
# number of rings (size 3 to 8) (size 9 to 14) (size 15 to 20)
#    0.000    1.333    5.000    1.500    0.000    1.667 
#    0.000    0.833    0.000    1.500    0.000    0.000 
#    0.000    0.000    0.000    0.000    0.000    0.000 
#
# Total GULP energy -595091.777867 kJ/mol
# GULP energy per Si atom -12397.745372 kJ/mol
# Density = 2.071603 g / cm^3
# Si number density = 20.763287 Si / 1000 Ang^3
#
#
#
# Elastic Constant Matrix: (Units=GPa)
#
#
# Indices 1 2 3 4 5 6 
#
# 1 126.9221 57.4361 18.1011 0.0000 0.0000 0.0000
# 2 57.4361 126.9219 18.1018 0.0000 0.0000 0.0000
# 3 18.1011 18.1018 34.3431 0.0000 0.0000 0.0000
# 4 0.0000 0.0000 0.0000 27.5421 0.0000 0.0000
# 5 0.0000 0.0000 0.0000 0.0000 27.5419 0.0000
# 6 0.0000 0.0000 0.0000 0.0000 0.0000 33.8803
#
#
#
# Elastic Compliance Matrix: (Units=1/GPa)
#
#
# Indices 1 2 3 4 5 6 
#
# 1 0.010221 -0.004170 -0.003189 0.000000 0.000000 0.000000
# 2 -0.004170 0.010221 -0.003189 0.000000 0.000000 0.000000
# 3 -0.003189 -0.003189 0.032480 0.000000 0.000000 0.000000
# 4 0.000000 0.000000 0.000000 0.036308 0.000000 0.000000
# 5 0.000000 0.000000 0.000000 0.000000 0.036308 0.000000
# 6 0.000000 0.000000 0.000000 0.000000 0.000000 0.029516
#
#
# Mechanical properties :
#
#
# Convention : Reuss Voigt Hill
#
# Bulk Modulus (GPa) = 31.42244 52.82946 42.12595
# Shear Modulus (GPa) = 26.77247 30.76273 28.76760
#
# Velocity S-wave (km/s) = 3.59474 3.85332 3.72627
# Velocity P-wave (km/s) = 5.69175 6.73026 6.23267
#
# Compressibility (1/GPa) = 0.03182439
#
# Stress axis : x y z
#
# Youngs Moduli (GPa) = 97.83875 97.83798 30.78845
#
# Poissons Ratio (x) = 0.40803 0.09818
# Poissons Ratio (y) = 0.40803 0.09819
# Poissons Ratio (z) = 0.31200 0.31203
#
# Static dielectric constant tensor:
#      x y z
#    x 3.907690 0.000000 0.000000 
#    y 0.000000 3.907680 0.000000 
#    z 0.000000 0.000000 3.420610 
# 
# 
# High freq. dielectric constant tensor:
#      x y z
#    x 1.813420 0.000000 0.000000 
#    y 0.000000 1.813420 0.000000 
#    z 0.000000 0.000000 1.786050 
# 
# From -- ./inp_files/1849.got.cif
#   From: 2010.03.12/outbox.cif.g09.slc.cpg/sg113_cif.got.tgz:1849.got - 2010.04.14 02:06:34.
