data_PCOD8308028
_publ_section_title
;
Structure prediction by ZEFSAII (Michael W. Deem and Ramdas Pophale) SiO2 
 PCOD8308028
Probable space group: I 41 C D
;
_chemical_formula_sum "Si O2"
_cell_formula_units_Z 112
_cell_length_a 31.117990
_cell_length_b 31.117990
_cell_length_c 5.187692
_cell_angle_alpha 90.000000
_cell_angle_beta 90.000000
_cell_angle_gamma 90.000000
_cell_volume 5023.394171
_symmetry_space_group_name_H-M "I 41 C D"
_symmetry_group_IT_number 110
_symmetry_cell_setting 'tetragonal'
loop_
_space_group_symop_operation_xyz
x,y,z
-y,1/2+x,1/4+z
-x,-y,z
y,1/2-x,1/4+z
-x,y,1/2+z
x,-y,1/2+z
1/2-y,-x,1/4+z
1/2+y,x,1/4+z
1/2+x,1/2+y,1/2+z
1/2-y,x,3/4+z
1/2-x,1/2-y,1/2+z
1/2+y,-x,3/4+z
1/2-x,1/2+y,z
1/2+x,1/2-y,z
-y,1/2-x,3/4+z
y,1/2+x,3/4+z
loop_
_atom_site_type_symbol
_atom_site_label
_atom_site_fract_x
_atom_site_fract_y
_atom_site_fract_z
Si Si1 0.792774 0.700240 0.812110
Si Si2 0.615996 0.261211 0.364738
Si Si3 0.903638 0.524552 0.700498
Si Si4 0.973479 0.196477 0.968736
Si Si5 0.709274 0.615309 0.120935
Si Si6 0.575632 0.521074 0.097549
Si Si7 0.824851 0.022613 0.119725
O O1 0.799334 0.749584 0.727864
O O2 0.787171 0.661578 0.604482
O O3 0.838275 0.688391 0.954891
O O4 0.575015 0.287195 0.462644
O O5 0.620622 0.222932 0.572567
O O6 0.606476 0.247419 0.072756
O O7 0.916501 0.511558 0.410911
O O8 0.853933 0.534061 0.722379
O O9 0.929168 0.567650 0.778025
O O10 0.997431 0.211968 0.228618
O O11 0.678334 0.574189 0.140002
O O12 0.554489 0.507964 0.370191
O O13 0.625607 0.510720 0.114654
O O14 0.802925 0.997622 0.362292
#
# Coordination Sequence:
#
# PCOD8308028 Si02
#       7
#    16  16  16  16  16  16  16
#     4  10  22  42  68  94 134 166 207 272 318 378
#     4  11  24  40  64  95 119 163 212 246 317 380
#     4  10  21  36  56  82 115 154 199 244 307 362
#     4  10  22  40  60  88 125 162 202 257 310 366
#     4  11  24  40  64  95 119 163 212 246 317 380
#     4  10  21  36  56  82 115 154 199 244 307 362
#     4  10  22  40  60  88 125 162 202 257 310 366
#
# _framework density 22.295681999999999
#
# number of rings (size 3 to 8) (size 9 to 14) (size 15 to 20)
#    0.000    1.714    0.000    3.429    2.000    8.571 
#    0.000    0.000    0.000    0.000    0.000    0.000 
#    0.000    0.000    0.000    0.000    0.000    0.000 
#
# Total GULP energy -693744.665267 kJ/mol
# GULP energy per Si atom -12388.297594 kJ/mol
# Density = 2.224494 g / cm^3
# Si number density = 22.295682 Si / 1000 Ang^3
#
#
#
# Elastic Constant Matrix: (Units=GPa)
#
#
# Indices 1 2 3 4 5 6 
#
# 1 85.1940 -4.7961 17.7046 0.0000 0.0000 0.0000
# 2 -4.7961 85.1940 17.7046 0.0000 0.0000 0.0000
# 3 17.7046 17.7046 125.3037 0.0000 0.0000 0.0000
# 4 0.0000 0.0000 0.0000 24.2830 0.0000 0.0000
# 5 0.0000 0.0000 0.0000 0.0000 24.2830 0.0000
# 6 0.0000 0.0000 0.0000 0.0000 0.0000 34.8971
#
#
#
# Elastic Compliance Matrix: (Units=1/GPa)
#
#
# Indices 1 2 3 4 5 6 
#
# 1 0.012188 0.001076 -0.001874 0.000000 0.000000 0.000000
# 2 0.001076 0.012188 -0.001874 0.000000 0.000000 0.000000
# 3 -0.001874 -0.001874 0.008510 0.000000 0.000000 0.000000
# 4 0.000000 0.000000 0.000000 0.041181 0.000000 0.000000
# 5 0.000000 0.000000 0.000000 0.000000 0.041181 0.000000
# 6 0.000000 0.000000 0.000000 0.000000 0.000000 0.028656
#
#
# Mechanical properties :
#
#
# Convention : Reuss Voigt Hill
#
# Bulk Modulus (GPa) = 36.30945 39.65752 37.98349
# Shear Modulus (GPa) = 31.55984 34.36453 32.96218
#
# Velocity S-wave (km/s) = 3.76641 3.93021 3.84918
# Velocity P-wave (km/s) = 5.93593 6.19848 6.06862
#
# Compressibility (1/GPa) = 0.02754104
#
# Stress axis : x y z
#
# Youngs Moduli (GPa) = 82.04840 82.04840 117.50617
#
# Poissons Ratio (x) = -0.08825 0.22021
# Poissons Ratio (y) = -0.08825 0.22021
# Poissons Ratio (z) = 0.15376 0.15376
#
# Static dielectric constant tensor:
#      x y z
#    x 4.062290 0.000000 0.000000 
#    y 0.000000 4.062290 0.000000 
#    z 0.000000 0.000000 4.393180 
# 
# 
# High freq. dielectric constant tensor:
#      x y z
#    x 1.876160 0.000000 0.000000 
#    y 0.000000 1.876160 0.000000 
#    z 0.000000 0.000000 1.884040 
# 
# From -- ./inp_files/161.got.cif
#   From: 2010.03.12/outbox.cif.g09.slc.cpg/sg110_1_cif.got.tgz:161.got - 2010.04.14 01:58:01.
