data_PCOD8308231
_publ_section_title
;
Structure prediction by ZEFSAII (Michael W. Deem and Ramdas Pophale) SiO2 
 PCOD8308231
Probable space group: P -4 2 M 
;
_chemical_formula_sum "Si O2"
_cell_formula_units_Z 32
_cell_length_a 13.162527
_cell_length_b 13.162527
_cell_length_c 9.505498
_cell_angle_alpha 90.000000
_cell_angle_beta 90.000000
_cell_angle_gamma 90.000000
_cell_volume 1646.847652
_symmetry_space_group_name_H-M "P -4 2 M "
_symmetry_group_IT_number 111
_symmetry_cell_setting 'tetragonal'
loop_
_space_group_symop_operation_xyz
x,y,z
y,-x,-z
-x,-y,z
-y,x,-z
x,-y,-z
-x,y,-z
-y,-x,z
y,x,z
loop_
_atom_site_type_symbol
_atom_site_label
_atom_site_fract_x
_atom_site_fract_y
_atom_site_fract_z
Si Si1 0.637263 0.203201 0.094955
Si Si2 0.041640 0.614090 0.309766
Si Si3 0.843320 0.678256 0.424924
Si Si4 0.727932 0.431706 0.807782
O O1 0.746193 0.253808 0.125520
O O2 0.634254 0.088936 0.156104
O O3 0.552396 0.273673 0.172364
O O4 0.616110 0.198134 0.928148
O O5 0.132096 0.632766 0.421834
O O6 0.000000 0.500000 0.324885
O O7 0.949131 0.691874 0.338827
O O8 0.786963 0.786963 0.436382
O O9 0.772495 0.597608 0.343706
O O10 0.614584 0.385417 0.825816
#
# Coordination Sequence:
#
# PCOD8308231 Si02
#       4
#     8   8   8   8
#     4  10  20  34  53  80 114 148 183 223 270 321
#     4  11  21  35  55  83 108 139 186 228 276 326
#     4  10  20  35  54  76 109 141 176 227 279 325
#     4   9  19  34  52  80 114 148 182 217 267 330
#
# _framework density 19.431061
#
# number of rings (size 3 to 8) (size 9 to 14) (size 15 to 20)
#    0.000    2.000    2.500    2.250    0.000    1.500 
#    0.000    2.500    0.000   12.750    0.000    3.500 
#    0.000   30.000    0.000    0.000    0.000    0.000 
#
# Total GULP energy -396633.914384 kJ/mol
# GULP energy per Si atom -12394.809825 kJ/mol
# Density = 1.938683 g / cm^3
# Si number density = 19.431061 Si / 1000 Ang^3
#
#
#
# Elastic Constant Matrix: (Units=GPa)
#
#
# Indices 1 2 3 4 5 6 
#
# 1 71.9368 30.5889 16.3904 0.0000 0.0000 0.0000
# 2 30.5889 71.9390 16.3909 0.0000 0.0000 0.0000
# 3 16.3904 16.3909 45.7537 0.0000 0.0000 0.0000
# 4 0.0000 0.0000 0.0000 27.3591 0.0000 0.0000
# 5 0.0000 0.0000 0.0000 0.0000 27.3597 0.0000
# 6 0.0000 0.0000 0.0000 0.0000 0.0000 40.6170
#
#
#
# Elastic Compliance Matrix: (Units=1/GPa)
#
#
# Indices 1 2 3 4 5 6 
#
# 1 0.017600 -0.006585 -0.003946 0.000000 0.000000 0.000000
# 2 -0.006585 0.017600 -0.003946 0.000000 0.000000 0.000000
# 3 -0.003946 -0.003946 0.024683 0.000000 0.000000 0.000000
# 4 0.000000 0.000000 0.000000 0.036551 0.000000 0.000000
# 5 0.000000 0.000000 0.000000 0.000000 0.036550 0.000000
# 6 0.000000 0.000000 0.000000 0.000000 0.000000 0.024620
#
#
# Mechanical properties :
#
#
# Convention : Reuss Voigt Hill
#
# Bulk Modulus (GPa) = 32.33146 35.15221 33.74184
# Shear Modulus (GPa) = 25.39780 27.48445 26.44112
#
# Velocity S-wave (km/s) = 3.61927 3.76501 3.69286
# Velocity P-wave (km/s) = 5.84300 6.08526 5.96536
#
# Compressibility (1/GPa) = 0.03092962
#
# Stress axis : x y z
#
# Youngs Moduli (GPa) = 56.81798 56.81957 40.51309
#
# Poissons Ratio (x) = 0.37413 0.15986
# Poissons Ratio (y) = 0.37412 0.15987
# Poissons Ratio (z) = 0.22420 0.22422
#
# Static dielectric constant tensor:
#      x y z
#    x 3.479560 0.000000 0.000000 
#    y 0.000000 3.479560 0.000000 
#    z 0.000000 0.000000 3.670820 
# 
# 
# High freq. dielectric constant tensor:
#      x y z
#    x 1.733260 0.000000 0.000000 
#    y 0.000000 1.733260 0.000000 
#    z 0.000000 0.000000 1.767240 
# 
# From -- ./inp_files/1273.got.cif
#   From: 2010.03.12/outbox.cif.g09.slc.cpg/sg111_1_cif.got.tgz:1273.got - 2010.04.14 01:59:48.
