data_PCOD8308066
_publ_section_title
;
Structure prediction by ZEFSAII (Michael W. Deem and Ramdas Pophale) SiO2 
 PCOD8308066
Probable space group: I 41 C D
;
_chemical_formula_sum "Si O2"
_cell_formula_units_Z 48
_cell_length_a 17.380558
_cell_length_b 17.380558
_cell_length_c 6.918746
_cell_angle_alpha 90.000000
_cell_angle_beta 90.000000
_cell_angle_gamma 90.000000
_cell_volume 2090.041058
_symmetry_space_group_name_H-M "I 41 C D"
_symmetry_group_IT_number 110
_symmetry_cell_setting 'tetragonal'
loop_
_space_group_symop_operation_xyz
x,y,z
-y,1/2+x,1/4+z
-x,-y,z
y,1/2-x,1/4+z
-x,y,1/2+z
x,-y,1/2+z
1/2-y,-x,1/4+z
1/2+y,x,1/4+z
1/2+x,1/2+y,1/2+z
1/2-y,x,3/4+z
1/2-x,1/2-y,1/2+z
1/2+y,-x,3/4+z
1/2-x,1/2+y,z
1/2+x,1/2-y,z
-y,1/2-x,3/4+z
y,1/2+x,3/4+z
loop_
_atom_site_type_symbol
_atom_site_label
_atom_site_fract_x
_atom_site_fract_y
_atom_site_fract_z
Si Si1 0.826488 0.826488 0.596470
Si Si2 0.927839 0.900446 0.308513
Si Si3 0.572161 0.099554 0.134427
O O1 0.832672 0.750000 0.721470
O O2 0.896960 0.831401 0.443277
O O3 0.831401 0.896960 0.749663
O O4 0.019757 0.899293 0.287105
O O5 0.899293 0.980243 0.405835
O O6 0.891438 0.891438 0.096470
#
# Coordination Sequence:
#
# PCOD8308066 Si02
#       3
#    16  16  16
#     4  12  30  47  64 102 150 189 224 292 350 406
#     4  11  21  45  78 109 138 175 234 294 345 409
#     4  11  21  45  78 109 138 175 234 294 345 409
#
# _framework density 22.966058
#
# number of rings (size 3 to 8) (size 9 to 14) (size 15 to 20)
#    0.000    0.667    6.667    2.000    4.667    2.667 
#    0.000    0.000    0.000    0.000    0.000    0.000 
#    0.000    0.000    0.000    0.000    0.000    0.000 
#
# Total GULP energy -297630.468210 kJ/mol
# GULP energy per Si atom -12401.269509 kJ/mol
# Density = 2.291379 g / cm^3
# Si number density = 22.966058 Si / 1000 Ang^3
#
#
#
# Elastic Constant Matrix: (Units=GPa)
#
#
# Indices 1 2 3 4 5 6 
#
# 1 47.0565 104.6224 54.0900 0.0000 0.0000 0.0000
# 2 104.6224 47.0565 54.0900 0.0000 0.0000 0.0000
# 3 54.0900 54.0900 182.8382 0.0000 0.0000 0.0000
# 4 0.0000 0.0000 0.0000 46.5504 0.0000 0.0000
# 5 0.0000 0.0000 0.0000 0.0000 46.5504 0.0000
# 6 0.0000 0.0000 0.0000 0.0000 0.0000 30.9610
#
#
#
# Elastic Compliance Matrix: (Units=1/GPa)
#
#
# Indices 1 2 3 4 5 6 
#
# 1 -0.004508 0.012864 -0.002472 0.000000 0.000000 0.000000
# 2 0.012864 -0.004508 -0.002472 0.000000 0.000000 0.000000
# 3 -0.002472 -0.002472 0.006932 0.000000 0.000000 0.000000
# 4 0.000000 0.000000 0.000000 0.021482 0.000000 0.000000
# 5 0.000000 0.000000 0.000000 0.000000 0.021482 0.000000
# 6 0.000000 0.000000 0.000000 0.000000 0.000000 0.032299
#
#
# Mechanical properties :
#
#
# Convention : Reuss Voigt Hill
#
# Bulk Modulus (GPa) = 72.69626 78.06177 75.37902
# Shear Modulus (GPa) = 80.74248 29.08893 54.91570
#
# Velocity S-wave (km/s) = 5.93579 3.56280 4.89526
# Velocity P-wave (km/s) = 8.87134 7.14063 8.05262
#
# Compressibility (1/GPa) = 0.01375586
#
# Stress axis : x y z
#
# Youngs Moduli (GPa) = -221.84132 -221.84132 144.26019
#
# Poissons Ratio (x) = 2.85369 0.35661
# Poissons Ratio (y) = 2.85369 0.35661
# Poissons Ratio (z) = -0.54839 -0.54839
#
# Static dielectric constant tensor:
#      x y z
#    x 3.863780 0.000000 0.000000 
#    y 0.000000 3.863780 0.000000 
#    z 0.000000 0.000000 4.558630 
# 
# 
# High freq. dielectric constant tensor:
#      x y z
#    x 1.879450 0.000000 0.000000 
#    y 0.000000 1.879450 0.000000 
#    z 0.000000 0.000000 1.946560 
# 
# From -- ./inp_files/252.got.cif
#   From: 2010.03.12/outbox.cif.g09.slc.cpg/sg110_1_cif.got.tgz:252.got - 2010.04.14 01:58:01.
