data_PCOD8308538
_publ_section_title
;
Structure prediction by ZEFSAII (Michael W. Deem and Ramdas Pophale) SiO2 
 PCOD8308538
Probable space group: P -4 21 M 
;
_chemical_formula_sum "Si O2"
_cell_formula_units_Z 64
_cell_length_a 19.998124
_cell_length_b 19.998124
_cell_length_c 9.927605
_cell_angle_alpha 90.000000
_cell_angle_beta 90.000000
_cell_angle_gamma 90.000000
_cell_volume 3970.297067
_symmetry_space_group_name_H-M "P -4 21 M "
_symmetry_group_IT_number 113
_symmetry_cell_setting 'tetragonal'
loop_
_space_group_symop_operation_xyz
x,y,z
y,-x,-z
-x,-y,z
-y,x,-z
1/2+x,1/2-y,-z
1/2-x,1/2+y,-z
1/2-y,1/2-x,z
1/2+y,1/2+x,z
loop_
_atom_site_type_symbol
_atom_site_label
_atom_site_fract_x
_atom_site_fract_y
_atom_site_fract_z
Si Si1 0.823122 0.432870 0.950550
Si Si2 0.738755 0.351128 0.753260
Si Si3 0.067445 0.325080 0.364485
Si Si4 0.123119 0.264673 0.615734
Si Si5 0.339523 0.273101 0.548510
Si Si6 0.188667 0.578846 0.259434
Si Si7 0.581735 0.194227 0.102850
Si Si8 0.247953 0.855165 0.860994
O O1 0.891417 0.391417 0.931125
O O2 0.767451 0.411197 0.842214
O O3 0.839320 0.509759 0.920666
O O4 0.794131 0.422425 0.100881
O O5 0.789727 0.289727 0.749933
O O6 0.724331 0.373817 0.599520
O O7 0.669860 0.326525 0.824172
O O8 0.101665 0.398336 0.372920
O O9 0.067540 0.287367 0.507771
O O10 0.109986 0.277731 0.269095
O O11 0.993071 0.334530 0.311448
O O12 0.183067 0.316934 0.612468
O O13 0.154257 0.191460 0.585296
O O14 0.086159 0.265098 0.758658
O O15 0.281360 0.218641 0.550965
O O16 0.395519 0.253939 0.659510
O O17 0.126627 0.626627 0.290235
O O18 0.633407 0.133407 0.095256
O O19 0.594447 0.250003 0.987347
O O20 0.291294 0.791294 0.904496
#
# Coordination Sequence:
#
# PCOD8308538 Si02
#       8
#     8   8   8   8   8   8   8   8
#     4  10  21  33  45  67 100 134 164 192 229 283
#     4   9  17  30  48  67  90 122 156 196 247 291
#     4  10  18  32  49  67  93 126 165 199 229 276
#     4   9  18  31  49  69  90 118 158 207 249 279
#     4   9  17  31  48  67  91 120 155 198 249 288
#     4  10  21  32  45  68  99 132 162 196 233 278
#     4  10  20  32  47  70  97 130 166 201 233 271
#     4   9  16  29  49  67  86 118 160 201 241 276
#
# _framework density 16.119700999999999
#
# number of rings (size 3 to 8) (size 9 to 14) (size 15 to 20)
#    0.000    2.500    2.500    0.000    3.500    0.500 
#    0.000    1.250    0.000    2.250    0.000    0.000 
#    0.000    6.000    0.000    0.000    0.000    0.000 
#
# Total GULP energy -793345.505903 kJ/mol
# GULP energy per Si atom -12396.023530 kJ/mol
# Density = 1.608301 g / cm^3
# Si number density = 16.119701 Si / 1000 Ang^3
#
#
#
# Elastic Constant Matrix: (Units=GPa)
#
#
# Indices 1 2 3 4 5 6 
#
# 1 44.4716 38.5395 36.3199 0.0000 0.0000 0.0000
# 2 38.5395 44.4716 36.3204 0.0000 0.0000 0.0000
# 3 36.3199 36.3204 125.7573 0.0000 0.0000 0.0000
# 4 0.0000 0.0000 0.0000 21.8684 0.0000 0.0000
# 5 0.0000 0.0000 0.0000 0.0000 21.8688 0.0000
# 6 0.0000 0.0000 0.0000 0.0000 0.0000 14.2565
#
#
#
# Elastic Compliance Matrix: (Units=1/GPa)
#
#
# Indices 1 2 3 4 5 6 
#
# 1 0.092347 -0.076226 -0.004655 0.000000 0.000000 0.000000
# 2 -0.076226 0.092348 -0.004656 0.000000 0.000000 0.000000
# 3 -0.004655 -0.004656 0.010641 0.000000 0.000000 0.000000
# 4 0.000000 0.000000 0.000000 0.045728 0.000000 0.000000
# 5 0.000000 0.000000 0.000000 0.000000 0.045727 0.000000
# 6 0.000000 0.000000 0.000000 0.000000 0.000000 0.070144
#
#
# Mechanical properties :
#
#
# Convention : Reuss Voigt Hill
#
# Bulk Modulus (GPa) = 41.22138 48.56221 44.89179
# Shear Modulus (GPa) = 9.32667 18.50011 13.91339
#
# Velocity S-wave (km/s) = 2.40800 3.39140 2.94109
# Velocity P-wave (km/s) = 5.77571 6.74736 6.28036
#
# Compressibility (1/GPa) = 0.02425926
#
# Stress axis : x y z
#
# Youngs Moduli (GPa) = 10.82876 10.82866 93.97477
#
# Poissons Ratio (x) = 0.82543 0.43749
# Poissons Ratio (y) = 0.82544 0.43758
# Poissons Ratio (z) = 0.05041 0.05042
#
# Static dielectric constant tensor:
#      x y z
#    x 2.846170 0.000000 0.000000 
#    y 0.000000 2.846170 0.000000 
#    z 0.000000 0.000000 3.389060 
# 
# 
# High freq. dielectric constant tensor:
#      x y z
#    x 1.586480 0.000000 0.000000 
#    y 0.000000 1.586480 0.000000 
#    z 0.000000 0.000000 1.643530 
# 
# From -- ./inp_files/1400.got.cif
#   From: 2010.03.12/outbox.cif.g09.slc.cpg/sg113_cif.got.tgz:1400.got - 2010.04.14 02:06:34.
