data_PCOD8308666
_publ_section_title
;
Structure prediction by ZEFSAII (Michael W. Deem and Ramdas Pophale) SiO2 
 PCOD8308666
Probable space group: P -4 21 M 
;
_chemical_formula_sum "Si O2"
_cell_formula_units_Z 40
_cell_length_a 13.666640
_cell_length_b 13.666640
_cell_length_c 11.807930
_cell_angle_alpha 90.000000
_cell_angle_beta 90.000000
_cell_angle_gamma 90.000000
_cell_volume 2205.450319
_symmetry_space_group_name_H-M "P -4 21 M "
_symmetry_group_IT_number 113
_symmetry_cell_setting 'tetragonal'
loop_
_space_group_symop_operation_xyz
x,y,z
y,-x,-z
-x,-y,z
-y,x,-z
1/2+x,1/2-y,-z
1/2-x,1/2+y,-z
1/2-y,1/2-x,z
1/2+y,1/2+x,z
loop_
_atom_site_type_symbol
_atom_site_label
_atom_site_fract_x
_atom_site_fract_y
_atom_site_fract_z
Si Si1 0.843337 0.976457 0.980593
Si Si2 0.650100 0.474254 0.472406
Si Si3 0.367614 0.293765 0.758218
Si Si4 0.290530 0.944036 0.162262
Si Si5 0.499638 0.154390 0.395105
O O1 0.795812 0.943784 0.862349
O O2 0.918748 0.896860 0.031515
O O3 0.753037 0.985929 0.066527
O O4 0.578545 0.403489 0.544527
O O5 0.685129 0.429326 0.354226
O O6 0.741664 0.495627 0.549236
O O7 0.310472 0.189529 0.751261
O O8 0.292438 0.381443 0.774399
O O9 0.371068 0.871068 0.107228
O O10 0.338258 0.010811 0.259120
O O11 0.410400 0.089601 0.441069
O O12 0.602902 0.102902 0.426058
#
# Coordination Sequence:
#
# PCOD8308666 Si02
#       5
#     8   8   8   8   8
#     4   9  19  32  56  81 110 144 185 232 279 333
#     4  11  23  35  59  85 112 148 193 238 285 338
#     4  10  20  36  56  81 116 151 183 231 289 337
#     4   9  18  35  56  79 111 146 184 229 280 335
#     4  10  21  37  57  81 112 150 190 235 285 337
#
# _framework density 18.136884999999999
#
# number of rings (size 3 to 8) (size 9 to 14) (size 15 to 20)
#    0.000    2.200    2.000    0.600    2.800    3.200 
#    0.000    1.000    0.000    1.200    0.000    0.000 
#    0.000    0.000    0.000    0.000    0.000    0.000 
#
# Total GULP energy -495893.697911 kJ/mol
# GULP energy per Si atom -12397.342448 kJ/mol
# Density = 1.809561 g / cm^3
# Si number density = 18.136885 Si / 1000 Ang^3
#
#
#
# Elastic Constant Matrix: (Units=GPa)
#
#
# Indices 1 2 3 4 5 6 
#
# 1 94.2289 59.1114 53.0099 0.0000 0.0000 0.0000
# 2 59.1114 94.2288 53.0069 0.0000 0.0000 0.0000
# 3 53.0099 53.0069 95.6737 0.0000 0.0000 0.0000
# 4 0.0000 0.0000 0.0000 22.3678 0.0000 0.0000
# 5 0.0000 0.0000 0.0000 0.0000 22.3663 0.0000
# 6 0.0000 0.0000 0.0000 0.0000 0.0000 23.9658
#
#
#
# Elastic Compliance Matrix: (Units=1/GPa)
#
#
# Indices 1 2 3 4 5 6 
#
# 1 0.019524 -0.008953 -0.005857 0.000000 0.000000 0.000000
# 2 -0.008953 0.019523 -0.005856 0.000000 0.000000 0.000000
# 3 -0.005857 -0.005856 0.016942 0.000000 0.000000 0.000000
# 4 0.000000 0.000000 0.000000 0.044707 0.000000 0.000000
# 5 0.000000 0.000000 0.000000 0.000000 0.044710 0.000000
# 6 0.000000 0.000000 0.000000 0.000000 0.000000 0.041726
#
#
# Mechanical properties :
#
#
# Convention : Reuss Voigt Hill
#
# Bulk Modulus (GPa) = 68.22897 68.26532 68.24715
# Shear Modulus (GPa) = 21.42707 21.67352 21.55029
#
# Velocity S-wave (km/s) = 3.44089 3.46062 3.45077
# Velocity P-wave (km/s) = 7.31347 7.32725 7.32036
#
# Compressibility (1/GPa) = 0.01465653
#
# Stress axis : x y z
#
# Youngs Moduli (GPa) = 51.21958 51.22209 59.02460
#
# Poissons Ratio (x) = 0.45857 0.34573
# Poissons Ratio (y) = 0.45855 0.34565
# Poissons Ratio (z) = 0.30002 0.29996
#
# Static dielectric constant tensor:
#      x y z
#    x 3.423580 0.000000 0.000000 
#    y 0.000000 3.423580 0.000000 
#    z 0.000000 0.000000 3.261330 
# 
# 
# High freq. dielectric constant tensor:
#      x y z
#    x 1.704440 0.000000 0.000000 
#    y 0.000000 1.704440 0.000000 
#    z 0.000000 0.000000 1.690930 
# 
# From -- ./inp_files/986.got.cif
#   From: 2010.03.12/outbox.cif.g09.slc.cpg/sg113_cif.got.tgz:986.got - 2010.04.14 02:06:34.
