data_PCOD8308409
_publ_section_title
;
Structure prediction by ZEFSAII (Michael W. Deem and Ramdas Pophale) SiO2 
 PCOD8308409
Probable space group: P -4 2 C
;
_chemical_formula_sum "Si O2"
_cell_formula_units_Z 42
_cell_length_a 11.631964
_cell_length_b 11.631964
_cell_length_c 16.564167
_cell_angle_alpha 90.000000
_cell_angle_beta 90.000000
_cell_angle_gamma 90.000000
_cell_volume 2241.174638
_symmetry_space_group_name_H-M "P -4 2 C"
_symmetry_group_IT_number 112
_symmetry_cell_setting 'tetragonal'
loop_
_space_group_symop_operation_xyz
x,y,z
y,-x,-z
-x,-y,z
-y,x,-z
x,-y,1/2-z
-x,y,1/2-z
-y,-x,1/2+z
y,x,1/2+z
loop_
_atom_site_type_symbol
_atom_site_label
_atom_site_fract_x
_atom_site_fract_y
_atom_site_fract_z
Si Si1 0.466001 0.314322 0.005792
Si Si2 0.006210 0.683772 0.663949
Si Si3 0.814322 0.966001 0.005792
Si Si4 0.816228 0.493790 0.663949
Si Si5 0.590674 0.090674 0.591526
Si Si6 0.000000 0.500000 0.250000
O O1 0.459955 0.264671 0.094792
O O2 0.366753 0.408644 0.005974
O O3 0.441999 0.218797 0.937226
O O4 0.959955 0.764671 0.594792
O O5 0.923175 0.576825 0.673806
O O6 0.000000 0.751472 0.750000
O O7 0.134637 0.634637 0.644592
O O8 0.718797 0.941999 0.937226
O O9 0.908644 0.866753 0.005974
O O10 0.748528 0.500000 0.750000
O O11 0.500000 0.000000 0.551069
O O12 0.579385 0.079385 0.689998
#
# Coordination Sequence:
#
# PCOD8308409 Si02
#       6
#     8   8   8   8   8   2
#     4  11  24  40  60  93 125 164 210 253 307 369
#     4   9  18  35  59  88 116 149 201 254 306 359
#     4  11  24  40  60  93 125 164 210 253 307 369
#     4   9  18  35  59  88 116 149 201 254 306 359
#     4  10  22  43  67  84 127 165 203 248 308 374
#     4   8  24  44  60 104 110 172 212 232 308 400
#
# _framework density 18.740172000000001
#
# number of rings (size 3 to 8) (size 9 to 14) (size 15 to 20)
#    0.571    1.524    1.905    2.286    5.333    0.000 
#    6.857    1.905    0.000    0.000    0.000    0.000 
#    0.000    0.000    0.000    0.000    0.000    0.000 
#
# Total GULP energy -520423.687668 kJ/mol
# GULP energy per Si atom -12391.040183 kJ/mol
# Density = 1.869752 g / cm^3
# Si number density = 18.740172 Si / 1000 Ang^3
#
#
#
# Elastic Constant Matrix: (Units=GPa)
#
#
# Indices 1 2 3 4 5 6 
#
# 1 99.1106 40.1093 47.9985 0.0000 0.0000 0.0000
# 2 40.1093 99.1106 47.9985 0.0000 0.0000 0.0000
# 3 47.9985 47.9985 170.4097 0.0000 0.0000 0.0000
# 4 0.0000 0.0000 0.0000 11.3948 0.0000 0.0000
# 5 0.0000 0.0000 0.0000 0.0000 11.3948 0.0000
# 6 0.0000 0.0000 0.0000 0.0000 0.0000 16.0080
#
#
#
# Elastic Compliance Matrix: (Units=1/GPa)
#
#
# Indices 1 2 3 4 5 6 
#
# 1 0.012931 -0.004017 -0.002511 0.000000 0.000000 0.000000
# 2 -0.004017 0.012931 -0.002511 0.000000 0.000000 0.000000
# 3 -0.002511 -0.002511 0.007283 0.000000 0.000000 0.000000
# 4 0.000000 0.000000 0.000000 0.087760 0.000000 0.000000
# 5 0.000000 0.000000 0.000000 0.000000 0.087760 0.000000
# 6 0.000000 0.000000 0.000000 0.000000 0.000000 0.062469
#
#
# Mechanical properties :
#
#
# Convention : Reuss Voigt Hill
#
# Bulk Modulus (GPa) = 66.36700 71.20481 68.78590
# Shear Modulus (GPa) = 16.99328 23.26115 20.12721
#
# Velocity S-wave (km/s) = 3.01455 3.52695 3.28077
# Velocity P-wave (km/s) = 6.89985 7.39352 7.15095
#
# Compressibility (1/GPa) = 0.01506773
#
# Stress axis : x y z
#
# Youngs Moduli (GPa) = 77.33065 77.33065 137.31303
#
# Poissons Ratio (x) = 0.31066 0.34477
# Poissons Ratio (y) = 0.31066 0.34477
# Poissons Ratio (z) = 0.19416 0.19416
#
# Static dielectric constant tensor:
#      x y z
#    x 3.301770 0.000000 0.000000 
#    y 0.000000 3.301770 0.000000 
#    z 0.000000 0.000000 3.855950 
# 
# 
# High freq. dielectric constant tensor:
#      x y z
#    x 1.718140 0.000000 0.000000 
#    y 0.000000 1.718140 0.000000 
#    z 0.000000 0.000000 1.737640 
# 
# From -- ./inp_files/4038.got.cif
#   From: 2010.03.12/outbox.cif.g09.slc.cpg/sg112_3_cif.got.tgz:4038.got - 2010.04.14 02:02:48.
