data_PCOD8308987
_publ_section_title
;
Structure prediction by ZEFSAII (Michael W. Deem and Ramdas Pophale) SiO2 
 PCOD8308987
Probable space group: P -4 21 C
;
_chemical_formula_sum "Si O2"
_cell_formula_units_Z 38
_cell_length_a 7.771796
_cell_length_b 7.771796
_cell_length_c 29.833467
_cell_angle_alpha 90.000000
_cell_angle_beta 90.000000
_cell_angle_gamma 90.000000
_cell_volume 1801.965663
_symmetry_space_group_name_H-M "P -4 21 C"
_symmetry_group_IT_number 114
_symmetry_cell_setting 'tetragonal'
loop_
_space_group_symop_operation_xyz
x,y,z
y,-x,-z
-x,-y,z
-y,x,-z
1/2+x,1/2-y,1/2-z
1/2-x,1/2+y,1/2-z
1/2-y,1/2-x,1/2+z
1/2+y,1/2+x,1/2+z
loop_
_atom_site_type_symbol
_atom_site_label
_atom_site_fract_x
_atom_site_fract_y
_atom_site_fract_z
Si Si1 0.472729 0.295052 0.401906
Si Si2 0.816353 0.439319 0.790350
Si Si3 0.245013 0.491127 0.078074
Si Si4 0.543299 0.310632 0.300068
Si Si5 0.000000 0.000000 0.344617
Si Si6 0.500000 0.500000 0.000000
O O1 0.500000 0.500000 0.415821
O O2 0.302196 0.197360 0.420016
O O3 0.460759 0.279151 0.348375
O O4 0.607695 0.162260 0.423073
O O5 0.818062 0.462788 0.736531
O O6 0.781645 0.244895 0.803641
O O7 0.664189 0.549355 0.813520
O O8 0.000000 0.500000 0.809708
O O9 0.345026 0.446853 0.123330
O O10 0.339988 0.460346 0.031624
O O11 0.500000 0.500000 0.282368
#
# Coordination Sequence:
#
# PCOD8308987 Si02
#       6
#     8   8   8   8   4   2
#     4  10  23  43  69 102 136 179 221 274 347 408
#     4  12  26  38  61  92 134 187 239 284 326 388
#     4  10  23  46  73  96 135 172 217 292 346 422
#     4  11  24  41  61  94 136 177 240 278 330 391
#     4  11  24  41  62  94 130 178 234 275 346 385
#     4  10  24  52  72 104 128 164 224 272 360 434
#
# _framework density 21.088083000000001
#
# number of rings (size 3 to 8) (size 9 to 14) (size 15 to 20)
#    0.000    1.263    3.158    1.263   11.789    0.000 
#    7.579    2.105    0.000    0.000    0.000    0.000 
#    0.000    0.000    0.000    0.000    0.000    0.000 
#
# Total GULP energy -470759.416560 kJ/mol
# GULP energy per Si atom -12388.405699 kJ/mol
# Density = 2.104009 g / cm^3
# Si number density = 21.088083 Si / 1000 Ang^3
#
#
#
# Elastic Constant Matrix: (Units=GPa)
#
#
# Indices 1 2 3 4 5 6 
#
# 1 99.4366 12.7223 29.7715 0.0000 0.0000 0.0000
# 2 12.7223 99.4366 29.7715 0.0000 0.0000 0.0000
# 3 29.7715 29.7715 99.3602 0.0000 0.0000 0.0000
# 4 0.0000 0.0000 0.0000 31.7261 0.0000 0.0000
# 5 0.0000 0.0000 0.0000 0.0000 31.7261 0.0000
# 6 0.0000 0.0000 0.0000 0.0000 0.0000 28.0055
#
#
#
# Elastic Compliance Matrix: (Units=1/GPa)
#
#
# Indices 1 2 3 4 5 6 
#
# 1 0.011067 -0.000465 -0.003177 0.000000 0.000000 0.000000
# 2 -0.000465 0.011067 -0.003177 0.000000 0.000000 0.000000
# 3 -0.003177 -0.003177 0.011968 0.000000 0.000000 0.000000
# 4 0.000000 0.000000 0.000000 0.031520 0.000000 0.000000
# 5 0.000000 0.000000 0.000000 0.000000 0.031520 0.000000
# 6 0.000000 0.000000 0.000000 0.000000 0.000000 0.035707
#
#
# Mechanical properties :
#
#
# Convention : Reuss Voigt Hill
#
# Bulk Modulus (GPa) = 48.86223 49.19600 49.02912
# Shear Modulus (GPa) = 32.61396 33.35606 32.98501
#
# Velocity S-wave (km/s) = 3.93690 3.98144 3.95923
# Velocity P-wave (km/s) = 6.62468 6.67197 6.64837
#
# Compressibility (1/GPa) = 0.02046571
#
# Stress axis : x y z
#
# Youngs Moduli (GPa) = 90.35643 90.35643 83.55503
#
# Poissons Ratio (x) = 0.04200 0.26544
# Poissons Ratio (y) = 0.04200 0.26544
# Poissons Ratio (z) = 0.28705 0.28705
#
# Static dielectric constant tensor:
#      x y z
#    x 3.920670 0.000000 0.000000 
#    y 0.000000 3.920670 0.000000 
#    z 0.000000 0.000000 3.594990 
# 
# 
# High freq. dielectric constant tensor:
#      x y z
#    x 1.829370 0.000000 0.000000 
#    y 0.000000 1.829370 0.000000 
#    z 0.000000 0.000000 1.813590 
# 
# From -- ./inp_files/3806.got.cif
#   From: 2010.03.12/outbox.cif.g09.slc.cpg/sg114_2_cif.got.tgz:3806.got - 2010.04.14 02:08:34.
