data_PCOD8308512
_publ_section_title
;
Structure prediction by ZEFSAII (Michael W. Deem and Ramdas Pophale) SiO2 
 PCOD8308512
Probable space group: P -4 2 C
;
_chemical_formula_sum "Si O2"
_cell_formula_units_Z 16
_cell_length_a 5.148016
_cell_length_b 5.148016
_cell_length_c 24.236360
_cell_angle_alpha 90.000000
_cell_angle_beta 90.000000
_cell_angle_gamma 90.000000
_cell_volume 642.313679
_symmetry_space_group_name_H-M "P -4 2 C"
_symmetry_group_IT_number 112
_symmetry_cell_setting 'tetragonal'
loop_
_space_group_symop_operation_xyz
x,y,z
y,-x,-z
-x,-y,z
-y,x,-z
x,-y,1/2-z
-x,y,1/2-z
-y,-x,1/2+z
y,x,1/2+z
loop_
_atom_site_type_symbol
_atom_site_label
_atom_site_fract_x
_atom_site_fract_y
_atom_site_fract_z
Si Si1 0.500000 0.500000 0.250000
Si Si2 0.500000 0.500000 0.500000
Si Si3 0.500000 0.000000 0.068586
Si Si4 0.240042 0.155224 0.838479
O O1 0.343784 0.690108 0.210837
O O2 0.397326 0.753407 0.466535
O O3 0.721164 0.126272 0.106140
O O4 0.500000 0.000000 0.855466
O O5 0.000000 0.000000 0.812658
#
# Coordination Sequence:
#
# PCOD8308512 Si02
#       4
#     2   2   4   8
#     4  12  28  50  76 130 164 214 276 314 436 486
#     4  12  30  52  88 114 164 220 282 364 436 490
#     4  12  30  53  78 120 154 213 284 346 420 508
#     4  12  28  50  81 115 164 215 265 341 405 510
#
# _framework density 24.909949000000001
#
# number of rings (size 3 to 8) (size 9 to 14) (size 15 to 20)
#    0.000    0.000    0.000    8.250   10.500   15.000 
#    0.000    0.000    0.000    0.000    0.000    0.000 
#    0.000    0.000    0.000    0.000    0.000    0.000 
#
# Total GULP energy -198288.140667 kJ/mol
# GULP energy per Si atom -12393.008792 kJ/mol
# Density = 2.485325 g / cm^3
# Si number density = 24.909949 Si / 1000 Ang^3
#
#
#
# Elastic Constant Matrix: (Units=GPa)
#
#
# Indices 1 2 3 4 5 6 
#
# 1 210.0649 95.8545 89.3551 0.0000 0.0000 0.0000
# 2 95.8545 210.0649 89.3551 0.0000 0.0000 0.0000
# 3 89.3551 89.3551 165.4750 0.0000 0.0000 0.0000
# 4 0.0000 0.0000 0.0000 100.5201 0.0000 0.0000
# 5 0.0000 0.0000 0.0000 0.0000 100.5201 0.0000
# 6 0.0000 0.0000 0.0000 0.0000 0.0000 38.1642
#
#
#
# Elastic Compliance Matrix: (Units=1/GPa)
#
#
# Indices 1 2 3 4 5 6 
#
# 1 0.006765 -0.001990 -0.002579 0.000000 0.000000 0.000000
# 2 -0.001990 0.006765 -0.002579 0.000000 0.000000 0.000000
# 3 -0.002579 -0.002579 0.008828 0.000000 0.000000 0.000000
# 4 0.000000 0.000000 0.000000 0.009948 0.000000 0.000000
# 5 0.000000 0.000000 0.000000 0.000000 0.009948 0.000000
# 6 0.000000 0.000000 0.000000 0.000000 0.000000 0.026203
#
#
# Mechanical properties :
#
#
# Convention : Reuss Voigt Hill
#
# Bulk Modulus (GPa) = 124.00595 126.08157 125.04376
# Shear Modulus (GPa) = 58.52005 68.57689 63.54847
#
# Velocity S-wave (km/s) = 4.85218 5.25259 5.05635
# Velocity P-wave (km/s) = 9.01561 9.35474 9.18674
#
# Compressibility (1/GPa) = 0.00806413
#
# Stress axis : x y z
#
# Youngs Moduli (GPa) = 147.80962 147.80962 113.27609
#
# Poissons Ratio (x) = 0.29419 0.29209
# Poissons Ratio (y) = 0.29419 0.29209
# Poissons Ratio (z) = 0.38113 0.38113
#
# Static dielectric constant tensor:
#      x y z
#    x 4.490910 0.000000 0.000000 
#    y 0.000000 4.490910 0.000000 
#    z 0.000000 0.000000 4.658000 
# 
# 
# High freq. dielectric constant tensor:
#      x y z
#    x 2.008730 0.000000 0.000000 
#    y 0.000000 2.008730 0.000000 
#    z 0.000000 0.000000 2.008790 
# 
# From -- ./inp_files/4303.got.cif
#   From: 2010.03.12/outbox.cif.g09.slc.cpg/sg112_3_cif.got.tgz:4303.got - 2010.04.14 02:02:48.
