data_PCOD8308865
_publ_section_title
;
Structure prediction by ZEFSAII (Michael W. Deem and Ramdas Pophale) SiO2 
 PCOD8308865
Probable space group: P -4 21 C
;
_chemical_formula_sum "Si O2"
_cell_formula_units_Z 50
_cell_length_a 8.134436
_cell_length_b 8.134436
_cell_length_c 33.528864
_cell_angle_alpha 90.000000
_cell_angle_beta 90.000000
_cell_angle_gamma 90.000000
_cell_volume 2218.573046
_symmetry_space_group_name_H-M "P -4 21 C"
_symmetry_group_IT_number 114
_symmetry_cell_setting 'tetragonal'
loop_
_space_group_symop_operation_xyz
x,y,z
y,-x,-z
-x,-y,z
-y,x,-z
1/2+x,1/2-y,1/2-z
1/2-x,1/2+y,1/2-z
1/2-y,1/2-x,1/2+z
1/2+y,1/2+x,1/2+z
loop_
_atom_site_type_symbol
_atom_site_label
_atom_site_fract_x
_atom_site_fract_y
_atom_site_fract_z
Si Si1 0.385771 0.758014 0.218099
Si Si2 0.228352 0.269925 0.971728
Si Si3 0.000000 0.000000 0.338409
Si Si4 0.000000 0.000000 0.000000
Si Si5 0.724082 0.761697 0.122938
Si Si6 0.103663 0.747894 0.794409
Si Si7 0.067148 0.326297 0.550620
Si Si8 0.500000 0.000000 0.076115
O O1 0.367476 0.602652 0.188245
O O2 0.566935 0.829334 0.213640
O O3 0.368079 0.685530 0.262391
O O4 0.254706 0.903952 0.208542
O O5 0.131867 0.093866 0.971356
O O6 0.397572 0.275818 0.946764
O O7 0.128853 0.415642 0.952408
O O8 0.257222 0.311791 0.018417
O O9 0.090684 0.873762 0.366545
O O10 0.814018 0.833630 0.162414
O O11 0.845008 0.668588 0.092024
O O12 0.636388 0.917849 0.103756
O O13 0.000000 0.500000 0.535326
#
# Coordination Sequence:
#
# PCOD8308865 Si02
#       8
#     8   8   4   2   8   8   8   4
#     4  10  20  38  67  92 127 171 219 259 324 398
#     4  12  24  43  71  92 129 174 227 267 330 406
#     4  10  20  40  64  94 126 170 210 279 324 401
#     4  12  20  40  68  90 128 160 212 280 312 390
#     4  11  23  40  63  96 135 164 221 274 339 386
#     4  10  21  39  64  95 127 171 216 268 323 397
#     4  12  25  43  64 100 132 172 220 278 331 402
#     4  12  24  42  68  96 126 182 220 272 332 402
#
# _framework density 22.537006999999999
#
# number of rings (size 3 to 8) (size 9 to 14) (size 15 to 20)
#    0.000    0.960    2.400    6.720    0.000    1.600 
#    5.760    0.000    7.040    0.000    0.000    0.000 
#    0.000    0.000    0.000    0.000    0.000    0.000 
#
# Total GULP energy -619855.651241 kJ/mol
# GULP energy per Si atom -12397.113025 kJ/mol
# Density = 2.248571 g / cm^3
# Si number density = 22.537007 Si / 1000 Ang^3
#
#
#
# Elastic Constant Matrix: (Units=GPa)
#
#
# Indices 1 2 3 4 5 6 
#
# 1 82.8187 12.0203 25.3146 0.0000 0.0000 0.0000
# 2 12.0203 82.8187 25.3146 0.0000 0.0000 0.0000
# 3 25.3146 25.3146 115.5260 0.0000 0.0000 0.0000
# 4 0.0000 0.0000 0.0000 589.6648 0.0000 0.0000
# 5 0.0000 0.0000 0.0000 0.0000 589.6648 0.0000
# 6 0.0000 0.0000 0.0000 0.0000 0.0000 33.3643
#
#
#
# Elastic Compliance Matrix: (Units=1/GPa)
#
#
# Indices 1 2 3 4 5 6 
#
# 1 0.013033 -0.001092 -0.002617 0.000000 0.000000 0.000000
# 2 -0.001092 0.013033 -0.002617 0.000000 0.000000 0.000000
# 3 -0.002617 -0.002617 0.009803 0.000000 0.000000 0.000000
# 4 0.000000 0.000000 0.000000 0.001696 0.000000 0.000000
# 5 0.000000 0.000000 0.000000 0.000000 0.001696 0.000000
# 6 0.000000 0.000000 0.000000 0.000000 0.000000 0.029972
#
#
# Mechanical properties :
#
#
# Convention : Reuss Voigt Hill
#
# Bulk Modulus (GPa) = 43.06903 45.16247 44.11575
# Shear Modulus (GPa) = 55.79006 257.10639 156.44822
#
# Velocity S-wave (km/s) = 4.98082 10.69250 8.34081
# Velocity P-wave (km/s) = 7.22703 13.13477 10.60076
#
# Compressibility (1/GPa) = 0.02321854
#
# Stress axis : x y z
#
# Youngs Moduli (GPa) = 76.72937 76.72937 102.01197
#
# Poissons Ratio (x) = 0.08377 0.26692
# Poissons Ratio (y) = 0.08377 0.26692
# Poissons Ratio (z) = 0.20077 0.20077
#
# Static dielectric constant tensor:
#      x y z
#    x 4.169590 0.000000 0.000000 
#    y 0.000000 4.169590 0.000000 
#    z 0.000000 0.000000 4.240410 
# 
# 
# High freq. dielectric constant tensor:
#      x y z
#    x 1.886630 0.000000 0.000000 
#    y 0.000000 1.886630 0.000000 
#    z 0.000000 0.000000 1.888730 
# 
# From -- ./inp_files/4052.got.cif
#   From: 2010.03.12/outbox.cif.g09.slc.cpg/sg114_3_cif.got.tgz:4052.got - 2010.04.14 02:08:34.
