data_PCOD8308560
_publ_section_title
;
Structure prediction by ZEFSAII (Michael W. Deem and Ramdas Pophale) SiO2 
 PCOD8308560
Probable space group: P -4 21 M 
;
_chemical_formula_sum "Si O2"
_cell_formula_units_Z 56
_cell_length_a 15.216106
_cell_length_b 15.216106
_cell_length_c 13.310870
_cell_angle_alpha 90.000000
_cell_angle_beta 90.000000
_cell_angle_gamma 90.000000
_cell_volume 3081.864158
_symmetry_space_group_name_H-M "P -4 21 M "
_symmetry_group_IT_number 113
_symmetry_cell_setting 'tetragonal'
loop_
_space_group_symop_operation_xyz
x,y,z
y,-x,-z
-x,-y,z
-y,x,-z
1/2+x,1/2-y,-z
1/2-x,1/2+y,-z
1/2-y,1/2-x,z
1/2+y,1/2+x,z
loop_
_atom_site_type_symbol
_atom_site_label
_atom_site_fract_x
_atom_site_fract_y
_atom_site_fract_z
Si Si1 0.100050 0.899949 0.499999
Si Si2 0.809680 0.902078 0.139099
Si Si3 0.241045 0.400105 0.643858
Si Si4 0.741044 0.900107 0.356142
Si Si5 0.262786 0.097282 0.924303
Si Si6 0.097923 0.190319 0.860901
Si Si7 0.737215 0.097283 0.924303
O O1 0.166085 0.878868 0.409034
O O2 0.121131 0.833912 0.590964
O O3 0.999999 0.886807 0.460794
O O4 0.752518 0.885239 0.237796
O O5 0.886969 0.830788 0.129693
O O6 0.851989 0.000000 0.141448
O O7 0.744992 0.892109 0.044258
O O8 0.165234 0.334767 0.603826
O O9 0.211425 0.499999 0.620511
O O10 0.252518 0.385238 0.762205
O O11 0.665231 0.834770 0.396173
O O12 0.333988 0.166013 0.882781
O O13 0.169213 0.113031 0.870307
O O14 0.294797 1.000000 0.895591
O O15 0.107892 0.255007 0.955742
O O16 0.666014 0.166014 0.882781
#
# Coordination Sequence:
#
# PCOD8308560 Si02
#       7
#     8   8   8   8   8   8   8
#     4   9  19  34  50  70  95 123 158 198 236 275
#     4   9  18  32  50  70  93 123 158 198 242 279
#     4  10  19  32  51  73  98 126 155 191 235 284
#     4  10  19  32  51  73  98 126 155 191 235 284
#     4  10  19  31  47  68  97 129 160 195 232 277
#     4   9  18  32  50  70  93 123 158 198 242 279
#     4  10  19  31  47  68  97 129 160 195 232 277
#
# _framework density 18.170821
#
# number of rings (size 3 to 8) (size 9 to 14) (size 15 to 20)
#    0.000    2.429    0.000    3.857    0.000    2.286 
#    0.000    5.714    0.000    5.143    0.000    0.000 
#    0.000    6.857    0.000    0.000    0.000    0.286 
#
# Total GULP energy -694275.735250 kJ/mol
# GULP energy per Si atom -12397.780987 kJ/mol
# Density = 1.812946 g / cm^3
# Si number density = 18.170821 Si / 1000 Ang^3
#
#
#
# Elastic Constant Matrix: (Units=GPa)
#
#
# Indices 1 2 3 4 5 6 
#
# 1 124.1359 87.8166 33.3705 0.0000 0.0000 0.0000
# 2 87.8166 124.1336 33.3722 0.0000 0.0000 0.0000
# 3 33.3705 33.3722 40.8718 0.0000 0.0000 0.0000
# 4 0.0000 0.0000 0.0000 19.0607 0.0000 0.0000
# 5 0.0000 0.0000 0.0000 0.0000 19.0605 0.0000
# 6 0.0000 0.0000 0.0000 0.0000 0.0000 24.7151
#
#
#
# Elastic Compliance Matrix: (Units=1/GPa)
#
#
# Indices 1 2 3 4 5 6 
#
# 1 0.016942 -0.010592 -0.005185 0.000000 0.000000 0.000000
# 2 -0.010592 0.016943 -0.005186 0.000000 0.000000 0.000000
# 3 -0.005185 -0.005186 0.032935 0.000000 0.000000 0.000000
# 4 0.000000 0.000000 0.000000 0.052464 0.000000 0.000000
# 5 0.000000 0.000000 0.000000 0.000000 0.052464 0.000000
# 6 0.000000 0.000000 0.000000 0.000000 0.000000 0.040461
#
#
# Mechanical properties :
#
#
# Convention : Reuss Voigt Hill
#
# Bulk Modulus (GPa) = 40.16949 66.47332 53.32141
# Shear Modulus (GPa) = 19.05246 21.53937 20.29592
#
# Velocity S-wave (km/s) = 3.24160 3.44667 3.34571
# Velocity P-wave (km/s) = 6.01375 7.24578 6.65832
#
# Compressibility (1/GPa) = 0.02489452
#
# Stress axis : x y z
#
# Youngs Moduli (GPa) = 59.02400 59.02093 30.36324
#
# Poissons Ratio (x) = 0.62513 0.15742
# Poissons Ratio (y) = 0.62517 0.15748
# Poissons Ratio (z) = 0.30601 0.30611
#
# Static dielectric constant tensor:
#      x y z
#    x 3.319010 0.000000 0.000000 
#    y 0.000000 3.319010 0.000000 
#    z 0.000000 0.000000 3.153600 
# 
# 
# High freq. dielectric constant tensor:
#      x y z
#    x 1.699770 0.000000 0.000000 
#    y 0.000000 1.699770 0.000000 
#    z 0.000000 0.000000 1.681080 
# 
# From -- ./inp_files/2313.got.cif
#   From: 2010.03.12/outbox.cif.g09.slc.cpg/sg113_cif.got.tgz:2313.got - 2010.04.14 02:06:34.
