data_PCOD8308783
_publ_section_title
;
Structure prediction by ZEFSAII (Michael W. Deem and Ramdas Pophale) SiO2 
 PCOD8308783
Probable space group: P -4 21 M 
;
_chemical_formula_sum "Si O2"
_cell_formula_units_Z 56
_cell_length_a 14.062530
_cell_length_b 14.062530
_cell_length_c 18.003014
_cell_angle_alpha 90.000000
_cell_angle_beta 90.000000
_cell_angle_gamma 90.000000
_cell_volume 3560.181533
_symmetry_space_group_name_H-M "P -4 21 M "
_symmetry_group_IT_number 113
_symmetry_cell_setting 'tetragonal'
loop_
_space_group_symop_operation_xyz
x,y,z
y,-x,-z
-x,-y,z
-y,x,-z
1/2+x,1/2-y,-z
1/2-x,1/2+y,-z
1/2-y,1/2-x,z
1/2+y,1/2+x,z
loop_
_atom_site_type_symbol
_atom_site_label
_atom_site_fract_x
_atom_site_fract_y
_atom_site_fract_z
Si Si1 0.156874 1.000000 0.500000
Si Si2 0.005277 0.155019 0.082006
Si Si3 0.745306 0.095111 0.370358
Si Si4 0.245305 0.595110 0.370358
Si Si5 0.505276 0.655019 0.082006
Si Si6 0.254668 0.094680 0.794706
Si Si7 0.594682 0.245334 0.205294
O O1 0.225873 0.014452 0.570636
O O2 0.091904 0.091904 0.483922
O O3 0.225873 0.985546 0.429364
O O4 0.987216 0.235078 0.144585
O O5 0.108771 0.108770 0.096594
O O6 0.926961 0.073039 0.085904
O O7 0.000001 0.202373 0.000000
O O8 0.644342 0.144342 0.391228
O O9 0.824974 0.175027 0.369833
O O10 0.739647 0.049142 0.287927
O O11 0.144341 0.644341 0.391229
O O12 0.239644 0.549141 0.287927
O O13 0.487214 0.735077 0.144585
O O14 0.354108 0.145893 0.814131
O O15 0.170946 0.170943 0.797128
O O16 0.645895 0.145895 0.185871
#
# Coordination Sequence:
#
# PCOD8308783 Si02
#       7
#     8   8   8   8   8   8   8
#     4   9  16  24  36  57  80  98 122 157 190 220
#     4   8  13  20  30  47  72  98 121 148 184 220
#     4   8  14  24  36  51  74 102 127 152 186 225
#     4   8  14  24  36  51  74 102 127 152 186 225
#     4   8  13  20  30  47  72  98 121 148 184 220
#     4   8  13  21  33  49  70  97 126 151 177 215
#     4   8  13  21  33  49  70  97 126 151 177 215
#
# _framework density 15.729535
#
# number of rings (size 3 to 8) (size 9 to 14) (size 15 to 20)
#    0.000    3.857    0.000    2.571    0.000    1.143 
#    0.000    5.714    0.000    0.429    0.000    2.000 
#    0.000   12.000    0.000    0.000    0.000    0.000 
#
# Total GULP energy -693802.306091 kJ/mol
# GULP energy per Si atom -12389.326894 kJ/mol
# Density = 1.569373 g / cm^3
# Si number density = 15.729535 Si / 1000 Ang^3
#
#
#
# Elastic Constant Matrix: (Units=GPa)
#
#
# Indices 1 2 3 4 5 6 
#
# 1 39.2876 30.1985 58.9449 0.0000 0.0000 0.0000
# 2 30.1985 39.2879 58.9448 0.0000 0.0000 0.0000
# 3 58.9449 58.9448 165.2106 0.0000 0.0000 0.0000
# 4 0.0000 0.0000 0.0000 5.1385 0.0000 0.0000
# 5 0.0000 0.0000 0.0000 0.0000 5.1383 0.0000
# 6 0.0000 0.0000 0.0000 0.0000 0.0000 11.8986
#
#
#
# Elastic Compliance Matrix: (Units=1/GPa)
#
#
# Indices 1 2 3 4 5 6 
#
# 1 0.073242 -0.036779 -0.013010 0.000000 0.000000 0.000000
# 2 -0.036779 0.073241 -0.013009 0.000000 0.000000 0.000000
# 3 -0.013010 -0.013009 0.015336 0.000000 0.000000 0.000000
# 4 0.000000 0.000000 0.000000 0.194608 0.000000 0.000000
# 5 0.000000 0.000000 0.000000 0.000000 0.194617 0.000000
# 6 0.000000 0.000000 0.000000 0.000000 0.000000 0.084043
#
#
# Mechanical properties :
#
#
# Convention : Reuss Voigt Hill
#
# Bulk Modulus (GPa) = 27.60577 59.99582 43.80079
# Shear Modulus (GPa) = 6.47033 10.81496 8.64264
#
# Velocity S-wave (km/s) = 2.03037 2.62498 2.34658
# Velocity P-wave (km/s) = 4.80468 6.88566 5.93705
#
# Compressibility (1/GPa) = 0.03622431
#
# Stress axis : x y z
#
# Youngs Moduli (GPa) = 13.65329 13.65354 65.20550
#
# Poissons Ratio (x) = 0.50216 0.84831
# Poissons Ratio (y) = 0.50215 0.84828
# Poissons Ratio (z) = 0.17763 0.17762
#
# Static dielectric constant tensor:
#      x y z
#    x 2.759450 0.000000 0.000000 
#    y 0.000000 2.759450 0.000000 
#    z 0.000000 0.000000 3.479050 
# 
# 
# High freq. dielectric constant tensor:
#      x y z
#    x 1.557300 0.000000 0.000000 
#    y 0.000000 1.557300 0.000000 
#    z 0.000000 0.000000 1.618150 
# 
# From -- ./inp_files/2321.got.cif
#   From: 2010.03.12/outbox.cif.g09.slc.cpg/sg113_cif.got.tgz:2321.got - 2010.04.14 02:06:34.
