data_PCOD8308497
_publ_section_title
;
Structure prediction by ZEFSAII (Michael W. Deem and Ramdas Pophale) SiO2 
 PCOD8308497
Probable space group: P -4 2 C
;
_chemical_formula_sum "Si O2"
_cell_formula_units_Z 48
_cell_length_a 8.417988
_cell_length_b 8.417988
_cell_length_c 27.199429
_cell_angle_alpha 90.000000
_cell_angle_beta 90.000000
_cell_angle_gamma 90.000000
_cell_volume 1927.420135
_symmetry_space_group_name_H-M "P -4 2 C"
_symmetry_group_IT_number 112
_symmetry_cell_setting 'tetragonal'
loop_
_space_group_symop_operation_xyz
x,y,z
y,-x,-z
-x,-y,z
-y,x,-z
x,-y,1/2-z
-x,y,1/2-z
-y,-x,1/2+z
y,x,1/2+z
loop_
_atom_site_type_symbol
_atom_site_label
_atom_site_fract_x
_atom_site_fract_y
_atom_site_fract_z
Si Si1 0.298775 0.637321 0.984697
Si Si2 0.829912 0.318609 0.736242
Si Si3 0.874904 0.143049 0.555358
Si Si4 0.670058 0.819261 0.677145
Si Si5 0.676542 0.165768 0.650590
Si Si6 0.894073 0.636042 0.607119
O O1 0.181490 0.776096 0.005564
O O2 0.478808 0.705183 0.981672
O O3 0.248108 0.583521 0.929687
O O4 0.836518 0.500000 0.750000
O O5 0.684221 0.244494 0.767421
O O6 0.789344 0.293702 0.678285
O O7 0.000000 0.239133 0.750000
O O8 0.740789 0.115882 0.597123
O O9 0.976559 0.291950 0.570698
O O10 0.000000 0.000000 0.547741
O O11 0.505170 0.769199 0.650143
O O12 0.822665 0.751081 0.647918
O O13 0.683307 0.006952 0.682576
O O14 0.000000 0.500000 0.633840
#
# Coordination Sequence:
#
# PCOD8308497 Si02
#       6
#     8   8   8   8   8   8
#     4  11  26  48  72 104 146 194 241 300 370 437
#     4  11  26  43  71 105 143 186 240 298 360 431
#     4  12  26  45  74 104 140 186 240 297 362 428
#     4  11  25  46  72 102 145 191 238 298 363 437
#     4  11  25  47  70 104 143 190 240 297 366 434
#     4  12  26  45  71 105 145 187 243 304 363 436
#
# _framework density 24.903759000000001
#
# number of rings (size 3 to 8) (size 9 to 14) (size 15 to 20)
#    0.000    0.667    3.333    3.000    7.000    3.333 
#    3.000    0.000    0.000    0.000    0.000    0.000 
#    0.000    0.000    0.000    0.000    0.000    0.000 
#
# Total GULP energy -594995.575684 kJ/mol
# GULP energy per Si atom -12395.741160 kJ/mol
# Density = 2.484708 g / cm^3
# Si number density = 24.903759 Si / 1000 Ang^3
#
#
#
# Elastic Constant Matrix: (Units=GPa)
#
#
# Indices 1 2 3 4 5 6 
#
# 1 114.9965 39.8953 16.7566 0.0000 0.0000 0.0000
# 2 39.8953 114.9965 16.7566 0.0000 0.0000 0.0000
# 3 16.7566 16.7566 77.0237 0.0000 0.0000 0.0000
# 4 0.0000 0.0000 0.0000 37.6635 0.0000 0.0000
# 5 0.0000 0.0000 0.0000 0.0000 37.6635 0.0000
# 6 0.0000 0.0000 0.0000 0.0000 0.0000 47.6408
#
#
#
# Elastic Compliance Matrix: (Units=1/GPa)
#
#
# Indices 1 2 3 4 5 6 
#
# 1 0.010045 -0.003270 -0.001474 0.000000 0.000000 0.000000
# 2 -0.003270 0.010045 -0.001474 0.000000 0.000000 0.000000
# 3 -0.001474 -0.001474 0.013624 0.000000 0.000000 0.000000
# 4 0.000000 0.000000 0.000000 0.026551 0.000000 0.000000
# 5 0.000000 0.000000 0.000000 0.000000 0.026551 0.000000
# 6 0.000000 0.000000 0.000000 0.000000 0.000000 0.020990
#
#
# Mechanical properties :
#
#
# Convention : Reuss Voigt Hill
#
# Bulk Modulus (GPa) = 46.99535 50.42599 48.71067
# Shear Modulus (GPa) = 39.26625 40.16744 39.71684
#
# Velocity S-wave (km/s) = 3.97510 4.02046 3.99784
# Velocity P-wave (km/s) = 6.32300 6.46873 6.39628
#
# Compressibility (1/GPa) = 0.02127870
#
# Stress axis : x y z
#
# Youngs Moduli (GPa) = 99.55008 99.55008 73.39809
#
# Poissons Ratio (x) = 0.32555 0.10818
# Poissons Ratio (y) = 0.32555 0.10818
# Poissons Ratio (z) = 0.14673 0.14673
#
# Static dielectric constant tensor:
#      x y z
#    x 4.792400 0.000000 0.000000 
#    y 0.000000 4.792400 0.000000 
#    z 0.000000 0.000000 4.431110 
# 
# 
# High freq. dielectric constant tensor:
#      x y z
#    x 1.997450 0.000000 0.000000 
#    y 0.000000 1.997450 0.000000 
#    z 0.000000 0.000000 1.990980 
# 
# From -- ./inp_files/6323.got.cif
#   From: 2010.03.12/outbox.cif.g09.slc.cpg/sg112_4_cif.got.tgz:6323.got - 2010.04.14 02:02:48.
