data_PCOD8308199
_publ_section_title
;
Structure prediction by ZEFSAII (Michael W. Deem and Ramdas Pophale) SiO2 
 PCOD8308199
Probable space group: P -4 2 M 
;
_chemical_formula_sum "Si O2"
_cell_formula_units_Z 56
_cell_length_a 12.390207
_cell_length_b 12.390207
_cell_length_c 20.262729
_cell_angle_alpha 90.000000
_cell_angle_beta 90.000000
_cell_angle_gamma 90.000000
_cell_volume 3110.678018
_symmetry_space_group_name_H-M "P -4 2 M "
_symmetry_group_IT_number 111
_symmetry_cell_setting 'tetragonal'
loop_
_space_group_symop_operation_xyz
x,y,z
y,-x,-z
-x,-y,z
-y,x,-z
x,-y,-z
-x,y,-z
-y,-x,z
y,x,z
loop_
_atom_site_type_symbol
_atom_site_label
_atom_site_fract_x
_atom_site_fract_y
_atom_site_fract_z
Si Si1 0.791692 0.614904 0.874905
Si Si2 0.703461 0.881362 0.651801
Si Si3 0.937366 0.231297 0.559644
Si Si4 0.806531 0.631532 0.149543
Si Si5 0.376144 0.020306 0.785137
Si Si6 0.300001 0.873336 0.994076
Si Si7 0.381368 0.203776 0.519889
O O1 0.682163 0.682163 0.862487
O O2 0.773651 0.494604 0.845957
O O3 0.891062 0.670936 0.835737
O O4 0.825925 0.616593 0.951693
O O5 0.792819 0.792819 0.673389
O O6 0.637991 0.929220 0.712873
O O7 0.622911 0.831941 0.596833
O O8 0.760361 0.985488 0.621685
O O9 0.838146 0.161855 0.585271
O O10 0.893532 0.343908 0.528178
O O11 0.000000 0.171302 0.500000
O O12 0.700577 0.700577 0.166499
O O13 0.847788 0.649338 0.076044
O O14 0.900850 0.672605 0.200435
O O15 0.500000 0.000000 0.800983
O O16 0.184057 0.815944 0.003182
O O17 0.282058 0.000000 0.000000
O O18 0.500000 0.239432 0.500000
O O19 0.306008 0.306008 0.508620
#
# Coordination Sequence:
#
# PCOD8308199 Si02
#       7
#     8   8   8   8   8   8   8
#     4  10  20  35  57  81 107 145 186 227 278 333
#     4  10  21  34  52  79 108 138 176 219 264 318
#     4   9  18  31  49  74 100 129 165 204 252 309
#     4  10  21  36  54  82 113 142 184 234 280 328
#     4  10  21  35  55  77 105 145 185 225 267 319
#     4  10  19  33  56  82 111 145 186 233 280 335
#     4   9  19  34  54  80 107 136 174 222 270 324
#
# _framework density 18.002504999999999
#
# number of rings (size 3 to 8) (size 9 to 14) (size 15 to 20)
#    0.000    2.286    1.429    2.143    2.000    4.714 
#    0.000    0.000    0.000    3.857    0.000    2.000 
#    0.000    0.000    0.000    0.000    0.000    0.000 
#
# Total GULP energy -693976.890663 kJ/mol
# GULP energy per Si atom -12392.444476 kJ/mol
# Density = 1.796153 g / cm^3
# Si number density = 18.002505 Si / 1000 Ang^3
#
#
#
# Elastic Constant Matrix: (Units=GPa)
#
#
# Indices 1 2 3 4 5 6 
#
# 1 99.2346 42.8284 24.2984 0.0000 0.0000 0.0000
# 2 42.8284 99.2337 24.2982 0.0000 0.0000 0.0000
# 3 24.2984 24.2982 68.9841 0.0000 0.0000 0.0000
# 4 0.0000 0.0000 0.0000 4.4788 0.0000 0.0000
# 5 0.0000 0.0000 0.0000 0.0000 4.4847 0.0000
# 6 0.0000 0.0000 0.0000 0.0000 0.0000 15.0501
#
#
#
# Elastic Compliance Matrix: (Units=1/GPa)
#
#
# Indices 1 2 3 4 5 6 
#
# 1 0.012866 -0.004863 -0.002819 0.000000 0.000000 0.000000
# 2 -0.004863 0.012866 -0.002819 0.000000 0.000000 0.000000
# 3 -0.002819 -0.002819 0.016482 0.000000 0.000000 0.000000
# 4 0.000000 0.000000 0.000000 0.223276 0.000000 0.000000
# 5 0.000000 0.000000 0.000000 0.000000 0.222978 0.000000
# 6 0.000000 0.000000 0.000000 0.000000 0.000000 0.066445
#
#
# Mechanical properties :
#
#
# Convention : Reuss Voigt Hill
#
# Bulk Modulus (GPa) = 47.14153 50.03359 48.58756
# Shear Modulus (GPa) = 8.57654 16.53788 12.55721
#
# Velocity S-wave (km/s) = 2.18505 3.03420 2.64394
# Velocity P-wave (km/s) = 5.71041 6.33467 6.03063
#
# Compressibility (1/GPa) = 0.02121272
#
# Stress axis : x y z
#
# Youngs Moduli (GPa) = 77.72406 77.72331 60.67216
#
# Poissons Ratio (x) = 0.37794 0.17104
# Poissons Ratio (y) = 0.37794 0.17104
# Poissons Ratio (z) = 0.21911 0.21911
#
# Static dielectric constant tensor:
#      x y z
#    x 3.293600 0.000000 0.000000 
#    y 0.000000 3.293600 0.000000 
#    z 0.000000 0.000000 3.397010 
# 
# 
# High freq. dielectric constant tensor:
#      x y z
#    x 1.691690 0.000000 0.000000 
#    y 0.000000 1.691690 0.000000 
#    z 0.000000 0.000000 1.692210 
# 
# From -- ./inp_files/3939.got.cif
#   From: 2010.03.12/outbox.cif.g09.slc.cpg/sg111_2_cif.got.tgz:3939.got - 2010.04.14 01:59:48.
