data_PCOD8308620
_publ_section_title
;
Structure prediction by ZEFSAII (Michael W. Deem and Ramdas Pophale) SiO2 
 PCOD8308620
Probable space group: P -4 21 M 
;
_chemical_formula_sum "Si O2"
_cell_formula_units_Z 56
_cell_length_a 14.358289
_cell_length_b 14.358289
_cell_length_c 11.796803
_cell_angle_alpha 90.000000
_cell_angle_beta 90.000000
_cell_angle_gamma 90.000000
_cell_volume 2432.034368
_symmetry_space_group_name_H-M "P -4 21 M "
_symmetry_group_IT_number 113
_symmetry_cell_setting 'tetragonal'
loop_
_space_group_symop_operation_xyz
x,y,z
y,-x,-z
-x,-y,z
-y,x,-z
1/2+x,1/2-y,-z
1/2-x,1/2+y,-z
1/2-y,1/2-x,z
1/2+y,1/2+x,z
loop_
_atom_site_type_symbol
_atom_site_label
_atom_site_fract_x
_atom_site_fract_y
_atom_site_fract_z
Si Si1 0.385622 0.593485 0.015912
Si Si2 0.779055 0.126900 0.815622
Si Si3 0.633655 0.445644 0.466930
Si Si4 0.315138 0.965002 0.171131
Si Si5 0.848567 0.495016 0.080579
Si Si6 0.741559 0.388217 0.663474
Si Si7 0.661978 0.685566 0.762836
O O1 0.317404 0.593281 0.126811
O O2 0.493441 0.616830 0.046760
O O3 0.347915 0.673805 0.934973
O O4 0.702849 0.202849 0.790603
O O5 0.727462 0.025596 0.822559
O O6 0.858892 0.141097 0.720423
O O7 0.553842 0.392143 0.538911
O O8 0.724507 0.441279 0.546003
O O9 0.655194 0.399208 0.345567
O O10 0.416638 0.916638 0.182365
O O11 0.236753 0.892398 0.207021
O O12 0.307513 0.051484 0.255191
O O13 0.300425 0.004586 0.043513
O O14 0.928440 0.571561 0.077963
O O15 0.893906 0.393906 0.109745
O O16 0.795352 0.295352 0.630463
O O17 0.714894 0.785107 0.745197
#
# Coordination Sequence:
#
# PCOD8308620 Si02
#       7
#     8   8   8   8   8   8   8
#     4  11  24  37  61  91 130 169 206 259 323 396
#     4  10  21  37  58  88 127 164 208 268 326 388
#     4  11  25  42  67  91 121 167 223 274 324 387
#     4  10  19  36  62  94 130 165 214 273 332 397
#     4   9  17  32  55  86 124 166 211 258 319 394
#     4  11  23  40  62  92 129 167 215 270 330 391
#     4  11  22  42  67  93 130 173 216 269 333 398
#
# _framework density 23.02599
#
# number of rings (size 3 to 8) (size 9 to 14) (size 15 to 20)
#    0.000    1.571    2.857    2.143    2.000    2.000 
#    0.000    0.714    0.000    0.000    0.000    0.000 
#    0.000    0.000    0.000    0.000    0.000    0.000 
#
# Total GULP energy -693758.409132 kJ/mol
# GULP energy per Si atom -12388.543020 kJ/mol
# Density = 2.297358 g / cm^3
# Si number density = 23.025990 Si / 1000 Ang^3
#
#
#
# Elastic Constant Matrix: (Units=GPa)
#
#
# Indices 1 2 3 4 5 6 
#
# 1 44.4438 14.8393 14.0708 0.0000 0.0000 0.0000
# 2 14.8393 44.4447 14.0712 0.0000 0.0000 0.0000
# 3 14.0708 14.0712 91.1938 0.0000 0.0000 0.0000
# 4 0.0000 0.0000 0.0000 29.2035 0.0000 0.0000
# 5 0.0000 0.0000 0.0000 0.0000 29.2034 0.0000
# 6 0.0000 0.0000 0.0000 0.0000 0.0000 39.1032
#
#
#
# Elastic Compliance Matrix: (Units=1/GPa)
#
#
# Indices 1 2 3 4 5 6 
#
# 1 0.025990 -0.007788 -0.002808 0.000000 0.000000 0.000000
# 2 -0.007788 0.025989 -0.002808 0.000000 0.000000 0.000000
# 3 -0.002808 -0.002808 0.011832 0.000000 0.000000 0.000000
# 4 0.000000 0.000000 0.000000 0.034242 0.000000 0.000000
# 5 0.000000 0.000000 0.000000 0.000000 0.034243 0.000000
# 6 0.000000 0.000000 0.000000 0.000000 0.000000 0.025573
#
#
# Mechanical properties :
#
#
# Convention : Reuss Voigt Hill
#
# Bulk Modulus (GPa) = 27.02619 29.56056 28.29338
# Shear Modulus (GPa) = 25.37884 28.64208 27.01046
#
# Velocity S-wave (km/s) = 3.32352 3.53073 3.42869
# Velocity P-wave (km/s) = 5.14688 5.43021 5.29044
#
# Compressibility (1/GPa) = 0.03700114
#
# Stress axis : x y z
#
# Youngs Moduli (GPa) = 38.47642 38.47708 84.51422
#
# Poissons Ratio (x) = 0.29968 0.23735
# Poissons Ratio (y) = 0.29967 0.23735
# Poissons Ratio (z) = 0.10806 0.10806
#
# Static dielectric constant tensor:
#      x y z
#    x 4.392350 0.000000 0.000000 
#    y 0.000000 4.392360 0.000000 
#    z 0.000000 0.000000 3.898980 
# 
# 
# High freq. dielectric constant tensor:
#      x y z
#    x 1.923010 0.000000 0.000000 
#    y 0.000000 1.923010 0.000000 
#    z 0.000000 0.000000 1.879680 
# 
# From -- ./inp_files/1938.got.cif
#   From: 2010.03.12/outbox.cif.g09.slc.cpg/sg113_cif.got.tgz:1938.got - 2010.04.14 02:06:34.
