data_PCOD8308233
_publ_section_title
;
Structure prediction by ZEFSAII (Michael W. Deem and Ramdas Pophale) SiO2 
 PCOD8308233
Probable space group: P -4 2 M 
;
_chemical_formula_sum "Si O2"
_cell_formula_units_Z 38
_cell_length_a 14.304681
_cell_length_b 14.304681
_cell_length_c 9.257629
_cell_angle_alpha 90.000000
_cell_angle_beta 90.000000
_cell_angle_gamma 90.000000
_cell_volume 1894.332137
_symmetry_space_group_name_H-M "P -4 2 M "
_symmetry_group_IT_number 111
_symmetry_cell_setting 'tetragonal'
loop_
_space_group_symop_operation_xyz
x,y,z
y,-x,-z
-x,-y,z
-y,x,-z
x,-y,-z
-x,y,-z
-y,-x,z
y,x,z
loop_
_atom_site_type_symbol
_atom_site_label
_atom_site_fract_x
_atom_site_fract_y
_atom_site_fract_z
Si Si1 0.000000 0.000000 0.500000
Si Si2 0.693434 0.067121 0.699912
Si Si3 0.417052 0.730279 0.188922
Si Si4 0.897955 0.897955 0.245353
Si Si5 0.000000 0.000000 0.000000
Si Si6 0.702623 0.143101 0.380745
Si Si7 0.227466 0.379457 0.130369
O O1 0.935866 0.935866 0.399035
O O2 0.791226 0.083113 0.771576
O O3 0.686916 0.118927 0.546816
O O4 0.621672 0.122085 0.804299
O O5 0.685071 0.954998 0.701158
O O6 0.374272 0.625729 0.191609
O O7 0.378112 0.788035 0.325550
O O8 0.528587 0.721473 0.194161
O O9 0.384305 0.782245 0.042382
O O10 0.938064 0.938064 0.101053
O O11 0.805271 0.194730 0.357874
O O12 0.289793 0.289793 0.177831
#
# Coordination Sequence:
#
# PCOD8308233 Si02
#       7
#     1   8   8   4   1   8   8
#     4  10  20  34  60  74 116 154 212 230 276 342
#     4  11  22  36  59  81 117 155 192 238 291 332
#     4   9  21  39  62  84 113 148 191 239 295 351
#     4  11  22  38  52  86 113 162 190 250 285 342
#     4  10  28  34  52  82 124 154 212 238 292 350
#     4  10  21  38  58  86 112 153 200 239 278 342
#     4  10  20  39  59  87 117 147 185 239 297 358
#
# _framework density 20.059840999999999
#
# number of rings (size 3 to 8) (size 9 to 14) (size 15 to 20)
#    0.000    1.895    2.105    1.263    2.947    4.632 
#    0.000    6.316    0.000    0.000    0.000    2.947 
#    0.000    0.000    0.000    0.000    0.000    0.000 
#
# Total GULP energy -470852.503808 kJ/mol
# GULP energy per Si atom -12390.855363 kJ/mol
# Density = 2.001418 g / cm^3
# Si number density = 20.059841 Si / 1000 Ang^3
#
#
#
# Elastic Constant Matrix: (Units=GPa)
#
#
# Indices 1 2 3 4 5 6 
#
# 1 85.6235 9.7352 22.1067 0.0000 0.0000 0.0000
# 2 9.7352 85.6242 22.1065 0.0000 0.0000 0.0000
# 3 22.1067 22.1065 66.2636 0.0000 0.0000 0.0000
# 4 0.0000 0.0000 0.0000 33.9612 0.0000 0.0000
# 5 0.0000 0.0000 0.0000 0.0000 33.9602 0.0000
# 6 0.0000 0.0000 0.0000 0.0000 0.0000 28.4805
#
#
#
# Elastic Compliance Matrix: (Units=1/GPa)
#
#
# Indices 1 2 3 4 5 6 
#
# 1 0.012791 -0.000386 -0.004139 0.000000 0.000000 0.000000
# 2 -0.000386 0.012791 -0.004139 0.000000 0.000000 0.000000
# 3 -0.004139 -0.004139 0.017853 0.000000 0.000000 0.000000
# 4 0.000000 0.000000 0.000000 0.029445 0.000000 0.000000
# 5 0.000000 0.000000 0.000000 0.000000 0.029446 0.000000
# 6 0.000000 0.000000 0.000000 0.000000 0.000000 0.035112
#
#
# Mechanical properties :
#
#
# Convention : Reuss Voigt Hill
#
# Bulk Modulus (GPa) = 38.30086 38.37869 38.33977
# Shear Modulus (GPa) = 30.58696 31.51790 31.05243
#
# Velocity S-wave (km/s) = 3.90909 3.96813 3.93872
# Velocity P-wave (km/s) = 6.28565 6.33785 6.31180
#
# Compressibility (1/GPa) = 0.02610907
#
# Stress axis : x y z
#
# Youngs Moduli (GPa) = 78.17714 78.17793 56.01388
#
# Poissons Ratio (x) = 0.03016 0.23183
# Poissons Ratio (y) = 0.03016 0.23182
# Poissons Ratio (z) = 0.32356 0.32355
#
# Static dielectric constant tensor:
#      x y z
#    x 3.764970 0.000000 0.000000 
#    y 0.000000 3.764960 0.000000 
#    z 0.000000 0.000000 3.598430 
# 
# 
# High freq. dielectric constant tensor:
#      x y z
#    x 1.779870 0.000000 0.000000 
#    y 0.000000 1.779870 0.000000 
#    z 0.000000 0.000000 1.781570 
# 
# From -- ./inp_files/1491.got.cif
#   From: 2010.03.12/outbox.cif.g09.slc.cpg/sg111_1_cif.got.tgz:1491.got - 2010.04.14 01:59:48.
