data_PCOD8308684
_publ_section_title
;
Structure prediction by ZEFSAII (Michael W. Deem and Ramdas Pophale) SiO2 
 PCOD8308684
Probable space group: P -4 21 M 
;
_chemical_formula_sum "Si O2"
_cell_formula_units_Z 64
_cell_length_a 12.198408
_cell_length_b 12.198408
_cell_length_c 23.311473
_cell_angle_alpha 90.000000
_cell_angle_beta 90.000000
_cell_angle_gamma 90.000000
_cell_volume 3468.774171
_symmetry_space_group_name_H-M "P -4 21 M "
_symmetry_group_IT_number 113
_symmetry_cell_setting 'tetragonal'
loop_
_space_group_symop_operation_xyz
x,y,z
y,-x,-z
-x,-y,z
-y,x,-z
1/2+x,1/2-y,-z
1/2-x,1/2+y,-z
1/2-y,1/2-x,z
1/2+y,1/2+x,z
loop_
_atom_site_type_symbol
_atom_site_label
_atom_site_fract_x
_atom_site_fract_y
_atom_site_fract_z
Si Si1 0.452358 0.228546 0.947092
Si Si2 0.905926 0.768466 0.944160
Si Si3 0.325642 0.005074 0.425958
Si Si4 0.319446 0.637374 0.241028
Si Si5 0.246646 0.432478 0.174741
Si Si6 0.664067 0.462720 0.480818
Si Si7 0.667576 0.649932 0.630381
Si Si8 0.125004 0.017129 0.156186
O O1 0.382159 0.117842 0.950226
O O2 0.377626 0.335361 0.954193
O O3 0.517673 0.231393 0.888035
O O4 0.540683 0.228102 0.997329
O O5 0.827298 0.672703 0.920372
O O6 0.999180 0.793640 0.897281
O O7 0.403765 0.903765 0.439220
O O8 0.228472 0.965586 0.383499
O O9 0.394185 0.105816 0.397904
O O10 0.280512 0.043961 0.487643
O O11 0.245417 0.745417 0.233901
O O12 0.251342 0.531891 0.220003
O O13 0.355454 0.616779 0.306409
O O14 0.430561 0.655121 0.205518
O O15 0.145064 0.354937 0.191060
O O16 0.358437 0.360861 0.178065
O O17 0.585854 0.380591 0.516041
O O18 0.672022 0.430180 0.414254
O O19 0.750796 0.749204 0.625051
O O20 0.000000 0.000000 0.135829
#
# Coordination Sequence:
#
# PCOD8308684 Si02
#       8
#     8   8   8   8   8   8   8   8
#     4  11  23  37  57  86 115 149 190 236 290 346
#     4  11  22  35  56  84 113 146 188 232 280 339
#     4   9  17  31  52  78 109 148 191 235 284 335
#     4  10  20  38  62  86 110 152 198 235 285 339
#     4  11  23  40  60  85 115 149 190 239 292 345
#     4   9  17  31  49  80 113 148 184 227 278 337
#     4   9  18  33  56  82 112 146 187 232 276 334
#     4  10  20  38  58  79 109 148 188 233 274 337
#
# _framework density 18.450322
#
# number of rings (size 3 to 8) (size 9 to 14) (size 15 to 20)
#    0.000    2.000    2.500    2.250    0.000    3.750 
#   13.500    1.250    0.000    2.625    0.000    0.000 
#    0.000    0.000    0.000    0.000    0.000    0.000 
#
# Total GULP energy -793582.614783 kJ/mol
# GULP energy per Si atom -12399.728356 kJ/mol
# Density = 1.840833 g / cm^3
# Si number density = 18.450322 Si / 1000 Ang^3
#
#
#
# Elastic Constant Matrix: (Units=GPa)
#
#
# Indices 1 2 3 4 5 6 
#
# 1 75.2711 33.5897 46.7024 0.0000 0.0000 0.0000
# 2 33.5897 75.2688 46.7022 0.0000 0.0000 0.0000
# 3 46.7024 46.7022 143.2749 0.0000 0.0000 0.0000
# 4 0.0000 0.0000 0.0000 23.9350 0.0000 0.0000
# 5 0.0000 0.0000 0.0000 0.0000 23.9351 0.0000
# 6 0.0000 0.0000 0.0000 0.0000 0.0000 26.7092
#
#
#
# Elastic Compliance Matrix: (Units=1/GPa)
#
#
# Indices 1 2 3 4 5 6 
#
# 1 0.018372 -0.005620 -0.004157 0.000000 0.000000 0.000000
# 2 -0.005620 0.018373 -0.004157 0.000000 0.000000 0.000000
# 3 -0.004157 -0.004157 0.009690 0.000000 0.000000 0.000000
# 4 0.000000 0.000000 0.000000 0.041780 0.000000 0.000000
# 5 0.000000 0.000000 0.000000 0.000000 0.041780 0.000000
# 6 0.000000 0.000000 0.000000 0.000000 0.000000 0.037440
#
#
# Mechanical properties :
#
#
# Convention : Reuss Voigt Hill
#
# Bulk Modulus (GPa) = 53.85729 60.86704 57.36217
# Shear Modulus (GPa) = 24.81502 26.03723 25.42612
#
# Velocity S-wave (km/s) = 3.67135 3.76068 3.71628
# Velocity P-wave (km/s) = 6.87209 7.20543 7.04073
#
# Compressibility (1/GPa) = 0.01856759
#
# Stress axis : x y z
#
# Youngs Moduli (GPa) = 54.43004 54.42800 103.20301
#
# Poissons Ratio (x) = 0.30586 0.42900
# Poissons Ratio (y) = 0.30587 0.42902
# Poissons Ratio (z) = 0.22626 0.22626
#
# Static dielectric constant tensor:
#      x y z
#    x 3.522880 0.000000 0.000000 
#    y 0.000000 3.522880 0.000000 
#    z 0.000000 0.000000 3.420100 
# 
# 
# High freq. dielectric constant tensor:
#      x y z
#    x 1.716390 0.000000 0.000000 
#    y 0.000000 1.716390 0.000000 
#    z 0.000000 0.000000 1.702810 
# 
# From -- ./inp_files/2915.got.cif
#   From: 2010.03.12/outbox.cif.g09.slc.cpg/sg113_cif.got.tgz:2915.got - 2010.04.14 02:06:34.
