data_PCOD8308552
_publ_section_title
;
Structure prediction by ZEFSAII (Michael W. Deem and Ramdas Pophale) SiO2 
 PCOD8308552
Probable space group: P -4 21 M 
;
_chemical_formula_sum "Si O2"
_cell_formula_units_Z 64
_cell_length_a 17.970083
_cell_length_b 17.970083
_cell_length_c 11.499593
_cell_angle_alpha 90.000000
_cell_angle_beta 90.000000
_cell_angle_gamma 90.000000
_cell_volume 3713.493225
_symmetry_space_group_name_H-M "P -4 21 M "
_symmetry_group_IT_number 113
_symmetry_cell_setting 'tetragonal'
loop_
_space_group_symop_operation_xyz
x,y,z
y,-x,-z
-x,-y,z
-y,x,-z
1/2+x,1/2-y,-z
1/2-x,1/2+y,-z
1/2-y,1/2-x,z
1/2+y,1/2+x,z
loop_
_atom_site_type_symbol
_atom_site_label
_atom_site_fract_x
_atom_site_fract_y
_atom_site_fract_z
Si Si1 0.707033 0.911729 0.203537
Si Si2 0.668033 0.046534 0.074901
Si Si3 0.708389 0.917502 0.463378
Si Si4 0.407995 0.784488 0.837977
Si Si5 0.177221 0.803378 0.946904
Si Si6 0.179974 0.195485 0.563095
Si Si7 0.298934 0.924567 0.577603
Si Si8 0.719704 0.655864 0.816948
O O1 0.666028 0.833973 0.222048
O O2 0.729797 0.938901 0.331171
O O3 0.777711 0.897370 0.119378
O O4 0.652640 0.968390 0.136693
O O5 0.595011 0.095011 0.093027
O O6 0.738505 0.081318 0.142419
O O7 0.685178 0.035637 0.937316
O O8 0.637608 0.862393 0.473749
O O9 0.783013 0.881010 0.517817
O O10 0.685632 0.995391 0.521491
O O11 0.338253 0.838253 0.829444
O O12 0.376607 0.704862 0.878519
O O13 0.444753 0.780173 0.711462
O O14 0.240623 0.740623 0.946657
O O15 0.159767 0.823222 0.082278
O O16 0.243566 0.256435 0.569337
O O17 0.115297 0.226426 0.478240
O O18 0.145497 0.180404 0.691686
O O19 0.372178 0.872178 0.563545
O O20 0.779607 0.720394 0.805613
#
# Coordination Sequence:
#
# PCOD8308552 Si02
#       8
#     8   8   8   8   8   8   8   8
#     4  10  19  29  42  62  90 122 150 181 226 272
#     4   9  17  29  44  64  89 116 150 187 221 266
#     4  10  21  33  46  70 100 125 157 202 239 275
#     4   8  15  29  47  64  84 113 152 194 229 269
#     4   8  14  26  44  64  84 108 144 190 233 266
#     4   9  17  30  48  69  93 123 160 196 230 275
#     4  10  19  32  51  70  93 131 165 189 234 292
#     4   8  14  26  45  65  84 109 144 190 232 261
#
# _framework density 17.234446999999999
#
# number of rings (size 3 to 8) (size 9 to 14) (size 15 to 20)
#    0.000    3.000    0.000    3.000    0.000    6.000 
#    0.000    3.125    0.000    2.625    0.000    0.000 
#    0.000   16.000    0.000    0.000    0.000    0.000 
#
# Total GULP energy -792939.417571 kJ/mol
# GULP energy per Si atom -12389.678400 kJ/mol
# Density = 1.719522 g / cm^3
# Si number density = 17.234447 Si / 1000 Ang^3
#
#
#
# Elastic Constant Matrix: (Units=GPa)
#
#
# Indices 1 2 3 4 5 6 
#
# 1 34.1232 24.8968 28.3432 0.0000 0.0000 0.0000
# 2 24.8968 34.1209 28.3410 0.0000 0.0000 0.0000
# 3 28.3432 28.3410 151.1660 0.0000 0.0000 0.0000
# 4 0.0000 0.0000 0.0000 24.1955 0.0000 0.0000
# 5 0.0000 0.0000 0.0000 0.0000 24.1954 0.0000
# 6 0.0000 0.0000 0.0000 0.0000 0.0000 11.8203
#
#
#
# Elastic Compliance Matrix: (Units=1/GPa)
#
#
# Indices 1 2 3 4 5 6 
#
# 1 0.064530 -0.043867 -0.003875 0.000000 0.000000 0.000000
# 2 -0.043867 0.064534 -0.003874 0.000000 0.000000 0.000000
# 3 -0.003875 -0.003874 0.008068 0.000000 0.000000 0.000000
# 4 0.000000 0.000000 0.000000 0.041330 0.000000 0.000000
# 5 0.000000 0.000000 0.000000 0.000000 0.041330 0.000000
# 6 0.000000 0.000000 0.000000 0.000000 0.000000 0.084600
#
#
# Mechanical properties :
#
#
# Convention : Reuss Voigt Hill
#
# Bulk Modulus (GPa) = 29.49843 42.50800 36.00321
# Shear Modulus (GPa) = 11.93533 21.23084 16.58309
#
# Velocity S-wave (km/s) = 2.63445 3.51363 3.10531
# Velocity P-wave (km/s) = 5.13876 6.41708 5.81316
#
# Compressibility (1/GPa) = 0.03390011
#
# Stress axis : x y z
#
# Youngs Moduli (GPa) = 15.49659 15.49580 123.94513
#
# Poissons Ratio (x) = 0.67975 0.48028
# Poissons Ratio (y) = 0.67979 0.48016
# Poissons Ratio (z) = 0.06005 0.06003
#
# Static dielectric constant tensor:
#      x y z
#    x 2.916880 0.000000 0.000000 
#    y 0.000000 2.916870 0.000000 
#    z 0.000000 0.000000 3.841830 
# 
# 
# High freq. dielectric constant tensor:
#      x y z
#    x 1.627390 0.000000 0.000000 
#    y 0.000000 1.627390 0.000000 
#    z 0.000000 0.000000 1.691410 
# 
# From -- ./inp_files/2042.got.cif
#   From: 2010.03.12/outbox.cif.g09.slc.cpg/sg113_cif.got.tgz:2042.got - 2010.04.14 02:06:34.
