data_PCOD8308351
_publ_section_title
;
Structure prediction by ZEFSAII (Michael W. Deem and Ramdas Pophale) SiO2 
 PCOD8308351
Probable space group: P -4 2 C
;
_chemical_formula_sum "Si O2"
_cell_formula_units_Z 48
_cell_length_a 11.664967
_cell_length_b 11.664967
_cell_length_c 18.741235
_cell_angle_alpha 90.000000
_cell_angle_beta 90.000000
_cell_angle_gamma 90.000000
_cell_volume 2550.147117
_symmetry_space_group_name_H-M "P -4 2 C"
_symmetry_group_IT_number 112
_symmetry_cell_setting 'tetragonal'
loop_
_space_group_symop_operation_xyz
x,y,z
y,-x,-z
-x,-y,z
-y,x,-z
x,-y,1/2-z
-x,y,1/2-z
-y,-x,1/2+z
y,x,1/2+z
loop_
_atom_site_type_symbol
_atom_site_label
_atom_site_fract_x
_atom_site_fract_y
_atom_site_fract_z
Si Si1 0.265885 0.249827 0.380927
Si Si2 0.136616 0.364807 0.250000
Si Si3 0.130017 0.869983 1.000000
Si Si4 0.249827 0.265885 0.619073
Si Si5 0.373666 0.373666 0.500000
Si Si6 0.500000 0.870924 0.166138
O O1 0.189119 0.299655 0.317694
O O2 0.199671 0.156406 0.427924
O O3 0.288586 0.355679 0.433989
O O4 0.385466 0.195636 0.356153
O O5 0.169684 0.500000 0.250000
O O6 0.189119 0.299655 0.182306
O O7 0.000000 0.349544 0.250000
O O8 0.156406 0.800329 0.927924
O O9 1.000000 0.845458 0.020665
O O10 0.355679 0.288586 0.566011
O O11 0.195636 0.385466 0.643847
O O12 0.353726 0.500000 0.530245
O O13 0.500000 0.879783 0.250000
O O14 0.500000 0.000000 0.133300
#
# Coordination Sequence:
#
# PCOD8308351 Si02
#       6
#     8   8   8   8   8   8
#     4  11  21  39  61  87 118 161 196 243 298 357
#     4  11  24  41  61  88 120 155 198 249 301 361
#     4  10  22  40  62  88 120 158 204 254 298 350
#     4  11  21  39  61  87 118 161 196 243 298 357
#     4  10  20  34  56  86 118 150 190 234 282 348
#     4  11  22  38  60  88 120 155 198 247 296 352
#
# _framework density 18.822441999999999
#
# number of rings (size 3 to 8) (size 9 to 14) (size 15 to 20)
#    0.000    1.333    3.333    3.000    0.000    0.000 
#    0.000    0.833    0.000    4.000    0.000    0.000 
#    0.000    0.000    0.000    0.000    0.000    0.000 
#
# Total GULP energy -594920.728204 kJ/mol
# GULP energy per Si atom -12394.181838 kJ/mol
# Density = 1.877960 g / cm^3
# Si number density = 18.822442 Si / 1000 Ang^3
#
#
#
# Elastic Constant Matrix: (Units=GPa)
#
#
# Indices 1 2 3 4 5 6 
#
# 1 113.9691 65.1943 49.9809 0.0000 0.0000 0.0000
# 2 65.1943 113.9691 49.9809 0.0000 0.0000 0.0000
# 3 49.9809 49.9809 123.8956 0.0000 0.0000 0.0000
# 4 0.0000 0.0000 0.0000 27.5327 0.0000 0.0000
# 5 0.0000 0.0000 0.0000 0.0000 27.5327 0.0000
# 6 0.0000 0.0000 0.0000 0.0000 0.0000 31.3210
#
#
#
# Elastic Compliance Matrix: (Units=1/GPa)
#
#
# Indices 1 2 3 4 5 6 
#
# 1 0.013853 -0.006650 -0.002906 0.000000 0.000000 0.000000
# 2 -0.006650 0.013853 -0.002906 0.000000 0.000000 0.000000
# 3 -0.002906 -0.002906 0.010416 0.000000 0.000000 0.000000
# 4 0.000000 0.000000 0.000000 0.036320 0.000000 0.000000
# 5 0.000000 0.000000 0.000000 0.000000 0.036320 0.000000
# 6 0.000000 0.000000 0.000000 0.000000 0.000000 0.031928
#
#
# Mechanical properties :
#
#
# Convention : Reuss Voigt Hill
#
# Bulk Modulus (GPa) = 75.76663 75.79399 75.78031
# Shear Modulus (GPa) = 29.06795 29.72246 29.39521
#
# Velocity S-wave (km/s) = 3.93405 3.97810 3.95614
# Velocity P-wave (km/s) = 7.80874 7.83936 7.82407
#
# Compressibility (1/GPa) = 0.01319842
#
# Stress axis : x y z
#
# Youngs Moduli (GPa) = 72.18903 72.18903 96.00941
#
# Poissons Ratio (x) = 0.48005 0.27897
# Poissons Ratio (y) = 0.48005 0.27897
# Poissons Ratio (z) = 0.20975 0.20975
#
# Static dielectric constant tensor:
#      x y z
#    x 3.686340 0.000000 0.000000 
#    y 0.000000 3.686340 0.000000 
#    z 0.000000 0.000000 3.543890 
# 
# 
# High freq. dielectric constant tensor:
#      x y z
#    x 1.740590 0.000000 0.000000 
#    y 0.000000 1.740590 0.000000 
#    z 0.000000 0.000000 1.740650 
# 
# From -- ./inp_files/4119.got.cif
#   From: 2010.03.12/outbox.cif.g09.slc.cpg/sg112_3_cif.got.tgz:4119.got - 2010.04.14 02:02:48.
