data_PCOD8308300
_publ_section_title
;
Structure prediction by ZEFSAII (Michael W. Deem and Ramdas Pophale) SiO2 
 PCOD8308300
Probable space group: P -4 2 M 
;
_chemical_formula_sum "Si O2"
_cell_formula_units_Z 64
_cell_length_a 12.000000
_cell_length_b 12.000000
_cell_length_c 24.000000
_cell_angle_alpha 90.000000
_cell_angle_beta 90.000000
_cell_angle_gamma 90.000000
_cell_volume 3456.000000
_symmetry_space_group_name_H-M "P -4 2 M "
_symmetry_group_IT_number 111
_symmetry_cell_setting 'tetragonal'
loop_
_space_group_symop_operation_xyz
x,y,z
y,-x,-z
-x,-y,z
-y,x,-z
x,-y,-z
-x,y,-z
-y,-x,z
y,x,z
loop_
_atom_site_type_symbol
_atom_site_label
_atom_site_fract_x
_atom_site_fract_y
_atom_site_fract_z
Si Si1 0.231846 0.945031 0.941130
Si Si2 0.496458 0.682138 0.436485
Si Si3 0.680182 0.500471 0.855629
Si Si4 0.535478 0.874394 0.062418
Si Si5 0.567822 0.254818 0.265686
Si Si6 0.799281 0.618806 0.342314
Si Si7 0.182316 0.003347 0.822347
Si Si8 0.375062 0.010996 0.732893
O O1 0.115221 0.884780 0.949755
O O2 0.332058 0.860425 0.929698
O O3 0.222103 0.024676 0.886464
O O4 0.263005 0.000000 0.000000
O O5 0.500000 0.726817 0.500000
O O6 0.373410 0.626591 0.423255
O O7 0.584852 0.584852 0.428150
O O8 0.536561 0.785447 0.396683
O O9 0.623169 0.376832 0.851059
O O10 0.584864 0.584864 0.874760
O O11 0.779428 0.515391 0.899276
O O12 0.737334 0.541990 0.799195
O O13 0.500000 0.000000 0.080175
O O14 0.500000 0.847855 0.000000
O O15 0.642779 0.357222 0.286408
O O16 0.447509 0.264601 0.294042
O O17 0.634063 0.141421 0.283404
O O18 0.738511 0.738511 0.351455
O O19 0.928285 0.638387 0.321484
O O20 0.110710 0.110710 0.803016
O O21 0.285163 0.982823 0.780593
O O22 0.108397 0.891604 0.820305
O O23 0.500000 0.000000 0.758170
#
# Coordination Sequence:
#
# PCOD8308300 Si02
#       8
#     8   8   8   8   8   8   8   8
#     4  11  23  39  60  81 103 132 171 226 283 338
#     4   8  14  26  47  78 115 153 193 234 275 323
#     4  10  23  41  61  84 107 135 176 224 274 330
#     4  11  24  42  57  81 108 136 173 211 269 342
#     4  10  21  35  53  77 105 141 179 218 263 316
#     4  10  19  31  52  80 111 147 180 223 272 318
#     4  10  22  39  59  79 100 133 178 227 277 327
#     4  10  22  35  51  76 110 141 179 215 264 325
#
# _framework density 18.518519000000001
#
# number of rings (size 3 to 8) (size 9 to 14) (size 15 to 20)
#    0.000    2.000    1.250    2.625    5.250    2.875 
#    0.000    0.625    0.000    3.375    0.000    0.000 
#    0.000    0.000    0.000    0.000    0.000  114.125 
#
# Total GULP energy -792903.941348 kJ/mol
# GULP energy per Si atom -12389.124084 kJ/mol
# Density = 1.847637 g / cm^3
# Si number density = 18.518519 Si / 1000 Ang^3
#
#
#
# Elastic Constant Matrix: (Units=GPa)
#
#
# Indices 1 2 3 4 5 6 
#
# 1 82.2646 20.4556 36.7388 0.0000 0.0000 0.0000
# 2 20.4556 82.2624 36.7383 0.0000 0.0000 0.0000
# 3 36.7388 36.7383 102.3224 0.0000 0.0000 0.0000
# 4 0.0000 0.0000 0.0000 25.4436 0.0000 0.0000
# 5 0.0000 0.0000 0.0000 0.0000 25.4441 0.0000
# 6 0.0000 0.0000 0.0000 0.0000 0.0000 23.3990
#
#
#
# Elastic Compliance Matrix: (Units=1/GPa)
#
#
# Indices 1 2 3 4 5 6 
#
# 1 0.014639 -0.001540 -0.004703 0.000000 0.000000 0.000000
# 2 -0.001540 0.014640 -0.004703 0.000000 0.000000 0.000000
# 3 -0.004703 -0.004703 0.013151 0.000000 0.000000 0.000000
# 4 0.000000 0.000000 0.000000 0.039303 0.000000 0.000000
# 5 0.000000 0.000000 0.000000 0.000000 0.039302 0.000000
# 6 0.000000 0.000000 0.000000 0.000000 0.000000 0.042737
#
#
# Mechanical properties :
#
#
# Convention : Reuss Voigt Hill
#
# Bulk Modulus (GPa) = 48.69421 50.52387 49.60904
# Shear Modulus (GPa) = 25.97276 26.38511 26.17893
#
# Velocity S-wave (km/s) = 3.74910 3.77874 3.76395
# Velocity P-wave (km/s) = 6.71513 6.81033 6.76290
#
# Compressibility (1/GPa) = 0.02053632
#
# Stress axis : x y z
#
# Youngs Moduli (GPa) = 68.30949 68.30764 76.04250
#
# Poissons Ratio (x) = 0.10517 0.35766
# Poissons Ratio (y) = 0.10518 0.35766
# Poissons Ratio (z) = 0.32129 0.32128
#
# Static dielectric constant tensor:
#      x y z
#    x 3.523270 0.000000 0.000000 
#    y 0.000000 3.523260 0.000000 
#    z 0.000000 0.000000 3.462960 
# 
# 
# High freq. dielectric constant tensor:
#      x y z
#    x 1.718150 0.000000 0.000000 
#    y 0.000000 1.718150 0.000000 
#    z 0.000000 0.000000 1.707000 
# 
# From -- ./inp_files/4234.got.cif
#   From: 2010.03.12/outbox.ucp.g09.slc.cvg/sg111_3_cif.got.tgz:4234.got - 2010.05.04 20:21:32.
