data_PCOD8308108
_publ_section_title
;
Structure prediction by ZEFSAII (Michael W. Deem and Ramdas Pophale) SiO2 
 PCOD8308108
Probable space group: P -4 2 M 
;
_chemical_formula_sum "Si O2"
_cell_formula_units_Z 20
_cell_length_a 10.191442
_cell_length_b 10.191442
_cell_length_c 10.460113
_cell_angle_alpha 90.000000
_cell_angle_beta 90.000000
_cell_angle_gamma 90.000000
_cell_volume 1086.444763
_symmetry_space_group_name_H-M "P -4 2 M "
_symmetry_group_IT_number 111
_symmetry_cell_setting 'tetragonal'
loop_
_space_group_symop_operation_xyz
x,y,z
y,-x,-z
-x,-y,z
-y,x,-z
x,-y,-z
-x,y,-z
-y,-x,z
y,x,z
loop_
_atom_site_type_symbol
_atom_site_label
_atom_site_fract_x
_atom_site_fract_y
_atom_site_fract_z
Si Si1 0.500000 0.293975 0.500000
Si Si2 0.314329 0.898503 0.385925
Si Si3 0.785967 0.006771 0.860704
O O1 0.386044 0.386044 0.438193
O O2 0.563843 0.203456 0.389378
O O3 0.176273 0.823728 0.403268
O O4 0.330472 0.000000 0.500000
O O5 0.318547 0.974561 0.250749
O O6 0.850311 0.149690 0.834327
O O7 0.900098 0.900098 0.862794
O O8 0.715371 0.000000 0.000000
#
# Coordination Sequence:
#
# PCOD8308108 Si02
#       3
#     4   8   8
#     4   9  19  34  48  64  91 129 170 208 240 269
#     4  10  18  28  47  74 100 125 156 196 239 285
#     4   8  14  25  42  69 106 136 150 172 227 300
#
# _framework density 18.408666
#
# number of rings (size 3 to 8) (size 9 to 14) (size 15 to 20)
#    0.000    3.000    0.000    3.000    0.000    2.000 
#    0.000    0.000    0.000    4.800    0.000    8.400 
#    0.000   22.400    0.000    0.000    0.000    0.000 
#
# Total GULP energy -247808.673879 kJ/mol
# GULP energy per Si atom -12390.433694 kJ/mol
# Density = 1.836677 g / cm^3
# Si number density = 18.408666 Si / 1000 Ang^3
#
#
#
# Elastic Constant Matrix: (Units=GPa)
#
#
# Indices 1 2 3 4 5 6 
#
# 1 78.6043 43.7414 62.9703 0.0000 0.0000 0.0000
# 2 43.7414 78.6031 62.9700 0.0000 0.0000 0.0000
# 3 62.9703 62.9700 170.5127 0.0000 0.0000 0.0000
# 4 0.0000 0.0000 0.0000 7.4986 0.0000 0.0000
# 5 0.0000 0.0000 0.0000 0.0000 7.4984 0.0000
# 6 0.0000 0.0000 0.0000 0.0000 0.0000 22.1167
#
#
#
# Elastic Compliance Matrix: (Units=1/GPa)
#
#
# Indices 1 2 3 4 5 6 
#
# 1 0.020935 -0.007749 -0.004870 0.000000 0.000000 0.000000
# 2 -0.007749 0.020936 -0.004870 0.000000 0.000000 0.000000
# 3 -0.004870 -0.004870 0.009461 0.000000 0.000000 0.000000
# 4 0.000000 0.000000 0.000000 0.133358 0.000000 0.000000
# 5 0.000000 0.000000 0.000000 0.000000 0.133361 0.000000
# 6 0.000000 0.000000 0.000000 0.000000 0.000000 0.045215
#
#
# Mechanical properties :
#
#
# Convention : Reuss Voigt Hill
#
# Bulk Modulus (GPa) = 61.14199 74.12040 67.63120
# Shear Modulus (GPa) = 12.38561 17.95865 15.17213
#
# Velocity S-wave (km/s) = 2.59668 3.12677 2.87398
# Velocity P-wave (km/s) = 6.50201 7.30663 6.91603
#
# Compressibility (1/GPa) = 0.01635537
#
# Stress axis : x y z
#
# Youngs Moduli (GPa) = 47.76646 47.76559 105.69208
#
# Poissons Ratio (x) = 0.37013 0.51469
# Poissons Ratio (y) = 0.37014 0.51470
# Poissons Ratio (z) = 0.23261 0.23261
#
# Static dielectric constant tensor:
#      x y z
#    x 3.464620 0.000000 0.000000 
#    y 0.000000 3.464620 0.000000 
#    z 0.000000 0.000000 3.647720 
# 
# 
# High freq. dielectric constant tensor:
#      x y z
#    x 1.700450 0.000000 0.000000 
#    y 0.000000 1.700450 0.000000 
#    z 0.000000 0.000000 1.693420 
# 
# From -- ./inp_files/978.got.cif
#   From: 2010.03.12/outbox.cif.g09.slc.cpg/sg111_1_cif.got.tgz:978.got - 2010.04.14 01:59:48.
