data_PCOD8308669
_publ_section_title
;
Structure prediction by ZEFSAII (Michael W. Deem and Ramdas Pophale) SiO2 
 PCOD8308669
Probable space group: P -4 21 M 
;
_chemical_formula_sum "Si O2"
_cell_formula_units_Z 40
_cell_length_a 16.298492
_cell_length_b 16.298492
_cell_length_c 7.777187
_cell_angle_alpha 90.000000
_cell_angle_beta 90.000000
_cell_angle_gamma 90.000000
_cell_volume 2065.938499
_symmetry_space_group_name_H-M "P -4 21 M "
_symmetry_group_IT_number 113
_symmetry_cell_setting 'tetragonal'
loop_
_space_group_symop_operation_xyz
x,y,z
y,-x,-z
-x,-y,z
-y,x,-z
1/2+x,1/2-y,-z
1/2-x,1/2+y,-z
1/2-y,1/2-x,z
1/2+y,1/2+x,z
loop_
_atom_site_type_symbol
_atom_site_label
_atom_site_fract_x
_atom_site_fract_y
_atom_site_fract_z
Si Si1 0.579181 0.787454 0.443562
Si Si2 0.920820 0.287455 0.943563
Si Si3 0.065453 0.890232 0.053272
Si Si4 0.366952 0.995710 0.749999
Si Si5 0.390232 0.565454 0.446728
O O1 0.662317 0.837684 0.481965
O O2 0.508315 0.812573 0.578674
O O3 0.599682 0.691738 0.464771
O O4 0.547570 0.805238 0.250000
O O5 0.837684 0.337684 0.981966
O O6 0.900319 0.191739 0.964771
O O7 0.991686 0.312574 0.078675
O O8 0.093559 0.892526 0.250000
O O9 0.966743 0.893991 0.043964
O O10 0.440775 0.059226 0.750000
O O11 0.403590 0.903590 0.749997
O O12 0.466743 0.606010 0.543963
#
# Coordination Sequence:
#
# PCOD8308669 Si02
#       5
#     8   8   8   8   8
#     4  10  20  36  58  84 116 151 188 234 288 338
#     4  10  20  36  58  84 116 151 188 234 288 338
#     4  11  21  36  58  84 114 148 194 237 281 340
#     4   9  18  34  56  81 110 148 189 228 276 336
#     4  11  21  36  58  84 114 148 194 237 281 340
#
# _framework density 19.361661999999999
#
# number of rings (size 3 to 8) (size 9 to 14) (size 15 to 20)
#    0.000    1.800    2.000    4.800    0.000    0.800 
#    0.000    6.000    0.000    4.800    0.000    0.000 
#    0.000    0.000    0.000    0.000    0.000    0.000 
#
# Total GULP energy -496053.960052 kJ/mol
# GULP energy per Si atom -12401.349001 kJ/mol
# Density = 1.931759 g / cm^3
# Si number density = 19.361662 Si / 1000 Ang^3
#
#
#
# Elastic Constant Matrix: (Units=GPa)
#
#
# Indices 1 2 3 4 5 6 
#
# 1 79.7987 31.6929 21.5563 0.0000 0.0000 0.0000
# 2 31.6929 79.7981 21.5567 0.0000 0.0000 0.0000
# 3 21.5563 21.5567 129.9592 0.0000 0.0000 0.0000
# 4 0.0000 0.0000 0.0000 26.7810 0.0000 0.0000
# 5 0.0000 0.0000 0.0000 0.0000 26.7808 0.0000
# 6 0.0000 0.0000 0.0000 0.0000 0.0000 15.8181
#
#
#
# Elastic Compliance Matrix: (Units=1/GPa)
#
#
# Indices 1 2 3 4 5 6 
#
# 1 0.015186 -0.005602 -0.001590 0.000000 0.000000 0.000000
# 2 -0.005602 0.015186 -0.001590 0.000000 0.000000 0.000000
# 3 -0.001590 -0.001590 0.008222 0.000000 0.000000 0.000000
# 4 0.000000 0.000000 0.000000 0.037340 0.000000 0.000000
# 5 0.000000 0.000000 0.000000 0.000000 0.037340 0.000000
# 6 0.000000 0.000000 0.000000 0.000000 0.000000 0.063219
#
#
# Mechanical properties :
#
#
# Convention : Reuss Voigt Hill
#
# Bulk Modulus (GPa) = 47.54814 48.79643 48.17228
# Shear Modulus (GPa) = 24.86753 28.19267 26.53010
#
# Velocity S-wave (km/s) = 3.58770 3.82004 3.70569
# Velocity P-wave (km/s) = 6.46323 6.68687 6.57600
#
# Compressibility (1/GPa) = 0.02103132
#
# Stress axis : x y z
#
# Youngs Moduli (GPa) = 65.85119 65.85055 121.62339
#
# Poissons Ratio (x) = 0.36888 0.19334
# Poissons Ratio (y) = 0.36888 0.19335
# Poissons Ratio (z) = 0.10468 0.10469
#
# Static dielectric constant tensor:
#      x y z
#    x 3.450610 0.000000 0.000000 
#    y 0.000000 3.450610 0.000000 
#    z 0.000000 0.000000 3.726250 
# 
# 
# High freq. dielectric constant tensor:
#      x y z
#    x 1.733620 0.000000 0.000000 
#    y 0.000000 1.733620 0.000000 
#    z 0.000000 0.000000 1.775350 
# 
# From -- ./inp_files/1015.got.cif
#   From: 2010.03.12/outbox.cif.g09.slc.cpg/sg113_cif.got.tgz:1015.got - 2010.04.14 02:06:34.
