data_PCOD8308270
_publ_section_title
;
Structure prediction by ZEFSAII (Michael W. Deem and Ramdas Pophale) SiO2 
 PCOD8308270
Probable space group: P -4 2 M 
;
_chemical_formula_sum "Si O2"
_cell_formula_units_Z 48
_cell_length_a 17.912254
_cell_length_b 17.912254
_cell_length_c 9.379743
_cell_angle_alpha 90.000000
_cell_angle_beta 90.000000
_cell_angle_gamma 90.000000
_cell_volume 3009.479693
_symmetry_space_group_name_H-M "P -4 2 M "
_symmetry_group_IT_number 111
_symmetry_cell_setting 'tetragonal'
loop_
_space_group_symop_operation_xyz
x,y,z
y,-x,-z
-x,-y,z
-y,x,-z
x,-y,-z
-x,y,-z
-y,-x,z
y,x,z
loop_
_atom_site_type_symbol
_atom_site_label
_atom_site_fract_x
_atom_site_fract_y
_atom_site_fract_z
Si Si1 0.185156 0.426574 0.925276
Si Si2 0.660442 0.782765 0.203579
Si Si3 0.420793 0.915389 0.325559
Si Si4 0.654273 0.462485 0.145813
Si Si5 0.439787 0.675895 0.611407
Si Si6 0.913065 0.404997 0.645624
O O1 0.129597 0.387354 0.810438
O O2 0.256861 0.455089 0.839330
O O3 0.147661 0.500000 0.000000
O O4 0.214285 0.366064 0.039972
O O5 0.741730 0.741730 0.210264
O O6 0.602087 0.741536 0.306038
O O7 0.656814 0.867605 0.262477
O O8 0.508954 0.898809 0.314700
O O9 0.391197 0.889970 0.480587
O O10 0.393748 0.000503 0.315506
O O11 0.618713 0.381288 0.159560
O O12 0.626855 0.515427 0.273087
O O13 0.628617 0.500000 0.000000
O O14 0.500000 0.709215 0.500000
O O15 0.379532 0.620469 0.536910
#
# Coordination Sequence:
#
# PCOD8308270 Si02
#       6
#     8   8   8   8   8   8
#     4  11  19  32  48  68  93 122 157 206 248 305
#     4  11  22  35  48  67  98 130 162 203 251 307
#     4   9  18  32  53  75  96 120 156 215 257 295
#     4  11  21  33  47  62  83 119 164 212 262 299
#     4  11  23  35  45  60  83 117 166 220 263 299
#     4   9  18  33  51  75  98 120 158 205 260 303
#
# _framework density 15.949602000000001
#
# number of rings (size 3 to 8) (size 9 to 14) (size 15 to 20)
#    0.000    1.667    5.000    2.500    4.667    2.667 
#    0.000    0.833    0.000    0.000    0.000    0.000 
#    0.000    0.000    0.000    0.000    0.000   54.167 
#
# Total GULP energy -594670.641224 kJ/mol
# GULP energy per Si atom -12388.971692 kJ/mol
# Density = 1.591330 g / cm^3
# Si number density = 15.949602 Si / 1000 Ang^3
#
#
#
# Elastic Constant Matrix: (Units=GPa)
#
#
# Indices 1 2 3 4 5 6 
#
# 1 56.5820 27.1064 27.1816 0.0000 0.0000 0.0000
# 2 27.1064 56.5830 27.1806 0.0000 0.0000 0.0000
# 3 27.1816 27.1806 64.3554 0.0000 0.0000 0.0000
# 4 0.0000 0.0000 0.0000 19.1385 0.0000 0.0000
# 5 0.0000 0.0000 0.0000 0.0000 19.1333 0.0000
# 6 0.0000 0.0000 0.0000 0.0000 0.0000 16.6381
#
#
#
# Elastic Compliance Matrix: (Units=1/GPa)
#
#
# Indices 1 2 3 4 5 6 
#
# 1 0.025197 -0.008730 -0.006955 0.000000 0.000000 0.000000
# 2 -0.008730 0.025196 -0.006954 0.000000 0.000000 0.000000
# 3 -0.006955 -0.006954 0.021414 0.000000 0.000000 0.000000
# 4 0.000000 0.000000 0.000000 0.052251 0.000000 0.000000
# 5 0.000000 0.000000 0.000000 0.000000 0.052265 0.000000
# 6 0.000000 0.000000 0.000000 0.000000 0.000000 0.060103
#
#
# Mechanical properties :
#
#
# Convention : Reuss Voigt Hill
#
# Bulk Modulus (GPa) = 37.69661 37.82862 37.76262
# Shear Modulus (GPa) = 17.20900 17.38545 17.29722
#
# Velocity S-wave (km/s) = 3.28832 3.30513 3.29674
# Velocity P-wave (km/s) = 6.17280 6.19147 6.18214
#
# Compressibility (1/GPa) = 0.02652758
#
# Stress axis : x y z
#
# Youngs Moduli (GPa) = 39.68766 39.68919 46.69926
#
# Poissons Ratio (x) = 0.34647 0.32481
# Poissons Ratio (y) = 0.34646 0.32477
# Poissons Ratio (z) = 0.27604 0.27602
#
# Static dielectric constant tensor:
#      x y z
#    x 2.797840 0.000000 0.000000 
#    y 0.000000 2.797840 0.000000 
#    z 0.000000 0.000000 3.246680 
# 
# 
# High freq. dielectric constant tensor:
#      x y z
#    x 1.574470 0.000000 0.000000 
#    y 0.000000 1.574470 0.000000 
#    z 0.000000 0.000000 1.632020 
# 
# From -- ./inp_files/1788.got.cif
#   From: 2010.03.12/outbox.cif.g09.slc.cpg/sg111_1_cif.got.tgz:1788.got - 2010.04.14 01:59:48.
