data_PCOD8308254
_publ_section_title
;
Structure prediction by ZEFSAII (Michael W. Deem and Ramdas Pophale) SiO2 
 PCOD8308254
Probable space group: P -4 2 M 
;
_chemical_formula_sum "Si O2"
_cell_formula_units_Z 48
_cell_length_a 15.060439
_cell_length_b 15.060439
_cell_length_c 11.043338
_cell_angle_alpha 90.000000
_cell_angle_beta 90.000000
_cell_angle_gamma 90.000000
_cell_volume 2504.814839
_symmetry_space_group_name_H-M "P -4 2 M "
_symmetry_group_IT_number 111
_symmetry_cell_setting 'tetragonal'
loop_
_space_group_symop_operation_xyz
x,y,z
y,-x,-z
-x,-y,z
-y,x,-z
x,-y,-z
-x,y,-z
-y,-x,z
y,x,z
loop_
_atom_site_type_symbol
_atom_site_label
_atom_site_fract_x
_atom_site_fract_y
_atom_site_fract_z
Si Si1 0.053288 0.317706 0.179050
Si Si2 0.500000 0.645666 0.000000
Si Si3 0.405574 0.262679 0.806277
Si Si4 0.419138 0.855840 0.412342
Si Si5 0.754494 0.904295 0.443594
Si Si6 0.131927 0.274476 0.930498
Si Si7 0.500000 0.000000 0.252635
O O1 0.086759 0.278507 0.305805
O O2 0.054501 0.427077 0.174523
O O3 0.957588 0.276040 0.147727
O O4 0.119182 0.286100 0.073926
O O5 0.492414 0.707327 0.119049
O O6 0.587656 0.587656 0.019539
O O7 0.348220 0.348220 0.781315
O O8 0.429029 0.227629 0.674724
O O9 0.356223 0.189860 0.886148
O O10 0.500000 0.844102 0.500000
O O11 0.324691 0.860155 0.478745
O O12 0.432410 0.945155 0.336217
O O13 0.840405 0.840405 0.450209
O O14 0.780145 0.000000 0.500000
O O15 0.181011 0.181011 0.905331
#
# Coordination Sequence:
#
# PCOD8308254 Si02
#       7
#     8   4   8   8   8   8   4
#     4  11  23  38  62  93 118 162 201 257 313 375
#     4   9  20  38  58  79 110 154 202 249 298 362
#     4  10  21  37  58  84 115 155 198 244 304 370
#     4  12  22  39  61  87 125 158 199 249 316 374
#     4  12  24  41  63  90 124 166 211 258 309 374
#     4  10  22  39  59  88 124 156 196 252 314 372
#     4  12  21  37  60  90 116 153 199 248 316 364
#
# _framework density 19.163093
#
# number of rings (size 3 to 8) (size 9 to 14) (size 15 to 20)
#    0.000    1.083    5.000    1.250    2.333    3.500 
#    0.000    1.667    0.000    8.000    0.000    0.000 
#    0.000    0.000    0.000    0.000    0.000    0.000 
#
# Total GULP energy -595069.941363 kJ/mol
# GULP energy per Si atom -12397.290445 kJ/mol
# Density = 1.911948 g / cm^3
# Si number density = 19.163093 Si / 1000 Ang^3
#
#
#
# Elastic Constant Matrix: (Units=GPa)
#
#
# Indices 1 2 3 4 5 6 
#
# 1 77.2409 28.7013 24.0759 0.0000 0.0000 0.0000
# 2 28.7013 77.2409 24.0759 0.0000 0.0000 0.0000
# 3 24.0759 24.0759 74.0437 0.0000 0.0000 0.0000
# 4 0.0000 0.0000 0.0000 93.6655 0.0000 0.0000
# 5 0.0000 0.0000 0.0000 0.0000 93.6655 0.0000
# 6 0.0000 0.0000 0.0000 0.0000 0.0000 -10.2705
#
#
#
# Elastic Compliance Matrix: (Units=1/GPa)
#
#
# Indices 1 2 3 4 5 6 
#
# 1 0.015839 -0.004763 -0.003601 0.000000 0.000000 0.000000
# 2 -0.004763 0.015839 -0.003601 0.000000 0.000000 0.000000
# 3 -0.003601 -0.003601 0.015848 0.000000 0.000000 0.000000
# 4 0.000000 0.000000 0.000000 0.010676 0.000000 0.000000
# 5 0.000000 0.000000 0.000000 0.000000 0.010676 0.000000
# 6 0.000000 0.000000 0.000000 0.000000 0.000000 -0.097366
#
#
# Mechanical properties :
#
#
# Convention : Reuss Voigt Hill
#
# Bulk Modulus (GPa) = 42.38401 42.47023 42.42712
# Shear Modulus (GPa) = 1511.32771 45.52357 778.42564
#
# Velocity S-wave (km/s) = 28.11366 4.87929 20.17654
# Velocity P-wave (km/s) = 32.80248 7.34533 23.76927
#
# Compressibility (1/GPa) = 0.02359380
#
# Stress axis : x y z
#
# Youngs Moduli (GPa) = 63.13580 63.13580 63.10096
#
# Poissons Ratio (x) = 0.30071 0.22726
# Poissons Ratio (y) = 0.30071 0.22726
# Poissons Ratio (z) = 0.22738 0.22738
#
# Static dielectric constant tensor:
#      x y z
#    x 3.665790 0.000000 0.000000 
#    y 0.000000 3.665790 0.000000 
#    z 0.000000 0.000000 5.935200 
# 
# 
# High freq. dielectric constant tensor:
#      x y z
#    x 1.742470 0.000000 0.000000 
#    y 0.000000 1.742470 0.000000 
#    z 0.000000 0.000000 1.760080 
# 
# From -- ./inp_files/2747.got.cif
#   From: 2010.03.12/outbox.cif.g09.slc.cpg/sg111_2_cif.got.tgz:2747.got - 2010.04.14 01:59:48.
