data_PCOD8308307
_publ_section_title
;
Structure prediction by ZEFSAII (Michael W. Deem and Ramdas Pophale) SiO2 
 PCOD8308307
Probable space group: P -4 2 C
;
_chemical_formula_sum "Si O2"
_cell_formula_units_Z 34
_cell_length_a 13.779279
_cell_length_b 13.779279
_cell_length_c 9.087294
_cell_angle_alpha 90.000000
_cell_angle_beta 90.000000
_cell_angle_gamma 90.000000
_cell_volume 1725.391151
_symmetry_space_group_name_H-M "P -4 2 C"
_symmetry_group_IT_number 112
_symmetry_cell_setting 'tetragonal'
loop_
_space_group_symop_operation_xyz
x,y,z
y,-x,-z
-x,-y,z
-y,x,-z
x,-y,1/2-z
-x,y,1/2-z
-y,-x,1/2+z
y,x,1/2+z
loop_
_atom_site_type_symbol
_atom_site_label
_atom_site_fract_x
_atom_site_fract_y
_atom_site_fract_z
Si Si1 0.000000 0.000000 0.500000
Si Si2 0.643389 0.570614 0.483366
Si Si3 0.027407 0.795029 0.092148
Si Si4 0.306462 0.295776 0.230105
Si Si5 0.244222 0.828810 0.020937
O O1 0.909715 0.012201 0.608697
O O2 0.628587 0.456581 0.485154
O O3 0.688822 0.605401 0.328282
O O4 0.711649 0.601196 0.620415
O O5 0.000000 0.748315 0.250000
O O6 0.137351 0.776995 0.037175
O O7 0.946022 0.756303 0.976715
O O8 0.308930 0.204278 0.340694
O O9 0.208808 0.292014 0.131264
#
# Coordination Sequence:
#
# PCOD8308307 Si02
#       5
#     2   8   8   8   8
#     4   8  18  24  44  74 100 134 176 234 280 294
#     4  10  20  36  60  86 108 128 154 206 282 346
#     4  10  17  30  48  70 109 144 185 222 259 303
#     4  10  20  33  50  83 114 134 170 210 262 326
#     4  10  20  32  50  78 108 148 186 220 258 288
#
# _framework density 19.705674999999999
#
# number of rings (size 3 to 8) (size 9 to 14) (size 15 to 20)
#    0.000    2.118    2.353    1.765    0.000    2.824 
#    0.000    0.000    0.000    0.000    0.000  115.294 
#    0.000    0.000    0.000    0.000    0.000    0.000 
#
# Total GULP energy -421238.238035 kJ/mol
# GULP energy per Si atom -12389.359942 kJ/mol
# Density = 1.966082 g / cm^3
# Si number density = 19.705675 Si / 1000 Ang^3
#
#
#
# Elastic Constant Matrix: (Units=GPa)
#
#
# Indices 1 2 3 4 5 6 
#
# 1 60.5829 35.0383 27.1648 0.0000 0.0000 0.0000
# 2 35.0383 60.5829 27.1648 0.0000 0.0000 0.0000
# 3 27.1648 27.1648 124.2826 0.0000 0.0000 0.0000
# 4 0.0000 0.0000 0.0000 23.2329 0.0000 0.0000
# 5 0.0000 0.0000 0.0000 0.0000 23.2329 0.0000
# 6 0.0000 0.0000 0.0000 0.0000 0.0000 30.2839
#
#
#
# Elastic Compliance Matrix: (Units=1/GPa)
#
#
# Indices 1 2 3 4 5 6 
#
# 1 0.025544 -0.013603 -0.002610 0.000000 0.000000 0.000000
# 2 -0.013603 0.025544 -0.002610 0.000000 0.000000 0.000000
# 3 -0.002610 -0.002610 0.009187 0.000000 0.000000 0.000000
# 4 0.000000 0.000000 0.000000 0.043042 0.000000 0.000000
# 5 0.000000 0.000000 0.000000 0.000000 0.043042 0.000000
# 6 0.000000 0.000000 0.000000 0.000000 0.000000 0.033021
#
#
# Mechanical properties :
#
#
# Convention : Reuss Voigt Hill
#
# Bulk Modulus (GPa) = 44.19104 47.13155 45.66129
# Shear Modulus (GPa) = 22.26477 25.75530 24.01003
#
# Velocity S-wave (km/s) = 3.36499 3.61917 3.49439
# Velocity P-wave (km/s) = 6.12958 6.43694 6.28514
#
# Compressibility (1/GPa) = 0.02262902
#
# Stress axis : x y z
#
# Youngs Moduli (GPa) = 39.14808 39.14808 108.84820
#
# Poissons Ratio (x) = 0.53254 0.28409
# Poissons Ratio (y) = 0.53254 0.28409
# Poissons Ratio (z) = 0.10217 0.10217
#
# Static dielectric constant tensor:
#      x y z
#    x 3.448370 0.000000 0.000000 
#    y 0.000000 3.448370 0.000000 
#    z 0.000000 0.000000 3.716600 
# 
# 
# High freq. dielectric constant tensor:
#      x y z
#    x 1.737190 0.000000 0.000000 
#    y 0.000000 1.737190 0.000000 
#    z 0.000000 0.000000 1.787470 
# 
# From -- ./inp_files/1071.got.cif
#   From: 2010.03.12/outbox.cif.g09.slc.cpg/sg112_1_cif.got.tgz:1071.got - 2010.04.14 02:02:48.
