data_PCOD8308050
_publ_section_title
;
Structure prediction by ZEFSAII (Michael W. Deem and Ramdas Pophale) SiO2 
 PCOD8308050
Probable space group: I 41 C D
;
_chemical_formula_sum "Si O2"
_cell_formula_units_Z 96
_cell_length_a 14.551835
_cell_length_b 14.551835
_cell_length_c 18.631459
_cell_angle_alpha 90.000000
_cell_angle_beta 90.000000
_cell_angle_gamma 90.000000
_cell_volume 3945.321404
_symmetry_space_group_name_H-M "I 41 C D"
_symmetry_group_IT_number 110
_symmetry_cell_setting 'tetragonal'
loop_
_space_group_symop_operation_xyz
x,y,z
-y,1/2+x,1/4+z
-x,-y,z
y,1/2-x,1/4+z
-x,y,1/2+z
x,-y,1/2+z
1/2-y,-x,1/4+z
1/2+y,x,1/4+z
1/2+x,1/2+y,1/2+z
1/2-y,x,3/4+z
1/2-x,1/2-y,1/2+z
1/2+y,-x,3/4+z
1/2-x,1/2+y,z
1/2+x,1/2-y,z
-y,1/2-x,3/4+z
y,1/2+x,3/4+z
loop_
_atom_site_type_symbol
_atom_site_label
_atom_site_fract_x
_atom_site_fract_y
_atom_site_fract_z
Si Si1 0.938026 0.772489 0.376580
Si Si2 0.470357 0.774347 0.139887
Si Si3 0.348988 0.219207 0.222122
Si Si4 0.947322 0.412739 0.038754
Si Si5 0.070525 0.072252 0.123588
Si Si6 0.647691 0.729353 0.387102
O O1 0.868585 0.790691 0.443274
O O2 0.916310 0.840849 0.311013
O O3 0.924796 0.672302 0.339373
O O4 0.041093 0.785300 0.405365
O O5 0.542586 0.795403 0.204252
O O6 0.502668 0.823579 0.067967
O O7 0.479133 0.668541 0.119677
O O8 0.365702 0.801436 0.157634
O O9 0.336903 0.234934 0.306291
O O10 0.310393 0.311490 0.185535
O O11 0.000000 0.500000 0.072451
O O12 0.959402 0.409486 0.954422
O O13 0.000000 0.000000 0.086356
#
# Coordination Sequence:
#
# PCOD8308050 Si02
#       6
#    16  16  16  16  16  16
#     4  11  24  42  72 102 141 188 245 306 369 453
#     4  11  24  44  71 101 138 192 248 295 375 451
#     4  11  28  44  74 110 146 200 254 310 385 459
#     4  10  22  43  72  94 135 191 233 285 372 438
#     4  11  24  44  69 102 138 184 238 305 366 442
#     4  12  26  47  74 109 150 198 250 317 384 455
#
# _framework density 24.332618
#
# number of rings (size 3 to 8) (size 9 to 14) (size 15 to 20)
#    0.000    1.000    3.333    2.000    9.333    1.333 
#    0.000    0.000    3.667    0.000    0.000    0.000 
#    0.000    0.000    0.000    0.000    0.000    0.000 
#
# Total GULP energy -595309.726360 kJ/mol
# GULP energy per Si atom -12402.285966 kJ/mol
# Density = 2.427724 g / cm^3
# Si number density = 24.332618 Si / 1000 Ang^3
#
#
#
# Elastic Constant Matrix: (Units=GPa)
#
#
# Indices 1 2 3 4 5 6 
#
# 1 128.5836 2.1327 -2.8271 0.0000 0.0000 0.0000
# 2 2.1327 128.5836 -2.8271 0.0000 0.0000 0.0000
# 3 -2.8271 -2.8271 50.0140 0.0000 0.0000 0.0000
# 4 0.0000 0.0000 0.0000 18.8186 0.0000 0.0000
# 5 0.0000 0.0000 0.0000 0.0000 18.8186 0.0000
# 6 0.0000 0.0000 0.0000 0.0000 0.0000 47.2418
#
#
#
# Elastic Compliance Matrix: (Units=1/GPa)
#
#
# Indices 1 2 3 4 5 6 
#
# 1 0.007789 -0.000120 0.000433 0.000000 0.000000 0.000000
# 2 -0.000120 0.007789 0.000433 0.000000 0.000000 0.000000
# 3 0.000433 0.000433 0.020043 0.000000 0.000000 0.000000
# 4 0.000000 0.000000 0.000000 0.053139 0.000000 0.000000
# 5 0.000000 0.000000 0.000000 0.000000 0.053139 0.000000
# 6 0.000000 0.000000 0.000000 0.000000 0.000000 0.021168
#
#
# Mechanical properties :
#
#
# Convention : Reuss Voigt Hill
#
# Bulk Modulus (GPa) = 26.94312 33.34869 30.14591
# Shear Modulus (GPa) = 28.74506 37.68933 33.21719
#
# Velocity S-wave (km/s) = 3.44079 3.93990 3.69878
# Velocity P-wave (km/s) = 5.18481 5.86790 5.53690
#
# Compressibility (1/GPa) = 0.03711522
#
# Stress axis : x y z
#
# Youngs Moduli (GPa) = 128.39352 128.39351 49.89167
#
# Poissons Ratio (x) = 0.01536 -0.02163
# Poissons Ratio (y) = 0.01536 -0.02163
# Poissons Ratio (z) = -0.05566 -0.05566
#
# Static dielectric constant tensor:
#      x y z
#    x 4.841650 0.000000 0.000000 
#    y 0.000000 4.841650 0.000000 
#    z 0.000000 0.000000 3.929000 
# 
# 
# High freq. dielectric constant tensor:
#      x y z
#    x 1.986950 0.000000 0.000000 
#    y 0.000000 1.986950 0.000000 
#    z 0.000000 0.000000 1.937410 
# 
# From -- ./inp_files/2184.got.cif
#   From: 2010.03.12/outbox.cif.g09.slc.cpg/sg110_2_cif.got.tgz:2184.got - 2010.04.14 01:58:01.
