data_PCOD8308698
_publ_section_title
;
Structure prediction by ZEFSAII (Michael W. Deem and Ramdas Pophale) SiO2 
 PCOD8308698
Probable space group: P -4 21 M 
;
_chemical_formula_sum "Si O2"
_cell_formula_units_Z 34
_cell_length_a 11.214757
_cell_length_b 11.214757
_cell_length_c 13.258528
_cell_angle_alpha 90.000000
_cell_angle_beta 90.000000
_cell_angle_gamma 90.000000
_cell_volume 1667.535336
_symmetry_space_group_name_H-M "P -4 21 M "
_symmetry_group_IT_number 113
_symmetry_cell_setting 'tetragonal'
loop_
_space_group_symop_operation_xyz
x,y,z
y,-x,-z
-x,-y,z
-y,x,-z
1/2+x,1/2-y,-z
1/2-x,1/2+y,-z
1/2-y,1/2-x,z
1/2+y,1/2+x,z
loop_
_atom_site_type_symbol
_atom_site_label
_atom_site_fract_x
_atom_site_fract_y
_atom_site_fract_z
Si Si1 0.344352 0.348295 0.849891
Si Si2 0.260069 0.050739 0.275719
Si Si3 0.500000 0.500000 0.000000
Si Si4 0.001233 0.692634 0.503328
Si Si5 0.860126 0.020957 0.680293
O O1 0.262369 0.237632 0.888104
O O2 0.258426 0.453868 0.811381
O O3 0.429120 0.301379 0.759411
O O4 0.429485 0.400476 0.936432
O O5 0.385763 0.114238 0.254257
O O6 0.261659 0.981684 0.383018
O O7 0.156182 0.151619 0.278271
O O8 0.130498 0.630498 0.495407
O O9 0.898486 0.601515 0.471798
O O10 0.996056 0.803520 0.428833
O O11 0.000000 0.000000 0.671813
#
# Coordination Sequence:
#
# PCOD8308698 Si02
#       5
#     8   8   2   8   8
#     4  11  24  44  70  92 123 162 206 265 325 386
#     4  10  21  37  60  92 130 170 212 254 306 372
#     4  12  24  52  64 102 124 156 212 272 340 394
#     4  10  21  35  54  87 131 173 214 254 296 360
#     4  10  21  37  58  89 124 164 210 251 310 373
#
# _framework density 20.389372999999999
#
# number of rings (size 3 to 8) (size 9 to 14) (size 15 to 20)
#    0.000    1.647    3.529    2.118    6.588    2.353 
#    0.000    0.000    0.000    2.824    0.000    0.000 
#    0.000    0.000    0.000    0.000    0.000    0.000 
#
# Total GULP energy -421581.686129 kJ/mol
# GULP energy per Si atom -12399.461357 kJ/mol
# Density = 2.034297 g / cm^3
# Si number density = 20.389373 Si / 1000 Ang^3
#
#
#
# Elastic Constant Matrix: (Units=GPa)
#
#
# Indices 1 2 3 4 5 6 
#
# 1 63.4037 28.3570 24.0905 0.0000 0.0000 0.0000
# 2 28.3570 63.4069 24.0915 0.0000 0.0000 0.0000
# 3 24.0905 24.0915 66.6554 0.0000 0.0000 0.0000
# 4 0.0000 0.0000 0.0000 22.9705 0.0000 0.0000
# 5 0.0000 0.0000 0.0000 0.0000 22.9692 0.0000
# 6 0.0000 0.0000 0.0000 0.0000 0.0000 40.7380
#
#
#
# Elastic Compliance Matrix: (Units=1/GPa)
#
#
# Indices 1 2 3 4 5 6 
#
# 1 0.020992 -0.007541 -0.004861 0.000000 0.000000 0.000000
# 2 -0.007541 0.020991 -0.004861 0.000000 0.000000 0.000000
# 3 -0.004861 -0.004861 0.018516 0.000000 0.000000 0.000000
# 4 0.000000 0.000000 0.000000 0.043534 0.000000 0.000000
# 5 0.000000 0.000000 0.000000 0.000000 0.043537 0.000000
# 6 0.000000 0.000000 0.000000 0.000000 0.000000 0.024547
#
#
# Mechanical properties :
#
#
# Convention : Reuss Voigt Hill
#
# Bulk Modulus (GPa) = 38.50310 38.50488 38.50399
# Shear Modulus (GPa) = 23.22333 25.13068 24.17700
#
# Velocity S-wave (km/s) = 3.37856 3.51456 3.44723
# Velocity P-wave (km/s) = 5.84332 5.94939 5.89660
#
# Compressibility (1/GPa) = 0.02597193
#
# Stress axis : x y z
#
# Youngs Moduli (GPa) = 47.63802 47.64024 54.00590
#
# Poissons Ratio (x) = 0.35925 0.26253
# Poissons Ratio (y) = 0.35923 0.26254
# Poissons Ratio (z) = 0.23158 0.23159
#
# Static dielectric constant tensor:
#      x y z
#    x 3.950270 0.000000 0.000000 
#    y 0.000000 3.950260 0.000000 
#    z 0.000000 0.000000 3.524550 
# 
# 
# High freq. dielectric constant tensor:
#      x y z
#    x 1.798270 0.000000 0.000000 
#    y 0.000000 1.798270 0.000000 
#    z 0.000000 0.000000 1.775790 
# 
# From -- ./inp_files/1575.got.cif
#   From: 2010.03.12/outbox.cif.g09.slc.cpg/sg113_cif.got.tgz:1575.got - 2010.04.14 02:06:34.
