data_PCOD8308901
_publ_section_title
;
Structure prediction by ZEFSAII (Michael W. Deem and Ramdas Pophale) SiO2 
 PCOD8308901
Probable space group: P -4 21 C
;
_chemical_formula_sum "Si O2"
_cell_formula_units_Z 52
_cell_length_a 14.414203
_cell_length_b 14.414203
_cell_length_c 12.292139
_cell_angle_alpha 90.000000
_cell_angle_beta 90.000000
_cell_angle_gamma 90.000000
_cell_volume 2553.928478
_symmetry_space_group_name_H-M "P -4 21 C"
_symmetry_group_IT_number 114
_symmetry_cell_setting 'tetragonal'
loop_
_space_group_symop_operation_xyz
x,y,z
y,-x,-z
-x,-y,z
-y,x,-z
1/2+x,1/2-y,1/2-z
1/2-x,1/2+y,1/2-z
1/2-y,1/2-x,1/2+z
1/2+y,1/2+x,1/2+z
loop_
_atom_site_type_symbol
_atom_site_label
_atom_site_fract_x
_atom_site_fract_y
_atom_site_fract_z
Si Si1 0.013738 0.320281 0.759663
Si Si2 0.678173 0.247108 0.875510
Si Si3 0.167783 0.430020 0.490553
Si Si4 0.174284 0.140938 0.234910
Si Si5 0.031051 0.130290 0.045714
Si Si6 0.115562 0.099563 0.480356
Si Si7 0.500000 0.000000 0.872364
O O1 0.081878 0.259135 0.687397
O O2 0.067849 0.358619 0.864485
O O3 0.930652 0.254377 0.795761
O O4 0.975518 0.410091 0.698127
O O5 0.760350 0.221740 0.792407
O O6 0.677480 0.176245 0.975868
O O7 0.682092 0.348913 0.931198
O O8 0.264475 0.481930 0.510314
O O9 0.090508 0.484648 0.556485
O O10 0.082716 0.122372 0.161975
O O11 0.144635 0.132424 0.360150
O O12 0.927049 0.087177 0.048681
O O13 0.009586 0.129732 0.502724
#
# Coordination Sequence:
#
# PCOD8308901 Si02
#       7
#     8   8   8   8   8   8   4
#     4  11  21  43  64  90 128 169 220 266 328 401
#     4  10  23  43  63  96 131 171 218 278 325 402
#     4  10  21  41  63  90 130 166 219 274 321 395
#     4  11  23  42  66  98 129 179 223 268 348 399
#     4  10  21  39  64  95 129 165 216 275 327 393
#     4  11  24  44  68  99 138 175 221 277 346 415
#     4  10  24  40  62  94 128 172 216 274 334 388
#
# _framework density 20.360790000000001
#
# number of rings (size 3 to 8) (size 9 to 14) (size 15 to 20)
#    0.000    1.538    3.077    1.385    0.000    4.923 
#   13.846    0.000    0.000    0.000    0.000    0.000 
#    0.000    0.000    0.000    0.000    0.000    0.000 
#
# Total GULP energy -644735.111347 kJ/mol
# GULP energy per Si atom -12398.752141 kJ/mol
# Density = 2.031445 g / cm^3
# Si number density = 20.360790 Si / 1000 Ang^3
#
#
#
# Elastic Constant Matrix: (Units=GPa)
#
#
# Indices 1 2 3 4 5 6 
#
# 1 71.7001 64.9885 32.1871 0.0000 0.0000 0.0000
# 2 64.9885 71.7001 32.1871 0.0000 0.0000 0.0000
# 3 32.1871 32.1871 110.4970 0.0000 0.0000 0.0000
# 4 0.0000 0.0000 0.0000 13.9111 0.0000 0.0000
# 5 0.0000 0.0000 0.0000 0.0000 13.9111 0.0000
# 6 0.0000 0.0000 0.0000 0.0000 0.0000 28.0534
#
#
#
# Elastic Compliance Matrix: (Units=1/GPa)
#
#
# Indices 1 2 3 4 5 6 
#
# 1 0.078737 -0.070258 -0.002470 0.000000 0.000000 0.000000
# 2 -0.070258 0.078737 -0.002470 0.000000 0.000000 0.000000
# 3 -0.002470 -0.002470 0.010489 0.000000 0.000000 0.000000
# 4 0.000000 0.000000 0.000000 0.071885 0.000000 0.000000
# 5 0.000000 0.000000 0.000000 0.000000 0.071885 0.000000
# 6 0.000000 0.000000 0.000000 0.000000 0.000000 0.035646
#
#
# Mechanical properties :
#
#
# Convention : Reuss Voigt Hill
#
# Bulk Modulus (GPa) = 56.92316 56.95805 56.94060
# Shear Modulus (GPa) = 9.92789 19.47743 14.70266
#
# Velocity S-wave (km/s) = 2.21056 3.09627 2.69012
# Velocity P-wave (km/s) = 5.87651 6.38887 6.13804
#
# Compressibility (1/GPa) = 0.01756754
#
# Stress axis : x y z
#
# Youngs Moduli (GPa) = 12.70044 12.70044 95.33835
#
# Poissons Ratio (x) = 0.89231 0.23548
# Poissons Ratio (y) = 0.89231 0.23548
# Poissons Ratio (z) = 0.03137 0.03137
#
# Static dielectric constant tensor:
#      x y z
#    x 3.693700 0.000000 0.000000 
#    y 0.000000 3.693700 0.000000 
#    z 0.000000 0.000000 3.727590 
# 
# 
# High freq. dielectric constant tensor:
#      x y z
#    x 1.798870 0.000000 0.000000 
#    y 0.000000 1.798870 0.000000 
#    z 0.000000 0.000000 1.801060 
# 
# From -- ./inp_files/1760.got.cif
#   From: 2010.03.12/outbox.cif.g09.slc.cpg/sg114_1_cif.got.tgz:1760.got - 2010.04.14 02:08:34.
