data_PCOD8308456
_publ_section_title
;
Structure prediction by ZEFSAII (Michael W. Deem and Ramdas Pophale) SiO2 
 PCOD8308456
Probable space group: P -4 2 C
;
_chemical_formula_sum "Si O2"
_cell_formula_units_Z 32
_cell_length_a 8.818343
_cell_length_b 8.818343
_cell_length_c 18.692761
_cell_angle_alpha 90.000000
_cell_angle_beta 90.000000
_cell_angle_gamma 90.000000
_cell_volume 1453.608412
_symmetry_space_group_name_H-M "P -4 2 C"
_symmetry_group_IT_number 112
_symmetry_cell_setting 'tetragonal'
loop_
_space_group_symop_operation_xyz
x,y,z
y,-x,-z
-x,-y,z
-y,x,-z
x,-y,1/2-z
-x,y,1/2-z
-y,-x,1/2+z
y,x,1/2+z
loop_
_atom_site_type_symbol
_atom_site_label
_atom_site_fract_x
_atom_site_fract_y
_atom_site_fract_z
Si Si1 0.044057 0.777940 0.471957
Si Si2 0.930555 0.165472 0.178955
Si Si3 0.722009 0.440015 0.527746
Si Si4 0.164964 0.570694 0.678348
O O1 0.116190 0.622875 0.501196
O O2 0.910936 0.828043 0.526848
O O3 0.980070 0.745920 0.392667
O O4 0.750913 0.154733 0.185177
O O5 0.000000 0.246527 0.250000
O O6 0.000000 0.000000 0.173086
O O7 0.592091 0.314367 0.515448
O O8 0.728763 0.475720 0.612047
O O9 0.239401 0.500000 0.750000
O O10 0.000000 0.500000 0.667213
#
# Coordination Sequence:
#
# PCOD8308456 Si02
#       4
#     8   8   8   8
#     4  11  21  39  67 101 132 171 222 286 338 389
#     4  11  21  35  61 104 136 167 218 284 339 394
#     4  11  27  44  65  98 133 183 226 273 343 417
#     4  11  24  40  69 100 133 184 223 282 345 410
#
# _framework density 22.014181000000001
#
# number of rings (size 3 to 8) (size 9 to 14) (size 15 to 20)
#    0.000    1.000    5.000    3.000   10.500    0.000 
#    0.000    2.500    0.000    1.500    0.000    0.000 
#    0.000    0.000    0.000    0.000    0.000    0.000 
#
# Total GULP energy -396815.327600 kJ/mol
# GULP energy per Si atom -12400.478988 kJ/mol
# Density = 2.196408 g / cm^3
# Si number density = 22.014181 Si / 1000 Ang^3
#
#
#
# Elastic Constant Matrix: (Units=GPa)
#
#
# Indices 1 2 3 4 5 6 
#
# 1 81.6757 25.3995 63.7274 0.0000 0.0000 0.0000
# 2 25.3995 81.6757 63.7274 0.0000 0.0000 0.0000
# 3 63.7274 63.7274 223.7032 0.0000 0.0000 0.0000
# 4 0.0000 0.0000 0.0000 29.6438 0.0000 0.0000
# 5 0.0000 0.0000 0.0000 0.0000 29.6438 0.0000
# 6 0.0000 0.0000 0.0000 0.0000 0.0000 43.8495
#
#
#
# Elastic Compliance Matrix: (Units=1/GPa)
#
#
# Indices 1 2 3 4 5 6 
#
# 1 0.015950 -0.001819 -0.004026 0.000000 0.000000 0.000000
# 2 -0.001819 0.015950 -0.004026 0.000000 0.000000 0.000000
# 3 -0.004026 -0.004026 0.006764 0.000000 0.000000 0.000000
# 4 0.000000 0.000000 0.000000 0.033734 0.000000 0.000000
# 5 0.000000 0.000000 0.000000 0.000000 0.033734 0.000000
# 6 0.000000 0.000000 0.000000 0.000000 0.000000 0.022805
#
#
# Mechanical properties :
#
#
# Convention : Reuss Voigt Hill
#
# Bulk Modulus (GPa) = 52.84439 76.97368 64.90904
# Shear Modulus (GPa) = 32.26103 36.24079 34.25091
#
# Velocity S-wave (km/s) = 3.83229 4.06180 3.94871
# Velocity P-wave (km/s) = 6.60597 7.55242 7.09499
#
# Compressibility (1/GPa) = 0.01892349
#
# Stress axis : x y z
#
# Youngs Moduli (GPa) = 62.69500 62.69500 147.84659
#
# Poissons Ratio (x) = 0.11406 0.59516
# Poissons Ratio (y) = 0.11406 0.59516
# Poissons Ratio (z) = 0.25238 0.25238
#
# Static dielectric constant tensor:
#      x y z
#    x 3.861000 0.000000 0.000000 
#    y 0.000000 3.861000 0.000000 
#    z 0.000000 0.000000 4.837380 
# 
# 
# High freq. dielectric constant tensor:
#      x y z
#    x 1.852870 0.000000 0.000000 
#    y 0.000000 1.852870 0.000000 
#    z 0.000000 0.000000 1.881770 
# 
# From -- ./inp_files/4508.got.cif
#   From: 2010.03.12/outbox.cif.g09.slc.cpg/sg112_3_cif.got.tgz:4508.got - 2010.04.14 02:02:48.
