data_PCOD8308413
_publ_section_title
;
Structure prediction by ZEFSAII (Michael W. Deem and Ramdas Pophale) SiO2 
 PCOD8308413
Probable space group: P -4 2 C
;
_chemical_formula_sum "Si O2"
_cell_formula_units_Z 58
_cell_length_a 17.991947
_cell_length_b 17.991947
_cell_length_c 8.601331
_cell_angle_alpha 90.000000
_cell_angle_beta 90.000000
_cell_angle_gamma 90.000000
_cell_volume 2784.338207
_symmetry_space_group_name_H-M "P -4 2 C"
_symmetry_group_IT_number 112
_symmetry_cell_setting 'tetragonal'
loop_
_space_group_symop_operation_xyz
x,y,z
y,-x,-z
-x,-y,z
-y,x,-z
x,-y,1/2-z
-x,y,1/2-z
-y,-x,1/2+z
y,x,1/2+z
loop_
_atom_site_type_symbol
_atom_site_label
_atom_site_fract_x
_atom_site_fract_y
_atom_site_fract_z
Si Si1 0.083379 0.586070 0.771818
Si Si2 0.616744 0.111414 0.616741
Si Si3 0.296494 0.694649 0.962069
Si Si4 0.917570 0.825019 0.689587
Si Si5 0.819649 0.300855 0.693244
Si Si6 0.922226 0.212491 0.169122
Si Si7 0.416720 0.729784 0.724994
Si Si8 0.000000 0.500000 0.250000
O O1 0.089704 0.500000 0.750000
O O2 0.139061 0.622309 0.643895
O O3 0.000000 0.614639 0.750000
O O4 0.116915 0.617708 0.931725
O O5 0.702152 0.107361 0.677448
O O6 0.582178 0.182178 0.701377
O O7 0.557808 0.045468 0.644799
O O8 0.231855 0.682388 0.840671
O O9 0.375430 0.707743 0.883236
O O10 0.269906 0.768477 0.055819
O O11 0.306739 0.623990 0.075697
O O12 0.891412 0.749522 0.771105
O O13 0.848695 0.879303 0.728093
O O14 0.925168 0.817310 0.505395
O O15 0.000000 0.849653 0.750000
O O16 0.000000 0.217122 0.250000
O O17 0.500000 0.699558 0.750000
#
# Coordination Sequence:
#
# PCOD8308413 Si02
#       8
#     8   8   8   8   8   8   8   2
#     4  11  24  40  60  97 142 178 218 263 329 415
#     4  12  24  42  66 100 139 183 223 270 342 424
#     4  10  23  40  65 100 133 174 229 283 332 417
#     4  12  25  44  67  96 130 176 239 292 346 404
#     4  11  21  39  64  92 133 176 223 274 335 396
#     4  12  26  46  69  97 133 179 231 295 357 411
#     4  11  23  42  68  97 134 173 222 280 342 403
#     4  12  24  40  62 104 146 172 218 266 332 428
#
# _framework density 20.830803
#
# number of rings (size 3 to 8) (size 9 to 14) (size 15 to 20)
#    0.000    0.690    4.138    4.552    1.931    2.483 
#    0.000    3.448    0.000    1.241    0.000    0.000 
#    0.000    0.000    0.000    0.000    0.000    0.000 
#
# Total GULP energy -718642.221045 kJ/mol
# GULP energy per Si atom -12390.383121 kJ/mol
# Density = 2.078339 g / cm^3
# Si number density = 20.830803 Si / 1000 Ang^3
#
#
#
# Elastic Constant Matrix: (Units=GPa)
#
#
# Indices 1 2 3 4 5 6 
#
# 1 102.8371 44.2501 20.3595 0.0000 0.0000 0.0000
# 2 44.2501 102.8371 20.3595 0.0000 0.0000 0.0000
# 3 20.3595 20.3595 58.7360 0.0000 0.0000 0.0000
# 4 0.0000 0.0000 0.0000 34.7570 0.0000 0.0000
# 5 0.0000 0.0000 0.0000 0.0000 34.7570 0.0000
# 6 0.0000 0.0000 0.0000 0.0000 0.0000 35.3416
#
#
#
# Elastic Compliance Matrix: (Units=1/GPa)
#
#
# Indices 1 2 3 4 5 6 
#
# 1 0.012294 -0.004774 -0.002607 0.000000 0.000000 0.000000
# 2 -0.004774 0.012294 -0.002607 0.000000 0.000000 0.000000
# 3 -0.002607 -0.002607 0.018832 0.000000 0.000000 0.000000
# 4 0.000000 0.000000 0.000000 0.028771 0.000000 0.000000
# 5 0.000000 0.000000 0.000000 0.000000 0.028771 0.000000
# 6 0.000000 0.000000 0.000000 0.000000 0.000000 0.028295
#
#
# Mechanical properties :
#
#
# Convention : Reuss Voigt Hill
#
# Bulk Modulus (GPa) = 42.65095 48.26092 45.45594
# Shear Modulus (GPa) = 31.83706 32.93387 32.38546
#
# Velocity S-wave (km/s) = 3.91367 3.98052 3.94723
# Velocity P-wave (km/s) = 6.39858 6.65916 6.53017
#
# Compressibility (1/GPa) = 0.02344614
#
# Stress axis : x y z
#
# Youngs Moduli (GPa) = 81.33726 81.33726 53.09979
#
# Poissons Ratio (x) = 0.38832 0.13842
# Poissons Ratio (y) = 0.38832 0.13842
# Poissons Ratio (z) = 0.21203 0.21203
#
# Static dielectric constant tensor:
#      x y z
#    x 3.955400 0.000000 0.000000 
#    y 0.000000 3.955400 0.000000 
#    z 0.000000 0.000000 3.433660 
# 
# 
# High freq. dielectric constant tensor:
#      x y z
#    x 1.819960 0.000000 0.000000 
#    y 0.000000 1.819960 0.000000 
#    z 0.000000 0.000000 1.820280 
# 
# From -- ./inp_files/1531.got.cif
#   From: 2010.03.12/outbox.cif.g09.slc.cpg/sg112_1_cif.got.tgz:1531.got - 2010.04.14 02:02:48.
