data_PCOD8308732
_publ_section_title
;
Structure prediction by ZEFSAII (Michael W. Deem and Ramdas Pophale) SiO2 
 PCOD8308732
Probable space group: P -4 21 M 
;
_chemical_formula_sum "Si O2"
_cell_formula_units_Z 32
_cell_length_a 11.928349
_cell_length_b 11.928349
_cell_length_c 10.849994
_cell_angle_alpha 90.000000
_cell_angle_beta 90.000000
_cell_angle_gamma 90.000000
_cell_volume 1543.796928
_symmetry_space_group_name_H-M "P -4 21 M "
_symmetry_group_IT_number 113
_symmetry_cell_setting 'tetragonal'
loop_
_space_group_symop_operation_xyz
x,y,z
y,-x,-z
-x,-y,z
-y,x,-z
1/2+x,1/2-y,-z
1/2-x,1/2+y,-z
1/2-y,1/2-x,z
1/2+y,1/2+x,z
loop_
_atom_site_type_symbol
_atom_site_label
_atom_site_fract_x
_atom_site_fract_y
_atom_site_fract_z
Si Si1 0.236026 0.550360 0.524491
Si Si2 0.594611 0.094611 0.036250
Si Si3 0.905810 0.594191 0.685326
Si Si4 0.109404 0.202243 0.323119
Si Si5 0.540856 0.337893 0.946041
O O1 0.133447 0.633447 0.512479
O O2 0.204760 0.448180 0.615549
O O3 0.343138 0.609922 0.582894
O O4 0.255022 0.504061 0.387115
O O5 0.625225 0.125225 0.175912
O O6 0.500000 0.000000 0.023090
O O7 0.549908 0.206681 0.972923
O O8 0.000000 0.500000 0.686882
O O9 0.197894 0.302107 0.299269
O O10 0.077007 0.142993 0.195312
O O11 0.412631 0.376991 0.968169
#
# Coordination Sequence:
#
# PCOD8308732 Si02
#       5
#     8   4   4   8   8
#     4  10  22  39  66  94 132 175 216 278 346 396
#     4  11  24  41  73 100 132 190 235 279 356 423
#     4   9  18  37  61  91 124 164 219 272 326 409
#     4  11  23  43  66 100 137 173 228 289 337 421
#     4  11  26  46  67  99 141 184 234 299 349 411
#
# _framework density 20.728117000000001
#
# number of rings (size 3 to 8) (size 9 to 14) (size 15 to 20)
#    0.000    1.500    2.500    1.500    1.750    9.500 
#    0.000    0.000    0.000    0.000    0.000    0.000 
#    0.000    0.000    0.000    0.000    0.000    0.000 
#
# Total GULP energy -396868.728367 kJ/mol
# GULP energy per Si atom -12402.147761 kJ/mol
# Density = 2.068094 g / cm^3
# Si number density = 20.728117 Si / 1000 Ang^3
#
#
#
# Elastic Constant Matrix: (Units=GPa)
#
#
# Indices 1 2 3 4 5 6 
#
# 1 93.4750 41.8777 36.0138 0.0000 0.0000 0.0000
# 2 41.8777 93.4758 36.0139 0.0000 0.0000 0.0000
# 3 36.0138 36.0139 116.6753 0.0000 0.0000 0.0000
# 4 0.0000 0.0000 0.0000 37.4213 0.0000 0.0000
# 5 0.0000 0.0000 0.0000 0.0000 37.4215 0.0000
# 6 0.0000 0.0000 0.0000 0.0000 0.0000 20.4376
#
#
#
# Elastic Compliance Matrix: (Units=1/GPa)
#
#
# Indices 1 2 3 4 5 6 
#
# 1 0.014110 -0.005270 -0.002729 0.000000 0.000000 0.000000
# 2 -0.005270 0.014110 -0.002729 0.000000 0.000000 0.000000
# 3 -0.002729 -0.002729 0.010255 0.000000 0.000000 0.000000
# 4 0.000000 0.000000 0.000000 0.026723 0.000000 0.000000
# 5 0.000000 0.000000 0.000000 0.000000 0.026723 0.000000
# 6 0.000000 0.000000 0.000000 0.000000 0.000000 0.048929
#
#
# Mechanical properties :
#
#
# Convention : Reuss Voigt Hill
#
# Bulk Modulus (GPa) = 58.75123 59.04852 58.89988
# Shear Modulus (GPa) = 29.76550 31.70413 30.73482
#
# Velocity S-wave (km/s) = 3.79357 3.91515 3.85484
# Velocity P-wave (km/s) = 6.89880 6.99907 6.94911
#
# Compressibility (1/GPa) = 0.01702092
#
# Stress axis : x y z
#
# Youngs Moduli (GPa) = 70.86930 70.86991 97.51070
#
# Poissons Ratio (x) = 0.37350 0.26607
# Poissons Ratio (y) = 0.37350 0.26607
# Poissons Ratio (z) = 0.19338 0.19338
#
# Static dielectric constant tensor:
#      x y z
#    x 3.739180 0.000000 0.000000 
#    y 0.000000 3.739170 0.000000 
#    z 0.000000 0.000000 3.855180 
# 
# 
# High freq. dielectric constant tensor:
#      x y z
#    x 1.811500 0.000000 0.000000 
#    y 0.000000 1.811500 0.000000 
#    z 0.000000 0.000000 1.818170 
# 
# From -- ./inp_files/1570.got.cif
#   From: 2010.03.12/outbox.cif.g09.slc.cpg/sg113_cif.got.tgz:1570.got - 2010.04.14 02:06:34.
