data_PCOD8308593
_publ_section_title
;
Structure prediction by ZEFSAII (Michael W. Deem and Ramdas Pophale) SiO2 
 PCOD8308593
Probable space group: P -4 21 M 
;
_chemical_formula_sum "Si O2"
_cell_formula_units_Z 48
_cell_length_a 19.271124
_cell_length_b 19.271124
_cell_length_c 7.339052
_cell_angle_alpha 90.000000
_cell_angle_beta 90.000000
_cell_angle_gamma 90.000000
_cell_volume 2725.549392
_symmetry_space_group_name_H-M "P -4 21 M "
_symmetry_group_IT_number 113
_symmetry_cell_setting 'tetragonal'
loop_
_space_group_symop_operation_xyz
x,y,z
y,-x,-z
-x,-y,z
-y,x,-z
1/2+x,1/2-y,-z
1/2-x,1/2+y,-z
1/2-y,1/2-x,z
1/2+y,1/2+x,z
loop_
_atom_site_type_symbol
_atom_site_label
_atom_site_fract_x
_atom_site_fract_y
_atom_site_fract_z
Si Si1 0.856032 0.756341 0.593668
Si Si2 0.579984 0.808145 0.751405
Si Si3 0.243664 0.143966 0.406328
Si Si4 0.920016 0.691858 0.248601
Si Si5 0.192011 0.080665 0.039802
Si Si6 0.307991 0.419332 0.960202
O O1 0.792922 0.707079 0.658757
O O2 0.825124 0.825127 0.499996
O O3 0.905709 0.716490 0.453567
O O4 0.902908 0.777292 0.762949
O O5 0.623655 0.876346 0.799836
O O6 0.594295 0.783519 0.546436
O O7 0.499999 0.827910 0.775127
O O8 0.602993 0.747906 0.889167
O O9 0.292923 0.207078 0.341229
O O10 0.222716 0.097085 0.237052
O O11 0.876343 0.623658 0.200187
O O12 0.897006 0.752093 0.110830
O O13 0.173610 0.999999 0.026821
O O14 0.121726 0.121724 0.000010
#
# Coordination Sequence:
#
# PCOD8308593 Si02
#       6
#     8   8   8   8   8   8
#     4  10  19  33  57  83 106 135 177 228 273 315
#     4  10  21  36  56  83 112 144 180 218 267 322
#     4  10  19  33  57  83 106 135 177 228 273 315
#     4  10  21  36  56  83 112 144 180 218 267 322
#     4  11  22  36  55  78 109 144 182 226 272 320
#     4  11  22  36  55  78 109 144 182 226 272 320
#
# _framework density 17.611128999999998
#
# number of rings (size 3 to 8) (size 9 to 14) (size 15 to 20)
#    0.000    1.667    3.333    2.000    0.000    2.000 
#    0.000    0.000    0.000    0.000    0.000    4.667 
#    0.000    0.000    0.000    0.000    0.000    0.000 
#
# Total GULP energy -595450.610048 kJ/mol
# GULP energy per Si atom -12405.221043 kJ/mol
# Density = 1.757105 g / cm^3
# Si number density = 17.611129 Si / 1000 Ang^3
#
#
#
# Elastic Constant Matrix: (Units=GPa)
#
#
# Indices 1 2 3 4 5 6 
#
# 1 96.7744 64.0099 40.7471 0.0000 0.0000 0.0000
# 2 64.0099 96.7712 40.7472 0.0000 0.0000 0.0000
# 3 40.7471 40.7472 99.7696 0.0000 0.0000 0.0000
# 4 0.0000 0.0000 0.0000 25.5268 0.0000 0.0000
# 5 0.0000 0.0000 0.0000 0.0000 25.5269 0.0000
# 6 0.0000 0.0000 0.0000 0.0000 0.0000 27.0098
#
#
#
# Elastic Compliance Matrix: (Units=1/GPa)
#
#
# Indices 1 2 3 4 5 6 
#
# 1 0.019182 -0.011340 -0.003203 0.000000 0.000000 0.000000
# 2 -0.011340 0.019183 -0.003203 0.000000 0.000000 0.000000
# 3 -0.003203 -0.003203 0.012640 0.000000 0.000000 0.000000
# 4 0.000000 0.000000 0.000000 0.039174 0.000000 0.000000
# 5 0.000000 0.000000 0.000000 0.000000 0.039174 0.000000
# 6 0.000000 0.000000 0.000000 0.000000 0.000000 0.037024
#
#
# Mechanical properties :
#
#
# Convention : Reuss Voigt Hill
#
# Bulk Modulus (GPa) = 64.46235 64.92486 64.69360
# Shear Modulus (GPa) = 24.14986 25.46678 24.80832
#
# Velocity S-wave (km/s) = 3.70710 3.80684 3.75730
# Velocity P-wave (km/s) = 7.41661 7.50123 7.45904
#
# Compressibility (1/GPa) = 0.01551293
#
# Stress axis : x y z
#
# Youngs Moduli (GPa) = 52.13126 52.12911 79.11649
#
# Poissons Ratio (x) = 0.59112 0.25342
# Poissons Ratio (y) = 0.59115 0.25344
# Poissons Ratio (z) = 0.16698 0.16699
#
# Static dielectric constant tensor:
#      x y z
#    x 3.181510 0.000000 0.000000 
#    y 0.000000 3.181510 0.000000 
#    z 0.000000 0.000000 3.332450 
# 
# 
# High freq. dielectric constant tensor:
#      x y z
#    x 1.678070 0.000000 0.000000 
#    y 0.000000 1.678070 0.000000 
#    z 0.000000 0.000000 1.692990 
# 
# From -- ./inp_files/456.got.cif
#   From: 2010.03.12/outbox.cif.g09.slc.cpg/sg113_cif.got.tgz:456.got - 2010.04.14 02:06:34.
