data_PCOD8308348
_publ_section_title
;
Structure prediction by ZEFSAII (Michael W. Deem and Ramdas Pophale) SiO2 
 PCOD8308348
Probable space group: P -4 2 C
;
_chemical_formula_sum "Si O2"
_cell_formula_units_Z 40
_cell_length_a 9.082506
_cell_length_b 9.082506
_cell_length_c 25.958908
_cell_angle_alpha 90.000000
_cell_angle_beta 90.000000
_cell_angle_gamma 90.000000
_cell_volume 2141.400038
_symmetry_space_group_name_H-M "P -4 2 C"
_symmetry_group_IT_number 112
_symmetry_cell_setting 'tetragonal'
loop_
_space_group_symop_operation_xyz
x,y,z
y,-x,-z
-x,-y,z
-y,x,-z
x,-y,1/2-z
-x,y,1/2-z
-y,-x,1/2+z
y,x,1/2+z
loop_
_atom_site_type_symbol
_atom_site_label
_atom_site_fract_x
_atom_site_fract_y
_atom_site_fract_z
Si Si1 0.330130 0.826410 0.656370
Si Si2 0.174972 0.163850 0.056140
Si Si3 0.173589 0.669870 0.343630
Si Si4 0.836149 0.825029 0.943860
Si Si5 0.671403 0.827457 0.250000
O O1 0.500000 0.783687 0.661483
O O2 0.272934 0.770326 0.600840
O O3 0.239770 0.743799 0.699614
O O4 0.305188 1.000000 0.663128
O O5 0.229674 0.272933 0.100840
O O6 0.000000 0.154977 0.055309
O O7 0.239506 1.000000 0.066495
O O8 0.225607 0.225606 0.000000
O O9 0.256200 0.760229 0.300386
O O10 0.500000 0.789164 0.250000
O O11 0.701865 0.000000 0.250000
#
# Coordination Sequence:
#
# PCOD8308348 Si02
#       5
#     8   8   8   8   8
#     4  10  20  34  54  80 107 136 171 210 255 307
#     4   8  14  27  49  75 102 134 172 212 251 291
#     4  10  20  34  54  80 107 136 171 210 255 307
#     4   8  14  27  49  75 102 134 172 212 251 291
#     4  11  24  39  54  74 100 133 174 217 262 310
#
# _framework density 18.679369000000001
#
# number of rings (size 3 to 8) (size 9 to 14) (size 15 to 20)
#    0.000    2.600    0.000    3.600    0.000    6.400 
#    0.000    2.000    0.000    7.200    0.000    0.000 
#    0.000    0.000    0.000    0.000    0.000    0.000 
#
# Total GULP energy -495901.692780 kJ/mol
# GULP energy per Si atom -12397.542320 kJ/mol
# Density = 1.863685 g / cm^3
# Si number density = 18.679369 Si / 1000 Ang^3
#
#
#
# Elastic Constant Matrix: (Units=GPa)
#
#
# Indices 1 2 3 4 5 6 
#
# 1 69.4867 43.7710 59.8103 0.0000 0.0000 0.0000
# 2 43.7710 69.4867 59.8103 0.0000 0.0000 0.0000
# 3 59.8103 59.8103 183.7414 0.0000 0.0000 0.0000
# 4 0.0000 0.0000 0.0000 -26.6840 0.0000 0.0000
# 5 0.0000 0.0000 0.0000 0.0000 -26.6840 0.0000
# 6 0.0000 0.0000 0.0000 0.0000 0.0000 19.5923
#
#
#
# Elastic Compliance Matrix: (Units=1/GPa)
#
#
# Indices 1 2 3 4 5 6 
#
# 1 0.026171 -0.012716 -0.004380 0.000000 0.000000 0.000000
# 2 -0.012716 0.026171 -0.004380 0.000000 0.000000 0.000000
# 3 -0.004380 -0.004380 0.008294 0.000000 0.000000 0.000000
# 4 0.000000 0.000000 0.000000 -0.037476 0.000000 0.000000
# 5 0.000000 0.000000 0.000000 0.000000 -0.037476 0.000000
# 6 0.000000 0.000000 0.000000 0.000000 0.000000 0.051041
#
#
# Mechanical properties :
#
#
# Convention : Reuss Voigt Hill
#
# Bulk Modulus (GPa) = 56.54502 72.16646 64.35574
# Shear Modulus (GPa) = 58.43081 3.86639 31.14860
#
# Velocity S-wave (km/s) = 5.59900 1.44027 4.08798
# Velocity P-wave (km/s) = 8.49327 6.44081 7.53723
#
# Compressibility (1/GPa) = 0.01768502
#
# Stress axis : x y z
#
# Youngs Moduli (GPa) = 38.21017 38.21017 120.57090
#
# Poissons Ratio (x) = 0.48587 0.52809
# Poissons Ratio (y) = 0.48587 0.52809
# Poissons Ratio (z) = 0.16736 0.16736
#
# Static dielectric constant tensor:
#      x y z
#    x 3.287790 0.000000 0.000000 
#    y 0.000000 3.287790 0.000000 
#    z 0.000000 0.000000 4.695400 
# 
# 
# High freq. dielectric constant tensor:
#      x y z
#    x 1.702010 0.000000 0.000000 
#    y 0.000000 1.702010 0.000000 
#    z 0.000000 0.000000 1.748610 
# 
# From -- ./inp_files/5312.got.cif
#   From: 2010.03.12/outbox.cif.g09.slc.cpg/sg112_3_cif.got.tgz:5312.got - 2010.04.14 02:02:48.
