data_PCOD8308048
_publ_section_title
;
Structure prediction by ZEFSAII (Michael W. Deem and Ramdas Pophale) SiO2 
 PCOD8308048
Probable space group: I 41 C D
;
_chemical_formula_sum "Si O2"
_cell_formula_units_Z 112
_cell_length_a 31.044094
_cell_length_b 31.044094
_cell_length_c 5.138767
_cell_angle_alpha 90.000000
_cell_angle_beta 90.000000
_cell_angle_gamma 90.000000
_cell_volume 4952.413583
_symmetry_space_group_name_H-M "I 41 C D"
_symmetry_group_IT_number 110
_symmetry_cell_setting 'tetragonal'
loop_
_space_group_symop_operation_xyz
x,y,z
-y,1/2+x,1/4+z
-x,-y,z
y,1/2-x,1/4+z
-x,y,1/2+z
x,-y,1/2+z
1/2-y,-x,1/4+z
1/2+y,x,1/4+z
1/2+x,1/2+y,1/2+z
1/2-y,x,3/4+z
1/2-x,1/2-y,1/2+z
1/2+y,-x,3/4+z
1/2-x,1/2+y,z
1/2+x,1/2-y,z
-y,1/2-x,3/4+z
y,1/2+x,3/4+z
loop_
_atom_site_type_symbol
_atom_site_label
_atom_site_fract_x
_atom_site_fract_y
_atom_site_fract_z
Si Si1 0.340266 0.335560 0.064460
Si Si2 0.111221 0.730002 0.538658
Si Si3 0.419741 0.473232 0.445876
Si Si4 0.472835 0.819950 0.203905
Si Si5 0.887765 0.472298 0.742897
Si Si6 0.606113 0.328576 0.037400
Si Si7 0.186556 0.751610 0.896395
O O1 0.297883 0.366822 0.051746
O O2 0.369453 0.352425 0.300910
O O3 0.366972 0.336960 0.798386
O O4 0.326330 0.285457 0.126326
O O5 0.068677 0.708223 0.648748
O O6 0.100074 0.778633 0.458000
O O7 0.145162 0.730202 0.771377
O O8 0.430930 0.490052 0.157759
O O9 0.369913 0.459617 0.450953
O O10 0.447705 0.432511 0.524703
O O11 0.491180 0.808644 0.488187
O O12 0.884453 0.489043 0.448473
O O13 0.848367 0.441011 0.811237
O O14 0.211718 0.783423 0.704192
#
# Coordination Sequence:
#
# PCOD8308048 Si02
#       7
#    16  16  16  16  16  16  16
#     4  11  23  42  66  93 126 175 230 279 322 375
#     4  11  23  41  68  94 127 181 229 266 326 397
#     4  10  22  42  67  96 126 159 208 266 319 379
#     4  10  24  42  65  95 127 164 215 280 328 372
#     4  12  26  44  68  99 136 172 204 258 337 412
#     4  11  26  43  64  96 135 174 221 275 327 389
#     4  11  22  38  62  99 141 178 223 283 333 382
#
# _framework density 22.615237
#
# number of rings (size 3 to 8) (size 9 to 14) (size 15 to 20)
#    0.000    1.143    0.000    6.000    0.000   12.000 
#    0.000    0.000    0.000    0.000    0.000    0.000 
#    0.000    0.000    0.000    0.000    0.000    0.000 
#
# Total GULP energy -694403.551376 kJ/mol
# GULP energy per Si atom -12400.063417 kJ/mol
# Density = 2.256376 g / cm^3
# Si number density = 22.615237 Si / 1000 Ang^3
#
#
#
# Elastic Constant Matrix: (Units=GPa)
#
#
# Indices 1 2 3 4 5 6 
#
# 1 108.5001 68.9476 28.7014 0.0000 0.0000 0.0000
# 2 68.9476 108.5001 28.7014 0.0000 0.0000 0.0000
# 3 28.7014 28.7014 102.1813 0.0000 0.0000 0.0000
# 4 0.0000 0.0000 0.0000 8.1059 0.0000 0.0000
# 5 0.0000 0.0000 0.0000 0.0000 8.1059 0.0000
# 6 0.0000 0.0000 0.0000 0.0000 0.0000 38.9283
#
#
#
# Elastic Compliance Matrix: (Units=1/GPa)
#
#
# Indices 1 2 3 4 5 6 
#
# 1 0.015741 -0.009542 -0.001741 0.000000 0.000000 0.000000
# 2 -0.009542 0.015741 -0.001741 0.000000 0.000000 0.000000
# 3 -0.001741 -0.001741 0.010765 0.000000 0.000000 0.000000
# 4 0.000000 0.000000 0.000000 0.123367 0.000000 0.000000
# 5 0.000000 0.000000 0.000000 0.000000 0.123367 0.000000
# 6 0.000000 0.000000 0.000000 0.000000 0.000000 0.025688
#
#
# Mechanical properties :
#
#
# Convention : Reuss Voigt Hill
#
# Bulk Modulus (GPa) = 61.73784 63.54247 62.64015
# Shear Modulus (GPa) = 14.44600 23.88341 19.16470
#
# Velocity S-wave (km/s) = 2.53014 3.25326 2.91421
# Velocity P-wave (km/s) = 5.99116 6.50152 6.25155
#
# Compressibility (1/GPa) = 0.01619752
#
# Stress axis : x y z
#
# Youngs Moduli (GPa) = 63.52921 63.52921 92.89661
#
# Poissons Ratio (x) = 0.60620 0.16175
# Poissons Ratio (y) = 0.60620 0.16175
# Poissons Ratio (z) = 0.11061 0.11061
#
# Static dielectric constant tensor:
#      x y z
#    x 4.249680 0.000000 0.000000 
#    y 0.000000 4.249680 0.000000 
#    z 0.000000 0.000000 4.053760 
# 
# 
# High freq. dielectric constant tensor:
#      x y z
#    x 1.897230 0.000000 0.000000 
#    y 0.000000 1.897230 0.000000 
#    z 0.000000 0.000000 1.895910 
# 
# From -- ./inp_files/151.got.cif
#   From: 2010.03.12/outbox.cif.g09.slc.cpg/sg110_1_cif.got.tgz:151.got - 2010.04.14 01:58:01.
