data_PCOD8308650
_publ_section_title
;
Structure prediction by ZEFSAII (Michael W. Deem and Ramdas Pophale) SiO2 
 PCOD8308650
Probable space group: P -4 21 M 
;
_chemical_formula_sum "Si O2"
_cell_formula_units_Z 56
_cell_length_a 11.446749
_cell_length_b 11.446749
_cell_length_c 20.845026
_cell_angle_alpha 90.000000
_cell_angle_beta 90.000000
_cell_angle_gamma 90.000000
_cell_volume 2731.283373
_symmetry_space_group_name_H-M "P -4 21 M "
_symmetry_group_IT_number 113
_symmetry_cell_setting 'tetragonal'
loop_
_space_group_symop_operation_xyz
x,y,z
y,-x,-z
-x,-y,z
-y,x,-z
1/2+x,1/2-y,-z
1/2-x,1/2+y,-z
1/2-y,1/2-x,z
1/2+y,1/2+x,z
loop_
_atom_site_type_symbol
_atom_site_label
_atom_site_fract_x
_atom_site_fract_y
_atom_site_fract_z
Si Si1 0.503713 0.189481 0.635430
Si Si2 0.145524 0.158013 0.707976
Si Si3 0.008324 0.176618 0.975276
Si Si4 0.343329 0.353293 0.852343
Si Si5 0.182396 0.493707 0.089326
Si Si6 0.311925 0.005943 0.373923
Si Si7 0.689092 0.508286 0.495837
O O1 0.394757 0.105244 0.621996
O O2 0.462674 0.294725 0.682741
O O3 0.544716 0.244207 0.568451
O O4 0.613582 0.113582 0.663550
O O5 0.242370 0.257631 0.705582
O O6 0.099429 0.141210 0.780388
O O7 0.031054 0.196607 0.666829
O O8 0.040989 0.189598 0.900391
O O9 0.998253 0.300091 0.011880
O O10 0.887503 0.108275 0.982379
O O11 0.242341 0.257660 0.857668
O O12 0.468966 0.300173 0.873450
O O13 0.136275 0.363726 0.108351
O O14 0.083425 0.583425 0.110089
O O15 0.369539 0.130462 0.352026
O O16 0.281322 0.016342 0.448505
O O17 0.406811 0.906811 0.363669
O O18 0.614857 0.392217 0.481694
#
# Coordination Sequence:
#
# PCOD8308650 Si02
#       7
#     8   8   8   8   8   8   8
#     4  10  20  34  55  82 109 143 185 230 282 333
#     4   9  18  34  53  78 112 144 180 227 269 328
#     4   9  17  30  50  73 101 137 173 211 260 314
#     4   9  17  30  52  78 104 140 176 212 266 319
#     4   9  17  29  48  76 105 132 171 222 267 309
#     4  10  20  35  57  81 106 143 185 227 279 332
#     4  11  22  35  55  80 109 144 186 232 284 331
#
# _framework density 20.50318
#
# number of rings (size 3 to 8) (size 9 to 14) (size 15 to 20)
#    0.000    2.429    1.429    1.286    0.000    4.000 
#    0.000    3.571   12.571    2.571    0.000    0.000 
#    0.000    0.000    0.000    0.000    0.000    0.000 
#
# Total GULP energy -693950.500997 kJ/mol
# GULP energy per Si atom -12391.973232 kJ/mol
# Density = 2.045651 g / cm^3
# Si number density = 20.503180 Si / 1000 Ang^3
#
#
#
# Elastic Constant Matrix: (Units=GPa)
#
#
# Indices 1 2 3 4 5 6 
#
# 1 50.1478 16.4804 22.9314 0.0000 0.0000 0.0000
# 2 16.4804 50.1467 22.9314 0.0000 0.0000 0.0000
# 3 22.9314 22.9314 135.7459 0.0000 0.0000 0.0000
# 4 0.0000 0.0000 0.0000 26.1428 0.0000 0.0000
# 5 0.0000 0.0000 0.0000 0.0000 26.1427 0.0000
# 6 0.0000 0.0000 0.0000 0.0000 0.0000 27.5160
#
#
#
# Elastic Compliance Matrix: (Units=1/GPa)
#
#
# Indices 1 2 3 4 5 6 
#
# 1 0.023343 -0.006360 -0.002869 0.000000 0.000000 0.000000
# 2 -0.006360 0.023344 -0.002869 0.000000 0.000000 0.000000
# 3 -0.002869 -0.002869 0.008336 0.000000 0.000000 0.000000
# 4 0.000000 0.000000 0.000000 0.038251 0.000000 0.000000
# 5 0.000000 0.000000 0.000000 0.000000 0.038252 0.000000
# 6 0.000000 0.000000 0.000000 0.000000 0.000000 0.036343
#
#
# Mechanical properties :
#
#
# Convention : Reuss Voigt Hill
#
# Bulk Modulus (GPa) = 32.43883 40.08075 36.25979
# Shear Modulus (GPa) = 24.71101 27.54012 26.12556
#
# Velocity S-wave (km/s) = 3.47541 3.66896 3.57349
# Velocity P-wave (km/s) = 5.65334 6.12694 5.89490
#
# Compressibility (1/GPa) = 0.03082725
#
# Stress axis : x y z
#
# Youngs Moduli (GPa) = 42.83950 42.83844 119.96114
#
# Poissons Ratio (x) = 0.27243 0.34417
# Poissons Ratio (y) = 0.27244 0.34418
# Poissons Ratio (z) = 0.12291 0.12291
#
# Static dielectric constant tensor:
#      x y z
#    x 3.762800 0.000000 0.000000 
#    y 0.000000 3.762800 0.000000 
#    z 0.000000 0.000000 3.647730 
# 
# 
# High freq. dielectric constant tensor:
#      x y z
#    x 1.789470 0.000000 0.000000 
#    y 0.000000 1.789470 0.000000 
#    z 0.000000 0.000000 1.785000 
# 
# From -- ./inp_files/2661.got.cif
#   From: 2010.03.12/outbox.cif.g09.slc.cpg/sg113_cif.got.tgz:2661.got - 2010.04.14 02:06:34.
