data_PCOD8308916
_publ_section_title
;
Structure prediction by ZEFSAII (Michael W. Deem and Ramdas Pophale) SiO2 
 PCOD8308916
Probable space group: P -4 21 C
;
_chemical_formula_sum "Si O2"
_cell_formula_units_Z 48
_cell_length_a 11.133389
_cell_length_b 11.133389
_cell_length_c 17.858540
_cell_angle_alpha 90.000000
_cell_angle_beta 90.000000
_cell_angle_gamma 90.000000
_cell_volume 2213.608012
_symmetry_space_group_name_H-M "P -4 21 C"
_symmetry_group_IT_number 114
_symmetry_cell_setting 'tetragonal'
loop_
_space_group_symop_operation_xyz
x,y,z
y,-x,-z
-x,-y,z
-y,x,-z
1/2+x,1/2-y,1/2-z
1/2-x,1/2+y,1/2-z
1/2-y,1/2-x,1/2+z
1/2+y,1/2+x,1/2+z
loop_
_atom_site_type_symbol
_atom_site_label
_atom_site_fract_x
_atom_site_fract_y
_atom_site_fract_z
Si Si1 0.776970 0.812343 0.045254
Si Si2 0.430880 0.886464 0.389010
Si Si3 0.343670 0.247577 0.378167
Si Si4 0.289165 0.519960 0.166283
Si Si5 0.359989 0.503028 0.331395
Si Si6 0.086060 0.870858 0.454244
O O1 0.866603 0.697875 0.049819
O O2 0.642193 0.760626 0.054181
O O3 0.796382 0.910950 0.108867
O O4 0.787638 0.870896 0.963767
O O5 0.530828 0.806562 0.345452
O O6 0.500000 0.000000 0.428190
O O7 0.331359 0.937411 0.331460
O O8 0.239153 0.148184 0.372774
O O9 0.307531 0.367640 0.333910
O O10 0.334112 0.552028 0.248912
O O11 0.392421 0.448730 0.121264
O O12 0.500000 0.500000 0.350490
O O13 0.945351 0.856245 0.474564
#
# Coordination Sequence:
#
# PCOD8308916 Si02
#       6
#     8   8   8   8   8   8
#     4  11  22  41  66  99 132 174 231 279 340 419
#     4   9  20  41  66  88 131 181 219 275 351 406
#     4  11  22  42  68  94 132 181 229 283 349 425
#     4  10  24  42  65  96 134 176 230 290 358 411
#     4  12  27  39  67  98 136 182 228 296 352 425
#     4  10  21  41  70  99 129 176 226 284 341 410
#
# _framework density 21.684055000000001
#
# number of rings (size 3 to 8) (size 9 to 14) (size 15 to 20)
#    0.000    1.500    3.333    1.000    7.000    0.000 
#    0.000    0.000    3.667    0.000    0.000    0.000 
#    0.000    0.000    0.000    0.000    0.000    0.000 
#
# Total GULP energy -594852.776801 kJ/mol
# GULP energy per Si atom -12392.766183 kJ/mol
# Density = 2.163470 g / cm^3
# Si number density = 21.684055 Si / 1000 Ang^3
#
#
#
# Elastic Constant Matrix: (Units=GPa)
#
#
# Indices 1 2 3 4 5 6 
#
# 1 97.1055 33.6651 28.9890 0.0000 0.0000 0.0000
# 2 33.6651 97.1055 28.9890 0.0000 0.0000 0.0000
# 3 28.9890 28.9890 118.0606 0.0000 0.0000 0.0000
# 4 0.0000 0.0000 0.0000 27.9606 0.0000 0.0000
# 5 0.0000 0.0000 0.0000 0.0000 27.9606 0.0000
# 6 0.0000 0.0000 0.0000 0.0000 0.0000 35.7967
#
#
#
# Elastic Compliance Matrix: (Units=1/GPa)
#
#
# Indices 1 2 3 4 5 6 
#
# 1 0.012172 -0.003591 -0.002107 0.000000 0.000000 0.000000
# 2 -0.003591 0.012172 -0.002107 0.000000 0.000000 0.000000
# 3 -0.002107 -0.002107 0.009505 0.000000 0.000000 0.000000
# 4 0.000000 0.000000 0.000000 0.035765 0.000000 0.000000
# 5 0.000000 0.000000 0.000000 0.000000 0.035765 0.000000
# 6 0.000000 0.000000 0.000000 0.000000 0.000000 0.027936
#
#
# Mechanical properties :
#
#
# Convention : Reuss Voigt Hill
#
# Bulk Modulus (GPa) = 54.82729 55.06197 54.94463
# Shear Modulus (GPa) = 32.25737 33.05214 32.65475
#
# Velocity S-wave (km/s) = 3.86114 3.90841 3.88485
# Velocity P-wave (km/s) = 6.72438 6.76872 6.74659
#
# Compressibility (1/GPa) = 0.01823909
#
# Stress axis : x y z
#
# Youngs Moduli (GPa) = 82.15583 82.15583 105.20813
#
# Poissons Ratio (x) = 0.29501 0.22168
# Poissons Ratio (y) = 0.29501 0.22168
# Poissons Ratio (z) = 0.17311 0.17311
#
# Static dielectric constant tensor:
#      x y z
#    x 4.101240 0.000000 0.000000 
#    y 0.000000 4.101240 0.000000 
#    z 0.000000 0.000000 3.565650 
# 
# 
# High freq. dielectric constant tensor:
#      x y z
#    x 1.859220 0.000000 0.000000 
#    y 0.000000 1.859220 0.000000 
#    z 0.000000 0.000000 1.816220 
# 
# From -- ./inp_files/2646.got.cif
#   From: 2010.03.12/outbox.cif.g09.slc.cpg/sg114_2_cif.got.tgz:2646.got - 2010.04.14 02:08:34.
