data_PCOD8308626
_publ_section_title
;
Structure prediction by ZEFSAII (Michael W. Deem and Ramdas Pophale) SiO2 
 PCOD8308626
Probable space group: P -4 21 M 
;
_chemical_formula_sum "Si O2"
_cell_formula_units_Z 56
_cell_length_a 12.312998
_cell_length_b 12.312998
_cell_length_c 20.527689
_cell_angle_alpha 90.000000
_cell_angle_beta 90.000000
_cell_angle_gamma 90.000000
_cell_volume 3112.201282
_symmetry_space_group_name_H-M "P -4 21 M "
_symmetry_group_IT_number 113
_symmetry_cell_setting 'tetragonal'
loop_
_space_group_symop_operation_xyz
x,y,z
y,-x,-z
-x,-y,z
-y,x,-z
1/2+x,1/2-y,-z
1/2-x,1/2+y,-z
1/2-y,1/2-x,z
1/2+y,1/2+x,z
loop_
_atom_site_type_symbol
_atom_site_label
_atom_site_fract_x
_atom_site_fract_y
_atom_site_fract_z
Si Si1 0.390953 0.289701 0.585552
Si Si2 0.071896 0.107074 0.708195
Si Si3 0.033190 0.162774 0.978454
Si Si4 0.425125 0.393914 0.851517
Si Si5 0.177700 0.497594 0.085350
Si Si6 0.325364 0.002676 0.348982
Si Si7 0.763629 0.560075 0.515757
O O1 0.308113 0.191888 0.588025
O O2 0.410614 0.328337 0.659127
O O3 0.501505 0.251747 0.552784
O O4 0.348099 0.388573 0.541475
O O5 0.119840 0.127191 0.780288
O O6 0.000229 0.212218 0.689421
O O7 0.000000 0.000000 0.705697
O O8 0.085277 0.168597 0.905973
O O9 0.026671 0.281352 0.011456
O O10 0.913266 0.109432 0.975913
O O11 0.500000 0.500000 0.852461
O O12 0.489978 0.282833 0.867991
O O13 0.103370 0.396631 0.109156
O O14 0.108076 0.608076 0.085564
O O15 0.395822 0.104179 0.323275
O O16 0.388793 0.888793 0.337635
O O17 0.307333 0.018174 0.426623
O O18 0.847151 0.652850 0.498363
#
# Coordination Sequence:
#
# PCOD8308626 Si02
#       7
#     8   8   8   8   8   8   8
#     4  10  21  35  52  78 110 138 178 230 272 330
#     4  10  22  36  55  81 111 148 186 225 269 325
#     4   9  15  32  58  80 104 137 179 224 262 317
#     4  10  19  39  58  78 111 152 194 219 259 329
#     4  10  21  35  55  87 118 143 178 226 278 325
#     4   9  18  36  59  79 105 141 184 235 285 331
#     4   9  19  33  54  80 104 139 181 228 285 332
#
# _framework density 17.993694000000001
#
# number of rings (size 3 to 8) (size 9 to 14) (size 15 to 20)
#    0.000    2.429    2.857    1.714    4.000    4.286 
#    0.000    4.286    0.000    1.714    0.000    0.000 
#    0.000    0.000    0.000    0.000    0.000    0.000 
#
# Total GULP energy -694091.142749 kJ/mol
# GULP energy per Si atom -12394.484692 kJ/mol
# Density = 1.795274 g / cm^3
# Si number density = 17.993694 Si / 1000 Ang^3
#
#
#
# Elastic Constant Matrix: (Units=GPa)
#
#
# Indices 1 2 3 4 5 6 
#
# 1 94.9557 33.5547 43.8373 0.0000 0.0000 0.0000
# 2 33.5547 94.9545 43.8348 0.0000 0.0000 0.0000
# 3 43.8373 43.8348 142.9928 0.0000 0.0000 0.0000
# 4 0.0000 0.0000 0.0000 18.2118 0.0000 0.0000
# 5 0.0000 0.0000 0.0000 0.0000 18.2126 0.0000
# 6 0.0000 0.0000 0.0000 0.0000 0.0000 11.3730
#
#
#
# Elastic Compliance Matrix: (Units=1/GPa)
#
#
# Indices 1 2 3 4 5 6 
#
# 1 0.013063 -0.003224 -0.003017 0.000000 0.000000 0.000000
# 2 -0.003224 0.013063 -0.003016 0.000000 0.000000 0.000000
# 3 -0.003017 -0.003016 0.008843 0.000000 0.000000 0.000000
# 4 0.000000 0.000000 0.000000 0.054910 0.000000 0.000000
# 5 0.000000 0.000000 0.000000 0.000000 0.054907 0.000000
# 6 0.000000 0.000000 0.000000 0.000000 0.000000 0.087927
#
#
# Mechanical properties :
#
#
# Convention : Reuss Voigt Hill
#
# Bulk Modulus (GPa) = 60.76813 63.92848 62.34830
# Shear Modulus (GPa) = 19.47718 23.67122 21.57420
#
# Velocity S-wave (km/s) = 3.29362 3.63096 3.46640
# Velocity P-wave (km/s) = 6.95048 7.29273 7.12366
#
# Compressibility (1/GPa) = 0.01645600
#
# Stress axis : x y z
#
# Youngs Moduli (GPa) = 76.55229 76.55263 113.08693
#
# Poissons Ratio (x) = 0.24678 0.34113
# Poissons Ratio (y) = 0.24677 0.34109
# Poissons Ratio (z) = 0.23092 0.23090
#
# Static dielectric constant tensor:
#      x y z
#    x 3.245230 0.000000 0.000000 
#    y 0.000000 3.245230 0.000000 
#    z 0.000000 0.000000 3.564460 
# 
# 
# High freq. dielectric constant tensor:
#      x y z
#    x 1.689430 0.000000 0.000000 
#    y 0.000000 1.689430 0.000000 
#    z 0.000000 0.000000 1.686070 
# 
# From -- ./inp_files/2662.got.cif
#   From: 2010.03.12/outbox.cif.g09.slc.cpg/sg113_cif.got.tgz:2662.got - 2010.04.14 02:06:34.
