data_PCOD8308617
_publ_section_title
;
Structure prediction by ZEFSAII (Michael W. Deem and Ramdas Pophale) SiO2 
 PCOD8308617
Probable space group: P -4 21 M 
;
_chemical_formula_sum "Si O2"
_cell_formula_units_Z 56
_cell_length_a 12.143121
_cell_length_b 12.143121
_cell_length_c 20.161029
_cell_angle_alpha 90.000000
_cell_angle_beta 90.000000
_cell_angle_gamma 90.000000
_cell_volume 2972.852346
_symmetry_space_group_name_H-M "P -4 21 M "
_symmetry_group_IT_number 113
_symmetry_cell_setting 'tetragonal'
loop_
_space_group_symop_operation_xyz
x,y,z
y,-x,-z
-x,-y,z
-y,x,-z
1/2+x,1/2-y,-z
1/2-x,1/2+y,-z
1/2-y,1/2-x,z
1/2+y,1/2+x,z
loop_
_atom_site_type_symbol
_atom_site_label
_atom_site_fract_x
_atom_site_fract_y
_atom_site_fract_z
Si Si1 0.374248 0.474520 0.342338
Si Si2 0.841311 0.161332 0.785755
Si Si3 0.372627 0.476286 0.089752
Si Si4 0.627362 0.302765 0.046071
Si Si5 0.497759 0.822734 0.155413
Si Si6 0.789395 0.889697 0.438445
Si Si7 0.820759 0.141930 0.418347
O O1 0.500000 0.500000 0.358637
O O2 0.355472 0.436346 0.267125
O O3 0.330429 0.377709 0.390254
O O4 0.320134 0.592528 0.360737
O O5 0.736752 0.236752 0.767653
O O6 0.818056 0.101563 0.855378
O O7 0.952476 0.237295 0.790152
O O8 0.500000 0.500000 0.105427
O O9 0.317753 0.598349 0.089377
O O10 0.357938 0.422701 0.018464
O O11 0.719397 0.219397 0.022857
O O12 0.532923 0.242562 0.088859
O O13 0.390738 0.890738 0.183297
O O14 0.593020 0.906981 0.134190
O O15 0.672164 0.827837 0.430396
O O16 0.833717 0.881827 0.512775
O O17 0.778339 0.016202 0.415951
O O18 0.712097 0.212097 0.408158
#
# Coordination Sequence:
#
# PCOD8308617 Si02
#       7
#     8   8   8   8   8   8   8
#     4  10  21  36  60  86 117 155 194 240 287 349
#     4  11  22  37  59  84 114 155 196 233 288 351
#     4  12  20  36  55  82 112 144 193 242 280 343
#     4  11  21  34  56  82 112 148 184 239 298 340
#     4   9  19  35  56  85 118 148 187 240 295 344
#     4  10  19  35  60  88 120 154 197 243 290 345
#     4  10  20  36  60  89 121 154 194 245 294 345
#
# _framework density 18.837128
#
# number of rings (size 3 to 8) (size 9 to 14) (size 15 to 20)
#    0.000    1.571    4.286    1.286    0.000    2.000 
#    0.000    3.571    0.000    7.286    0.000    0.000 
#    0.000    0.000    0.000    0.000    0.000    0.000 
#
# Total GULP energy -694007.489067 kJ/mol
# GULP energy per Si atom -12392.990876 kJ/mol
# Density = 1.879425 g / cm^3
# Si number density = 18.837128 Si / 1000 Ang^3
#
#
#
# Elastic Constant Matrix: (Units=GPa)
#
#
# Indices 1 2 3 4 5 6 
#
# 1 95.2800 43.3970 39.4121 0.0000 0.0000 0.0000
# 2 43.3970 95.2794 39.4123 0.0000 0.0000 0.0000
# 3 39.4121 39.4123 71.6516 0.0000 0.0000 0.0000
# 4 0.0000 0.0000 0.0000 26.1682 0.0000 0.0000
# 5 0.0000 0.0000 0.0000 0.0000 26.1685 0.0000
# 6 0.0000 0.0000 0.0000 0.0000 0.0000 16.1520
#
#
#
# Elastic Compliance Matrix: (Units=1/GPa)
#
#
# Indices 1 2 3 4 5 6 
#
# 1 0.014883 -0.004392 -0.005771 0.000000 0.000000 0.000000
# 2 -0.004392 0.014883 -0.005771 0.000000 0.000000 0.000000
# 3 -0.005771 -0.005771 0.020305 0.000000 0.000000 0.000000
# 4 0.000000 0.000000 0.000000 0.038214 0.000000 0.000000
# 5 0.000000 0.000000 0.000000 0.000000 0.038214 0.000000
# 6 0.000000 0.000000 0.000000 0.000000 0.000000 0.061912
#
#
# Mechanical properties :
#
#
# Convention : Reuss Voigt Hill
#
# Bulk Modulus (GPa) = 54.93206 56.29485 55.61346
# Shear Modulus (GPa) = 22.09026 23.03037 22.56032
#
# Velocity S-wave (km/s) = 3.42818 3.50037 3.46446
# Velocity P-wave (km/s) = 6.70036 6.80343 6.75209
#
# Compressibility (1/GPa) = 0.01820431
#
# Stress axis : x y z
#
# Youngs Moduli (GPa) = 67.19264 67.19193 49.24955
#
# Poissons Ratio (x) = 0.29508 0.28420
# Poissons Ratio (y) = 0.29508 0.28421
# Poissons Ratio (z) = 0.38774 0.38775
#
# Static dielectric constant tensor:
#      x y z
#    x 3.610010 0.000000 0.000000 
#    y 0.000000 3.610010 0.000000 
#    z 0.000000 0.000000 3.293480 
# 
# 
# High freq. dielectric constant tensor:
#      x y z
#    x 1.729140 0.000000 0.000000 
#    y 0.000000 1.729140 0.000000 
#    z 0.000000 0.000000 1.719750 
# 
# From -- ./inp_files/2695.got.cif
#   From: 2010.03.12/outbox.cif.g09.slc.cpg/sg113_cif.got.tgz:2695.got - 2010.04.14 02:06:34.
