data_PCOD8308325
_publ_section_title
;
Structure prediction by ZEFSAII (Michael W. Deem and Ramdas Pophale) SiO2 
 PCOD8308325
Probable space group: P -4 2 C
;
_chemical_formula_sum "Si O2"
_cell_formula_units_Z 56
_cell_length_a 12.158672
_cell_length_b 12.158672
_cell_length_c 20.209458
_cell_angle_alpha 90.000000
_cell_angle_beta 90.000000
_cell_angle_gamma 90.000000
_cell_volume 2987.630964
_symmetry_space_group_name_H-M "P -4 2 C"
_symmetry_group_IT_number 112
_symmetry_cell_setting 'tetragonal'
loop_
_space_group_symop_operation_xyz
x,y,z
y,-x,-z
-x,-y,z
-y,x,-z
x,-y,1/2-z
-x,y,1/2-z
-y,-x,1/2+z
y,x,1/2+z
loop_
_atom_site_type_symbol
_atom_site_label
_atom_site_fract_x
_atom_site_fract_y
_atom_site_fract_z
Si Si1 0.869553 0.499192 0.917541
Si Si2 0.130605 0.269823 0.375424
Si Si3 0.108839 0.131586 0.995851
Si Si4 0.130441 0.499566 0.067162
Si Si5 0.130702 0.309094 0.820244
Si Si6 0.727385 0.120138 0.878566
Si Si7 0.878733 0.698578 0.672499
O O1 0.826880 0.600174 0.872616
O O2 0.833034 0.385545 0.882689
O O3 0.000000 0.500000 0.917951
O O4 0.820547 0.505836 0.992099
O O5 0.150509 0.192684 0.437859
O O6 0.171240 0.391579 0.395138
O O7 0.207350 0.216676 0.319437
O O8 0.004507 0.270790 0.350559
O O9 0.121572 0.229334 0.046864
O O10 0.984347 0.132851 0.967411
O O11 0.166146 0.396981 0.113507
O O12 0.000000 0.500000 0.059385
O O13 0.132902 0.355491 0.745354
O O14 0.006868 0.270304 0.839206
O O15 0.802610 0.193196 0.831000
#
# Coordination Sequence:
#
# PCOD8308325 Si02
#       7
#     8   8   8   8   8   8   8
#     4   9  17  32  53  76 100 126 163 209 253 299
#     4  10  19  31  47  71 102 133 168 207 248 296
#     4   9  16  26  44  70  98 127 158 200 256 307
#     4   9  18  31  49  72  99 133 169 207 251 295
#     4  10  20  33  51  75 103 135 167 201 244 295
#     4  10  19  31  47  71 102 133 168 207 248 296
#     4  10  20  33  51  75 103 135 167 201 244 295
#
# _framework density 18.743948
#
# number of rings (size 3 to 8) (size 9 to 14) (size 15 to 20)
#    0.000    2.429    0.000    3.000    0.000    8.571 
#    0.000    2.143    0.000    3.429    0.000    4.000 
#    0.000    0.000    0.000    0.000    0.000    0.000 
#
# Total GULP energy -694119.293014 kJ/mol
# GULP energy per Si atom -12394.987375 kJ/mol
# Density = 1.870129 g / cm^3
# Si number density = 18.743948 Si / 1000 Ang^3
#
#
#
# Elastic Constant Matrix: (Units=GPa)
#
#
# Indices 1 2 3 4 5 6 
#
# 1 81.2756 24.8645 18.9999 0.0000 0.0000 0.0000
# 2 24.8645 81.2756 18.9999 0.0000 0.0000 0.0000
# 3 18.9999 18.9999 49.3857 0.0000 0.0000 0.0000
# 4 0.0000 0.0000 0.0000 24.2654 0.0000 0.0000
# 5 0.0000 0.0000 0.0000 0.0000 24.2654 0.0000
# 6 0.0000 0.0000 0.0000 0.0000 0.0000 10.8972
#
#
#
# Elastic Compliance Matrix: (Units=1/GPa)
#
#
# Indices 1 2 3 4 5 6 
#
# 1 0.014327 -0.003400 -0.004204 0.000000 0.000000 0.000000
# 2 -0.003400 0.014327 -0.004204 0.000000 0.000000 0.000000
# 3 -0.004204 -0.004204 0.023483 0.000000 0.000000 0.000000
# 4 0.000000 0.000000 0.000000 0.041211 0.000000 0.000000
# 5 0.000000 0.000000 0.000000 0.000000 0.041211 0.000000
# 6 0.000000 0.000000 0.000000 0.000000 0.000000 0.091767
#
#
# Mechanical properties :
#
#
# Convention : Reuss Voigt Hill
#
# Bulk Modulus (GPa) = 35.06122 37.51837 36.28979
# Shear Modulus (GPa) = 19.27172 21.82380 20.54776
#
# Velocity S-wave (km/s) = 3.20997 3.41590 3.31453
# Velocity P-wave (km/s) = 5.69952 5.96805 5.83533
#
# Compressibility (1/GPa) = 0.02852154
#
# Stress axis : x y z
#
# Youngs Moduli (GPa) = 69.79951 69.79951 42.58346
#
# Poissons Ratio (x) = 0.23734 0.17901
# Poissons Ratio (y) = 0.23734 0.17901
# Poissons Ratio (z) = 0.29342 0.29342
#
# Static dielectric constant tensor:
#      x y z
#    x 3.463570 0.000000 0.000000 
#    y 0.000000 3.463570 0.000000 
#    z 0.000000 0.000000 3.272240 
# 
# 
# High freq. dielectric constant tensor:
#      x y z
#    x 1.706950 0.000000 0.000000 
#    y 0.000000 1.706950 0.000000 
#    z 0.000000 0.000000 1.717830 
# 
# From -- ./inp_files/4934.got.cif
#   From: 2010.03.12/outbox.cif.g09.slc.cpg/sg112_3_cif.got.tgz:4934.got - 2010.04.14 02:02:48.
