data_PCOD8308389
_publ_section_title
;
Structure prediction by ZEFSAII (Michael W. Deem and Ramdas Pophale) SiO2 
 PCOD8308389
Probable space group: P -4 2 C
;
_chemical_formula_sum "Si O2"
_cell_formula_units_Z 36
_cell_length_a 11.659720
_cell_length_b 11.659720
_cell_length_c 13.594576
_cell_angle_alpha 90.000000
_cell_angle_beta 90.000000
_cell_angle_gamma 90.000000
_cell_volume 1848.169971
_symmetry_space_group_name_H-M "P -4 2 C"
_symmetry_group_IT_number 112
_symmetry_cell_setting 'tetragonal'
loop_
_space_group_symop_operation_xyz
x,y,z
y,-x,-z
-x,-y,z
-y,x,-z
x,-y,1/2-z
-x,y,1/2-z
-y,-x,1/2+z
y,x,1/2+z
loop_
_atom_site_type_symbol
_atom_site_label
_atom_site_fract_x
_atom_site_fract_y
_atom_site_fract_z
Si Si1 0.290600 0.117544 0.067726
Si Si2 0.499018 0.871913 0.928277
Si Si3 0.708856 0.500000 0.250000
Si Si4 0.280226 0.146342 0.446925
Si Si5 0.368782 0.748355 0.249039
O O1 0.293321 0.184133 0.170834
O O2 0.266281 0.984242 0.088484
O O3 0.413440 0.137632 0.018302
O O4 0.190592 0.162650 0.995782
O O5 0.533342 0.786162 0.842667
O O6 0.500000 0.000000 0.884227
O O7 0.374764 0.839664 0.968695
O O8 0.632113 0.388070 0.271650
O O9 0.311949 0.226172 0.355512
O O10 0.500000 0.791590 0.250000
#
# Coordination Sequence:
#
# PCOD8308389 Si02
#       5
#     8   8   4   8   8
#     4  11  23  41  64  90 123 165 210 256 305 363
#     4  10  21  38  63  86 115 164 211 252 297 360
#     4  12  22  38  62  92 128 156 194 258 318 366
#     4  11  23  41  64  90 123 165 210 256 305 363
#     4  12  24  39  62  95 126 160 205 251 309 376
#
# _framework density 19.478726999999999
#
# number of rings (size 3 to 8) (size 9 to 14) (size 15 to 20)
#    0.000    0.889    6.667    1.333    0.000    1.333 
#    0.000    1.111    0.000    2.667    0.000    0.000 
#    0.000    0.000    0.000    0.000    0.000    0.000 
#
# Total GULP energy -446588.609224 kJ/mol
# GULP energy per Si atom -12405.239145 kJ/mol
# Density = 1.943439 g / cm^3
# Si number density = 19.478727 Si / 1000 Ang^3
#
#
#
# Elastic Constant Matrix: (Units=GPa)
#
#
# Indices 1 2 3 4 5 6 
#
# 1 98.5529 17.4644 21.2608 0.0000 0.0000 0.0000
# 2 17.4644 98.5529 21.2608 0.0000 0.0000 0.0000
# 3 21.2608 21.2608 69.1928 0.0000 0.0000 0.0000
# 4 0.0000 0.0000 0.0000 23.7972 0.0000 0.0000
# 5 0.0000 0.0000 0.0000 0.0000 23.7972 0.0000
# 6 0.0000 0.0000 0.0000 0.0000 0.0000 27.4621
#
#
#
# Elastic Compliance Matrix: (Units=1/GPa)
#
#
# Indices 1 2 3 4 5 6 
#
# 1 0.011023 -0.001309 -0.002985 0.000000 0.000000 0.000000
# 2 -0.001309 0.011023 -0.002985 0.000000 0.000000 0.000000
# 3 -0.002985 -0.002985 0.016287 0.000000 0.000000 0.000000
# 4 0.000000 0.000000 0.000000 0.042022 0.000000 0.000000
# 5 0.000000 0.000000 0.000000 0.000000 0.042022 0.000000
# 6 0.000000 0.000000 0.000000 0.000000 0.000000 0.036414
#
#
# Mechanical properties :
#
#
# Convention : Reuss Voigt Hill
#
# Bulk Modulus (GPa) = 42.06149 42.91898 42.49024
# Shear Modulus (GPa) = 27.58290 28.76545 28.17418
#
# Velocity S-wave (km/s) = 3.76713 3.84704 3.80729
# Velocity P-wave (km/s) = 6.36884 6.46641 6.41781
#
# Compressibility (1/GPa) = 0.02377471
#
# Stress axis : x y z
#
# Youngs Moduli (GPa) = 90.72147 90.72147 61.40043
#
# Poissons Ratio (x) = 0.11880 0.18326
# Poissons Ratio (y) = 0.11880 0.18326
# Poissons Ratio (z) = 0.27077 0.27077
#
# Static dielectric constant tensor:
#      x y z
#    x 3.486370 0.000000 0.000000 
#    y 0.000000 3.486370 0.000000 
#    z 0.000000 0.000000 3.411360 
# 
# 
# High freq. dielectric constant tensor:
#      x y z
#    x 1.757090 0.000000 0.000000 
#    y 0.000000 1.757090 0.000000 
#    z 0.000000 0.000000 1.763360 
# 
# From -- ./inp_files/2352.got.cif
#   From: 2010.03.12/outbox.cif.g09.slc.cpg/sg112_2_cif.got.tgz:2352.got - 2010.04.14 02:02:48.
