data_PCOD8308184
_publ_section_title
;
Structure prediction by ZEFSAII (Michael W. Deem and Ramdas Pophale) SiO2 
 PCOD8308184
Probable space group: P -4 2 M 
;
_chemical_formula_sum "Si O2"
_cell_formula_units_Z 56
_cell_length_a 12.471470
_cell_length_b 12.471470
_cell_length_c 21.167267
_cell_angle_alpha 90.000000
_cell_angle_beta 90.000000
_cell_angle_gamma 90.000000
_cell_volume 3292.305145
_symmetry_space_group_name_H-M "P -4 2 M "
_symmetry_group_IT_number 111
_symmetry_cell_setting 'tetragonal'
loop_
_space_group_symop_operation_xyz
x,y,z
y,-x,-z
-x,-y,z
-y,x,-z
x,-y,-z
-x,y,-z
-y,-x,z
y,x,z
loop_
_atom_site_type_symbol
_atom_site_label
_atom_site_fract_x
_atom_site_fract_y
_atom_site_fract_z
Si Si1 0.376266 0.000097 0.661173
Si Si2 0.706076 0.877833 0.127200
Si Si3 0.205867 0.379037 0.254515
Si Si4 0.621390 0.201762 0.000017
Si Si5 0.173115 0.999998 0.425522
Si Si6 0.877778 0.294015 0.127290
Si Si7 0.620727 0.206067 0.254567
O O1 0.353010 0.897018 0.703573
O O2 0.500000 0.000000 0.636176
O O3 0.291618 0.999949 0.604205
O O4 0.353012 0.103464 0.703329
O O5 0.821380 0.821380 0.122050
O O6 0.634773 0.822701 0.181047
O O7 0.643623 0.870270 0.061276
O O8 0.727622 0.000017 0.144974
O O9 0.300958 0.300958 0.276035
O O10 0.245979 0.499842 0.265190
O O11 0.691370 0.308631 0.999981
O O12 0.500000 0.241094 0.000000
O O13 0.643585 0.129844 0.061355
O O14 0.105749 0.894252 0.404969
O O15 0.189939 0.000000 0.500000
O O16 0.105717 0.105717 0.404967
O O17 0.821250 0.178751 0.122224
O O18 0.822817 0.365423 0.181145
O O19 0.698576 0.301425 0.275939
#
# Coordination Sequence:
#
# PCOD8308184 Si02
#       7
#     8   8   8   8   8   8   8
#     4  10  19  32  52  75 103 134 166 207 245 284
#     4  10  20  34  50  70  96 124 160 204 249 300
#     4  10  20  33  50  72  99 131 166 206 251 296
#     4  10  21  34  50  70  90 120 159 202 254 304
#     4   9  18  33  53  77 106 137 166 200 242 288
#     4  10  20  34  50  70  96 124 160 204 249 300
#     4  10  20  33  50  72  99 131 166 206 251 296
#
# _framework density 17.009360000000001
#
# number of rings (size 3 to 8) (size 9 to 14) (size 15 to 20)
#    0.000    2.143    1.429    2.571    0.000    3.286 
#    0.000    0.000    0.000    7.714    0.000    0.000 
#    0.000    0.000    0.000   26.571    0.000    0.000 
#
# Total GULP energy -694457.000498 kJ/mol
# GULP energy per Si atom -12401.017866 kJ/mol
# Density = 1.697065 g / cm^3
# Si number density = 17.009360 Si / 1000 Ang^3
#
#
#
# Elastic Constant Matrix: (Units=GPa)
#
#
# Indices 1 2 3 4 5 6 
#
# 1 122.6312 63.8129 35.1643 0.0000 0.0000 0.0000
# 2 63.8129 122.6322 35.1653 0.0000 0.0000 0.0000
# 3 35.1643 35.1653 65.3360 0.0000 0.0000 0.0000
# 4 0.0000 0.0000 0.0000 25.0693 0.0000 0.0000
# 5 0.0000 0.0000 0.0000 0.0000 25.0694 0.0000
# 6 0.0000 0.0000 0.0000 0.0000 0.0000 20.3952
#
#
#
# Elastic Compliance Matrix: (Units=1/GPa)
#
#
# Indices 1 2 3 4 5 6 
#
# 1 0.011866 -0.005136 -0.003622 0.000000 0.000000 0.000000
# 2 -0.005136 0.011866 -0.003622 0.000000 0.000000 0.000000
# 3 -0.003622 -0.003622 0.019204 0.000000 0.000000 0.000000
# 4 0.000000 0.000000 0.000000 0.039889 0.000000 0.000000
# 5 0.000000 0.000000 0.000000 0.000000 0.039889 0.000000
# 6 0.000000 0.000000 0.000000 0.000000 0.000000 0.049031
#
#
# Mechanical properties :
#
#
# Convention : Reuss Voigt Hill
#
# Bulk Modulus (GPa) = 55.01846 64.32048 59.66947
# Shear Modulus (GPa) = 24.68358 25.87059 25.27708
#
# Velocity S-wave (km/s) = 3.81356 3.90418 3.85914
# Velocity P-wave (km/s) = 7.19772 7.63023 7.41713
#
# Compressibility (1/GPa) = 0.01817572
#
# Stress axis : x y z
#
# Youngs Moduli (GPa) = 84.27725 84.27726 52.07130
#
# Poissons Ratio (x) = 0.43283 0.18860
# Poissons Ratio (y) = 0.43283 0.18861
# Poissons Ratio (z) = 0.30525 0.30527
#
# Static dielectric constant tensor:
#      x y z
#    x 3.155670 0.000000 0.000000 
#    y 0.000000 3.155670 0.000000 
#    z 0.000000 0.000000 3.068950 
# 
# 
# High freq. dielectric constant tensor:
#      x y z
#    x 1.657820 0.000000 0.000000 
#    y 0.000000 1.657820 0.000000 
#    z 0.000000 0.000000 1.646150 
# 
# From -- ./inp_files/3949.got.cif
#   From: 2010.03.12/outbox.cif.g09.slc.cpg/sg111_2_cif.got.tgz:3949.got - 2010.04.14 01:59:48.
