data_PCOD8308080
_publ_section_title
;
Structure prediction by ZEFSAII (Michael W. Deem and Ramdas Pophale) SiO2 
 PCOD8308080
Probable space group: I 41 C D
;
_chemical_formula_sum "Si O2"
_cell_formula_units_Z 88
_cell_length_a 13.279693
_cell_length_b 13.279693
_cell_length_c 23.018131
_cell_angle_alpha 90.000000
_cell_angle_beta 90.000000
_cell_angle_gamma 90.000000
_cell_volume 4059.253068
_symmetry_space_group_name_H-M "I 41 C D"
_symmetry_group_IT_number 110
_symmetry_cell_setting 'tetragonal'
loop_
_space_group_symop_operation_xyz
x,y,z
-y,1/2+x,1/4+z
-x,-y,z
y,1/2-x,1/4+z
-x,y,1/2+z
x,-y,1/2+z
1/2-y,-x,1/4+z
1/2+y,x,1/4+z
1/2+x,1/2+y,1/2+z
1/2-y,x,3/4+z
1/2-x,1/2-y,1/2+z
1/2+y,-x,3/4+z
1/2-x,1/2+y,z
1/2+x,1/2-y,z
-y,1/2-x,3/4+z
y,1/2+x,3/4+z
loop_
_atom_site_type_symbol
_atom_site_label
_atom_site_fract_x
_atom_site_fract_y
_atom_site_fract_z
Si Si1 0.846331 0.464260 0.180650
Si Si2 0.313672 0.440874 0.769103
Si Si3 0.249959 0.422844 0.567959
Si Si4 0.464266 0.846321 0.205284
Si Si5 0.000000 0.500000 0.442907
Si Si6 0.559260 0.313604 0.116783
O O1 0.762858 0.409870 0.218663
O O2 0.799015 0.492698 0.117938
O O3 0.885191 0.563201 0.213821
O O4 0.936780 0.385151 0.172112
O O5 0.352195 0.336812 0.793912
O O6 0.403862 0.503192 0.736965
O O7 0.250072 0.500098 0.817946
O O8 0.299024 0.492684 0.518004
O O9 0.336618 0.352027 0.591992
O O10 0.409846 0.762848 0.167286
O O11 0.903867 0.496932 0.398843
#
# Coordination Sequence:
#
# PCOD8308080 Si02
#       6
#    16  16  16  16   8  16
#     4  11  25  45  72 105 144 185 236 295 358 425
#     4  12  27  46  73 106 144 191 241 298 364 436
#     4  12  24  46  70 106 144 188 242 290 360 430
#     4  11  25  45  72 105 144 185 236 295 358 425
#     4  12  28  48  72 106 152 192 242 306 370 436
#     4  12  27  46  73 106 144 191 241 298 364 436
#
# _framework density 21.678865999999999
#
# number of rings (size 3 to 8) (size 9 to 14) (size 15 to 20)
#    0.000    0.364    7.273    0.000    5.091    4.364 
#    0.000    0.000    0.000    0.000    0.000    0.000 
#    0.000    0.000    0.000    0.000    0.000    0.000 
#
# Total GULP energy -545304.852876 kJ/mol
# GULP energy per Si atom -12393.292111 kJ/mol
# Density = 2.162952 g / cm^3
# Si number density = 21.678866 Si / 1000 Ang^3
#
#
#
# Elastic Constant Matrix: (Units=GPa)
#
#
# Indices 1 2 3 4 5 6 
#
# 1 110.6515 37.4673 49.2528 0.0000 0.0000 0.0000
# 2 37.4673 110.6515 49.2528 0.0000 0.0000 0.0000
# 3 49.2528 49.2528 146.8869 0.0000 0.0000 0.0000
# 4 0.0000 0.0000 0.0000 51.5337 0.0000 0.0000
# 5 0.0000 0.0000 0.0000 0.0000 51.5337 0.0000
# 6 0.0000 0.0000 0.0000 0.0000 0.0000 10.4693
#
#
#
# Elastic Compliance Matrix: (Units=1/GPa)
#
#
# Indices 1 2 3 4 5 6 
#
# 1 0.011177 -0.002488 -0.002913 0.000000 0.000000 0.000000
# 2 -0.002488 0.011177 -0.002913 0.000000 0.000000 0.000000
# 3 -0.002913 -0.002913 0.008762 0.000000 0.000000 0.000000
# 4 0.000000 0.000000 0.000000 0.019405 0.000000 0.000000
# 5 0.000000 0.000000 0.000000 0.000000 0.019405 0.000000
# 6 0.000000 0.000000 0.000000 0.000000 0.000000 0.095517
#
#
# Mechanical properties :
#
#
# Convention : Reuss Voigt Hill
#
# Bulk Modulus (GPa) = 69.03355 71.12617 70.07986
# Shear Modulus (GPa) = 26.75233 38.18848 32.47040
#
# Velocity S-wave (km/s) = 3.51668 4.20164 3.87433
# Velocity P-wave (km/s) = 6.95717 7.51123 7.23950
#
# Compressibility (1/GPa) = 0.01448571
#
# Stress axis : x y z
#
# Youngs Moduli (GPa) = 89.47309 89.47309 114.13162
#
# Poissons Ratio (x) = 0.22257 0.33252
# Poissons Ratio (y) = 0.22257 0.33252
# Poissons Ratio (z) = 0.26068 0.26068
#
# Static dielectric constant tensor:
#      x y z
#    x 3.974650 0.000000 0.000000 
#    y 0.000000 3.974650 0.000000 
#    z 0.000000 0.000000 5.106980 
# 
# 
# High freq. dielectric constant tensor:
#      x y z
#    x 1.847240 0.000000 0.000000 
#    y 0.000000 1.847240 0.000000 
#    z 0.000000 0.000000 1.883020 
# 
# From -- ./inp_files/2165.got.cif
#   From: 2010.03.12/outbox.cif.g09.slc.cpg/sg110_2_cif.got.tgz:2165.got - 2010.04.14 01:58:01.
