data_PCOD8308018
_publ_section_title
;
Structure prediction by ZEFSAII (Michael W. Deem and Ramdas Pophale) SiO2 
 PCOD8308018
Probable space group: I 41 C D
;
_chemical_formula_sum "Si O2"
_cell_formula_units_Z 64
_cell_length_a 14.967338
_cell_length_b 14.967338
_cell_length_c 14.736762
_cell_angle_alpha 90.000000
_cell_angle_beta 90.000000
_cell_angle_gamma 90.000000
_cell_volume 3301.347208
_symmetry_space_group_name_H-M "I 41 C D"
_symmetry_group_IT_number 110
_symmetry_cell_setting 'tetragonal'
loop_
_space_group_symop_operation_xyz
x,y,z
-y,1/2+x,1/4+z
-x,-y,z
y,1/2-x,1/4+z
-x,y,1/2+z
x,-y,1/2+z
1/2-y,-x,1/4+z
1/2+y,x,1/4+z
1/2+x,1/2+y,1/2+z
1/2-y,x,3/4+z
1/2-x,1/2-y,1/2+z
1/2+y,-x,3/4+z
1/2-x,1/2+y,z
1/2+x,1/2-y,z
-y,1/2-x,3/4+z
y,1/2+x,3/4+z
loop_
_atom_site_type_symbol
_atom_site_label
_atom_site_fract_x
_atom_site_fract_y
_atom_site_fract_z
Si Si1 0.774861 0.345287 0.196230
Si Si2 0.103777 0.593290 0.531058
Si Si3 0.103777 0.906710 0.790098
Si Si4 0.774861 0.845287 0.624926
O O1 0.835317 0.392606 0.121113
O O2 0.683527 0.397963 0.217180
O O3 0.742568 0.250000 0.160578
O O4 0.835644 0.335644 0.285578
O O5 0.108476 0.492094 0.491246
O O6 0.183527 0.602037 0.603976
O O7 0.107394 0.664683 0.450043
O O8 0.007906 0.608476 0.579910
#
# Coordination Sequence:
#
# PCOD8308018 Si02
#       4
#    16  16  16  16
#     4   9  19  35  54  77 107 142 177 218 266 313
#     4  10  20  35  55  81 109 141 178 218 263 316
#     4  10  20  35  55  81 109 141 178 218 263 316
#     4   9  19  35  54  77 107 142 177 218 266 313
#
# _framework density 19.386025
#
# number of rings (size 3 to 8) (size 9 to 14) (size 15 to 20)
#    0.000    2.500    0.000    1.500    0.000    6.000 
#    0.000   10.000    0.000    0.000    0.000    0.000 
#    0.000    0.000    0.000    0.000    0.000    0.000 
#
# Total GULP energy -396579.013412 kJ/mol
# GULP energy per Si atom -12393.094169 kJ/mol
# Density = 1.934190 g / cm^3
# Si number density = 19.386025 Si / 1000 Ang^3
#
#
#
# Elastic Constant Matrix: (Units=GPa)
#
#
# Indices 1 2 3 4 5 6 
#
# 1 138.5608 80.1356 47.1550 0.0000 0.0000 0.0000
# 2 80.1356 138.5608 47.1550 0.0000 0.0000 0.0000
# 3 47.1550 47.1550 84.2041 0.0000 0.0000 0.0000
# 4 0.0000 0.0000 0.0000 16.2645 0.0000 0.0000
# 5 0.0000 0.0000 0.0000 0.0000 16.2645 0.0000
# 6 0.0000 0.0000 0.0000 0.0000 0.0000 28.4181
#
#
#
# Elastic Compliance Matrix: (Units=1/GPa)
#
#
# Indices 1 2 3 4 5 6 
#
# 1 0.011572 -0.005544 -0.003376 0.000000 0.000000 0.000000
# 2 -0.005544 0.011572 -0.003376 0.000000 0.000000 0.000000
# 3 -0.003376 -0.003376 0.015657 0.000000 0.000000 0.000000
# 4 0.000000 0.000000 0.000000 0.061484 0.000000 0.000000
# 5 0.000000 0.000000 0.000000 0.000000 0.061484 0.000000
# 6 0.000000 0.000000 0.000000 0.000000 0.000000 0.035189
#
#
# Mechanical properties :
#
#
# Convention : Reuss Voigt Hill
#
# Bulk Modulus (GPa) = 70.37292 78.91299 74.64296
# Shear Modulus (GPa) = 22.09601 24.64811 23.37206
#
# Velocity S-wave (km/s) = 3.37974 3.56959 3.47596
# Velocity P-wave (km/s) = 7.18400 7.60156 7.39573
#
# Compressibility (1/GPa) = 0.01421001
#
# Stress axis : x y z
#
# Youngs Moduli (GPa) = 86.41445 86.41445 63.86913
#
# Poissons Ratio (x) = 0.47906 0.21562
# Poissons Ratio (y) = 0.47906 0.21562
# Poissons Ratio (z) = 0.29173 0.29173
#
# Static dielectric constant tensor:
#      x y z
#    x 3.618540 0.000000 0.000000 
#    y 0.000000 3.618540 0.000000 
#    z 0.000000 0.000000 3.458180 
# 
# 
# High freq. dielectric constant tensor:
#      x y z
#    x 1.765390 0.000000 0.000000 
#    y 0.000000 1.765390 0.000000 
#    z 0.000000 0.000000 1.728010 
# 
# From -- ./inp_files/1199.got.cif
#   From: 2010.03.12/outbox.cif.g09.slc.cpg/sg110_1_cif.got.tgz:1199.got - 2010.04.14 01:58:01.
