data_PCOD8308031
_publ_section_title
;
Structure prediction by ZEFSAII (Michael W. Deem and Ramdas Pophale) SiO2 
 PCOD8308031
Probable space group: I 41 C D
;
_chemical_formula_sum "Si O2"
_cell_formula_units_Z 96
_cell_length_a 13.632237
_cell_length_b 13.632237
_cell_length_c 23.352990
_cell_angle_alpha 90.000000
_cell_angle_beta 90.000000
_cell_angle_gamma 90.000000
_cell_volume 4339.870285
_symmetry_space_group_name_H-M "I 41 C D"
_symmetry_group_IT_number 110
_symmetry_cell_setting 'tetragonal'
loop_
_space_group_symop_operation_xyz
x,y,z
-y,1/2+x,1/4+z
-x,-y,z
y,1/2-x,1/4+z
-x,y,1/2+z
x,-y,1/2+z
1/2-y,-x,1/4+z
1/2+y,x,1/4+z
1/2+x,1/2+y,1/2+z
1/2-y,x,3/4+z
1/2-x,1/2-y,1/2+z
1/2+y,-x,3/4+z
1/2-x,1/2+y,z
1/2+x,1/2-y,z
-y,1/2-x,3/4+z
y,1/2+x,3/4+z
loop_
_atom_site_type_symbol
_atom_site_label
_atom_site_fract_x
_atom_site_fract_y
_atom_site_fract_z
Si Si1 0.672397 0.556197 0.098110
Si Si2 0.224155 0.527008 0.383913
Si Si3 0.027008 0.724155 0.474258
Si Si4 0.443803 0.327602 0.260060
Si Si5 0.844042 0.362700 0.809003
Si Si6 0.844042 0.137301 0.799167
O O1 0.584425 0.628930 0.110793
O O2 0.729817 0.525953 0.156012
O O3 0.749999 0.604786 0.054085
O O4 0.627834 0.459473 0.069285
O O5 0.229817 0.525953 0.452158
O O6 0.215569 0.415430 0.360801
O O7 0.320006 0.580833 0.358575
O O8 0.084426 0.628931 0.497377
O O9 0.080832 0.820006 0.499595
O O10 0.915430 0.715567 0.497368
O O11 0.540527 0.372165 0.288885
O O12 0.810005 0.250000 0.804085
#
# Coordination Sequence:
#
# PCOD8308031 Si02
#       6
#    16  16  16  16  16  16
#     4  10  21  41  63  95 126 168 213 261 321 383
#     4  10  21  41  65  90 127 171 211 260 321 385
#     4  10  21  41  65  90 127 171 211 260 321 385
#     4  10  21  41  63  95 126 168 213 261 321 383
#     4  10  21  39  63  94 121 167 217 259 316 378
#     4  10  21  39  63  94 121 167 217 259 316 378
#
# _framework density 22.120477000000001
#
# number of rings (size 3 to 8) (size 9 to 14) (size 15 to 20)
#    0.000    2.000    0.000    3.000    0.000    2.667 
#   54.000    0.000    0.000    0.000    0.000    0.000 
#    0.000    0.000    0.000    0.000    0.000    0.000 
#
# Total GULP energy -595221.026936 kJ/mol
# GULP energy per Si atom -12400.438061 kJ/mol
# Density = 2.207013 g / cm^3
# Si number density = 22.120477 Si / 1000 Ang^3
#
#
#
# Elastic Constant Matrix: (Units=GPa)
#
#
# Indices 1 2 3 4 5 6 
#
# 1 102.3218 23.4195 53.2516 0.0000 0.0000 0.0000
# 2 23.4195 102.3218 53.2516 0.0000 0.0000 0.0000
# 3 53.2516 53.2516 142.6928 0.0000 0.0000 0.0000
# 4 0.0000 0.0000 0.0000 26.5834 0.0000 0.0000
# 5 0.0000 0.0000 0.0000 0.0000 26.5834 0.0000
# 6 0.0000 0.0000 0.0000 0.0000 0.0000 16.7426
#
#
#
# Elastic Compliance Matrix: (Units=1/GPa)
#
#
# Indices 1 2 3 4 5 6 
#
# 1 0.012151 -0.000523 -0.004340 0.000000 0.000000 0.000000
# 2 -0.000523 0.012151 -0.004340 0.000000 0.000000 0.000000
# 3 -0.004340 -0.004340 0.010247 0.000000 0.000000 0.000000
# 4 0.000000 0.000000 0.000000 0.037617 0.000000 0.000000
# 5 0.000000 0.000000 0.000000 0.000000 0.037617 0.000000
# 6 0.000000 0.000000 0.000000 0.000000 0.000000 0.059728
#
#
# Mechanical properties :
#
#
# Convention : Reuss Voigt Hill
#
# Bulk Modulus (GPa) = 61.93663 67.46465 64.70064
# Shear Modulus (GPa) = 25.86679 28.47614 27.17147
#
# Velocity S-wave (km/s) = 3.42330 3.59182 3.50857
# Velocity P-wave (km/s) = 6.60952 6.91133 6.76211
#
# Compressibility (1/GPa) = 0.01614553
#
# Stress axis : x y z
#
# Youngs Moduli (GPa) = 82.29629 82.29629 97.58861
#
# Poissons Ratio (x) = 0.04302 0.42350
# Poissons Ratio (y) = 0.04302 0.42350
# Poissons Ratio (z) = 0.35714 0.35714
#
# Static dielectric constant tensor:
#      x y z
#    x 3.989180 0.000000 0.000000 
#    y 0.000000 3.989180 0.000000 
#    z 0.000000 0.000000 4.166370 
# 
# 
# High freq. dielectric constant tensor:
#      x y z
#    x 1.869020 0.000000 0.000000 
#    y 0.000000 1.869020 0.000000 
#    z 0.000000 0.000000 1.869560 
# 
# From -- ./inp_files/2207.got.cif
#   From: 2010.03.12/outbox.cif.g09.slc.cpg/sg110_2_cif.got.tgz:2207.got - 2010.04.14 01:58:01.
