data_PCOD8308046
_publ_section_title
;
Structure prediction by ZEFSAII (Michael W. Deem and Ramdas Pophale) SiO2 
 PCOD8308046
Probable space group: I 41 C D
;
_chemical_formula_sum "Si O2"
_cell_formula_units_Z 112
_cell_length_a 32.178060
_cell_length_b 32.178060
_cell_length_c 4.934391
_cell_angle_alpha 90.000000
_cell_angle_beta 90.000000
_cell_angle_gamma 90.000000
_cell_volume 5109.204361
_symmetry_space_group_name_H-M "I 41 C D"
_symmetry_group_IT_number 110
_symmetry_cell_setting 'tetragonal'
loop_
_space_group_symop_operation_xyz
x,y,z
-y,1/2+x,1/4+z
-x,-y,z
y,1/2-x,1/4+z
-x,y,1/2+z
x,-y,1/2+z
1/2-y,-x,1/4+z
1/2+y,x,1/4+z
1/2+x,1/2+y,1/2+z
1/2-y,x,3/4+z
1/2-x,1/2-y,1/2+z
1/2+y,-x,3/4+z
1/2-x,1/2+y,z
1/2+x,1/2-y,z
-y,1/2-x,3/4+z
y,1/2+x,3/4+z
loop_
_atom_site_type_symbol
_atom_site_label
_atom_site_fract_x
_atom_site_fract_y
_atom_site_fract_z
Si Si1 0.971583 0.607057 0.468640
Si Si2 0.578791 0.245651 0.931639
Si Si3 0.775960 0.666338 0.007384
Si Si4 0.915091 0.471611 0.839849
Si Si5 0.474215 0.321750 0.635496
Si Si6 0.580745 0.190624 0.443272
Si Si7 0.677611 0.809404 0.026519
O O1 0.944542 0.566667 0.405400
O O2 0.943779 0.647833 0.439562
O O3 0.988598 0.606900 0.773304
O O4 0.624612 0.262467 0.900887
O O5 0.561733 0.224408 0.655228
O O6 0.554800 0.285726 0.030727
O O7 0.576603 0.208969 0.146598
O O8 0.734372 0.690126 0.915517
O O9 0.802679 0.656724 0.733587
O O10 0.803069 0.691532 0.226234
O O11 0.923876 0.490294 0.544033
O O12 0.867597 0.454697 0.845126
O O13 0.516055 0.317499 0.454113
O O14 0.628656 0.182231 0.515362
#
# Coordination Sequence:
#
# PCOD8308046 Si02
#       7
#    16  16  16  16  16  16  16
#     4  12  27  45  69 102 130 178 224 259 336 404
#     4  11  23  42  65  95 130 174 216 265 326 383
#     4  11  23  40  62  90 124 168 218 261 317 386
#     4  10  23  45  67 100 137 166 217 278 324 389
#     4  10  22  40  65  98 126 163 213 258 324 380
#     4  11  25  44  63  95 136 170 218 270 319 388
#     4  11  23  42  61  90 125 166 217 266 321 371
#
# _framework density 21.921222
#
# number of rings (size 3 to 8) (size 9 to 14) (size 15 to 20)
#    0.000    1.143    0.000    6.857    2.000    6.286 
#    5.143    1.429    0.000    0.000    0.000    0.000 
#    0.000    0.000    0.000    0.000    0.000    0.000 
#
# Total GULP energy -694365.387026 kJ/mol
# GULP energy per Si atom -12399.381911 kJ/mol
# Density = 2.187133 g / cm^3
# Si number density = 21.921222 Si / 1000 Ang^3
#
#
#
# Elastic Constant Matrix: (Units=GPa)
#
#
# Indices 1 2 3 4 5 6 
#
# 1 122.7614 30.8988 17.5985 0.0000 0.0000 0.0000
# 2 30.8988 122.7614 17.5985 0.0000 0.0000 0.0000
# 3 17.5985 17.5985 83.8963 0.0000 0.0000 0.0000
# 4 0.0000 0.0000 0.0000 36.9894 0.0000 0.0000
# 5 0.0000 0.0000 0.0000 0.0000 36.9894 0.0000
# 6 0.0000 0.0000 0.0000 0.0000 0.0000 39.7246
#
#
#
# Elastic Compliance Matrix: (Units=1/GPa)
#
#
# Indices 1 2 3 4 5 6 
#
# 1 0.008861 -0.002025 -0.001434 0.000000 0.000000 0.000000
# 2 -0.002025 0.008861 -0.001434 0.000000 0.000000 0.000000
# 3 -0.001434 -0.001434 0.012521 0.000000 0.000000 0.000000
# 4 0.000000 0.000000 0.000000 0.027035 0.000000 0.000000
# 5 0.000000 0.000000 0.000000 0.000000 0.027035 0.000000
# 6 0.000000 0.000000 0.000000 0.000000 0.000000 0.025173
#
#
# Mechanical properties :
#
#
# Convention : Reuss Voigt Hill
#
# Bulk Modulus (GPa) = 48.88138 51.29006 50.08572
# Shear Modulus (GPa) = 39.65392 40.29557 39.97475
#
# Velocity S-wave (km/s) = 4.25776 4.29207 4.27495
# Velocity P-wave (km/s) = 6.82045 6.92898 6.87493
#
# Compressibility (1/GPa) = 0.02045769
#
# Stress axis : x y z
#
# Youngs Moduli (GPa) = 112.85311 112.85311 79.86521
#
# Poissons Ratio (x) = 0.22850 0.11453
# Poissons Ratio (y) = 0.22850 0.11453
# Poissons Ratio (z) = 0.16183 0.16183
#
# Static dielectric constant tensor:
#      x y z
#    x 3.800980 0.000000 0.000000 
#    y 0.000000 3.800980 0.000000 
#    z 0.000000 0.000000 4.422450 
# 
# 
# High freq. dielectric constant tensor:
#      x y z
#    x 1.858980 0.000000 0.000000 
#    y 0.000000 1.858980 0.000000 
#    z 0.000000 0.000000 1.888640 
# 
# From -- ./inp_files/150.got.cif
#   From: 2010.03.12/outbox.cif.g09.slc.cpg/sg110_1_cif.got.tgz:150.got - 2010.04.14 01:58:01.
