data_PCOD8308004
_publ_section_title
;
Structure prediction by ZEFSAII (Michael W. Deem and Ramdas Pophale) SiO2 
 PCOD8308004
Probable space group: I 41 C D
;
_chemical_formula_sum "Si O2"
_cell_formula_units_Z 80
_cell_length_a 18.067478
_cell_length_b 18.067478
_cell_length_c 12.958788
_cell_angle_alpha 90.000000
_cell_angle_beta 90.000000
_cell_angle_gamma 90.000000
_cell_volume 4230.185908
_symmetry_space_group_name_H-M "I 41 C D"
_symmetry_group_IT_number 110
_symmetry_cell_setting 'tetragonal'
loop_
_space_group_symop_operation_xyz
x,y,z
-y,1/2+x,1/4+z
-x,-y,z
y,1/2-x,1/4+z
-x,y,1/2+z
x,-y,1/2+z
1/2-y,-x,1/4+z
1/2+y,x,1/4+z
1/2+x,1/2+y,1/2+z
1/2-y,x,3/4+z
1/2-x,1/2-y,1/2+z
1/2+y,-x,3/4+z
1/2-x,1/2+y,z
1/2+x,1/2-y,z
-y,1/2-x,3/4+z
y,1/2+x,3/4+z
loop_
_atom_site_type_symbol
_atom_site_label
_atom_site_fract_x
_atom_site_fract_y
_atom_site_fract_z
Si Si1 0.796696 0.923327 0.426870
Si Si2 0.421843 0.542657 0.929273
Si Si3 0.320181 0.085858 0.256474
Si Si4 0.520308 0.580467 0.631850
Si Si5 0.013628 0.828833 0.314236
O O1 0.835786 0.848493 0.464383
O O2 0.754350 0.904303 0.321480
O O3 0.854383 0.989154 0.401603
O O4 0.741682 0.945992 0.517781
O O5 0.500000 0.500000 0.926236
O O6 0.424349 0.610736 0.848685
O O7 0.413745 0.574657 0.046984
O O8 0.301275 0.033497 0.160431
O O9 0.385735 0.052113 0.325855
O O10 0.500000 0.500000 0.677214
O O11 0.540803 0.633280 0.728319
#
# Coordination Sequence:
#
# PCOD8308004 Si02
#       5
#    16  16  16  16  16
#     4  11  22  39  59  88 128 157 206 263 299 379
#     4  10  18  38  63  89 119 154 210 263 300 360
#     4  10  22  38  55  90 125 165 199 249 315 365
#     4   9  16  31  59  88 113 143 206 253 301 351
#     4  10  21  34  59  93 118 159 208 248 319 355
#
# _framework density 18.911697
#
# number of rings (size 3 to 8) (size 9 to 14) (size 15 to 20)
#    0.000    2.000    6.000    0.600    0.000    4.800 
#    0.000    2.000    0.000    0.000    0.000    0.000 
#    0.000    0.000    0.000    0.000    0.000    0.000 
#
# Total GULP energy -495874.013883 kJ/mol
# GULP energy per Si atom -12396.850347 kJ/mol
# Density = 1.886865 g / cm^3
# Si number density = 18.911697 Si / 1000 Ang^3
#
#
#
# Elastic Constant Matrix: (Units=GPa)
#
#
# Indices 1 2 3 4 5 6 
#
# 1 109.0764 50.4171 55.6741 0.0000 0.0000 0.0000
# 2 50.4171 109.0764 55.6741 0.0000 0.0000 0.0000
# 3 55.6741 55.6741 125.2199 0.0000 0.0000 0.0000
# 4 0.0000 0.0000 0.0000 29.1530 0.0000 0.0000
# 5 0.0000 0.0000 0.0000 0.0000 29.1530 0.0000
# 6 0.0000 0.0000 0.0000 0.0000 0.0000 24.8713
#
#
#
# Elastic Compliance Matrix: (Units=1/GPa)
#
#
# Indices 1 2 3 4 5 6 
#
# 1 0.013070 -0.003978 -0.004042 0.000000 0.000000 0.000000
# 2 -0.003978 0.013070 -0.004042 0.000000 0.000000 0.000000
# 3 -0.004042 -0.004042 0.011581 0.000000 0.000000 0.000000
# 4 0.000000 0.000000 0.000000 0.034302 0.000000 0.000000
# 5 0.000000 0.000000 0.000000 0.000000 0.034302 0.000000
# 6 0.000000 0.000000 0.000000 0.000000 0.000000 0.040207
#
#
# Mechanical properties :
#
#
# Convention : Reuss Voigt Hill
#
# Bulk Modulus (GPa) = 73.55680 74.10036 73.82858
# Shear Modulus (GPa) = 28.54085 28.74263 28.64174
#
# Velocity S-wave (km/s) = 3.88901 3.90273 3.89588
# Velocity P-wave (km/s) = 7.69059 7.71854 7.70458
#
# Compressibility (1/GPa) = 0.01359494
#
# Stress axis : x y z
#
# Youngs Moduli (GPa) = 76.51234 76.51234 86.35183
#
# Poissons Ratio (x) = 0.30435 0.34907
# Poissons Ratio (y) = 0.30435 0.34907
# Poissons Ratio (z) = 0.30929 0.30929
#
# Static dielectric constant tensor:
#      x y z
#    x 3.342770 0.000000 0.000000 
#    y 0.000000 3.342770 0.000000 
#    z 0.000000 0.000000 3.965580 
# 
# 
# High freq. dielectric constant tensor:
#      x y z
#    x 1.710190 0.000000 0.000000 
#    y 0.000000 1.710190 0.000000 
#    z 0.000000 0.000000 1.759490 
# 
# From -- ./inp_files/1250.got.cif
#   From: 2010.03.12/outbox.cif.g09.slc.cpg/sg110_1_cif.got.tgz:1250.got - 2010.04.14 01:58:01.
