data_PCOD8308324
_publ_section_title
;
Structure prediction by ZEFSAII (Michael W. Deem and Ramdas Pophale) SiO2 
 PCOD8308324
Probable space group: P -4 2 C
;
_chemical_formula_sum "Si O2"
_cell_formula_units_Z 56
_cell_length_a 16.870759
_cell_length_b 16.870759
_cell_length_c 13.077313
_cell_angle_alpha 90.000000
_cell_angle_beta 90.000000
_cell_angle_gamma 90.000000
_cell_volume 3722.097640
_symmetry_space_group_name_H-M "P -4 2 C"
_symmetry_group_IT_number 112
_symmetry_cell_setting 'tetragonal'
loop_
_space_group_symop_operation_xyz
x,y,z
y,-x,-z
-x,-y,z
-y,x,-z
x,-y,1/2-z
-x,y,1/2-z
-y,-x,1/2+z
y,x,1/2+z
loop_
_atom_site_type_symbol
_atom_site_label
_atom_site_fract_x
_atom_site_fract_y
_atom_site_fract_z
Si Si1 0.094499 0.312067 0.446440
Si Si2 0.411519 0.094007 0.137172
Si Si3 0.411519 0.094007 0.362828
Si Si4 0.687933 0.094499 0.946440
Si Si5 0.000000 0.907574 0.630235
Si Si6 0.905913 0.589667 0.250000
Si Si7 0.143578 0.143578 0.000000
O O1 0.126383 0.353616 0.549772
O O2 0.123891 0.363832 0.350323
O O3 0.135645 0.226668 0.441406
O O4 0.000000 0.301865 0.445036
O O5 0.381049 0.120296 0.250000
O O6 0.500000 0.127543 0.118398
O O7 0.414610 0.000000 0.130221
O O8 0.353616 0.126383 0.450228
O O9 0.636168 0.123891 0.850323
O O10 0.773332 0.135645 0.941406
O O11 0.923077 0.864623 0.586333
O O12 0.000000 0.894773 0.750000
O O13 0.076923 0.864623 0.586333
O O14 0.000000 0.000000 0.599924
O O15 0.871379 0.500000 0.250000
O O16 0.000000 0.585387 0.250000
#
# Coordination Sequence:
#
# PCOD8308324 Si02
#       7
#     8   8   8   8   8   8   8
#     4  10  19  30  45  64  87 115 150 197 236 278
#     4   8  14  26  44  64  83 103 133 175 224 277
#     4   8  14  26  44  64  83 103 133 175 224 277
#     4  10  19  30  45  64  87 115 150 197 236 278
#     4  11  22  36  50  56  78 123 169 215 247 273
#     4   9  18  32  50  69  87 111 150 196 245 293
#     4  12  21  36  44  66  88 118 166 199 242 280
#
# _framework density 15.045278
#
# number of rings (size 3 to 8) (size 9 to 14) (size 15 to 20)
#    0.000    2.286    2.857    1.714    2.000    4.571 
#    0.000    0.000    0.000    0.000    0.000    0.000 
#    0.000    0.000    0.000    0.000    0.000   17.143 
#
# Total GULP energy -694281.555307 kJ/mol
# GULP energy per Si atom -12397.884916 kJ/mol
# Density = 1.501103 g / cm^3
# Si number density = 15.045278 Si / 1000 Ang^3
#
#
#
# Elastic Constant Matrix: (Units=GPa)
#
#
# Indices 1 2 3 4 5 6 
#
# 1 86.3488 18.5031 46.9164 0.0000 0.0000 0.0000
# 2 18.5031 86.3488 46.9164 0.0000 0.0000 0.0000
# 3 46.9164 46.9164 130.9786 0.0000 0.0000 0.0000
# 4 0.0000 0.0000 0.0000 15.9484 0.0000 0.0000
# 5 0.0000 0.0000 0.0000 0.0000 15.9484 0.0000
# 6 0.0000 0.0000 0.0000 0.0000 0.0000 4.3137
#
#
#
# Elastic Compliance Matrix: (Units=1/GPa)
#
#
# Indices 1 2 3 4 5 6 
#
# 1 0.014388 -0.000351 -0.005028 0.000000 0.000000 0.000000
# 2 -0.000351 0.014388 -0.005028 0.000000 0.000000 0.000000
# 3 -0.005028 -0.005028 0.011237 0.000000 0.000000 0.000000
# 4 0.000000 0.000000 0.000000 0.062702 0.000000 0.000000
# 5 0.000000 0.000000 0.000000 0.000000 0.062702 0.000000
# 6 0.000000 0.000000 0.000000 0.000000 0.000000 0.231821
#
#
# Mechanical properties :
#
#
# Convention : Reuss Voigt Hill
#
# Bulk Modulus (GPa) = 52.08706 58.70534 55.39620
# Shear Modulus (GPa) = 11.77988 19.99811 15.88900
#
# Velocity S-wave (km/s) = 2.80118 3.64977 3.25326
# Velocity P-wave (km/s) = 6.71993 7.54088 7.14221
#
# Compressibility (1/GPa) = 0.01919863
#
# Stress axis : x y z
#
# Youngs Moduli (GPa) = 69.50197 69.50197 88.99280
#
# Poissons Ratio (x) = 0.02441 0.44745
# Poissons Ratio (y) = 0.02441 0.44745
# Poissons Ratio (z) = 0.34945 0.34945
#
# Static dielectric constant tensor:
#      x y z
#    x 2.700150 0.000000 0.000000 
#    y 0.000000 2.700150 0.000000 
#    z 0.000000 0.000000 3.170960 
# 
# 
# High freq. dielectric constant tensor:
#      x y z
#    x 1.536660 0.000000 0.000000 
#    y 0.000000 1.536660 0.000000 
#    z 0.000000 0.000000 1.597560 
# 
# From -- ./inp_files/2737.got.cif
#   From: 2010.03.12/outbox.cif.g09.slc.cpg/sg112_2_cif.got.tgz:2737.got - 2010.04.14 02:02:48.
