data_PCOD8308638
_publ_section_title
;
Structure prediction by ZEFSAII (Michael W. Deem and Ramdas Pophale) SiO2 
 PCOD8308638
Probable space group: P -4 21 M 
;
_chemical_formula_sum "Si O2"
_cell_formula_units_Z 48
_cell_length_a 11.616969
_cell_length_b 11.616969
_cell_length_c 18.141630
_cell_angle_alpha 90.000000
_cell_angle_beta 90.000000
_cell_angle_gamma 90.000000
_cell_volume 2448.284968
_symmetry_space_group_name_H-M "P -4 21 M "
_symmetry_group_IT_number 113
_symmetry_cell_setting 'tetragonal'
loop_
_space_group_symop_operation_xyz
x,y,z
y,-x,-z
-x,-y,z
-y,x,-z
1/2+x,1/2-y,-z
1/2-x,1/2+y,-z
1/2-y,1/2-x,z
1/2+y,1/2+x,z
loop_
_atom_site_type_symbol
_atom_site_label
_atom_site_fract_x
_atom_site_fract_y
_atom_site_fract_z
Si Si1 0.828233 0.971126 0.027235
Si Si2 0.847786 0.159356 0.664236
Si Si3 0.314494 0.995406 0.420671
Si Si4 0.495339 0.185712 0.590694
Si Si5 0.398512 0.414059 0.177137
Si Si6 0.182111 0.501725 0.101033
O O1 0.823265 0.931475 0.112282
O O2 0.705654 0.973875 0.986162
O O3 0.903204 0.884410 0.977081
O O4 0.751915 0.251915 0.642113
O O5 0.800229 0.033566 0.636874
O O6 0.865237 0.158755 0.751696
O O7 0.968718 0.200705 0.626637
O O8 0.367237 0.867237 0.401896
O O9 0.277327 0.001090 0.505633
O O10 0.415159 0.084842 0.403800
O O11 0.584961 0.084961 0.607004
O O12 0.367583 0.132418 0.610718
O O13 0.500000 0.500000 0.198079
O O14 0.295509 0.495524 0.150143
O O15 0.102655 0.602655 0.133281
O O16 0.120481 0.379520 0.107609
#
# Coordination Sequence:
#
# PCOD8308638 Si02
#       6
#     8   8   8   8   8   8
#     4   9  16  35  58  76 101 145 184 217 270 330
#     4  10  20  33  54  81 109 146 189 232 286 346
#     4   8  15  32  55  76 104 143 186 233 281 333
#     4   8  15  31  55  79 106 143 187 236 289 342
#     4  11  21  39  54  77 117 154 184 218 280 352
#     4  10  21  36  59  89 111 137 187 243 284 325
#
# _framework density 19.605563
#
# number of rings (size 3 to 8) (size 9 to 14) (size 15 to 20)
#    0.000    2.667    3.333    1.500    0.000    4.000 
#    3.000    3.333    0.000    2.000    0.000    0.000 
#    0.000    0.000    0.000    0.000    0.000    0.000 
#
# Total GULP energy -594651.805156 kJ/mol
# GULP energy per Si atom -12388.579274 kJ/mol
# Density = 1.956094 g / cm^3
# Si number density = 19.605563 Si / 1000 Ang^3
#
#
#
# Elastic Constant Matrix: (Units=GPa)
#
#
# Indices 1 2 3 4 5 6 
#
# 1 89.8163 18.2194 34.4659 0.0000 0.0000 0.0000
# 2 18.2194 89.8172 34.4600 0.0000 0.0000 0.0000
# 3 34.4659 34.4600 115.3164 0.0000 0.0000 0.0000
# 4 0.0000 0.0000 0.0000 19.7897 0.0000 0.0000
# 5 0.0000 0.0000 0.0000 0.0000 19.7898 0.0000
# 6 0.0000 0.0000 0.0000 0.0000 0.0000 18.5062
#
#
#
# Elastic Compliance Matrix: (Units=1/GPa)
#
#
# Indices 1 2 3 4 5 6 
#
# 1 0.012702 -0.001265 -0.003418 0.000000 0.000000 0.000000
# 2 -0.001265 0.012702 -0.003417 0.000000 0.000000 0.000000
# 3 -0.003418 -0.003417 0.010715 0.000000 0.000000 0.000000
# 4 0.000000 0.000000 0.000000 0.050531 0.000000 0.000000
# 5 0.000000 0.000000 0.000000 0.000000 0.050531 0.000000
# 6 0.000000 0.000000 0.000000 0.000000 0.000000 0.054036
#
#
# Mechanical properties :
#
#
# Convention : Reuss Voigt Hill
#
# Bulk Modulus (GPa) = 50.20961 52.13784 51.17373
# Shear Modulus (GPa) = 23.35820 25.47079 24.41450
#
# Velocity S-wave (km/s) = 3.45542 3.60830 3.53269
# Velocity P-wave (km/s) = 6.44867 6.63407 6.54203
#
# Compressibility (1/GPa) = 0.01991651
#
# Stress axis : x y z
#
# Youngs Moduli (GPa) = 78.72635 78.73069 93.32942
#
# Poissons Ratio (x) = 0.09960 0.31904
# Poissons Ratio (y) = 0.09960 0.31895
# Poissons Ratio (z) = 0.26912 0.26906
#
# Static dielectric constant tensor:
#      x y z
#    x 3.625510 0.000000 0.000000 
#    y 0.000000 3.625510 0.000000 
#    z 0.000000 0.000000 3.621430 
# 
# 
# High freq. dielectric constant tensor:
#      x y z
#    x 1.746680 0.000000 0.000000 
#    y 0.000000 1.746680 0.000000 
#    z 0.000000 0.000000 1.749880 
# 
# From -- ./inp_files/2443.got.cif
#   From: 2010.03.12/outbox.cif.g09.slc.cpg/sg113_cif.got.tgz:2443.got - 2010.04.14 02:06:34.
