data_PCOD8308372
_publ_section_title
;
Structure prediction by ZEFSAII (Michael W. Deem and Ramdas Pophale) SiO2 
 PCOD8308372
Probable space group: P -4 2 C
;
_chemical_formula_sum "Si O2"
_cell_formula_units_Z 54
_cell_length_a 14.617643
_cell_length_b 14.617643
_cell_length_c 11.837435
_cell_angle_alpha 90.000000
_cell_angle_beta 90.000000
_cell_angle_gamma 90.000000
_cell_volume 2529.369687
_symmetry_space_group_name_H-M "P -4 2 C"
_symmetry_group_IT_number 112
_symmetry_cell_setting 'tetragonal'
loop_
_space_group_symop_operation_xyz
x,y,z
y,-x,-z
-x,-y,z
-y,x,-z
x,-y,1/2-z
-x,y,1/2-z
-y,-x,1/2+z
y,x,1/2+z
loop_
_atom_site_type_symbol
_atom_site_label
_atom_site_fract_x
_atom_site_fract_y
_atom_site_fract_z
Si Si1 0.582099 0.755865 0.527486
Si Si2 0.256690 0.378461 0.471227
Si Si3 0.099220 0.410883 0.831423
Si Si4 0.326903 0.917559 0.388524
Si Si5 0.631899 0.851882 0.756039
Si Si6 0.034268 0.856372 0.017447
Si Si7 0.000000 0.500000 0.250000
Si Si8 0.000000 0.772915 0.250000
O O1 0.482979 0.707620 0.527791
O O2 0.662099 0.681625 0.521953
O O3 0.589725 0.818231 0.417484
O O4 0.586528 0.811215 0.643998
O O5 0.166557 0.372165 0.546655
O O6 0.228721 0.346165 0.344609
O O7 0.097218 0.500000 0.750000
O O8 0.108445 0.323891 0.745155
O O9 0.005169 0.395150 0.901999
O O10 0.226347 0.937571 0.435841
O O11 0.565877 0.928684 0.817984
O O12 0.718528 0.908862 0.713131
O O13 0.033526 0.832457 0.147437
O O14 0.933951 0.889581 0.986146
#
# Coordination Sequence:
#
# PCOD8308372 Si02
#       8
#     8   8   8   8   8   8   2   4
#     4  12  28  46  74 105 147 189 241 302 359 439
#     4  12  27  46  74 103 144 190 246 296 362 428
#     4  11  25  44  74 108 141 177 226 303 367 415
#     4  11  24  44  70 106 136 182 232 295 355 416
#     4  11  24  43  70 109 135 183 237 301 359 420
#     4  11  27  46  65  97 145 194 237 278 345 440
#     4  10  20  40  72  98 144 170 220 302 352 418
#     4  11  24  40  72 101 136 190 236 291 352 418
#
# _framework density 21.349193
#
# number of rings (size 3 to 8) (size 9 to 14) (size 15 to 20)
#    0.000    0.741    4.444    1.778    8.296    3.852 
#    0.000    0.000    0.000    1.778    0.000    0.000 
#    0.000    0.000    0.000    0.000    0.000    0.000 
#
# Total GULP energy -669138.604816 kJ/mol
# GULP energy per Si atom -12391.455645 kJ/mol
# Density = 2.130060 g / cm^3
# Si number density = 21.349193 Si / 1000 Ang^3
#
#
#
# Elastic Constant Matrix: (Units=GPa)
#
#
# Indices 1 2 3 4 5 6 
#
# 1 104.6082 57.0920 44.6026 0.0000 0.0000 0.0000
# 2 57.0920 104.6082 44.6026 0.0000 0.0000 0.0000
# 3 44.6026 44.6026 107.5201 0.0000 0.0000 0.0000
# 4 0.0000 0.0000 0.0000 27.2208 0.0000 0.0000
# 5 0.0000 0.0000 0.0000 0.0000 27.2208 0.0000
# 6 0.0000 0.0000 0.0000 0.0000 0.0000 36.3998
#
#
#
# Elastic Compliance Matrix: (Units=1/GPa)
#
#
# Indices 1 2 3 4 5 6 
#
# 1 0.014533 -0.006513 -0.003327 0.000000 0.000000 0.000000
# 2 -0.006513 0.014533 -0.003327 0.000000 0.000000 0.000000
# 3 -0.003327 -0.003327 0.012061 0.000000 0.000000 0.000000
# 4 0.000000 0.000000 0.000000 0.036737 0.000000 0.000000
# 5 0.000000 0.000000 0.000000 0.000000 0.036737 0.000000
# 6 0.000000 0.000000 0.000000 0.000000 0.000000 0.027473
#
#
# Mechanical properties :
#
#
# Convention : Reuss Voigt Hill
#
# Bulk Modulus (GPa) = 67.60066 67.70344 67.65205
# Shear Modulus (GPa) = 28.84578 29.53087 29.18833
#
# Velocity S-wave (km/s) = 3.67978 3.72322 3.70156
# Velocity P-wave (km/s) = 7.05601 7.08974 7.07290
#
# Compressibility (1/GPa) = 0.01479276
#
# Stress axis : x y z
#
# Youngs Moduli (GPa) = 68.81120 68.81120 82.91415
#
# Poissons Ratio (x) = 0.44816 0.27584
# Poissons Ratio (y) = 0.44816 0.27584
# Poissons Ratio (z) = 0.22892 0.22892
#
# Static dielectric constant tensor:
#      x y z
#    x 4.007750 0.000000 0.000000 
#    y 0.000000 4.007750 0.000000 
#    z 0.000000 0.000000 3.992350 
# 
# 
# High freq. dielectric constant tensor:
#      x y z
#    x 1.838080 0.000000 0.000000 
#    y 0.000000 1.838080 0.000000 
#    z 0.000000 0.000000 1.842220 
# 
# From -- ./inp_files/2701.got.cif
#   From: 2010.03.12/outbox.cif.g09.slc.cpg/sg112_2_cif.got.tgz:2701.got - 2010.04.14 02:02:48.
