data_PCOD8308936
_publ_section_title
;
Structure prediction by ZEFSAII (Michael W. Deem and Ramdas Pophale) SiO2 
 PCOD8308936
Probable space group: P -4 21 C
;
_chemical_formula_sum "Si O2"
_cell_formula_units_Z 48
_cell_length_a 15.980762
_cell_length_b 15.980762
_cell_length_c 9.847929
_cell_angle_alpha 90.000000
_cell_angle_beta 90.000000
_cell_angle_gamma 90.000000
_cell_volume 2515.010926
_symmetry_space_group_name_H-M "P -4 21 C"
_symmetry_group_IT_number 114
_symmetry_cell_setting 'tetragonal'
loop_
_space_group_symop_operation_xyz
x,y,z
y,-x,-z
-x,-y,z
-y,x,-z
1/2+x,1/2-y,1/2-z
1/2-x,1/2+y,1/2-z
1/2-y,1/2-x,1/2+z
1/2+y,1/2+x,1/2+z
loop_
_atom_site_type_symbol
_atom_site_label
_atom_site_fract_x
_atom_site_fract_y
_atom_site_fract_z
Si Si1 0.929681 0.322542 0.390078
Si Si2 0.929681 0.677458 0.609922
Si Si3 0.287166 0.039932 0.140126
Si Si4 0.183828 0.816172 0.780290
Si Si5 0.208859 0.208859 0.524705
Si Si6 0.712834 0.039932 0.859874
O O1 0.863301 0.397222 0.387997
O O2 0.885021 0.234346 0.429574
O O3 1.000000 0.344776 0.500000
O O4 0.967218 0.316532 0.240374
O O5 0.885021 0.765654 0.570426
O O6 0.863301 0.602778 0.612003
O O7 0.967218 0.683468 0.759626
O O8 0.206284 0.085817 0.207084
O O9 0.257276 1.000000 1.000000
O O10 0.218382 0.781618 0.637446
O O11 0.227242 0.772758 0.908080
O O12 0.206284 0.914183 0.792916
#
# Coordination Sequence:
#
# PCOD8308936 Si02
#       6
#     8   8   8   8   8   8
#     4  11  22  39  60  88 124 156 199 242 299 355
#     4  11  22  39  60  88 124 156 199 242 299 355
#     4  11  24  37  61  90 122 159 196 245 298 357
#     4  10  22  40  60  85 116 160 211 238 288 353
#     4  10  22  38  62  83 116 162 207 244 282 357
#     4  11  24  37  61  90 122 159 196 245 298 357
#
# _framework density 19.085404
#
# number of rings (size 3 to 8) (size 9 to 14) (size 15 to 20)
#    0.000    1.333    3.333    2.000   14.000    4.000 
#    0.000    0.000    0.000    6.000    0.000    0.000 
#    0.000    0.000    0.000    0.000    0.000    0.000 
#
# Total GULP energy -595158.695932 kJ/mol
# GULP energy per Si atom -12399.139499 kJ/mol
# Density = 1.904196 g / cm^3
# Si number density = 19.085404 Si / 1000 Ang^3
#
#
#
# Elastic Constant Matrix: (Units=GPa)
#
#
# Indices 1 2 3 4 5 6 
#
# 1 63.1806 54.9665 27.2389 0.0000 0.0000 0.0000
# 2 54.9665 63.1806 27.2389 0.0000 0.0000 0.0000
# 3 27.2389 27.2389 142.0563 0.0000 0.0000 0.0000
# 4 0.0000 0.0000 0.0000 32.1642 0.0000 0.0000
# 5 0.0000 0.0000 0.0000 0.0000 32.1642 0.0000
# 6 0.0000 0.0000 0.0000 0.0000 0.0000 30.0815
#
#
#
# Elastic Compliance Matrix: (Units=1/GPa)
#
#
# Indices 1 2 3 4 5 6 
#
# 1 0.065513 -0.056228 -0.001780 0.000000 0.000000 0.000000
# 2 -0.056228 0.065513 -0.001780 0.000000 0.000000 0.000000
# 3 -0.001780 -0.001780 0.007722 0.000000 0.000000 0.000000
# 4 0.000000 0.000000 0.000000 0.031090 0.000000 0.000000
# 5 0.000000 0.000000 0.000000 0.000000 0.031090 0.000000
# 6 0.000000 0.000000 0.000000 0.000000 0.000000 0.033243
#
#
# Mechanical properties :
#
#
# Convention : Reuss Voigt Hill
#
# Bulk Modulus (GPa) = 52.16300 54.14511 53.15406
# Shear Modulus (GPa) = 13.88351 29.48022 21.68186
#
# Velocity S-wave (km/s) = 2.70004 3.93446 3.37418
# Velocity P-wave (km/s) = 6.09188 7.00511 6.56439
#
# Compressibility (1/GPa) = 0.01917068
#
# Stress axis : x y z
#
# Youngs Moduli (GPa) = 15.26417 15.26417 129.49639
#
# Poissons Ratio (x) = 0.85827 0.23055
# Poissons Ratio (y) = 0.85827 0.23055
# Poissons Ratio (z) = 0.02718 0.02718
#
# Static dielectric constant tensor:
#      x y z
#    x 3.723410 0.000000 0.000000 
#    y 0.000000 3.723410 0.000000 
#    z 0.000000 0.000000 3.609330 
# 
# 
# High freq. dielectric constant tensor:
#      x y z
#    x 1.728620 0.000000 0.000000 
#    y 0.000000 1.728620 0.000000 
#    z 0.000000 0.000000 1.766890 
# 
# From -- ./inp_files/892.got.cif
#   From: 2010.03.12/outbox.cif.g09.slc.cpg/sg114_1_cif.got.tgz:892.got - 2010.04.14 02:08:34.
