data_PCOD8308432
_publ_section_title
;
Structure prediction by ZEFSAII (Michael W. Deem and Ramdas Pophale) SiO2 
 PCOD8308432
Probable space group: P -4 2 C
;
_chemical_formula_sum "Si O2"
_cell_formula_units_Z 34
_cell_length_a 7.692318
_cell_length_b 7.692318
_cell_length_c 27.595566
_cell_angle_alpha 90.000000
_cell_angle_beta 90.000000
_cell_angle_gamma 90.000000
_cell_volume 1632.878104
_symmetry_space_group_name_H-M "P -4 2 C"
_symmetry_group_IT_number 112
_symmetry_cell_setting 'tetragonal'
loop_
_space_group_symop_operation_xyz
x,y,z
y,-x,-z
-x,-y,z
-y,x,-z
x,-y,1/2-z
-x,y,1/2-z
-y,-x,1/2+z
y,x,1/2+z
loop_
_atom_site_type_symbol
_atom_site_label
_atom_site_fract_x
_atom_site_fract_y
_atom_site_fract_z
Si Si1 1.000000 0.290268 0.921449
Si Si2 0.698829 0.307914 0.353617
Si Si3 0.294316 0.193780 0.750000
Si Si4 0.692086 0.698829 0.853617
Si Si5 0.000000 0.000000 0.500000
O O1 0.830178 0.225963 0.891710
O O2 0.000000 0.500000 0.930908
O O3 0.169822 0.225963 0.891710
O O4 0.000001 0.180388 0.970448
O O5 0.715425 0.229106 0.299260
O O6 0.500000 0.332575 0.366065
O O7 0.790246 0.500000 0.358354
O O8 0.500000 0.201812 0.750000
O O9 0.229107 0.284575 0.799260
O O10 0.220736 0.000000 0.750000
#
# Coordination Sequence:
#
# PCOD8308432 Si02
#       5
#     8   8   8   8   2
#     4  10  24  43  61  87 113 144 195 241 293 354
#     4   9  18  35  58  83 117 156 189 228 277 334
#     4   9  17  28  49  86 123 156 191 223 265 326
#     4   9  18  35  58  83 117 156 189 228 277 334
#     4  12  28  44  64  86 108 144 188 252 312 346
#
# _framework density 20.822127999999999
#
# number of rings (size 3 to 8) (size 9 to 14) (size 15 to 20)
#    0.000    2.588    0.000    0.706    3.294    5.647 
#    0.000    4.706    0.000    0.000    0.000    0.000 
#    0.000    0.000    0.000    0.000    0.000    0.000 
#
# Total GULP energy -421211.667697 kJ/mol
# GULP energy per Si atom -12388.578462 kJ/mol
# Density = 2.077474 g / cm^3
# Si number density = 20.822128 Si / 1000 Ang^3
#
#
#
# Elastic Constant Matrix: (Units=GPa)
#
#
# Indices 1 2 3 4 5 6 
#
# 1 82.4606 32.8362 59.0483 0.0000 0.0000 0.0000
# 2 32.8362 82.4606 59.0483 0.0000 0.0000 0.0000
# 3 59.0483 59.0483 157.3016 0.0000 0.0000 0.0000
# 4 0.0000 0.0000 0.0000 40.3166 0.0000 0.0000
# 5 0.0000 0.0000 0.0000 0.0000 40.3166 0.0000
# 6 0.0000 0.0000 0.0000 0.0000 0.0000 10.8894
#
#
#
# Elastic Compliance Matrix: (Units=1/GPa)
#
#
# Indices 1 2 3 4 5 6 
#
# 1 0.017121 -0.003030 -0.005290 0.000000 0.000000 0.000000
# 2 -0.003030 0.017121 -0.005290 0.000000 0.000000 0.000000
# 3 -0.005290 -0.005290 0.010329 0.000000 0.000000 0.000000
# 4 0.000000 0.000000 0.000000 0.024804 0.000000 0.000000
# 5 0.000000 0.000000 0.000000 0.000000 0.024804 0.000000
# 6 0.000000 0.000000 0.000000 0.000000 0.000000 0.091832
#
#
# Mechanical properties :
#
#
# Convention : Reuss Voigt Hill
#
# Bulk Modulus (GPa) = 57.62814 69.34313 63.48564
# Shear Modulus (GPa) = 22.82964 29.72386 26.27675
#
# Velocity S-wave (km/s) = 3.31480 3.78234 3.55627
# Velocity P-wave (km/s) = 6.51053 7.24222 6.88610
#
# Compressibility (1/GPa) = 0.01735263
#
# Stress axis : x y z
#
# Youngs Moduli (GPa) = 58.40652 58.40652 96.81946
#
# Poissons Ratio (x) = 0.17697 0.51214
# Poissons Ratio (y) = 0.17697 0.51214
# Poissons Ratio (z) = 0.30895 0.30895
#
# Static dielectric constant tensor:
#      x y z
#    x 3.917060 0.000000 0.000000 
#    y 0.000000 3.917060 0.000000 
#    z 0.000000 0.000000 3.730060 
# 
# 
# High freq. dielectric constant tensor:
#      x y z
#    x 1.807630 0.000000 0.000000 
#    y 0.000000 1.807630 0.000000 
#    z 0.000000 0.000000 1.798510 
# 
# From -- ./inp_files/4674.got.cif
#   From: 2010.03.12/outbox.cif.g09.slc.cpg/sg112_3_cif.got.tgz:4674.got - 2010.04.14 02:02:48.
