data_PCOD8308812
_publ_section_title
;
Structure prediction by ZEFSAII (Michael W. Deem and Ramdas Pophale) SiO2 
 PCOD8308812
Probable space group: P -4 21 C
;
_chemical_formula_sum "Si O2"
_cell_formula_units_Z 48
_cell_length_a 12.487237
_cell_length_b 12.487237
_cell_length_c 17.056579
_cell_angle_alpha 90.000000
_cell_angle_beta 90.000000
_cell_angle_gamma 90.000000
_cell_volume 2659.650919
_symmetry_space_group_name_H-M "P -4 21 C"
_symmetry_group_IT_number 114
_symmetry_cell_setting 'tetragonal'
loop_
_space_group_symop_operation_xyz
x,y,z
y,-x,-z
-x,-y,z
-y,x,-z
1/2+x,1/2-y,1/2-z
1/2-x,1/2+y,1/2-z
1/2-y,1/2-x,1/2+z
1/2+y,1/2+x,1/2+z
loop_
_atom_site_type_symbol
_atom_site_label
_atom_site_fract_x
_atom_site_fract_y
_atom_site_fract_z
Si Si1 0.190605 0.683262 0.897841
Si Si2 0.642264 0.406437 0.014992
Si Si3 0.874876 0.681174 0.140556
Si Si4 0.301641 0.048100 0.361409
Si Si5 0.526228 0.887315 0.489122
Si Si6 0.618070 0.952059 0.738843
O O1 0.214356 0.797659 0.856269
O O2 0.181347 0.581154 0.839567
O O3 0.287285 0.665661 0.958128
O O4 0.080023 0.692011 0.947418
O O5 0.689197 0.409924 0.103790
O O6 0.525125 0.357269 0.021659
O O7 0.798203 0.578937 0.154298
O O8 0.929317 0.674432 0.053955
O O9 0.963470 0.687594 0.210009
O O10 0.394462 0.071861 0.422601
O O11 0.336572 0.107971 0.282228
O O12 0.500000 0.000000 0.533276
O O13 0.500000 0.000000 0.722767
#
# Coordination Sequence:
#
# PCOD8308812 Si02
#       6
#     8   8   8   8   8   8
#     4  11  19  30  55  80  95 138 180 206 256 312
#     4  10  19  30  47  76 108 132 165 213 260 307
#     4   9  17  33  51  72 103 133 163 215 260 298
#     4   8  15  32  50  68 101 138 158 205 266 294
#     4   8  16  30  52  75  99 126 172 220 253 290
#     4   9  19  33  51  76 106 133 172 215 253 300
#
# _framework density 18.047481000000001
#
# number of rings (size 3 to 8) (size 9 to 14) (size 15 to 20)
#    0.000    2.833    1.667    2.500    0.000    1.333 
#    0.000    0.000    7.333    0.500    0.000    0.000 
#    0.000    0.000    0.000    0.000    0.000    0.000 
#
# Total GULP energy -594707.599175 kJ/mol
# GULP energy per Si atom -12389.741649 kJ/mol
# Density = 1.800640 g / cm^3
# Si number density = 18.047481 Si / 1000 Ang^3
#
#
#
# Elastic Constant Matrix: (Units=GPa)
#
#
# Indices 1 2 3 4 5 6 
#
# 1 59.2252 22.5160 18.3890 0.0000 0.0000 0.0000
# 2 22.5160 59.2252 18.3890 0.0000 0.0000 0.0000
# 3 18.3890 18.3890 53.9088 0.0000 0.0000 0.0000
# 4 0.0000 0.0000 0.0000 19.0818 0.0000 0.0000
# 5 0.0000 0.0000 0.0000 0.0000 19.0818 0.0000
# 6 0.0000 0.0000 0.0000 0.0000 0.0000 28.6497
#
#
#
# Elastic Compliance Matrix: (Units=1/GPa)
#
#
# Indices 1 2 3 4 5 6 
#
# 1 0.020846 -0.006395 -0.004930 0.000000 0.000000 0.000000
# 2 -0.006395 0.020846 -0.004930 0.000000 0.000000 0.000000
# 3 -0.004930 -0.004930 0.021913 0.000000 0.000000 0.000000
# 4 0.000000 0.000000 0.000000 0.052406 0.000000 0.000000
# 5 0.000000 0.000000 0.000000 0.000000 0.052406 0.000000
# 6 0.000000 0.000000 0.000000 0.000000 0.000000 0.034904
#
#
# Mechanical properties :
#
#
# Convention : Reuss Voigt Hill
#
# Bulk Modulus (GPa) = 32.15662 32.32745 32.24203
# Shear Modulus (GPa) = 20.30901 20.90035 20.60468
#
# Velocity S-wave (km/s) = 3.35820 3.40674 3.38256
# Velocity P-wave (km/s) = 5.73526 5.78151 5.75843
#
# Compressibility (1/GPa) = 0.03109780
#
# Stress axis : x y z
#
# Youngs Moduli (GPa) = 47.96978 47.96978 45.63501
#
# Poissons Ratio (x) = 0.30675 0.22497
# Poissons Ratio (y) = 0.30675 0.22497
# Poissons Ratio (z) = 0.23648 0.23648
#
# Static dielectric constant tensor:
#      x y z
#    x 3.250890 0.000000 0.000000 
#    y 0.000000 3.250890 0.000000 
#    z 0.000000 0.000000 3.323890 
# 
# 
# High freq. dielectric constant tensor:
#      x y z
#    x 1.678640 0.000000 0.000000 
#    y 0.000000 1.678640 0.000000 
#    z 0.000000 0.000000 1.689420 
# 
# From -- ./inp_files/2604.got.cif
#   From: 2010.03.12/outbox.cif.g09.slc.cpg/sg114_2_cif.got.tgz:2604.got - 2010.04.14 02:08:34.
