data_PCOD8308395
_publ_section_title
;
Structure prediction by ZEFSAII (Michael W. Deem and Ramdas Pophale) SiO2 
 PCOD8308395
Probable space group: P -4 2 C
;
_chemical_formula_sum "Si O2"
_cell_formula_units_Z 58
_cell_length_a 17.057155
_cell_length_b 17.057155
_cell_length_c 8.968745
_cell_angle_alpha 90.000000
_cell_angle_beta 90.000000
_cell_angle_gamma 90.000000
_cell_volume 2609.425296
_symmetry_space_group_name_H-M "P -4 2 C"
_symmetry_group_IT_number 112
_symmetry_cell_setting 'tetragonal'
loop_
_space_group_symop_operation_xyz
x,y,z
y,-x,-z
-x,-y,z
-y,x,-z
x,-y,1/2-z
-x,y,1/2-z
-y,-x,1/2+z
y,x,1/2+z
loop_
_atom_site_type_symbol
_atom_site_label
_atom_site_fract_x
_atom_site_fract_y
_atom_site_fract_z
Si Si1 0.635771 0.855541 0.446636
Si Si2 0.010445 0.301796 0.580316
Si Si3 0.851553 0.199713 0.390276
Si Si4 0.000000 0.000000 0.500000
Si Si5 0.676334 0.818087 0.128663
Si Si6 0.159628 0.946785 0.600307
Si Si7 0.290412 0.427245 0.075094
Si Si8 0.391665 0.309239 0.906218
O O1 0.722238 0.853529 0.513521
O O2 0.627566 0.818384 0.281614
O O3 0.575205 0.803410 0.541481
O O4 0.624191 0.950273 0.446630
O O5 0.097598 0.331946 0.548584
O O6 0.995605 0.225617 0.474779
O O7 0.000000 0.271752 0.750000
O O8 0.764756 0.200392 0.317476
O O9 0.853520 0.128783 0.502860
O O10 0.920825 0.188672 0.265973
O O11 0.992187 0.923284 0.394222
O O12 0.641857 0.761074 0.004093
O O13 0.319589 0.515745 0.073221
O O14 0.298975 0.379284 0.229551
O O15 0.344218 0.386639 0.950874
#
# Coordination Sequence:
#
# PCOD8308395 Si02
#       8
#     8   8   8   2   8   8   8   8
#     4  11  21  39  65  95 124 173 221 281 330 392
#     4   9  22  40  60  88 125 168 228 287 337 395
#     4  11  22  38  59  89 117 168 228 283 329 396
#     4  12  28  38  52  78 128 186 224 294 368 414
#     4  10  21  40  67  92 131 171 227 276 334 395
#     4  11  25  38  55  81 125 175 228 291 345 408
#     4  11  26  43  72 102 147 168 220 259 321 407
#     4  11  25  46  68 109 135 181 210 265 325 393
#
# _framework density 22.227118000000001
#
# number of rings (size 3 to 8) (size 9 to 14) (size 15 to 20)
#    0.000    1.379    2.759    1.655    7.724    5.241 
#    0.000    2.069    0.000    4.138    0.000    0.000 
#    0.000    0.000    0.000    0.000    0.000    0.000 
#
# Total GULP energy -718733.722128 kJ/mol
# GULP energy per Si atom -12391.960726 kJ/mol
# Density = 2.217653 g / cm^3
# Si number density = 22.227118 Si / 1000 Ang^3
#
#
#
# Elastic Constant Matrix: (Units=GPa)
#
#
# Indices 1 2 3 4 5 6 
#
# 1 53.0958 37.6986 25.7624 0.0000 0.0000 0.0000
# 2 37.6986 53.0958 25.7624 0.0000 0.0000 0.0000
# 3 25.7624 25.7624 112.8357 0.0000 0.0000 0.0000
# 4 0.0000 0.0000 0.0000 28.4343 0.0000 0.0000
# 5 0.0000 0.0000 0.0000 0.0000 28.4343 0.0000
# 6 0.0000 0.0000 0.0000 0.0000 0.0000 7.0140
#
#
#
# Elastic Compliance Matrix: (Units=1/GPa)
#
#
# Indices 1 2 3 4 5 6 
#
# 1 0.038800 -0.026147 -0.002889 0.000000 0.000000 0.000000
# 2 -0.026147 0.038800 -0.002889 0.000000 0.000000 0.000000
# 3 -0.002889 -0.002889 0.010182 0.000000 0.000000 0.000000
# 4 0.000000 0.000000 0.000000 0.035169 0.000000 0.000000
# 5 0.000000 0.000000 0.000000 0.000000 0.035169 0.000000
# 6 0.000000 0.000000 0.000000 0.000000 0.000000 0.142571
#
#
# Mechanical properties :
#
#
# Convention : Reuss Voigt Hill
#
# Bulk Modulus (GPa) = 41.78428 44.16377 42.97402
# Shear Modulus (GPa) = 13.42219 21.43013 17.42616
#
# Velocity S-wave (km/s) = 2.46003 3.10843 2.80305
# Velocity P-wave (km/s) = 5.18735 5.72674 5.46371
#
# Compressibility (1/GPa) = 0.02393245
#
# Stress axis : x y z
#
# Youngs Moduli (GPa) = 25.77309 25.77309 98.21582
#
# Poissons Ratio (x) = 0.67388 0.28374
# Poissons Ratio (y) = 0.67388 0.28374
# Poissons Ratio (z) = 0.07446 0.07446
#
# Static dielectric constant tensor:
#      x y z
#    x 4.158800 0.000000 0.000000 
#    y 0.000000 4.158800 0.000000 
#    z 0.000000 0.000000 4.252150 
# 
# 
# High freq. dielectric constant tensor:
#      x y z
#    x 1.866760 0.000000 0.000000 
#    y 0.000000 1.866760 0.000000 
#    z 0.000000 0.000000 1.889210 
# 
# From -- ./inp_files/1543.got.cif
#   From: 2010.03.12/outbox.cif.g09.slc.cpg/sg112_1_cif.got.tgz:1543.got - 2010.04.14 02:02:48.
