data_PCOD8308449
_publ_section_title
;
Structure prediction by ZEFSAII (Michael W. Deem and Ramdas Pophale) SiO2 
 PCOD8308449
Probable space group: P -4 2 C
;
_chemical_formula_sum "Si O2"
_cell_formula_units_Z 16
_cell_length_a 8.080933
_cell_length_b 8.080933
_cell_length_c 8.328536
_cell_angle_alpha 90.000000
_cell_angle_beta 90.000000
_cell_angle_gamma 90.000000
_cell_volume 543.865712
_symmetry_space_group_name_H-M "P -4 2 C"
_symmetry_group_IT_number 112
_symmetry_cell_setting 'tetragonal'
loop_
_space_group_symop_operation_xyz
x,y,z
y,-x,-z
-x,-y,z
-y,x,-z
x,-y,1/2-z
-x,y,1/2-z
-y,-x,1/2+z
y,x,1/2+z
loop_
_atom_site_type_symbol
_atom_site_label
_atom_site_fract_x
_atom_site_fract_y
_atom_site_fract_z
Si Si1 0.500000 0.000000 0.250000
Si Si2 0.091884 0.741331 0.008236
Si Si3 0.500000 0.500000 0.500000
Si Si4 0.235254 0.500000 0.250000
O O1 0.615265 0.117441 0.359864
O O2 0.125649 0.647779 0.176018
O O3 0.899116 0.791820 0.013387
O O4 0.350171 0.571759 0.393201
#
# Coordination Sequence:
#
# PCOD8308449 Si02
#       4
#     2   8   2   4
#     4  12  32  52  88 130 184 240 300 374 492 544
#     4  11  31  59  94 136 184 245 315 392 469 559
#     4  10  28  54  92 142 188 258 312 374 484 578
#     4  11  28  57  92 135 195 246 314 392 470 558
#
# _framework density 29.419029999999999
#
# number of rings (size 3 to 8) (size 9 to 14) (size 15 to 20)
#    0.000    1.000    0.000    0.000   14.000    9.000 
#    0.000    5.000    0.000    0.000    0.000    0.000 
#    0.000    0.000    0.000    0.000    0.000    0.000 
#
# Total GULP energy -198445.767010 kJ/mol
# GULP energy per Si atom -12402.860438 kJ/mol
# Density = 2.935207 g / cm^3
# Si number density = 29.419030 Si / 1000 Ang^3
#
#
#
# Elastic Constant Matrix: (Units=GPa)
#
#
# Indices 1 2 3 4 5 6 
#
# 1 205.0979 108.1880 115.6491 0.0000 0.0000 0.0000
# 2 108.1880 205.0979 115.6491 0.0000 0.0000 0.0000
# 3 115.6491 115.6491 232.6526 0.0000 0.0000 0.0000
# 4 0.0000 0.0000 0.0000 54.9229 0.0000 0.0000
# 5 0.0000 0.0000 0.0000 0.0000 54.9229 0.0000
# 6 0.0000 0.0000 0.0000 0.0000 0.0000 16.0799
#
#
#
# Elastic Compliance Matrix: (Units=1/GPa)
#
#
# Indices 1 2 3 4 5 6 
#
# 1 0.007681 -0.002638 -0.002507 0.000000 0.000000 0.000000
# 2 -0.002638 0.007681 -0.002507 0.000000 0.000000 0.000000
# 3 -0.002507 -0.002507 0.006790 0.000000 0.000000 0.000000
# 4 0.000000 0.000000 0.000000 0.018207 0.000000 0.000000
# 5 0.000000 0.000000 0.000000 0.000000 0.018207 0.000000
# 6 0.000000 0.000000 0.000000 0.000000 0.000000 0.062190
#
#
# Mechanical properties :
#
#
# Convention : Reuss Voigt Hill
#
# Bulk Modulus (GPa) = 146.00671 146.86896 146.43784
# Shear Modulus (GPa) = 36.14238 45.40929 40.77584
#
# Velocity S-wave (km/s) = 3.50885 3.93305 3.72699
# Velocity P-wave (km/s) = 8.13350 8.40575 8.27075
#
# Compressibility (1/GPa) = 0.00684900
#
# Stress axis : x y z
#
# Youngs Moduli (GPa) = 130.19583 130.19583 147.26921
#
# Poissons Ratio (x) = 0.34347 0.36915
# Poissons Ratio (y) = 0.34347 0.36915
# Poissons Ratio (z) = 0.32635 0.32635
#
# Static dielectric constant tensor:
#      x y z
#    x 5.419880 0.000000 0.000000 
#    y 0.000000 5.419880 0.000000 
#    z 0.000000 0.000000 5.669670 
# 
# 
# High freq. dielectric constant tensor:
#      x y z
#    x 2.213760 0.000000 0.000000 
#    y 0.000000 2.213760 0.000000 
#    z 0.000000 0.000000 2.213960 
# 
# From -- ./inp_files/562.got.cif
#   From: 2010.03.12/outbox.cif.g09.slc.cpg/sg112_1_cif.got.tgz:562.got - 2010.04.14 02:02:48.
