data_PCOD8308440
_publ_section_title
;
Structure prediction by ZEFSAII (Michael W. Deem and Ramdas Pophale) SiO2 
 PCOD8308440
Probable space group: P -4 2 C
;
_chemical_formula_sum "Si O2"
_cell_formula_units_Z 38
_cell_length_a 8.868664
_cell_length_b 8.868664
_cell_length_c 24.061931
_cell_angle_alpha 90.000000
_cell_angle_beta 90.000000
_cell_angle_gamma 90.000000
_cell_volume 1892.547899
_symmetry_space_group_name_H-M "P -4 2 C"
_symmetry_group_IT_number 112
_symmetry_cell_setting 'tetragonal'
loop_
_space_group_symop_operation_xyz
x,y,z
y,-x,-z
-x,-y,z
-y,x,-z
x,-y,1/2-z
-x,y,1/2-z
-y,-x,1/2+z
y,x,1/2+z
loop_
_atom_site_type_symbol
_atom_site_label
_atom_site_fract_x
_atom_site_fract_y
_atom_site_fract_z
Si Si1 0.315109 0.347195 0.154881
Si Si2 0.164386 0.034532 0.685773
Si Si3 0.500000 0.500000 0.250000
Si Si4 0.500000 0.000000 0.519793
Si Si5 0.544206 0.162164 0.086779
Si Si6 0.651902 0.830505 0.888358
O O1 0.204928 0.211683 0.172058
O O2 0.399512 0.393083 0.211303
O O3 0.427409 0.287558 0.107494
O O4 0.235711 0.489361 0.126549
O O5 0.155931 0.000000 0.750000
O O6 0.295505 0.928648 0.663127
O O7 0.000000 0.000000 0.658806
O O8 0.546289 0.858421 0.480396
O O9 0.362794 0.939556 0.557935
O O10 0.709070 0.217540 0.102986
O O11 0.500000 0.000000 0.114553
#
# Coordination Sequence:
#
# PCOD8308440 Si02
#       6
#     8   8   2   4   8   8
#     4  12  23  44  69  99 136 176 228 282 340 414
#     4  11  25  43  69 100 137 176 223 281 345 412
#     4  12  24  40  72 106 136 180 228 280 362 396
#     4  10  26  40  69  97 132 180 228 276 348 384
#     4  10  25  43  65  96 136 173 227 276 342 397
#     4  12  22  46  68  99 134 176 230 279 337 417
#
# _framework density 20.078751
#
# number of rings (size 3 to 8) (size 9 to 14) (size 15 to 20)
#    0.632    0.211    4.211    2.526    2.947    0.842 
#    0.000    0.000    0.000    0.000    0.000    0.000 
#    0.000    0.000    0.000    0.000    0.000    0.000 
#
# Total GULP energy -471060.673373 kJ/mol
# GULP energy per Si atom -12396.333510 kJ/mol
# Density = 2.003305 g / cm^3
# Si number density = 20.078751 Si / 1000 Ang^3
#
#
#
# Elastic Constant Matrix: (Units=GPa)
#
#
# Indices 1 2 3 4 5 6 
#
# 1 122.1920 56.7213 48.5469 0.0000 0.0000 0.0000
# 2 56.7213 122.1920 48.5469 0.0000 0.0000 0.0000
# 3 48.5469 48.5469 107.1668 0.0000 0.0000 0.0000
# 4 0.0000 0.0000 0.0000 119.0028 0.0000 0.0000
# 5 0.0000 0.0000 0.0000 0.0000 119.0028 0.0000
# 6 0.0000 0.0000 0.0000 0.0000 0.0000 49.6021
#
#
#
# Elastic Compliance Matrix: (Units=1/GPa)
#
#
# Indices 1 2 3 4 5 6 
#
# 1 0.011343 -0.003931 -0.003357 0.000000 0.000000 0.000000
# 2 -0.003931 0.011343 -0.003357 0.000000 0.000000 0.000000
# 3 -0.003357 -0.003357 0.012373 0.000000 0.000000 0.000000
# 4 0.000000 0.000000 0.000000 0.008403 0.000000 0.000000
# 5 0.000000 0.000000 0.000000 0.000000 0.008403 0.000000
# 6 0.000000 0.000000 0.000000 0.000000 0.000000 0.020160
#
#
# Mechanical properties :
#
#
# Convention : Reuss Voigt Hill
#
# Bulk Modulus (GPa) = 72.64150 73.24235 72.94192
# Shear Modulus (GPa) = 51.06946 70.70394 60.88670
#
# Velocity S-wave (km/s) = 5.04874 5.94052 5.51269
# Velocity P-wave (km/s) = 8.38112 9.14384 8.77077
#
# Compressibility (1/GPa) = 0.01376624
#
# Stress axis : x y z
#
# Youngs Moduli (GPa) = 88.16286 88.16286 80.82109
#
# Poissons Ratio (x) = 0.34660 0.27134
# Poissons Ratio (y) = 0.34660 0.27134
# Poissons Ratio (z) = 0.29599 0.29599
#
# Static dielectric constant tensor:
#      x y z
#    x 3.794340 0.000000 0.000000 
#    y 0.000000 3.794340 0.000000 
#    z 0.000000 0.000000 3.611320 
# 
# 
# High freq. dielectric constant tensor:
#      x y z
#    x 1.791470 0.000000 0.000000 
#    y 0.000000 1.791470 0.000000 
#    z 0.000000 0.000000 1.782610 
# 
# From -- ./inp_files/5399.got.cif
#   From: 2010.03.12/outbox.cif.g09.slc.cpg/sg112_3_cif.got.tgz:5399.got - 2010.04.14 02:02:48.
