data_PCOD8308078
_publ_section_title
;
Structure prediction by ZEFSAII (Michael W. Deem and Ramdas Pophale) SiO2 
 PCOD8308078
Probable space group: I 41 C D
;
_chemical_formula_sum "Si O2"
_cell_formula_units_Z 88
_cell_length_a 13.165679
_cell_length_b 13.165679
_cell_length_c 22.892869
_cell_angle_alpha 90.000000
_cell_angle_beta 90.000000
_cell_angle_gamma 90.000000
_cell_volume 3968.137818
_symmetry_space_group_name_H-M "I 41 C D"
_symmetry_group_IT_number 110
_symmetry_cell_setting 'tetragonal'
loop_
_space_group_symop_operation_xyz
x,y,z
-y,1/2+x,1/4+z
-x,-y,z
y,1/2-x,1/4+z
-x,y,1/2+z
x,-y,1/2+z
1/2-y,-x,1/4+z
1/2+y,x,1/4+z
1/2+x,1/2+y,1/2+z
1/2-y,x,3/4+z
1/2-x,1/2-y,1/2+z
1/2+y,-x,3/4+z
1/2-x,1/2+y,z
1/2+x,1/2-y,z
-y,1/2-x,3/4+z
y,1/2+x,3/4+z
loop_
_atom_site_type_symbol
_atom_site_label
_atom_site_fract_x
_atom_site_fract_y
_atom_site_fract_z
Si Si1 0.500000 0.000000 0.842250
Si Si2 0.498385 0.746955 0.964740
Si Si3 0.139254 0.081726 0.004250
Si Si4 0.128232 0.412455 0.525885
Si Si5 0.579413 0.361187 0.681772
Si Si6 0.869288 0.078094 0.905995
O O1 0.501451 0.900144 0.801941
O O2 0.398968 0.997620 0.881774
O O3 0.426631 0.684791 0.009557
O O4 0.424258 0.816857 0.925991
O O5 0.558252 0.665638 0.927822
O O6 0.580961 0.818692 0.992617
O O7 0.121201 0.030407 0.939865
O O8 0.252196 0.109983 0.023357
O O9 0.115307 0.523056 0.494244
O O10 0.072502 0.405096 0.588652
O O11 0.610491 0.246451 0.668006
#
# Coordination Sequence:
#
# PCOD8308078 Si02
#       6
#     8  16  16  16  16  16
#     4  12  20  48  66  96 140 188 224 290 348 420
#     4  12  22  46  66 104 144 180 234 290 348 416
#     4  11  25  43  74 102 142 191 230 287 361 416
#     4  11  25  46  70 107 140 185 238 290 349 427
#     4  11  25  43  74 102 142 191 230 287 361 416
#     4  11  25  46  70 107 140 185 238 290 349 427
#
# _framework density 22.176649000000001
#
# number of rings (size 3 to 8) (size 9 to 14) (size 15 to 20)
#    0.000    0.727    3.636    3.273    0.000    2.909 
#    6.545    0.000    0.000    0.000    0.000    0.000 
#    0.000    0.000    0.000    0.000    0.000    0.000 
#
# Total GULP energy -545196.403554 kJ/mol
# GULP energy per Si atom -12390.827354 kJ/mol
# Density = 2.212617 g / cm^3
# Si number density = 22.176649 Si / 1000 Ang^3
#
#
#
# Elastic Constant Matrix: (Units=GPa)
#
#
# Indices 1 2 3 4 5 6 
#
# 1 103.0887 51.2222 19.8054 0.0000 0.0000 0.0000
# 2 51.2222 103.0887 19.8054 0.0000 0.0000 0.0000
# 3 19.8054 19.8054 95.6705 0.0000 0.0000 0.0000
# 4 0.0000 0.0000 0.0000 21.7342 0.0000 0.0000
# 5 0.0000 0.0000 0.0000 0.0000 21.7342 0.0000
# 6 0.0000 0.0000 0.0000 0.0000 0.0000 35.7279
#
#
#
# Elastic Compliance Matrix: (Units=1/GPa)
#
#
# Indices 1 2 3 4 5 6 
#
# 1 0.013062 -0.006218 -0.001417 0.000000 0.000000 0.000000
# 2 -0.006218 0.013062 -0.001417 0.000000 0.000000 0.000000
# 3 -0.001417 -0.001417 0.011039 0.000000 0.000000 0.000000
# 4 0.000000 0.000000 0.000000 0.046010 0.000000 0.000000
# 5 0.000000 0.000000 0.000000 0.000000 0.046010 0.000000
# 6 0.000000 0.000000 0.000000 0.000000 0.000000 0.027989
#
#
# Mechanical properties :
#
#
# Convention : Reuss Voigt Hill
#
# Bulk Modulus (GPa) = 52.46587 53.72378 53.09482
# Shear Modulus (GPa) = 27.52839 29.90691 28.71765
#
# Velocity S-wave (km/s) = 3.52706 3.67628 3.60245
# Velocity P-wave (km/s) = 6.34795 6.50369 6.42629
#
# Compressibility (1/GPa) = 0.01906001
#
# Stress axis : x y z
#
# Youngs Moduli (GPa) = 76.55673 76.55673 90.58653
#
# Poissons Ratio (x) = 0.47604 0.12835
# Poissons Ratio (y) = 0.47604 0.12835
# Poissons Ratio (z) = 0.10847 0.10847
#
# Static dielectric constant tensor:
#      x y z
#    x 4.170810 0.000000 0.000000 
#    y 0.000000 4.170810 0.000000 
#    z 0.000000 0.000000 4.156100 
# 
# 
# High freq. dielectric constant tensor:
#      x y z
#    x 1.884850 0.000000 0.000000 
#    y 0.000000 1.884850 0.000000 
#    z 0.000000 0.000000 1.865400 
# 
# From -- ./inp_files/2138.got.cif
#   From: 2010.03.12/outbox.cif.g09.slc.cpg/sg110_2_cif.got.tgz:2138.got - 2010.04.14 01:58:01.
