data_PCOD8308885
_publ_section_title
;
Structure prediction by ZEFSAII (Michael W. Deem and Ramdas Pophale) SiO2 
 PCOD8308885
Probable space group: P -4 21 C
;
_chemical_formula_sum "Si O2"
_cell_formula_units_Z 24
_cell_length_a 9.126886
_cell_length_b 9.126886
_cell_length_c 15.081919
_cell_angle_alpha 90.000000
_cell_angle_beta 90.000000
_cell_angle_gamma 90.000000
_cell_volume 1256.324577
_symmetry_space_group_name_H-M "P -4 21 C"
_symmetry_group_IT_number 114
_symmetry_cell_setting 'tetragonal'
loop_
_space_group_symop_operation_xyz
x,y,z
y,-x,-z
-x,-y,z
-y,x,-z
1/2+x,1/2-y,1/2-z
1/2-x,1/2+y,1/2-z
1/2-y,1/2-x,1/2+z
1/2+y,1/2+x,1/2+z
loop_
_atom_site_type_symbol
_atom_site_label
_atom_site_fract_x
_atom_site_fract_y
_atom_site_fract_z
Si Si1 0.815944 0.849500 0.510494
Si Si2 0.821151 0.345562 0.663418
Si Si3 0.662011 0.179742 0.814869
O O1 0.698248 0.794606 0.438681
O O2 0.776604 0.774574 0.603431
O O3 0.976356 0.804093 0.475947
O O4 0.718155 0.246549 0.723724
O O5 0.779414 0.514896 0.674873
O O6 0.987657 0.313811 0.689692
#
# Coordination Sequence:
#
# PCOD8308885 Si02
#       3
#     8   8   8
#     4   9  18  34  54  75 104 142 180 219 264 313
#     4  10  21  36  55  80 109 141 177 218 264 314
#     4  10  21  36  55  80 109 141 177 218 264 314
#
# _framework density 19.103344
#
# number of rings (size 3 to 8) (size 9 to 14) (size 15 to 20)
#    0.000    2.333    0.000    2.000    0.000    6.667 
#    0.000    6.667    0.000    0.000    0.000    0.000 
#    0.000    0.000    0.000    0.000    0.000    0.000 
#
# Total GULP energy -297715.224028 kJ/mol
# GULP energy per Si atom -12404.801001 kJ/mol
# Density = 1.905986 g / cm^3
# Si number density = 19.103344 Si / 1000 Ang^3
#
#
#
# Elastic Constant Matrix: (Units=GPa)
#
#
# Indices 1 2 3 4 5 6 
#
# 1 54.4611 6.3471 11.3682 0.0000 0.0000 0.0000
# 2 6.3471 54.4611 11.3682 0.0000 0.0000 0.0000
# 3 11.3682 11.3682 47.6776 0.0000 0.0000 0.0000
# 4 0.0000 0.0000 0.0000 38.0754 0.0000 0.0000
# 5 0.0000 0.0000 0.0000 0.0000 38.0754 0.0000
# 6 0.0000 0.0000 0.0000 0.0000 0.0000 25.1282
#
#
#
# Elastic Compliance Matrix: (Units=1/GPa)
#
#
# Indices 1 2 3 4 5 6 
#
# 1 0.019419 -0.001365 -0.004305 0.000000 0.000000 0.000000
# 2 -0.001365 0.019419 -0.004305 0.000000 0.000000 0.000000
# 3 -0.004305 -0.004305 0.023027 0.000000 0.000000 0.000000
# 4 0.000000 0.000000 0.000000 0.026264 0.000000 0.000000
# 5 0.000000 0.000000 0.000000 0.000000 0.026264 0.000000
# 6 0.000000 0.000000 0.000000 0.000000 0.000000 0.039796
#
#
# Mechanical properties :
#
#
# Convention : Reuss Voigt Hill
#
# Bulk Modulus (GPa) = 23.85677 23.86300 23.85988
# Shear Modulus (GPa) = 26.58011 28.75687 27.66849
#
# Velocity S-wave (km/s) = 3.73417 3.88407 3.80986
# Velocity P-wave (km/s) = 5.57741 5.71256 5.64539
#
# Compressibility (1/GPa) = 0.04191683
#
# Stress axis : x y z
#
# Youngs Moduli (GPa) = 51.49498 51.49498 43.42699
#
# Poissons Ratio (x) = 0.07027 0.18695
# Poissons Ratio (y) = 0.07027 0.18695
# Poissons Ratio (z) = 0.22168 0.22168
#
# Static dielectric constant tensor:
#      x y z
#    x 3.485420 0.000000 0.000000 
#    y 0.000000 3.485420 0.000000 
#    z 0.000000 0.000000 3.433720 
# 
# 
# High freq. dielectric constant tensor:
#      x y z
#    x 1.739460 0.000000 0.000000 
#    y 0.000000 1.739460 0.000000 
#    z 0.000000 0.000000 1.749270 
# 
# From -- ./inp_files/1237.got.cif
#   From: 2010.03.12/outbox.cif.g09.slc.cpg/sg114_1_cif.got.tgz:1237.got - 2010.04.14 02:08:34.
