data_PCOD8308437
_publ_section_title
;
Structure prediction by ZEFSAII (Michael W. Deem and Ramdas Pophale) SiO2 
 PCOD8308437
Probable space group: P -4 2 C
;
_chemical_formula_sum "Si O2"
_cell_formula_units_Z 30
_cell_length_a 10.540394
_cell_length_b 10.540394
_cell_length_c 11.485793
_cell_angle_alpha 90.000000
_cell_angle_beta 90.000000
_cell_angle_gamma 90.000000
_cell_volume 1276.070519
_symmetry_space_group_name_H-M "P -4 2 C"
_symmetry_group_IT_number 112
_symmetry_cell_setting 'tetragonal'
loop_
_space_group_symop_operation_xyz
x,y,z
y,-x,-z
-x,-y,z
-y,x,-z
x,-y,1/2-z
-x,y,1/2-z
-y,-x,1/2+z
y,x,1/2+z
loop_
_atom_site_type_symbol
_atom_site_label
_atom_site_fract_x
_atom_site_fract_y
_atom_site_fract_z
Si Si1 0.000000 0.000000 0.500000
Si Si2 0.500000 0.710447 0.750000
Si Si3 0.123803 0.422006 0.453199
Si Si4 0.628976 0.773542 0.200563
Si Si5 0.881847 0.835347 0.327246
O O1 0.118884 0.059493 0.429034
O O2 0.509892 0.792950 0.631753
O O3 0.373132 0.626776 0.757642
O O4 0.208002 0.373677 0.561710
O O5 0.085578 0.302454 0.375994
O O6 0.000000 0.500000 0.494151
O O7 0.500000 0.835771 0.250000
O O8 0.750276 0.843566 0.256868
O O9 0.000000 0.876226 0.250000
#
# Coordination Sequence:
#
# PCOD8308437 Si02
#       5
#     2   4   8   8   8
#     4  12  26  44  76  98 152 200 254 304 382 456
#     4  10  24  46  72 106 147 200 239 304 387 458
#     4  11  24  43  76 104 149 190 250 311 383 455
#     4  11  26  45  72 110 149 190 255 310 380 448
#     4  11  25  47  72 107 147 199 255 307 384 459
#
# _framework density 23.509674
#
# number of rings (size 3 to 8) (size 9 to 14) (size 15 to 20)
#    0.000    1.067    0.000    6.000   11.200    0.533 
#    0.000    0.000    0.000    0.000    0.000    0.000 
#    0.000    0.000    0.000    0.000    0.000    0.000 
#
# Total GULP energy -371973.303515 kJ/mol
# GULP energy per Si atom -12399.110117 kJ/mol
# Density = 2.345616 g / cm^3
# Si number density = 23.509674 Si / 1000 Ang^3
#
#
#
# Elastic Constant Matrix: (Units=GPa)
#
#
# Indices 1 2 3 4 5 6 
#
# 1 116.9684 32.9759 52.7845 0.0000 0.0000 0.0000
# 2 32.9759 116.9684 52.7845 0.0000 0.0000 0.0000
# 3 52.7845 52.7845 146.9894 0.0000 0.0000 0.0000
# 4 0.0000 0.0000 0.0000 41.9053 0.0000 0.0000
# 5 0.0000 0.0000 0.0000 0.0000 41.9053 0.0000
# 6 0.0000 0.0000 0.0000 0.0000 0.0000 11.7705
#
#
#
# Elastic Compliance Matrix: (Units=1/GPa)
#
#
# Indices 1 2 3 4 5 6 
#
# 1 0.010416 -0.001490 -0.003205 0.000000 0.000000 0.000000
# 2 -0.001490 0.010416 -0.003205 0.000000 0.000000 0.000000
# 3 -0.003205 -0.003205 0.009105 0.000000 0.000000 0.000000
# 4 0.000000 0.000000 0.000000 0.023863 0.000000 0.000000
# 5 0.000000 0.000000 0.000000 0.000000 0.023863 0.000000
# 6 0.000000 0.000000 0.000000 0.000000 0.000000 0.084958
#
#
# Mechanical properties :
#
#
# Convention : Reuss Voigt Hill
#
# Bulk Modulus (GPa) = 70.74256 73.11287 71.92771
# Shear Modulus (GPa) = 27.30226 35.27499 31.28862
#
# Velocity S-wave (km/s) = 3.41151 3.87776 3.65208
# Velocity P-wave (km/s) = 6.75826 7.15653 6.96024
#
# Compressibility (1/GPa) = 0.01413576
#
# Stress axis : x y z
#
# Youngs Moduli (GPa) = 96.00762 96.00762 109.82633
#
# Poissons Ratio (x) = 0.14305 0.35203
# Poissons Ratio (y) = 0.14305 0.35203
# Poissons Ratio (z) = 0.30773 0.30773
#
# Static dielectric constant tensor:
#      x y z
#    x 4.135840 0.000000 0.000000 
#    y 0.000000 4.135840 0.000000 
#    z 0.000000 0.000000 4.381270 
# 
# 
# High freq. dielectric constant tensor:
#      x y z
#    x 1.933050 0.000000 0.000000 
#    y 0.000000 1.933050 0.000000 
#    z 0.000000 0.000000 1.942010 
# 
# From -- ./inp_files/2165.got.cif
#   From: 2010.03.12/outbox.cif.g09.slc.cpg/sg112_2_cif.got.tgz:2165.got - 2010.04.14 02:02:48.
