data_PCOD8308424
_publ_section_title
;
Structure prediction by ZEFSAII (Michael W. Deem and Ramdas Pophale) SiO2 
 PCOD8308424
Probable space group: P -4 2 C
;
_chemical_formula_sum "Si O2"
_cell_formula_units_Z 40
_cell_length_a 11.578569
_cell_length_b 11.578569
_cell_length_c 14.533343
_cell_angle_alpha 90.000000
_cell_angle_beta 90.000000
_cell_angle_gamma 90.000000
_cell_volume 1948.387343
_symmetry_space_group_name_H-M "P -4 2 C"
_symmetry_group_IT_number 112
_symmetry_cell_setting 'tetragonal'
loop_
_space_group_symop_operation_xyz
x,y,z
y,-x,-z
-x,-y,z
-y,x,-z
x,-y,1/2-z
-x,y,1/2-z
-y,-x,1/2+z
y,x,1/2+z
loop_
_atom_site_type_symbol
_atom_site_label
_atom_site_fract_x
_atom_site_fract_y
_atom_site_fract_z
Si Si1 0.520647 0.135866 0.141312
Si Si2 0.890847 0.143490 0.977887
Si Si3 0.740097 0.246994 0.622257
Si Si4 0.126109 0.866988 0.772491
Si Si5 0.551411 0.680102 0.995485
O O1 0.500000 0.163115 0.250000
O O2 0.650879 0.166689 0.115160
O O3 0.444183 0.219419 0.074472
O O4 0.500000 0.000000 0.119949
O O5 0.838052 0.152279 0.877009
O O6 0.842930 0.245737 0.038921
O O7 0.028191 0.148513 0.969155
O O8 0.764728 0.185893 0.718858
O O9 0.606958 0.283161 0.604128
O O10 0.000000 0.809270 0.750000
O O11 0.115349 0.000000 0.750000
O O12 0.634479 0.575695 0.030010
#
# Coordination Sequence:
#
# PCOD8308424 Si02
#       5
#     8   8   8   8   8
#     4  10  24  39  64 100 123 153 211 278 328 371
#     4  11  20  33  53  84 126 173 203 250 326 390
#     4  11  23  36  62  89 120 174 205 261 328 371
#     4  11  20  33  52  88 130 164 207 251 313 410
#     4   9  21  45  65  85 125 168 218 260 312 380
#
# _framework density 20.529798
#
# number of rings (size 3 to 8) (size 9 to 14) (size 15 to 20)
#    0.000    1.600    4.000    1.200    8.400    0.000 
#    0.000    8.000    0.000    0.000    0.000    4.200 
#    0.000    0.000    0.000    0.000    0.000    0.000 
#
# Total GULP energy -495570.222109 kJ/mol
# GULP energy per Si atom -12389.255553 kJ/mol
# Density = 2.048307 g / cm^3
# Si number density = 20.529798 Si / 1000 Ang^3
#
#
#
# Elastic Constant Matrix: (Units=GPa)
#
#
# Indices 1 2 3 4 5 6 
#
# 1 81.1824 39.3798 39.6144 0.0000 0.0000 0.0000
# 2 39.3798 81.1824 39.6144 0.0000 0.0000 0.0000
# 3 39.6144 39.6144 143.0805 0.0000 0.0000 0.0000
# 4 0.0000 0.0000 0.0000 17.3530 0.0000 0.0000
# 5 0.0000 0.0000 0.0000 0.0000 17.3530 0.0000
# 6 0.0000 0.0000 0.0000 0.0000 0.0000 22.2254
#
#
#
# Elastic Compliance Matrix: (Units=1/GPa)
#
#
# Indices 1 2 3 4 5 6 
#
# 1 0.017031 -0.006891 -0.002807 0.000000 0.000000 0.000000
# 2 -0.006891 0.017031 -0.002807 0.000000 0.000000 0.000000
# 3 -0.002807 -0.002807 0.008544 0.000000 0.000000 0.000000
# 4 0.000000 0.000000 0.000000 0.057627 0.000000 0.000000
# 5 0.000000 0.000000 0.000000 0.000000 0.057627 0.000000
# 6 0.000000 0.000000 0.000000 0.000000 0.000000 0.044994
#
#
# Mechanical properties :
#
#
# Convention : Reuss Voigt Hill
#
# Bulk Modulus (GPa) = 56.84036 60.29586 58.56811
# Shear Modulus (GPa) = 21.39234 23.84204 22.61719
#
# Velocity S-wave (km/s) = 3.23153 3.41154 3.32275
# Velocity P-wave (km/s) = 6.45527 6.70461 6.58112
#
# Compressibility (1/GPa) = 0.01759313
#
# Stress axis : x y z
#
# Youngs Moduli (GPa) = 58.71775 58.71775 117.04742
#
# Poissons Ratio (x) = 0.40464 0.32858
# Poissons Ratio (y) = 0.40464 0.32858
# Poissons Ratio (z) = 0.16484 0.16484
#
# Static dielectric constant tensor:
#      x y z
#    x 3.792450 0.000000 0.000000 
#    y 0.000000 3.792450 0.000000 
#    z 0.000000 0.000000 3.833410 
# 
# 
# High freq. dielectric constant tensor:
#      x y z
#    x 1.796890 0.000000 0.000000 
#    y 0.000000 1.796890 0.000000 
#    z 0.000000 0.000000 1.799190 
# 
# From -- ./inp_files/3283.got.cif
#   From: 2010.03.12/outbox.cif.g09.slc.cpg/sg112_2_cif.got.tgz:3283.got - 2010.04.14 02:02:48.
