data_PCOD8308047
_publ_section_title
;
Structure prediction by ZEFSAII (Michael W. Deem and Ramdas Pophale) SiO2 
 PCOD8308047
Probable space group: I 41 C D
;
_chemical_formula_sum "Si O2"
_cell_formula_units_Z 48
_cell_length_a 18.620974
_cell_length_b 18.620974
_cell_length_c 5.151697
_cell_angle_alpha 90.000000
_cell_angle_beta 90.000000
_cell_angle_gamma 90.000000
_cell_volume 1786.302883
_symmetry_space_group_name_H-M "I 41 C D"
_symmetry_group_IT_number 110
_symmetry_cell_setting 'tetragonal'
loop_
_space_group_symop_operation_xyz
x,y,z
-y,1/2+x,1/4+z
-x,-y,z
y,1/2-x,1/4+z
-x,y,1/2+z
x,-y,1/2+z
1/2-y,-x,1/4+z
1/2+y,x,1/4+z
1/2+x,1/2+y,1/2+z
1/2-y,x,3/4+z
1/2-x,1/2-y,1/2+z
1/2+y,-x,3/4+z
1/2-x,1/2+y,z
1/2+x,1/2-y,z
-y,1/2-x,3/4+z
y,1/2+x,3/4+z
loop_
_atom_site_type_symbol
_atom_site_label
_atom_site_fract_x
_atom_site_fract_y
_atom_site_fract_z
Si Si1 0.668076 0.034764 0.126110
Si Si2 0.672909 0.827091 0.946125
Si Si3 0.831924 0.965236 0.516140
O O1 0.661503 0.117366 0.211297
O O2 0.750000 0.010605 0.071124
O O3 0.631482 0.982831 0.346850
O O4 0.662099 0.750000 0.821125
O O5 0.617366 0.838498 0.180953
O O6 0.868518 0.017169 0.295400
#
# Coordination Sequence:
#
# PCOD8308047 Si02
#       3
#    16  16  16
#     4  10  22  41  62  88 129 176 211 249 322 406
#     4  12  24  38  66 103 132 158 214 287 328 360
#     4  10  22  41  62  88 129 176 211 249 322 406
#
# _framework density 26.871141000000001
#
# number of rings (size 3 to 8) (size 9 to 14) (size 15 to 20)
#    0.000    1.333    0.000    8.000    0.000    8.000 
#    0.000    0.000    0.000    6.000    0.000    0.000 
#    0.000    0.000    0.000    0.000    0.000    0.000 
#
# Total GULP energy -297430.224278 kJ/mol
# GULP energy per Si atom -12392.926012 kJ/mol
# Density = 2.680998 g / cm^3
# Si number density = 26.871141 Si / 1000 Ang^3
#
#
#
# Elastic Constant Matrix: (Units=GPa)
#
#
# Indices 1 2 3 4 5 6 
#
# 1 156.9135 -2.6262 61.1675 0.0000 0.0000 0.0000
# 2 -2.6262 156.9135 61.1675 0.0000 0.0000 0.0000
# 3 61.1675 61.1675 239.3588 0.0000 0.0000 0.0000
# 4 0.0000 0.0000 0.0000 38.3614 0.0000 0.0000
# 5 0.0000 0.0000 0.0000 0.0000 38.3614 0.0000
# 6 0.0000 0.0000 0.0000 0.0000 0.0000 -6.1410
#
#
#
# Elastic Compliance Matrix: (Units=1/GPa)
#
#
# Indices 1 2 3 4 5 6 
#
# 1 0.007198 0.000930 -0.002077 0.000000 0.000000 0.000000
# 2 0.000930 0.007198 -0.002077 0.000000 0.000000 0.000000
# 3 -0.002077 -0.002077 0.005239 0.000000 0.000000 0.000000
# 4 0.000000 0.000000 0.000000 0.026068 0.000000 0.000000
# 5 0.000000 0.000000 0.000000 0.000000 0.026068 0.000000
# 6 0.000000 0.000000 0.000000 0.000000 0.000000 -0.162839
#
#
# Mechanical properties :
#
#
# Convention : Reuss Voigt Hill
#
# Bulk Modulus (GPa) = 75.82913 88.06705 81.94809
# Shear Modulus (GPa) = -62.32616 43.01481 -9.65567
#
# Velocity S-wave (km/s) = -4.82129 4.00532 -1.89766
# Velocity P-wave (km/s) = 1.64690 7.36445 5.07557
#
# Compressibility (1/GPa) = 0.01318754
#
# Stress axis : x y z
#
# Youngs Moduli (GPa) = 138.92296 138.92296 190.85883
#
# Poissons Ratio (x) = -0.12923 0.39645
# Poissons Ratio (y) = -0.12923 0.39645
# Poissons Ratio (z) = 0.28857 0.28857
#
# Static dielectric constant tensor:
#      x y z
#    x 4.549580 0.000000 0.000000 
#    y 0.000000 4.549580 0.000000 
#    z 0.000000 0.000000 6.257310 
# 
# 
# High freq. dielectric constant tensor:
#      x y z
#    x 2.050930 0.000000 0.000000 
#    y 0.000000 2.050930 0.000000 
#    z 0.000000 0.000000 2.121200 
# 
# From -- ./inp_files/55.got.cif
#   From: 2010.03.12/outbox.cif.g09.slc.cpg/sg110_1_cif.got.tgz:55.got - 2010.04.14 01:58:01.
