data_PCOD8308775
_publ_section_title
;
Structure prediction by ZEFSAII (Michael W. Deem and Ramdas Pophale) SiO2 
 PCOD8308775
Probable space group: P -4 21 M 
;
_chemical_formula_sum "Si O2"
_cell_formula_units_Z 52
_cell_length_a 16.881624
_cell_length_b 16.881624
_cell_length_c 8.652494
_cell_angle_alpha 90.000000
_cell_angle_beta 90.000000
_cell_angle_gamma 90.000000
_cell_volume 2465.867593
_symmetry_space_group_name_H-M "P -4 21 M "
_symmetry_group_IT_number 113
_symmetry_cell_setting 'tetragonal'
loop_
_space_group_symop_operation_xyz
x,y,z
y,-x,-z
-x,-y,z
-y,x,-z
1/2+x,1/2-y,-z
1/2-x,1/2+y,-z
1/2-y,1/2-x,z
1/2+y,1/2+x,z
loop_
_atom_site_type_symbol
_atom_site_label
_atom_site_fract_x
_atom_site_fract_y
_atom_site_fract_z
Si Si1 0.180516 0.444811 0.665574
Si Si2 0.532077 0.332029 0.128894
Si Si3 0.885568 0.385568 0.643150
Si Si4 0.351523 0.357969 0.122030
Si Si5 0.846073 0.900131 0.664265
Si Si6 0.197208 0.924548 0.581927
Si Si7 0.183436 0.683436 0.319281
Si Si8 0.814999 0.314999 0.968382
O O1 0.125638 0.374363 0.729449
O O2 0.248595 0.465289 0.785542
O O3 0.127353 0.521436 0.640788
O O4 0.218879 0.418012 0.503500
O O5 0.445478 0.367843 0.146248
O O6 0.598852 0.395221 0.184455
O O7 0.561303 0.317708 0.954761
O O8 0.853425 0.353425 0.477392
O O9 0.851337 0.351337 0.808532
O O10 0.306372 0.357853 0.285551
O O11 0.331399 0.278552 0.029681
O O12 0.906158 0.877246 0.527434
O O13 0.776833 0.834011 0.671413
O O14 0.810816 0.986714 0.645958
O O15 0.154754 0.654754 0.141760
#
# Coordination Sequence:
#
# PCOD8308775 Si02
#       8
#     8   8   4   8   8   8   4   4
#     4  11  25  44  69 102 136 177 239 292 354 416
#     4  11  25  42  66  99 135 185 221 289 348 419
#     4  12  23  48  78  96 142 186 231 294 361 414
#     4  12  25  42  66 100 139 177 236 284 357 414
#     4  11  23  41  62  93 134 174 226 282 342 404
#     4  11  24  39  65  97 131 179 228 282 339 424
#     4  12  24  45  71 101 134 181 235 293 334 419
#     4  12  26  45  73 105 132 187 236 288 343 429
#
# _framework density 21.087911999999999
#
# number of rings (size 3 to 8) (size 9 to 14) (size 15 to 20)
#    0.000    0.615    4.615    3.923    6.462    3.692 
#    0.000    0.000    0.000    0.923    0.000    0.000 
#    0.000    0.000    0.000    0.000    0.000    0.000 
#
# Total GULP energy -644347.128598 kJ/mol
# GULP energy per Si atom -12391.290935 kJ/mol
# Density = 2.103991 g / cm^3
# Si number density = 21.087912 Si / 1000 Ang^3
#
#
#
# Elastic Constant Matrix: (Units=GPa)
#
#
# Indices 1 2 3 4 5 6 
#
# 1 56.3656 53.4654 28.9448 0.0000 0.0000 0.0000
# 2 53.4654 56.3715 28.9482 0.0000 0.0000 0.0000
# 3 28.9448 28.9482 106.1984 0.0000 0.0000 0.0000
# 4 0.0000 0.0000 0.0000 22.9095 0.0000 0.0000
# 5 0.0000 0.0000 0.0000 0.0000 22.9098 0.0000
# 6 0.0000 0.0000 0.0000 0.0000 0.0000 33.2532
#
#
#
# Elastic Compliance Matrix: (Units=1/GPa)
#
#
# Indices 1 2 3 4 5 6 
#
# 1 0.177546 -0.166907 -0.002895 0.000000 0.000000 0.000000
# 2 -0.166907 0.177532 -0.002902 0.000000 0.000000 0.000000
# 3 -0.002895 -0.002902 0.010996 0.000000 0.000000 0.000000
# 4 0.000000 0.000000 0.000000 0.043650 0.000000 0.000000
# 5 0.000000 0.000000 0.000000 0.000000 0.043649 0.000000
# 6 0.000000 0.000000 0.000000 0.000000 0.000000 0.030072
#
#
# Mechanical properties :
#
#
# Convention : Reuss Voigt Hill
#
# Bulk Modulus (GPa) = 48.38288 49.07249 48.72768
# Shear Modulus (GPa) = 5.98272 22.98630 14.48451
#
# Velocity S-wave (km/s) = 1.68618 3.30513 2.62365
# Velocity P-wave (km/s) = 5.17534 6.15517 5.68640
#
# Compressibility (1/GPa) = 0.02066847
#
# Stress axis : x y z
#
# Youngs Moduli (GPa) = 5.63233 5.63280 90.94079
#
# Poissons Ratio (x) = 0.94015 0.26323
# Poissons Ratio (y) = 0.94007 0.26387
# Poissons Ratio (z) = 0.01630 0.01634
#
# Static dielectric constant tensor:
#      x y z
#    x 3.703900 0.000000 0.000000 
#    y 0.000000 3.703900 0.000000 
#    z 0.000000 0.000000 4.342930 
# 
# 
# High freq. dielectric constant tensor:
#      x y z
#    x 1.820800 0.000000 0.000000 
#    y 0.000000 1.820800 0.000000 
#    z 0.000000 0.000000 1.847040 
# 
# From -- ./inp_files/1293.got.cif
#   From: 2010.03.12/outbox.cif.g09.slc.cpg/sg113_cif.got.tgz:1293.got - 2010.04.14 02:06:34.
