data_PCOD8308514
_publ_section_title
;
Structure prediction by ZEFSAII (Michael W. Deem and Ramdas Pophale) SiO2 
 PCOD8308514
Probable space group: P -4 2 C
;
_chemical_formula_sum "Si O2"
_cell_formula_units_Z 20
_cell_length_a 5.304858
_cell_length_b 5.304858
_cell_length_c 27.287773
_cell_angle_alpha 90.000000
_cell_angle_beta 90.000000
_cell_angle_gamma 90.000000
_cell_volume 767.919366
_symmetry_space_group_name_H-M "P -4 2 C"
_symmetry_group_IT_number 112
_symmetry_cell_setting 'tetragonal'
loop_
_space_group_symop_operation_xyz
x,y,z
y,-x,-z
-x,-y,z
-y,x,-z
x,-y,1/2-z
-x,y,1/2-z
-y,-x,1/2+z
y,x,1/2+z
loop_
_atom_site_type_symbol
_atom_site_label
_atom_site_fract_x
_atom_site_fract_y
_atom_site_fract_z
Si Si1 0.500000 0.500000 0.500000
Si Si2 0.000000 0.500000 0.250000
Si Si3 0.760080 0.148795 0.567083
Si Si4 0.345384 0.752972 0.173049
O O1 0.727502 0.400991 0.534622
O O2 0.839832 0.308889 0.217345
O O3 0.824686 0.204119 0.623392
O O4 0.500000 0.000000 0.562890
O O5 0.000000 0.000000 0.545570
O O6 0.500000 0.500000 0.161969
O O7 0.500000 0.000000 0.189466
#
# Coordination Sequence:
#
# PCOD8308514 Si02
#       4
#     2   2   8   8
#     4  12  32  52  84 122 164 216 288 360 416 526
#     4  12  30  54  80 128 164 226 278 358 436 506
#     4  12  29  54  85 122 169 223 280 356 438 518
#     4  12  28  54  83 119 168 219 282 349 427 520
#
# _framework density 26.044405000000001
#
# number of rings (size 3 to 8) (size 9 to 14) (size 15 to 20)
#    0.000    0.000    4.000    3.000    5.600    4.800 
#    0.000    0.000    0.000    0.000    0.000    0.000 
#    0.000    0.000    0.000    0.000    0.000    0.000 
#
# Total GULP energy -248098.516840 kJ/mol
# GULP energy per Si atom -12404.925842 kJ/mol
# Density = 2.598513 g / cm^3
# Si number density = 26.044405 Si / 1000 Ang^3
#
#
#
# Elastic Constant Matrix: (Units=GPa)
#
#
# Indices 1 2 3 4 5 6 
#
# 1 170.6343 82.0510 55.9247 0.0000 0.0000 0.0000
# 2 82.0510 170.6343 55.9247 0.0000 0.0000 0.0000
# 3 55.9247 55.9247 187.1911 0.0000 0.0000 0.0000
# 4 0.0000 0.0000 0.0000 27.7538 0.0000 0.0000
# 5 0.0000 0.0000 0.0000 0.0000 27.7538 0.0000
# 6 0.0000 0.0000 0.0000 0.0000 0.0000 50.8530
#
#
#
# Elastic Compliance Matrix: (Units=1/GPa)
#
#
# Indices 1 2 3 4 5 6 
#
# 1 0.007925 -0.003364 -0.001363 0.000000 0.000000 0.000000
# 2 -0.003364 0.007925 -0.001363 0.000000 0.000000 0.000000
# 3 -0.001363 -0.001363 0.006156 0.000000 0.000000 0.000000
# 4 0.000000 0.000000 0.000000 0.036031 0.000000 0.000000
# 5 0.000000 0.000000 0.000000 0.000000 0.036031 0.000000
# 6 0.000000 0.000000 0.000000 0.000000 0.000000 0.019665
#
#
# Mechanical properties :
#
#
# Convention : Reuss Voigt Hill
#
# Bulk Modulus (GPa) = 101.75626 101.80671 101.78149
# Shear Modulus (GPa) = 38.70377 43.57609 41.13993
#
# Velocity S-wave (km/s) = 3.85914 4.09485 3.97874
# Velocity P-wave (km/s) = 7.68195 7.84421 7.76350
#
# Compressibility (1/GPa) = 0.00982741
#
# Stress axis : x y z
#
# Youngs Moduli (GPa) = 126.18773 126.18773 162.43643
#
# Poissons Ratio (x) = 0.42451 0.22132
# Poissons Ratio (y) = 0.42451 0.22132
# Poissons Ratio (z) = 0.17193 0.17193
#
# Static dielectric constant tensor:
#      x y z
#    x 4.720610 0.000000 0.000000 
#    y 0.000000 4.720610 0.000000 
#    z 0.000000 0.000000 5.039900 
# 
# 
# High freq. dielectric constant tensor:
#      x y z
#    x 2.050540 0.000000 0.000000 
#    y 0.000000 2.050540 0.000000 
#    z 0.000000 0.000000 2.070800 
# 
# From -- ./inp_files/5649.got.cif
#   From: 2010.03.12/outbox.cif.g09.slc.cpg/sg112_3_cif.got.tgz:5649.got - 2010.04.14 02:02:48.
