data_PCOD8308293
_publ_section_title
;
Structure prediction by ZEFSAII (Michael W. Deem and Ramdas Pophale) SiO2 
 PCOD8308293
Probable space group: P -4 2 M 
;
_chemical_formula_sum "Si O2"
_cell_formula_units_Z 56
_cell_length_a 14.704258
_cell_length_b 14.704258
_cell_length_c 17.803138
_cell_angle_alpha 90.000000
_cell_angle_beta 90.000000
_cell_angle_gamma 90.000000
_cell_volume 3849.309103
_symmetry_space_group_name_H-M "P -4 2 M "
_symmetry_group_IT_number 111
_symmetry_cell_setting 'tetragonal'
loop_
_space_group_symop_operation_xyz
x,y,z
y,-x,-z
-x,-y,z
-y,x,-z
x,-y,-z
-x,y,-z
-y,-x,z
y,x,z
loop_
_atom_site_type_symbol
_atom_site_label
_atom_site_fract_x
_atom_site_fract_y
_atom_site_fract_z
Si Si1 0.743486 0.893793 0.836865
Si Si2 0.604050 0.751095 0.414170
Si Si3 0.102673 0.752729 0.000000
Si Si4 0.106205 0.743488 0.836865
Si Si5 0.395950 0.751096 0.414171
Si Si6 0.104359 0.395631 0.709157
Si Si7 0.604370 0.104360 0.709158
O O1 0.833410 0.833410 0.822304
O O2 0.701324 0.875150 0.921121
O O3 0.665229 0.864436 0.779293
O O4 0.769675 0.999999 0.826639
O O5 0.664765 0.664765 0.391832
O O6 0.499999 0.721748 0.400878
O O7 0.620707 0.781022 0.499999
O O8 0.631396 0.836706 0.363220
O O9 0.151951 0.848050 0.000003
O O10 0.124850 0.701327 0.921120
O O11 0.000000 0.782786 0.000000
O O12 0.166587 0.833414 0.822303
O O13 0.135563 0.665231 0.779294
O O14 0.335233 0.664768 0.391833
O O15 0.368605 0.836708 0.363222
O O16 0.120005 0.500000 0.732663
O O17 1.000000 0.377436 0.687298
#
# Coordination Sequence:
#
# PCOD8308293 Si02
#       7
#     8   8   8   8   8   8   8
#     4   9  16  26  40  57  78 102 127 157 191 226
#     4   9  17  28  42  60  80 101 125 154 189 228
#     4   8  14  23  35  53  75  99 126 154 187 225
#     4   9  16  26  40  57  78 102 127 157 191 226
#     4   9  17  28  42  60  80 101 125 154 189 228
#     4   9  17  28  41  57  77 102 131 159 187 220
#     4   9  17  28  41  57  77 102 131 159 187 220
#
# _framework density 14.548066
#
# number of rings (size 3 to 8) (size 9 to 14) (size 15 to 20)
#    0.000    3.143    0.000    0.857    0.000    1.286 
#    0.000    7.857    0.000    4.286    0.000    0.000 
#    0.000    0.000    0.000   26.571    0.000   86.571 
#
# Total GULP energy -693866.235079 kJ/mol
# GULP energy per Si atom -12390.468484 kJ/mol
# Density = 1.451495 g / cm^3
# Si number density = 14.548066 Si / 1000 Ang^3
#
#
#
# Elastic Constant Matrix: (Units=GPa)
#
#
# Indices 1 2 3 4 5 6 
#
# 1 67.0219 46.8012 62.7128 0.0000 0.0000 0.0000
# 2 46.8012 67.0214 62.7119 0.0000 0.0000 0.0000
# 3 62.7128 62.7119 120.3228 0.0000 0.0000 0.0000
# 4 0.0000 0.0000 0.0000 23.5130 0.0000 0.0000
# 5 0.0000 0.0000 0.0000 0.0000 23.5133 0.0000
# 6 0.0000 0.0000 0.0000 0.0000 0.0000 21.0022
#
#
#
# Elastic Compliance Matrix: (Units=1/GPa)
#
#
# Indices 1 2 3 4 5 6 
#
# 1 0.035047 -0.014408 -0.010757 0.000000 0.000000 0.000000
# 2 -0.014408 0.035047 -0.010757 0.000000 0.000000 0.000000
# 3 -0.010757 -0.010757 0.019524 0.000000 0.000000 0.000000
# 4 0.000000 0.000000 0.000000 0.042530 0.000000 0.000000
# 5 0.000000 0.000000 0.000000 0.000000 0.042529 0.000000
# 6 0.000000 0.000000 0.000000 0.000000 0.000000 0.047614
#
#
# Mechanical properties :
#
#
# Convention : Reuss Voigt Hill
#
# Bulk Modulus (GPa) = 56.26195 66.53533 61.39864
# Shear Modulus (GPa) = 16.66333 19.08173 17.87253
#
# Velocity S-wave (km/s) = 3.38804 3.62558 3.50882
# Velocity P-wave (km/s) = 7.35270 7.95993 7.66234
#
# Compressibility (1/GPa) = 0.01777400
#
# Stress axis : x y z
#
# Youngs Moduli (GPa) = 28.53285 28.53326 51.21828
#
# Poissons Ratio (x) = 0.41110 0.55098
# Poissons Ratio (y) = 0.41110 0.55095
# Poissons Ratio (z) = 0.30694 0.30693
#
# Static dielectric constant tensor:
#      x y z
#    x 2.748700 0.000000 0.000000 
#    y 0.000000 2.748700 0.000000 
#    z 0.000000 0.000000 3.141340 
# 
# 
# High freq. dielectric constant tensor:
#      x y z
#    x 1.542510 0.000000 0.000000 
#    y 0.000000 1.542510 0.000000 
#    z 0.000000 0.000000 1.568280 
# 
# From -- ./inp_files/3337.got.cif
#   From: 2010.03.12/outbox.cif.g09.slc.cpg/sg111_2_cif.got.tgz:3337.got - 2010.04.14 01:59:48.
