data_PCOD8308061
_publ_section_title
;
Structure prediction by ZEFSAII (Michael W. Deem and Ramdas Pophale) SiO2 
 PCOD8308061
Probable space group: I 41 C D
;
_chemical_formula_sum "Si O2"
_cell_formula_units_Z 112
_cell_length_a 14.278452
_cell_length_b 14.278452
_cell_length_c 24.949231
_cell_angle_alpha 90.000000
_cell_angle_beta 90.000000
_cell_angle_gamma 90.000000
_cell_volume 5086.504299
_symmetry_space_group_name_H-M "I 41 C D"
_symmetry_group_IT_number 110
_symmetry_cell_setting 'tetragonal'
loop_
_space_group_symop_operation_xyz
x,y,z
-y,1/2+x,1/4+z
-x,-y,z
y,1/2-x,1/4+z
-x,y,1/2+z
x,-y,1/2+z
1/2-y,-x,1/4+z
1/2+y,x,1/4+z
1/2+x,1/2+y,1/2+z
1/2-y,x,3/4+z
1/2-x,1/2-y,1/2+z
1/2+y,-x,3/4+z
1/2-x,1/2+y,z
1/2+x,1/2-y,z
-y,1/2-x,3/4+z
y,1/2+x,3/4+z
loop_
_atom_site_type_symbol
_atom_site_label
_atom_site_fract_x
_atom_site_fract_y
_atom_site_fract_z
Si Si1 0.146168 0.629291 0.944730
Si Si2 0.181031 0.116696 0.803694
Si Si3 0.393353 0.026100 0.050246
Si Si4 0.415179 0.066991 0.170922
Si Si5 0.240980 0.968074 0.196028
Si Si6 0.241825 0.786124 0.135880
Si Si7 0.471057 0.247549 0.137028
O O1 0.214742 0.718239 0.931903
O O2 0.171140 0.538705 0.908511
O O3 0.038098 0.655773 0.931678
O O4 0.151300 0.598354 0.007204
O O5 0.221683 0.098994 0.745664
O O6 0.239319 0.199344 0.832569
O O7 0.075374 0.155412 0.798368
O O8 0.191601 0.019442 0.837487
O O9 0.378737 0.070038 0.109140
O O10 0.500000 0.000000 0.035780
O O11 0.452054 0.171252 0.184374
O O12 0.500000 0.000000 0.181009
O O13 0.330515 0.033881 0.208563
O O14 0.265565 0.894437 0.149490
O O15 0.131794 0.784997 0.122452
#
# Coordination Sequence:
#
# PCOD8308061 Si02
#       7
#    16  16  16  16  16  16  16
#     4  11  24  40  66 104 130 170 235 285 335 416
#     4  11  23  41  66  99 130 181 235 273 340 429
#     4  11  19  39  70  91 122 178 227 269 334 411
#     4  11  20  41  68  91 130 180 223 274 348 406
#     4  12  23  42  69  98 135 182 231 285 339 418
#     4  11  25  43  65 100 138 180 222 290 351 406
#     4  11  22  41  64  95 140 172 219 288 342 412
#
# _framework density 22.019051000000001
#
# number of rings (size 3 to 8) (size 9 to 14) (size 15 to 20)
#    0.000    0.857    7.143    1.714    0.000    2.286 
#    2.571    0.000    6.286    0.000    0.000    0.000 
#    0.000    0.000    0.000    0.000    0.000    0.000 
#
# Total GULP energy -693961.520713 kJ/mol
# GULP energy per Si atom -12392.170013 kJ/mol
# Density = 2.196894 g / cm^3
# Si number density = 22.019051 Si / 1000 Ang^3
#
#
#
# Elastic Constant Matrix: (Units=GPa)
#
#
# Indices 1 2 3 4 5 6 
#
# 1 114.2856 31.0954 29.2014 0.0000 0.0000 0.0000
# 2 31.0954 114.2856 29.2014 0.0000 0.0000 0.0000
# 3 29.2014 29.2014 54.3345 0.0000 0.0000 0.0000
# 4 0.0000 0.0000 0.0000 15.8918 0.0000 0.0000
# 5 0.0000 0.0000 0.0000 0.0000 15.8918 0.0000
# 6 0.0000 0.0000 0.0000 0.0000 0.0000 32.1242
#
#
#
# Elastic Compliance Matrix: (Units=1/GPa)
#
#
# Indices 1 2 3 4 5 6 
#
# 1 0.010397 -0.001624 -0.004715 0.000000 0.000000 0.000000
# 2 -0.001624 0.010397 -0.004715 0.000000 0.000000 0.000000
# 3 -0.004715 -0.004715 0.023472 0.000000 0.000000 0.000000
# 4 0.000000 0.000000 0.000000 0.062925 0.000000 0.000000
# 5 0.000000 0.000000 0.000000 0.000000 0.062925 0.000000
# 6 0.000000 0.000000 0.000000 0.000000 0.000000 0.031129
#
#
# Mechanical properties :
#
#
# Convention : Reuss Voigt Hill
#
# Bulk Modulus (GPa) = 45.12945 51.32248 48.22597
# Shear Modulus (GPa) = 21.66956 25.67539 23.67247
#
# Velocity S-wave (km/s) = 3.14048 3.41846 3.28241
# Velocity P-wave (km/s) = 5.80434 6.24019 6.02620
#
# Compressibility (1/GPa) = 0.02215848
#
# Stress axis : x y z
#
# Youngs Moduli (GPa) = 96.18571 96.18571 42.60365
#
# Poissons Ratio (x) = 0.15621 0.20086
# Poissons Ratio (y) = 0.15621 0.20086
# Poissons Ratio (z) = 0.45348 0.45348
#
# Static dielectric constant tensor:
#      x y z
#    x 4.096970 0.000000 0.000000 
#    y 0.000000 4.096970 0.000000 
#    z 0.000000 0.000000 3.663130 
# 
# 
# High freq. dielectric constant tensor:
#      x y z
#    x 1.875110 0.000000 0.000000 
#    y 0.000000 1.875110 0.000000 
#    z 0.000000 0.000000 1.830660 
# 
# From -- ./inp_files/2985.got.cif
#   From: 2010.03.12/outbox.cif.g09.slc.cpg/sg110_2_cif.got.tgz:2985.got - 2010.04.14 01:58:01.
