data_PCOD8308709
_publ_section_title
;
Structure prediction by ZEFSAII (Michael W. Deem and Ramdas Pophale) SiO2 
 PCOD8308709
Probable space group: P -4 21 M 
;
_chemical_formula_sum "Si O2"
_cell_formula_units_Z 48
_cell_length_a 11.690272
_cell_length_b 11.690272
_cell_length_c 17.918295
_cell_angle_alpha 90.000000
_cell_angle_beta 90.000000
_cell_angle_gamma 90.000000
_cell_volume 2448.758264
_symmetry_space_group_name_H-M "P -4 21 M "
_symmetry_group_IT_number 113
_symmetry_cell_setting 'tetragonal'
loop_
_space_group_symop_operation_xyz
x,y,z
y,-x,-z
-x,-y,z
-y,x,-z
1/2+x,1/2-y,-z
1/2-x,1/2+y,-z
1/2-y,1/2-x,z
1/2+y,1/2+x,z
loop_
_atom_site_type_symbol
_atom_site_label
_atom_site_fract_x
_atom_site_fract_y
_atom_site_fract_z
Si Si1 0.505540 0.820724 0.606452
Si Si2 0.914289 0.099002 0.835552
Si Si3 0.315572 0.003634 0.900785
Si Si4 0.496687 0.815168 0.072068
Si Si5 0.654492 0.343105 0.677182
Si Si6 0.045644 0.827588 0.522560
O O1 0.601824 0.898177 0.647737
O O2 0.468948 0.713134 0.656997
O O3 0.555709 0.786874 0.525801
O O4 0.391466 0.891466 0.590344
O O5 0.789147 0.045940 0.852376
O O6 0.921144 0.135531 0.749154
O O7 0.961169 0.207532 0.880637
O O8 0.000000 0.000000 0.855163
O O9 0.418289 0.918289 0.887169
O O10 0.368370 0.131631 0.880575
O O11 0.275118 0.001401 0.986401
O O12 0.369220 0.869220 0.090691
O O13 0.585091 0.914910 0.087732
O O14 0.748717 0.248717 0.696919
O O15 0.696270 0.420631 0.608095
O O16 0.916133 0.870700 0.518610
#
# Coordination Sequence:
#
# PCOD8308709 Si02
#       6
#     8   8   8   8   8   8
#     4   9  18  33  55  82 109 141 186 236 282 335
#     4  12  26  36  58  88 128 158 195 238 297 357
#     4   9  20  40  65  89 114 152 201 250 298 348
#     4   9  20  41  65  86 113 155 204 249 295 349
#     4  10  21  37  56  80 109 152 189 226 282 343
#     4   9  18  32  58  78 106 140 181 233 285 325
#
# _framework density 19.601770999999999
#
# number of rings (size 3 to 8) (size 9 to 14) (size 15 to 20)
#    0.000    2.333    0.000    3.000    7.000    2.000 
#    0.000    2.500    0.000    3.000    0.000    0.000 
#    0.000    0.000    0.000    0.000    0.000    0.000 
#
# Total GULP energy -594668.647269 kJ/mol
# GULP energy per Si atom -12388.930151 kJ/mol
# Density = 1.955716 g / cm^3
# Si number density = 19.601771 Si / 1000 Ang^3
#
#
#
# Elastic Constant Matrix: (Units=GPa)
#
#
# Indices 1 2 3 4 5 6 
#
# 1 58.9544 13.3354 27.6040 0.0000 0.0000 0.0000
# 2 13.3354 58.9539 27.6038 0.0000 0.0000 0.0000
# 3 27.6040 27.6038 86.6301 0.0000 0.0000 0.0000
# 4 0.0000 0.0000 0.0000 26.0437 0.0000 0.0000
# 5 0.0000 0.0000 0.0000 0.0000 26.0466 0.0000
# 6 0.0000 0.0000 0.0000 0.0000 0.0000 21.2966
#
#
#
# Elastic Compliance Matrix: (Units=1/GPa)
#
#
# Indices 1 2 3 4 5 6 
#
# 1 0.020101 -0.001819 -0.005825 0.000000 0.000000 0.000000
# 2 -0.001819 0.020102 -0.005825 0.000000 0.000000 0.000000
# 3 -0.005825 -0.005825 0.015256 0.000000 0.000000 0.000000
# 4 0.000000 0.000000 0.000000 0.038397 0.000000 0.000000
# 5 0.000000 0.000000 0.000000 0.000000 0.038393 0.000000
# 6 0.000000 0.000000 0.000000 0.000000 0.000000 0.046956
#
#
# Mechanical properties :
#
#
# Convention : Reuss Voigt Hill
#
# Bulk Modulus (GPa) = 35.06516 37.95830 36.51173
# Shear Modulus (GPa) = 23.18563 23.74373 23.46468
#
# Velocity S-wave (km/s) = 3.44297 3.48416 3.46362
# Velocity P-wave (km/s) = 5.80801 5.96595 5.88751
#
# Compressibility (1/GPa) = 0.02851834
#
# Stress axis : x y z
#
# Youngs Moduli (GPa) = 49.74779 49.74734 65.54897
#
# Poissons Ratio (x) = 0.09051 0.38185
# Poissons Ratio (y) = 0.09051 0.38185
# Poissons Ratio (z) = 0.28980 0.28980
#
# Static dielectric constant tensor:
#      x y z
#    x 3.392950 0.000000 0.000000 
#    y 0.000000 3.392910 0.000000 
#    z 0.000000 0.000000 3.567480 
# 
# 
# High freq. dielectric constant tensor:
#      x y z
#    x 1.764230 0.000000 0.000000 
#    y 0.000000 1.764230 0.000000 
#    z 0.000000 0.000000 1.750310 
# 
# From -- ./inp_files/2449.got.cif
#   From: 2010.03.12/outbox.cif.g09.slc.cpg/sg113_cif.got.tgz:2449.got - 2010.04.14 02:06:34.
