data_PCOD8308347
_publ_section_title
;
Structure prediction by ZEFSAII (Michael W. Deem and Ramdas Pophale) SiO2 
 PCOD8308347
Probable space group: P -4 2 C
;
_chemical_formula_sum "Si O2"
_cell_formula_units_Z 48
_cell_length_a 13.912364
_cell_length_b 13.912364
_cell_length_c 14.747101
_cell_angle_alpha 90.000000
_cell_angle_beta 90.000000
_cell_angle_gamma 90.000000
_cell_volume 2854.358500
_symmetry_space_group_name_H-M "P -4 2 C"
_symmetry_group_IT_number 112
_symmetry_cell_setting 'tetragonal'
loop_
_space_group_symop_operation_xyz
x,y,z
y,-x,-z
-x,-y,z
-y,x,-z
x,-y,1/2-z
-x,y,1/2-z
-y,-x,1/2+z
y,x,1/2+z
loop_
_atom_site_type_symbol
_atom_site_label
_atom_site_fract_x
_atom_site_fract_y
_atom_site_fract_z
Si Si1 0.891557 0.777614 0.427092
Si Si2 0.388760 0.391599 0.501612
Si Si3 0.612257 0.229434 0.643656
Si Si4 0.895562 0.887003 0.755757
Si Si5 0.778420 0.118228 0.917777
Si Si6 0.389847 0.766262 0.854219
O O1 0.861543 0.670231 0.397024
O O2 0.856227 0.849549 0.349759
O O3 0.833328 0.813431 0.512999
O O4 0.006018 0.783589 0.444353
O O5 0.372272 0.502076 0.529251
O O6 0.323192 0.361405 0.415974
O O7 0.365062 0.331767 0.592335
O O8 0.638878 0.248568 0.748854
O O9 0.500458 0.203808 0.635573
O O10 0.828715 0.852755 0.675334
O O11 0.000000 0.837241 0.750000
O O12 0.907074 0.000000 0.750000
O O13 0.667800 0.147728 0.903483
#
# Coordination Sequence:
#
# PCOD8308347 Si02
#       6
#     8   8   8   8   8   8
#     4  11  21  34  52  75 102 136 176 216 257 302
#     4   9  18  34  56  80 105 132 166 212 261 308
#     4  10  20  34  54  80 107 135 169 209 258 315
#     4   9  18  32  49  71  98 129 169 215 257 296
#     4  11  21  34  52  75 102 136 176 216 257 302
#     4  10  20  34  54  80 107 135 169 209 258 315
#
# _framework density 16.816389000000001
#
# number of rings (size 3 to 8) (size 9 to 14) (size 15 to 20)
#    0.000    2.000    3.333    1.000    0.000    3.000 
#    0.000    5.000    0.000    0.000    0.000    0.000 
#    0.000   10.667    0.000    0.000    0.000    0.000 
#
# Total GULP energy -595021.339224 kJ/mol
# GULP energy per Si atom -12396.277900 kJ/mol
# Density = 1.677811 g / cm^3
# Si number density = 16.816389 Si / 1000 Ang^3
#
#
#
# Elastic Constant Matrix: (Units=GPa)
#
#
# Indices 1 2 3 4 5 6 
#
# 1 79.2112 38.0179 33.0327 0.0000 0.0000 0.0000
# 2 38.0179 79.2112 33.0327 0.0000 0.0000 0.0000
# 3 33.0327 33.0327 71.3045 0.0000 0.0000 0.0000
# 4 0.0000 0.0000 0.0000 26.8806 0.0000 0.0000
# 5 0.0000 0.0000 0.0000 0.0000 26.8806 0.0000
# 6 0.0000 0.0000 0.0000 0.0000 0.0000 22.7997
#
#
#
# Elastic Compliance Matrix: (Units=1/GPa)
#
#
# Indices 1 2 3 4 5 6 
#
# 1 0.017910 -0.006366 -0.005348 0.000000 0.000000 0.000000
# 2 -0.006366 0.017910 -0.005348 0.000000 0.000000 0.000000
# 3 -0.005348 -0.005348 0.018979 0.000000 0.000000 0.000000
# 4 0.000000 0.000000 0.000000 0.037202 0.000000 0.000000
# 5 0.000000 0.000000 0.000000 0.000000 0.037202 0.000000
# 6 0.000000 0.000000 0.000000 0.000000 0.000000 0.043860
#
#
# Mechanical properties :
#
#
# Convention : Reuss Voigt Hill
#
# Bulk Modulus (GPa) = 48.36561 48.65482 48.51021
# Shear Modulus (GPa) = 23.35594 23.68842 23.52218
#
# Velocity S-wave (km/s) = 3.73081 3.75727 3.74406
# Velocity P-wave (km/s) = 6.88346 6.91510 6.89930
#
# Compressibility (1/GPa) = 0.02067585
#
# Stress axis : x y z
#
# Youngs Moduli (GPa) = 55.83469 55.83469 52.68868
#
# Poissons Ratio (x) = 0.35543 0.28178
# Poissons Ratio (y) = 0.35543 0.28178
# Poissons Ratio (z) = 0.29860 0.29860
#
# Static dielectric constant tensor:
#      x y z
#    x 3.183680 0.000000 0.000000 
#    y 0.000000 3.183680 0.000000 
#    z 0.000000 0.000000 3.398840 
# 
# 
# High freq. dielectric constant tensor:
#      x y z
#    x 1.642770 0.000000 0.000000 
#    y 0.000000 1.642770 0.000000 
#    z 0.000000 0.000000 1.657190 
# 
# From -- ./inp_files/2579.got.cif
#   From: 2010.03.12/outbox.cif.g09.slc.cpg/sg112_2_cif.got.tgz:2579.got - 2010.04.14 02:02:48.
