data_PCOD8308591
_publ_section_title
;
Structure prediction by ZEFSAII (Michael W. Deem and Ramdas Pophale) SiO2 
 PCOD8308591
Probable space group: P -4 21 M 
;
_chemical_formula_sum "Si O2"
_cell_formula_units_Z 32
_cell_length_a 14.427631
_cell_length_b 14.427631
_cell_length_c 7.374467
_cell_angle_alpha 90.000000
_cell_angle_beta 90.000000
_cell_angle_gamma 90.000000
_cell_volume 1535.043508
_symmetry_space_group_name_H-M "P -4 21 M "
_symmetry_group_IT_number 113
_symmetry_cell_setting 'tetragonal'
loop_
_space_group_symop_operation_xyz
x,y,z
y,-x,-z
-x,-y,z
-y,x,-z
1/2+x,1/2-y,-z
1/2-x,1/2+y,-z
1/2-y,1/2-x,z
1/2+y,1/2+x,z
loop_
_atom_site_type_symbol
_atom_site_label
_atom_site_fract_x
_atom_site_fract_y
_atom_site_fract_z
Si Si1 0.889393 0.914074 0.551605
Si Si2 0.503316 0.849483 0.901202
Si Si3 0.905637 0.742624 0.781663
Si Si4 0.047173 0.695720 0.498915
O O1 0.896274 0.852323 0.735716
O O2 0.790130 0.894838 0.455603
O O3 0.973871 0.891126 0.412075
O O4 0.594296 0.905705 0.970633
O O5 0.525182 0.798854 0.713923
O O6 0.420418 0.920418 0.867627
O O7 0.472862 0.771444 0.045816
O O8 0.805071 0.694930 0.812658
O O9 0.952503 0.690595 0.611197
O O10 0.106528 0.606528 0.552148
#
# Coordination Sequence:
#
# PCOD8308591 Si02
#       4
#     8   8   8   8
#     4   9  19  36  54  72 101 141 184 224 258 299
#     4   9  18  32  52  83 116 140 172 219 272 335
#     4  10  19  33  55  81 110 143 176 218 273 325
#     4  10  19  33  55  81 110 143 176 218 273 325
#
# _framework density 20.846315000000001
#
# number of rings (size 3 to 8) (size 9 to 14) (size 15 to 20)
#    0.000    2.500    0.000    2.250    0.000    2.500 
#    0.000   12.500    0.000   15.000    0.000    0.000 
#    0.000    0.000    0.000    0.000    0.000    0.000 
#
# Total GULP energy -396448.493906 kJ/mol
# GULP energy per Si atom -12389.015435 kJ/mol
# Density = 2.079887 g / cm^3
# Si number density = 20.846315 Si / 1000 Ang^3
#
#
#
# Elastic Constant Matrix: (Units=GPa)
#
#
# Indices 1 2 3 4 5 6 
#
# 1 66.0369 21.8781 26.1305 0.0000 0.0000 0.0000
# 2 21.8781 66.0406 26.1304 0.0000 0.0000 0.0000
# 3 26.1305 26.1304 60.8505 0.0000 0.0000 0.0000
# 4 0.0000 0.0000 0.0000 20.3861 0.0000 0.0000
# 5 0.0000 0.0000 0.0000 0.0000 20.3859 0.0000
# 6 0.0000 0.0000 0.0000 0.0000 0.0000 23.1526
#
#
#
# Elastic Compliance Matrix: (Units=1/GPa)
#
#
# Indices 1 2 3 4 5 6 
#
# 1 0.018959 -0.003686 -0.006559 0.000000 0.000000 0.000000
# 2 -0.003686 0.018958 -0.006558 0.000000 0.000000 0.000000
# 3 -0.006559 -0.006558 0.022066 0.000000 0.000000 0.000000
# 4 0.000000 0.000000 0.000000 0.049053 0.000000 0.000000
# 5 0.000000 0.000000 0.000000 0.000000 0.049053 0.000000
# 6 0.000000 0.000000 0.000000 0.000000 0.000000 0.043192
#
#
# Mechanical properties :
#
#
# Convention : Reuss Voigt Hill
#
# Bulk Modulus (GPa) = 37.90991 37.91177 37.91084
# Shear Modulus (GPa) = 20.51864 20.70419 20.61142
#
# Velocity S-wave (km/s) = 3.14073 3.15490 3.14782
# Velocity P-wave (km/s) = 5.60153 5.61222 5.60688
#
# Compressibility (1/GPa) = 0.02637832
#
# Stress axis : x y z
#
# Youngs Moduli (GPa) = 52.74407 52.74779 45.31764
#
# Poissons Ratio (x) = 0.19442 0.29723
# Poissons Ratio (y) = 0.19440 0.29720
# Poissons Ratio (z) = 0.34594 0.34593
#
# Static dielectric constant tensor:
#      x y z
#    x 3.911820 0.000000 0.000000 
#    y 0.000000 3.911820 0.000000 
#    z 0.000000 0.000000 3.457080 
# 
# 
# High freq. dielectric constant tensor:
#      x y z
#    x 1.820490 0.000000 0.000000 
#    y 0.000000 1.820490 0.000000 
#    z 0.000000 0.000000 1.775860 
# 
# From -- ./inp_files/845.got.cif
#   From: 2010.03.12/outbox.cif.g09.slc.cpg/sg113_cif.got.tgz:845.got - 2010.04.14 02:06:34.
