data_PCOD8308145
_publ_section_title
;
Structure prediction by ZEFSAII (Michael W. Deem and Ramdas Pophale) SiO2 
 PCOD8308145
Probable space group: P -4 2 M 
;
_chemical_formula_sum "Si O2"
_cell_formula_units_Z 48
_cell_length_a 12.272886
_cell_length_b 12.272886
_cell_length_c 19.153127
_cell_angle_alpha 90.000000
_cell_angle_beta 90.000000
_cell_angle_gamma 90.000000
_cell_volume 2884.915445
_symmetry_space_group_name_H-M "P -4 2 M "
_symmetry_group_IT_number 111
_symmetry_cell_setting 'tetragonal'
loop_
_space_group_symop_operation_xyz
x,y,z
y,-x,-z
-x,-y,z
-y,x,-z
x,-y,-z
-x,y,-z
-y,-x,z
y,x,z
loop_
_atom_site_type_symbol
_atom_site_label
_atom_site_fract_x
_atom_site_fract_y
_atom_site_fract_z
Si Si1 0.628579 0.000000 0.394424
Si Si2 0.627570 0.796331 0.850947
Si Si3 0.203669 0.372430 0.149053
Si Si4 0.628276 0.119470 1.000000
Si Si5 0.369714 0.186191 0.500000
Si Si6 0.000000 0.629491 0.761354
O O1 0.663106 0.111596 0.433434
O O2 0.679359 0.000000 0.316707
O O3 0.500000 0.000000 0.390805
O O4 0.663106 0.888404 0.433434
O O5 0.686951 0.686951 0.825337
O O6 0.500000 0.777154 0.842636
O O7 0.670233 0.894433 0.802875
O O8 0.663273 0.817045 0.930716
O O9 0.313049 0.313049 0.174663
O O10 0.182955 0.336727 0.069284
O O11 0.105567 0.329767 0.197125
O O12 0.500000 0.103655 0.000000
O O13 0.683303 0.000000 0.000000
O O14 0.500000 0.215646 0.500000
O O15 0.297363 0.297363 0.500000
O O16 0.000000 0.500000 0.759366
#
# Coordination Sequence:
#
# PCOD8308145 Si02
#       6
#     8   8   8   8   8   8
#     4   8  16  31  49  68  94 128 165 199 225 264
#     4  10  19  30  47  71  97 125 157 195 241 290
#     4  10  19  30  47  71  97 125 157 195 241 290
#     4   9  15  28  47  66  90 120 161 205 236 272
#     4   9  17  30  50  76 103 129 156 188 230 279
#     4   9  17  31  49  68  90 124 169 203 228 266
#
# _framework density 16.638269999999999
#
# number of rings (size 3 to 8) (size 9 to 14) (size 15 to 20)
#    0.000    2.833    1.667    1.500    0.000    1.833 
#    0.000    0.000    0.000    7.500    0.000   15.167 
#    0.000    0.000    0.000    0.000    0.000    0.000 
#
# Total GULP energy -594794.014200 kJ/mol
# GULP energy per Si atom -12391.541963 kJ/mol
# Density = 1.660040 g / cm^3
# Si number density = 16.638270 Si / 1000 Ang^3
#
#
#
# Elastic Constant Matrix: (Units=GPa)
#
#
# Indices 1 2 3 4 5 6 
#
# 1 83.2291 59.9829 39.8043 0.0000 0.0000 0.0000
# 2 59.9829 83.2291 39.8043 0.0000 0.0000 0.0000
# 3 39.8043 39.8043 138.2127 0.0000 0.0000 0.0000
# 4 0.0000 0.0000 0.0000 8.9826 0.0000 0.0000
# 5 0.0000 0.0000 0.0000 0.0000 8.9826 0.0000
# 6 0.0000 0.0000 0.0000 0.0000 0.0000 9.4618
#
#
#
# Elastic Compliance Matrix: (Units=1/GPa)
#
#
# Indices 1 2 3 4 5 6 
#
# 1 0.025666 -0.017352 -0.002394 0.000000 0.000000 0.000000
# 2 -0.017352 0.025666 -0.002394 0.000000 0.000000 0.000000
# 3 -0.002394 -0.002394 0.008614 0.000000 0.000000 0.000000
# 4 0.000000 0.000000 0.000000 0.111326 0.000000 0.000000
# 5 0.000000 0.000000 0.000000 0.000000 0.111326 0.000000
# 6 0.000000 0.000000 0.000000 0.000000 0.000000 0.105688
#
#
# Mechanical properties :
#
#
# Convention : Reuss Voigt Hill
#
# Bulk Modulus (GPa) = 63.83896 64.87267 64.35581
# Shear Modulus (GPa) = 11.42102 16.49069 13.95585
#
# Velocity S-wave (km/s) = 2.62282 3.15164 2.89931
# Velocity P-wave (km/s) = 6.90104 7.23315 7.06904
#
# Compressibility (1/GPa) = 0.01566442
#
# Stress axis : x y z
#
# Youngs Moduli (GPa) = 38.96246 38.96246 116.08629
#
# Poissons Ratio (x) = 0.67608 0.27794
# Poissons Ratio (y) = 0.67608 0.27794
# Poissons Ratio (z) = 0.09329 0.09329
#
# Static dielectric constant tensor:
#      x y z
#    x 2.865920 0.000000 0.000000 
#    y 0.000000 2.865920 0.000000 
#    z 0.000000 0.000000 3.652900 
# 
# 
# High freq. dielectric constant tensor:
#      x y z
#    x 1.616370 0.000000 0.000000 
#    y 0.000000 1.616370 0.000000 
#    z 0.000000 0.000000 1.649400 
# 
# From -- ./inp_files/3925.got.cif
#   From: 2010.03.12/outbox.cif.g09.slc.cpg/sg111_2_cif.got.tgz:3925.got - 2010.04.14 01:59:48.
