data_PCOD8308407
_publ_section_title
;
Structure prediction by ZEFSAII (Michael W. Deem and Ramdas Pophale) SiO2 
 PCOD8308407
Probable space group: P -4 2 C
;
_chemical_formula_sum "Si O2"
_cell_formula_units_Z 40
_cell_length_a 11.685259
_cell_length_b 11.685259
_cell_length_c 14.171076
_cell_angle_alpha 90.000000
_cell_angle_beta 90.000000
_cell_angle_gamma 90.000000
_cell_volume 1934.993511
_symmetry_space_group_name_H-M "P -4 2 C"
_symmetry_group_IT_number 112
_symmetry_cell_setting 'tetragonal'
loop_
_space_group_symop_operation_xyz
x,y,z
y,-x,-z
-x,-y,z
-y,x,-z
x,-y,1/2-z
-x,y,1/2-z
-y,-x,1/2+z
y,x,1/2+z
loop_
_atom_site_type_symbol
_atom_site_label
_atom_site_fract_x
_atom_site_fract_y
_atom_site_fract_z
Si Si1 0.500000 0.783941 0.354121
Si Si2 0.750582 0.714778 0.357525
Si Si3 0.132763 0.132763 0.500000
Si Si4 0.714778 0.750582 0.642475
Si Si5 0.500000 0.871083 0.948261
O O1 0.500000 0.844155 0.250000
O O2 0.612971 0.705083 0.363249
O O3 0.387029 0.705084 0.363249
O O4 0.500000 0.876731 0.437723
O O5 0.795444 0.830061 0.407730
O O6 0.793477 0.715058 0.250000
O O7 0.803934 0.609566 0.412725
O O8 0.169939 0.204556 0.592270
O O9 1.000000 0.157888 0.481420
O O10 0.609567 0.803934 0.587275
O O11 0.500000 0.000000 0.909027
#
# Coordination Sequence:
#
# PCOD8308407 Si02
#       5
#     8   8   8   8   8
#     4  10  22  41  65  94 131 172 214 268 327 385
#     4  11  24  42  65  96 130 170 219 271 331 394
#     4  11  24  42  64  91 128 174 218 267 326 390
#     4  11  24  42  65  96 130 170 219 271 331 394
#     4  12  23  40  66  96 133 174 220 273 325 387
#
# _framework density 20.671904000000001
#
# number of rings (size 3 to 8) (size 9 to 14) (size 15 to 20)
#    0.000    1.000    4.000    1.800    0.000    6.000 
#    0.000   11.000    0.000    0.000    0.000    0.000 
#    0.000    0.000    0.000    0.000    0.000    0.000 
#
# Total GULP energy -495997.663289 kJ/mol
# GULP energy per Si atom -12399.941582 kJ/mol
# Density = 2.062485 g / cm^3
# Si number density = 20.671904 Si / 1000 Ang^3
#
#
#
# Elastic Constant Matrix: (Units=GPa)
#
#
# Indices 1 2 3 4 5 6 
#
# 1 128.9845 50.6279 48.2385 0.0000 0.0000 0.0000
# 2 50.6279 128.9845 48.2385 0.0000 0.0000 0.0000
# 3 48.2385 48.2385 177.6046 0.0000 0.0000 0.0000
# 4 0.0000 0.0000 0.0000 16.5962 0.0000 0.0000
# 5 0.0000 0.0000 0.0000 0.0000 16.5962 0.0000
# 6 0.0000 0.0000 0.0000 0.0000 0.0000 21.9772
#
#
#
# Elastic Compliance Matrix: (Units=1/GPa)
#
#
# Indices 1 2 3 4 5 6 
#
# 1 0.009640 -0.003122 -0.001770 0.000000 0.000000 0.000000
# 2 -0.003122 0.009640 -0.001770 0.000000 0.000000 0.000000
# 3 -0.001770 -0.001770 0.006592 0.000000 0.000000 0.000000
# 4 0.000000 0.000000 0.000000 0.060255 0.000000 0.000000
# 5 0.000000 0.000000 0.000000 0.000000 0.060255 0.000000
# 6 0.000000 0.000000 0.000000 0.000000 0.000000 0.045502
#
#
# Mechanical properties :
#
#
# Convention : Reuss Voigt Hill
#
# Bulk Modulus (GPa) = 79.69778 81.08706 80.39242
# Shear Modulus (GPa) = 23.87864 30.26516 27.07190
#
# Velocity S-wave (km/s) = 3.40240 3.83047 3.62276
# Velocity P-wave (km/s) = 7.35340 7.67295 7.51488
#
# Compressibility (1/GPa) = 0.01254740
#
# Stress axis : x y z
#
# Youngs Moduli (GPa) = 103.73067 103.73067 151.69380
#
# Poissons Ratio (x) = 0.32383 0.26857
# Poissons Ratio (y) = 0.32383 0.26857
# Poissons Ratio (z) = 0.18365 0.18365
#
# Static dielectric constant tensor:
#      x y z
#    x 3.852470 0.000000 0.000000 
#    y 0.000000 3.852470 0.000000 
#    z 0.000000 0.000000 4.109680 
# 
# 
# High freq. dielectric constant tensor:
#      x y z
#    x 1.806560 0.000000 0.000000 
#    y 0.000000 1.806560 0.000000 
#    z 0.000000 0.000000 1.828600 
# 
# From -- ./inp_files/3316.got.cif
#   From: 2010.03.12/outbox.cif.g09.slc.cpg/sg112_2_cif.got.tgz:3316.got - 2010.04.14 02:02:48.
