data_PCOD8308092
_publ_section_title
;
Structure prediction by ZEFSAII (Michael W. Deem and Ramdas Pophale) SiO2 
 PCOD8308092
Probable space group: P -4 2 M 
;
_chemical_formula_sum "Si O2"
_cell_formula_units_Z 48
_cell_length_a 22.490453
_cell_length_b 22.490453
_cell_length_c 5.185420
_cell_angle_alpha 90.000000
_cell_angle_beta 90.000000
_cell_angle_gamma 90.000000
_cell_volume 2622.891613
_symmetry_space_group_name_H-M "P -4 2 M "
_symmetry_group_IT_number 111
_symmetry_cell_setting 'tetragonal'
loop_
_space_group_symop_operation_xyz
x,y,z
y,-x,-z
-x,-y,z
-y,x,-z
x,-y,-z
-x,y,-z
-y,-x,z
y,x,z
loop_
_atom_site_type_symbol
_atom_site_label
_atom_site_fract_x
_atom_site_fract_y
_atom_site_fract_z
Si Si1 0.664086 0.171090 0.231328
Si Si2 0.245953 0.342568 0.266557
Si Si3 0.837910 0.931782 0.439954
Si Si4 0.783789 0.878397 0.949345
Si Si5 0.852739 0.469443 0.248661
Si Si6 0.521416 0.277822 0.747179
O O1 0.675825 0.196988 0.518417
O O2 0.715074 0.126030 0.136234
O O3 0.601333 0.136230 0.236494
O O4 0.665676 0.223491 0.022874
O O5 0.304002 0.304002 0.314066
O O6 0.263810 0.410422 0.290095
O O7 0.899861 0.899861 0.360763
O O8 0.815890 0.906059 0.706964
O O9 0.849993 0.000000 0.500000
O O10 0.791252 0.920028 0.204252
O O11 0.813248 0.813248 0.007881
O O12 0.882314 0.500000 0.500000
O O13 0.782233 0.481407 0.247978
O O14 0.882981 0.500000 0.000000
O O15 0.500000 0.315730 0.500000
O O16 0.500000 0.314046 0.000000
#
# Coordination Sequence:
#
# PCOD8308092 Si02
#       6
#     8   8   8   8   8   8
#     4  12  20  32  48  69 105 145 172 202 258 329
#     4  12  21  28  43  68  96 133 174 208 256 324
#     4  10  21  39  61  83 111 145 181 221 258 295
#     4  10  21  35  51  79 115 145 173 212 264 320
#     4  10  16  29  46  63  89 135 171 216 255 297
#     4  10  16  30  43  57  86 128 160 217 264 296
#
# _framework density 18.300412999999999
#
# number of rings (size 3 to 8) (size 9 to 14) (size 15 to 20)
#    0.000    1.333    6.667    3.000    0.000    1.500 
#    0.000    0.000    0.000    3.000    0.000    0.000 
#    0.000   12.000    0.000    0.000    0.000    0.000 
#
# Total GULP energy -594751.115872 kJ/mol
# GULP energy per Si atom -12390.648247 kJ/mol
# Density = 1.825876 g / cm^3
# Si number density = 18.300413 Si / 1000 Ang^3
#
#
#
# Elastic Constant Matrix: (Units=GPa)
#
#
# Indices 1 2 3 4 5 6 
#
# 1 61.1758 61.3096 21.8207 0.0000 0.0000 0.0000
# 2 61.3096 61.1758 21.8207 0.0000 0.0000 0.0000
# 3 21.8207 21.8207 142.0973 0.0000 0.0000 0.0000
# 4 0.0000 0.0000 0.0000 24.2308 0.0000 0.0000
# 5 0.0000 0.0000 0.0000 0.0000 24.2308 0.0000
# 6 0.0000 0.0000 0.0000 0.0000 0.0000 2.0209
#
#
#
# Elastic Compliance Matrix: (Units=1/GPa)
#
#
# Indices 1 2 3 4 5 6 
#
# 1 -3.733956 3.742593 -0.001326 0.000000 0.000000 0.000000
# 2 3.742593 -3.733956 -0.001326 0.000000 0.000000 0.000000
# 3 -0.001326 -0.001326 0.007445 0.000000 0.000000 0.000000
# 4 0.000000 0.000000 0.000000 0.041270 0.000000 0.000000
# 5 0.000000 0.000000 0.000000 0.000000 0.041270 0.000000
# 6 0.000000 0.000000 0.000000 0.000000 0.000000 0.494822
#
#
# Mechanical properties :
#
#
# Convention : Reuss Voigt Hill
#
# Bulk Modulus (GPa) = 51.51129 52.70567 52.10848
# Shear Modulus (GPa) = -0.34827 20.72970 10.19071
#
# Velocity S-wave (km/s) = -0.43672 3.36928 2.36234
# Velocity P-wave (km/s) = 5.28719 6.63316 5.99805
#
# Compressibility (1/GPa) = 0.01941322
#
# Stress axis : x y z
#
# Youngs Moduli (GPa) = -0.26781 -0.26781 134.32260
#
# Poissons Ratio (x) = 1.00231 0.17815
# Poissons Ratio (y) = 1.00231 0.17815
# Poissons Ratio (z) = -0.00036 -0.00036
#
# Static dielectric constant tensor:
#      x y z
#    x 3.360810 0.000000 0.000000 
#    y 0.000000 3.360810 0.000000 
#    z 0.000000 0.000000 5.900500 
# 
# 
# High freq. dielectric constant tensor:
#      x y z
#    x 1.670310 0.000000 0.000000 
#    y 0.000000 1.670310 0.000000 
#    z 0.000000 0.000000 1.751210 
# 
# From -- ./inp_files/615.got.cif
#   From: 2010.03.12/outbox.cif.g09.slc.cpg/sg111_1_cif.got.tgz:615.got - 2010.04.14 01:59:48.
