data_PCOD8308247
_publ_section_title
;
Structure prediction by ZEFSAII (Michael W. Deem and Ramdas Pophale) SiO2 
 PCOD8308247
Probable space group: P -4 2 M 
;
_chemical_formula_sum "Si O2"
_cell_formula_units_Z 48
_cell_length_a 17.583218
_cell_length_b 17.583218
_cell_length_c 9.152501
_cell_angle_alpha 90.000000
_cell_angle_beta 90.000000
_cell_angle_gamma 90.000000
_cell_volume 2829.674663
_symmetry_space_group_name_H-M "P -4 2 M "
_symmetry_group_IT_number 111
_symmetry_cell_setting 'tetragonal'
loop_
_space_group_symop_operation_xyz
x,y,z
y,-x,-z
-x,-y,z
-y,x,-z
x,-y,-z
-x,y,-z
-y,-x,z
y,x,z
loop_
_atom_site_type_symbol
_atom_site_label
_atom_site_fract_x
_atom_site_fract_y
_atom_site_fract_z
Si Si1 0.335237 0.213912 0.305945
Si Si2 0.588684 0.085281 0.834478
Si Si3 0.780249 0.660345 0.651093
Si Si4 0.415243 0.090929 0.826771
Si Si5 0.439169 0.320445 0.116461
Si Si6 0.541849 0.339597 0.361092
O O1 0.253251 0.253251 0.272601
O O2 0.343537 0.126728 0.255561
O O3 0.351628 0.216534 0.477223
O O4 0.400045 0.253148 0.206903
O O5 0.503011 0.107928 0.782505
O O6 0.602826 0.997220 0.801235
O O7 0.597887 0.108099 0.003305
O O8 0.744522 0.744522 0.686507
O O9 0.860694 0.645243 0.730307
O O10 0.723499 0.596366 0.712467
O O11 0.376648 0.376648 0.043074
O O12 0.485139 0.368885 0.236443
O O13 0.500000 0.287693 0.000000
O O14 0.500000 0.303130 0.500000
O O15 0.589498 0.410503 0.421791
#
# Coordination Sequence:
#
# PCOD8308247 Si02
#       6
#     8   8   8   8   8   8
#     4  10  21  35  50  71  98 127 163 205 249 302
#     4   9  19  34  52  77 102 127 163 208 252 296
#     4  10  21  35  50  71  98 128 164 203 247 304
#     4   9  19  34  53  76 101 129 163 206 253 298
#     4  11  23  35  45  63  88 121 168 217 261 301
#     4  11  21  33  47  63  86 122 165 210 258 297
#
# _framework density 16.963080999999999
#
# number of rings (size 3 to 8) (size 9 to 14) (size 15 to 20)
#    0.000    2.000    1.667    3.000    4.667    3.333 
#    0.000    1.667    0.000    0.000    0.000    0.000 
#    0.000    0.667    0.000    7.333    0.000    5.333 
#
# Total GULP energy -594726.424355 kJ/mol
# GULP energy per Si atom -12390.133841 kJ/mol
# Density = 1.692447 g / cm^3
# Si number density = 16.963081 Si / 1000 Ang^3
#
#
#
# Elastic Constant Matrix: (Units=GPa)
#
#
# Indices 1 2 3 4 5 6 
#
# 1 80.3266 40.7507 36.8246 0.0000 0.0000 0.0000
# 2 40.7507 80.3259 36.8245 0.0000 0.0000 0.0000
# 3 36.8246 36.8245 67.1926 0.0000 0.0000 0.0000
# 4 0.0000 0.0000 0.0000 29.2815 0.0000 0.0000
# 5 0.0000 0.0000 0.0000 0.0000 29.2815 0.0000
# 6 0.0000 0.0000 0.0000 0.0000 0.0000 25.8292
#
#
#
# Elastic Compliance Matrix: (Units=1/GPa)
#
#
# Indices 1 2 3 4 5 6 
#
# 1 0.018829 -0.006439 -0.006790 0.000000 0.000000 0.000000
# 2 -0.006439 0.018829 -0.006790 0.000000 0.000000 0.000000
# 3 -0.006790 -0.006790 0.022325 0.000000 0.000000 0.000000
# 4 0.000000 0.000000 0.000000 0.034151 0.000000 0.000000
# 5 0.000000 0.000000 0.000000 0.000000 0.034151 0.000000
# 6 0.000000 0.000000 0.000000 0.000000 0.000000 0.038716
#
#
# Mechanical properties :
#
#
# Convention : Reuss Voigt Hill
#
# Bulk Modulus (GPa) = 50.14037 50.73830 50.43934
# Shear Modulus (GPa) = 23.39866 24.44147 23.92006
#
# Velocity S-wave (km/s) = 3.71804 3.79999 3.75924
# Velocity P-wave (km/s) = 6.93213 7.01635 6.97437
#
# Compressibility (1/GPa) = 0.01994401
#
# Stress axis : x y z
#
# Youngs Moduli (GPa) = 53.11044 53.10998 44.79288
#
# Poissons Ratio (x) = 0.34199 0.30414
# Poissons Ratio (y) = 0.34200 0.30414
# Poissons Ratio (z) = 0.36062 0.36062
#
# Static dielectric constant tensor:
#      x y z
#    x 3.028890 0.000000 0.000000 
#    y 0.000000 3.028890 0.000000 
#    z 0.000000 0.000000 3.131190 
# 
# 
# High freq. dielectric constant tensor:
#      x y z
#    x 1.627900 0.000000 0.000000 
#    y 0.000000 1.627900 0.000000 
#    z 0.000000 0.000000 1.661770 
# 
# From -- ./inp_files/1752.got.cif
#   From: 2010.03.12/outbox.cif.g09.slc.cpg/sg111_1_cif.got.tgz:1752.got - 2010.04.14 01:59:48.
