data_PCOD8308748
_publ_section_title
;
Structure prediction by ZEFSAII (Michael W. Deem and Ramdas Pophale) SiO2 
 PCOD8308748
Probable space group: P -4 21 M 
;
_chemical_formula_sum "Si O2"
_cell_formula_units_Z 56
_cell_length_a 15.411583
_cell_length_b 15.411583
_cell_length_c 14.419471
_cell_angle_alpha 90.000000
_cell_angle_beta 90.000000
_cell_angle_gamma 90.000000
_cell_volume 3424.867916
_symmetry_space_group_name_H-M "P -4 21 M "
_symmetry_group_IT_number 113
_symmetry_cell_setting 'tetragonal'
loop_
_space_group_symop_operation_xyz
x,y,z
y,-x,-z
-x,-y,z
-y,x,-z
1/2+x,1/2-y,-z
1/2-x,1/2+y,-z
1/2-y,1/2-x,z
1/2+y,1/2+x,z
loop_
_atom_site_type_symbol
_atom_site_label
_atom_site_fract_x
_atom_site_fract_y
_atom_site_fract_z
Si Si1 0.429822 0.384489 0.021575
Si Si2 0.115508 0.929818 0.478424
Si Si3 0.257849 0.616781 0.133830
Si Si4 0.000001 0.638874 0.250005
Si Si5 0.398473 0.405542 0.728778
Si Si6 0.601529 0.405544 0.771224
Si Si7 0.257852 0.383217 0.366172
O O1 0.382992 0.381550 0.121150
O O2 0.394590 0.466733 0.962958
O O3 0.409584 0.298283 0.964410
O O4 0.118441 0.882988 0.378848
O O5 0.201714 0.909576 0.535587
O O6 0.033263 0.894590 0.537043
O O7 0.201094 0.701094 0.116305
O O8 0.199782 0.535453 0.167847
O O9 0.330531 0.644101 0.209124
O O10 0.921726 0.578275 0.211220
O O11 0.964548 0.699787 0.332160
O O12 0.078276 0.578276 0.288794
O O13 0.500000 0.406410 0.750005
O O14 0.357439 0.499999 0.749999
O O15 0.644101 0.330534 0.709123
O O16 0.201096 0.298905 0.383693
#
# Coordination Sequence:
#
# PCOD8308748 Si02
#       7
#     8   8   8   8   8   8   8
#     4  11  18  31  53  75 100 134 168 208 266 320
#     4  11  18  31  53  75 100 134 168 208 266 320
#     4  11  21  33  50  80 106 132 181 219 250 310
#     4   9  18  34  53  72 108 150 173 206 258 307
#     4  11  18  32  54  74 100 137 165 204 265 320
#     4  11  18  32  54  74 100 137 165 204 265 320
#     4  11  21  33  50  80 106 132 181 219 250 310
#
# _framework density 16.350995000000001
#
# number of rings (size 3 to 8) (size 9 to 14) (size 15 to 20)
#    0.000    1.286    7.143    1.714    0.000    1.143 
#    0.000    1.429    0.000    0.000    0.000    0.000 
#    0.000    0.571    0.000    0.000    0.000    0.000 
#
# Total GULP energy -694402.292376 kJ/mol
# GULP energy per Si atom -12400.040935 kJ/mol
# Density = 1.631378 g / cm^3
# Si number density = 16.350995 Si / 1000 Ang^3
#
#
#
# Elastic Constant Matrix: (Units=GPa)
#
#
# Indices 1 2 3 4 5 6 
#
# 1 94.7031 47.1960 40.8081 0.0000 0.0000 0.0000
# 2 47.1960 94.7030 40.8083 0.0000 0.0000 0.0000
# 3 40.8081 40.8083 111.6882 0.0000 0.0000 0.0000
# 4 0.0000 0.0000 0.0000 21.0751 0.0000 0.0000
# 5 0.0000 0.0000 0.0000 0.0000 21.0745 0.0000
# 6 0.0000 0.0000 0.0000 0.0000 0.0000 16.2531
#
#
#
# Elastic Compliance Matrix: (Units=1/GPa)
#
#
# Indices 1 2 3 4 5 6 
#
# 1 0.014986 -0.006064 -0.003260 0.000000 0.000000 0.000000
# 2 -0.006064 0.014986 -0.003260 0.000000 0.000000 0.000000
# 3 -0.003260 -0.003260 0.011336 0.000000 0.000000 0.000000
# 4 0.000000 0.000000 0.000000 0.047449 0.000000 0.000000
# 5 0.000000 0.000000 0.000000 0.000000 0.047451 0.000000
# 6 0.000000 0.000000 0.000000 0.000000 0.000000 0.061527
#
#
# Mechanical properties :
#
#
# Convention : Reuss Voigt Hill
#
# Bulk Modulus (GPa) = 61.95637 62.07989 62.01813
# Shear Modulus (GPa) = 21.90278 23.16602 22.53440
#
# Velocity S-wave (km/s) = 3.66394 3.76812 3.71639
# Velocity P-wave (km/s) = 7.47483 7.54858 7.51179
#
# Compressibility (1/GPa) = 0.01614039
#
# Stress axis : x y z
#
# Youngs Moduli (GPa) = 66.72945 66.72919 88.21651
#
# Poissons Ratio (x) = 0.40462 0.28758
# Poissons Ratio (y) = 0.40462 0.28759
# Poissons Ratio (z) = 0.21754 0.21754
#
# Static dielectric constant tensor:
#      x y z
#    x 3.114410 0.000000 0.000000 
#    y 0.000000 3.114410 0.000000 
#    z 0.000000 0.000000 3.016650 
# 
# 
# High freq. dielectric constant tensor:
#      x y z
#    x 1.614660 0.000000 0.000000 
#    y 0.000000 1.614660 0.000000 
#    z 0.000000 0.000000 1.627860 
# 
# From -- ./inp_files/2297.got.cif
#   From: 2010.03.12/outbox.cif.g09.slc.cpg/sg113_cif.got.tgz:2297.got - 2010.04.14 02:06:34.
