data_PCOD8308173
_publ_section_title
;
Structure prediction by ZEFSAII (Michael W. Deem and Ramdas Pophale) SiO2 
 PCOD8308173
Probable space group: P -4 2 M 
;
_chemical_formula_sum "Si O2"
_cell_formula_units_Z 56
_cell_length_a 11.834197
_cell_length_b 11.834197
_cell_length_c 23.021718
_cell_angle_alpha 90.000000
_cell_angle_beta 90.000000
_cell_angle_gamma 90.000000
_cell_volume 3224.150596
_symmetry_space_group_name_H-M "P -4 2 M "
_symmetry_group_IT_number 111
_symmetry_cell_setting 'tetragonal'
loop_
_space_group_symop_operation_xyz
x,y,z
y,-x,-z
-x,-y,z
-y,x,-z
x,-y,-z
-x,y,-z
-y,-x,z
y,x,z
loop_
_atom_site_type_symbol
_atom_site_label
_atom_site_fract_x
_atom_site_fract_y
_atom_site_fract_z
Si Si1 0.896979 0.714796 0.125111
Si Si2 0.685195 0.127397 0.498766
Si Si3 0.500033 0.690088 0.697459
Si Si4 0.498561 0.129355 0.595306
Si Si5 0.317832 0.859666 0.115904
Si Si6 0.515890 0.871486 0.202628
Si Si7 0.627187 0.806544 0.011199
O O1 0.830744 0.830744 0.120209
O O2 0.853084 0.643295 0.180226
O O3 0.027090 0.746713 0.135438
O O4 0.890232 0.641540 0.065692
O O5 0.790909 0.209092 0.502531
O O6 0.604267 0.147623 0.553278
O O7 0.617281 0.149346 0.439448
O O8 0.732016 0.000000 0.500000
O O9 0.387768 0.612233 0.701049
O O10 0.610804 0.610804 0.693560
O O11 0.492468 0.773903 0.643193
O O12 0.511794 0.773112 0.752153
O O13 0.500000 0.000000 0.620327
O O14 0.246954 0.753047 0.138246
O O15 0.439309 0.854498 0.145805
O O16 0.324602 0.864056 0.046447
O O17 0.500000 0.000000 0.227773
O O18 0.691103 0.691103 0.026707
O O19 0.500000 0.771437 0.000000
#
# Coordination Sequence:
#
# PCOD8308173 Si02
#       7
#     8   8   8   8   8   8   8
#     4  10  20  33  51  73  96 124 156 194 239 287
#     4   9  17  30  50  76 105 135 166 204 242 281
#     4  11  22  34  50  73 101 129 159 204 254 291
#     4   9  18  33  52  73  99 134 174 203 233 284
#     4  10  20  33  51  73  96 124 156 194 239 287
#     4  10  20  35  54  70  92 126 164 200 237 289
#     4  10  19  32  50  72  98 125 158 195 234 288
#
# _framework density 17.368915999999999
#
# number of rings (size 3 to 8) (size 9 to 14) (size 15 to 20)
#    0.000    2.143    1.429    3.429    0.000    1.143 
#    0.000    0.000    0.000    6.000    0.000    0.000 
#    0.000   20.571    0.000    0.000    0.000    0.000 
#
# Total GULP energy -694133.725561 kJ/mol
# GULP energy per Si atom -12395.245099 kJ/mol
# Density = 1.732938 g / cm^3
# Si number density = 17.368916 Si / 1000 Ang^3
#
#
#
# Elastic Constant Matrix: (Units=GPa)
#
#
# Indices 1 2 3 4 5 6 
#
# 1 92.1314 40.3027 23.4983 0.0000 0.0000 0.0000
# 2 40.3027 92.1335 23.4981 0.0000 0.0000 0.0000
# 3 23.4983 23.4981 68.0341 0.0000 0.0000 0.0000
# 4 0.0000 0.0000 0.0000 23.2094 0.0000 0.0000
# 5 0.0000 0.0000 0.0000 0.0000 23.2100 0.0000
# 6 0.0000 0.0000 0.0000 0.0000 0.0000 26.8702
#
#
#
# Elastic Compliance Matrix: (Units=1/GPa)
#
#
# Indices 1 2 3 4 5 6 
#
# 1 0.013950 -0.005344 -0.002972 0.000000 0.000000 0.000000
# 2 -0.005344 0.013950 -0.002972 0.000000 0.000000 0.000000
# 3 -0.002972 -0.002972 0.016752 0.000000 0.000000 0.000000
# 4 0.000000 0.000000 0.000000 0.043086 0.000000 0.000000
# 5 0.000000 0.000000 0.000000 0.000000 0.043085 0.000000
# 6 0.000000 0.000000 0.000000 0.000000 0.000000 0.037216
#
#
# Mechanical properties :
#
#
# Convention : Reuss Voigt Hill
#
# Bulk Modulus (GPa) = 45.30256 47.43302 46.36779
# Shear Modulus (GPa) = 25.25591 25.65791 25.45691
#
# Velocity S-wave (km/s) = 3.81739 3.84765 3.83255
# Velocity P-wave (km/s) = 6.75049 6.86350 6.80723
#
# Compressibility (1/GPa) = 0.02207381
#
# Stress axis : x y z
#
# Youngs Moduli (GPa) = 71.68484 71.68673 59.69544
#
# Poissons Ratio (x) = 0.38310 0.17744
# Poissons Ratio (y) = 0.38309 0.17743
# Poissons Ratio (z) = 0.21307 0.21307
#
# Static dielectric constant tensor:
#      x y z
#    x 3.220100 0.000000 0.000000 
#    y 0.000000 3.220100 0.000000 
#    z 0.000000 0.000000 3.159900 
# 
# 
# High freq. dielectric constant tensor:
#      x y z
#    x 1.672500 0.000000 0.000000 
#    y 0.000000 1.672500 0.000000 
#    z 0.000000 0.000000 1.662950 
# 
# From -- ./inp_files/3958.got.cif
#   From: 2010.03.12/outbox.cif.g09.slc.cpg/sg111_2_cif.got.tgz:3958.got - 2010.04.14 01:59:48.
