data_PCOD8308033
_publ_section_title
;
Structure prediction by ZEFSAII (Michael W. Deem and Ramdas Pophale) SiO2 
 PCOD8308033
Probable space group: I 41 C D
;
_chemical_formula_sum "Si O2"
_cell_formula_units_Z 120
_cell_length_a 14.693085
_cell_length_b 14.693085
_cell_length_c 26.516849
_cell_angle_alpha 90.000000
_cell_angle_beta 90.000000
_cell_angle_gamma 90.000000
_cell_volume 5724.636266
_symmetry_space_group_name_H-M "I 41 C D"
_symmetry_group_IT_number 110
_symmetry_cell_setting 'tetragonal'
loop_
_space_group_symop_operation_xyz
x,y,z
-y,1/2+x,1/4+z
-x,-y,z
y,1/2-x,1/4+z
-x,y,1/2+z
x,-y,1/2+z
1/2-y,-x,1/4+z
1/2+y,x,1/4+z
1/2+x,1/2+y,1/2+z
1/2-y,x,3/4+z
1/2-x,1/2-y,1/2+z
1/2+y,-x,3/4+z
1/2-x,1/2+y,z
1/2+x,1/2-y,z
-y,1/2-x,3/4+z
y,1/2+x,3/4+z
loop_
_atom_site_type_symbol
_atom_site_label
_atom_site_fract_x
_atom_site_fract_y
_atom_site_fract_z
Si Si1 0.500000 0.500000 0.260280
Si Si2 0.104504 0.524092 0.160489
Si Si3 0.380324 0.358515 0.811171
Si Si4 0.685439 0.217208 0.801703
Si Si5 0.564449 0.768025 0.723798
Si Si6 0.713792 0.159978 0.156245
Si Si7 0.084957 0.952431 0.014211
Si Si8 0.106610 0.163971 0.713408
O O1 0.578475 0.454786 0.294122
O O2 0.557851 0.569838 0.227000
O O3 0.147165 0.598091 0.121058
O O4 0.165568 0.435898 0.154957
O O5 0.115414 0.561083 0.217621
O O6 0.000000 0.500000 0.147579
O O7 0.274287 0.346721 0.797778
O O8 0.430675 0.282933 0.777410
O O9 0.697624 0.282370 0.849684
O O10 0.599909 0.147471 0.804346
O O11 0.666633 0.287539 0.756802
O O12 0.656326 0.767517 0.690248
O O13 0.541270 0.871018 0.737849
O O14 0.475850 0.728874 0.693919
O O15 0.819356 0.146886 0.170583
O O16 0.000000 0.000000 0.042501
#
# Coordination Sequence:
#
# PCOD8308033 Si02
#       8
#     8  16  16  16  16  16  16  16
#     4  10  22  42  70  88 134 174 228 272 340 416
#     4  11  22  38  69  99 132 184 234 275 343 424
#     4  11  23  41  66  99 130 176 222 282 336 408
#     4  11  26  40  67  99 136 172 223 287 339 411
#     4  10  21  42  66  94 137 173 222 289 338 410
#     4  12  23  44  65 100 136 180 229 286 349 415
#     4  10  21  41  66  94 130 180 226 275 336 405
#     4  10  24  45  66  99 133 175 226 285 347 404
#
# _framework density 20.962032000000001
#
# number of rings (size 3 to 8) (size 9 to 14) (size 15 to 20)
#    0.000    1.333    4.667    2.400    5.600    0.000 
#    3.600    0.000    0.000    0.000    0.000    0.000 
#    0.000    0.000    0.000    0.000    0.000    0.000 
#
# Total GULP energy -743403.404489 kJ/mol
# GULP energy per Si atom -12390.056741 kJ/mol
# Density = 2.091432 g / cm^3
# Si number density = 20.962032 Si / 1000 Ang^3
#
#
#
# Elastic Constant Matrix: (Units=GPa)
#
#
# Indices 1 2 3 4 5 6 
#
# 1 105.0394 30.7928 19.9311 0.0000 0.0000 0.0000
# 2 30.7928 105.0394 19.9311 0.0000 0.0000 0.0000
# 3 19.9311 19.9311 62.3294 0.0000 0.0000 0.0000
# 4 0.0000 0.0000 0.0000 19.1285 0.0000 0.0000
# 5 0.0000 0.0000 0.0000 0.0000 19.1285 0.0000
# 6 0.0000 0.0000 0.0000 0.0000 0.0000 43.0269
#
#
#
# Elastic Compliance Matrix: (Units=1/GPa)
#
#
# Indices 1 2 3 4 5 6 
#
# 1 0.010797 -0.002672 -0.002598 0.000000 0.000000 0.000000
# 2 -0.002672 0.010797 -0.002598 0.000000 0.000000 0.000000
# 3 -0.002598 -0.002598 0.017705 0.000000 0.000000 0.000000
# 4 0.000000 0.000000 0.000000 0.052278 0.000000 0.000000
# 5 0.000000 0.000000 0.000000 0.000000 0.052278 0.000000
# 6 0.000000 0.000000 0.000000 0.000000 0.000000 0.023241
#
#
# Mechanical properties :
#
#
# Convention : Reuss Voigt Hill
#
# Bulk Modulus (GPa) = 42.44059 45.96868 44.20464
# Shear Modulus (GPa) = 26.22113 29.70699 27.96406
#
# Velocity S-wave (km/s) = 3.54062 3.76863 3.65641
# Velocity P-wave (km/s) = 6.08318 6.39640 6.24175
#
# Compressibility (1/GPa) = 0.02356235
#
# Stress axis : x y z
#
# Youngs Moduli (GPa) = 92.62238 92.62238 56.48036
#
# Poissons Ratio (x) = 0.24750 0.14673
# Poissons Ratio (y) = 0.24750 0.14673
# Poissons Ratio (z) = 0.24063 0.24063
#
# Static dielectric constant tensor:
#      x y z
#    x 3.946180 0.000000 0.000000 
#    y 0.000000 3.946180 0.000000 
#    z 0.000000 0.000000 3.702890 
# 
# 
# High freq. dielectric constant tensor:
#      x y z
#    x 1.827090 0.000000 0.000000 
#    y 0.000000 1.827090 0.000000 
#    z 0.000000 0.000000 1.802200 
# 
# From -- ./inp_files/3291.got.cif
#   From: 2010.03.12/outbox.cif.g09.slc.cpg/sg110_2_cif.got.tgz:3291.got - 2010.04.14 01:58:01.
