data_PCOD8308821
_publ_section_title
;
Structure prediction by ZEFSAII (Michael W. Deem and Ramdas Pophale) SiO2 
 PCOD8308821
Probable space group: P -4 21 C
;
_chemical_formula_sum "Si O2"
_cell_formula_units_Z 56
_cell_length_a 11.682057
_cell_length_b 11.682057
_cell_length_c 21.421467
_cell_angle_alpha 90.000000
_cell_angle_beta 90.000000
_cell_angle_gamma 90.000000
_cell_volume 2923.397364
_symmetry_space_group_name_H-M "P -4 21 C"
_symmetry_group_IT_number 114
_symmetry_cell_setting 'tetragonal'
loop_
_space_group_symop_operation_xyz
x,y,z
y,-x,-z
-x,-y,z
-y,x,-z
1/2+x,1/2-y,1/2-z
1/2-x,1/2+y,1/2-z
1/2-y,1/2-x,1/2+z
1/2+y,1/2+x,1/2+z
loop_
_atom_site_type_symbol
_atom_site_label
_atom_site_fract_x
_atom_site_fract_y
_atom_site_fract_z
Si Si1 0.358573 0.129759 0.836603
Si Si2 0.615383 0.115948 0.802613
Si Si3 0.473088 0.875430 0.161548
Si Si4 0.741722 0.188632 0.089530
Si Si5 0.805686 0.289540 0.794145
Si Si6 0.639508 0.605475 0.520776
Si Si7 0.025394 0.868586 0.853334
O O1 0.492451 0.152175 0.828063
O O2 0.310585 0.197216 0.896739
O O3 0.289527 0.180319 0.777967
O O4 0.336562 0.993249 0.841197
O O5 0.609394 0.084015 0.729534
O O6 0.694564 0.222899 0.817038
O O7 0.389761 0.809758 0.113096
O O8 0.594233 0.810376 0.165402
O O9 0.500000 0.000000 0.133476
O O10 0.810923 0.092180 0.127079
O O11 0.750873 0.162528 0.014693
O O12 0.918252 0.207194 0.798593
O O13 0.645948 0.468240 0.521428
O O14 0.620592 0.643770 0.591652
O O15 0.000000 0.000000 0.833190
#
# Coordination Sequence:
#
# PCOD8308821 Si02
#       7
#     8   8   8   8   8   8   8
#     4  10  20  34  53  78 110 149 185 229 290 349
#     4  10  19  35  50  75 115 147 180 232 280 337
#     4  11  19  35  50  78 113 154 179 228 286 346
#     4  11  19  33  57  75 111 149 184 229 302 339
#     4  11  21  33  55  77 112 150 189 228 285 352
#     4   9  17  32  51  81 111 136 176 244 290 329
#     4  11  19  33  56  86 109 142 191 238 292 340
#
# _framework density 19.155795000000001
#
# number of rings (size 3 to 8) (size 9 to 14) (size 15 to 20)
#    0.000    1.571    8.571    0.857    0.000    0.000 
#    0.000    0.714    3.143    0.000    0.000    0.000 
#    0.000    0.000    0.000    0.000    0.000    0.000 
#
# Total GULP energy -694123.299959 kJ/mol
# GULP energy per Si atom -12395.058928 kJ/mol
# Density = 1.911220 g / cm^3
# Si number density = 19.155795 Si / 1000 Ang^3
#
#
#
# Elastic Constant Matrix: (Units=GPa)
#
#
# Indices 1 2 3 4 5 6 
#
# 1 104.3334 49.9637 17.8372 0.0000 0.0000 0.0000
# 2 49.9637 104.3334 17.8372 0.0000 0.0000 0.0000
# 3 17.8372 17.8372 30.0048 0.0000 0.0000 0.0000
# 4 0.0000 0.0000 0.0000 20.3226 0.0000 0.0000
# 5 0.0000 0.0000 0.0000 0.0000 20.3226 0.0000
# 6 0.0000 0.0000 0.0000 0.0000 0.0000 29.4526
#
#
#
# Elastic Compliance Matrix: (Units=1/GPa)
#
#
# Indices 1 2 3 4 5 6 
#
# 1 0.012953 -0.005439 -0.004467 0.000000 0.000000 0.000000
# 2 -0.005439 0.012953 -0.004467 0.000000 0.000000 0.000000
# 3 -0.004467 -0.004467 0.038639 0.000000 0.000000 0.000000
# 4 0.000000 0.000000 0.000000 0.049206 0.000000 0.000000
# 5 0.000000 0.000000 0.000000 0.000000 0.049206 0.000000
# 6 0.000000 0.000000 0.000000 0.000000 0.000000 0.033953
#
#
# Mechanical properties :
#
#
# Convention : Reuss Voigt Hill
#
# Bulk Modulus (GPa) = 27.93357 45.54976 36.74167
# Shear Modulus (GPa) = 21.04470 24.22180 22.63325
#
# Velocity S-wave (km/s) = 3.31812 3.55979 3.44108
# Velocity P-wave (km/s) = 5.41238 6.38172 5.91693
#
# Compressibility (1/GPa) = 0.03579922
#
# Stress axis : x y z
#
# Youngs Moduli (GPa) = 77.20112 77.20112 25.88072
#
# Poissons Ratio (x) = 0.41993 0.11560
# Poissons Ratio (y) = 0.41993 0.11560
# Poissons Ratio (z) = 0.34484 0.34484
#
# Static dielectric constant tensor:
#      x y z
#    x 3.534270 0.000000 0.000000 
#    y 0.000000 3.534270 0.000000 
#    z 0.000000 0.000000 3.254260 
# 
# 
# High freq. dielectric constant tensor:
#      x y z
#    x 1.738570 0.000000 0.000000 
#    y 0.000000 1.738570 0.000000 
#    z 0.000000 0.000000 1.706320 
# 
# From -- ./inp_files/3172.got.cif
#   From: 2010.03.12/outbox.cif.g09.slc.cpg/sg114_2_cif.got.tgz:3172.got - 2010.04.14 02:08:34.
