data_PCOD8308371
_publ_section_title
;
Structure prediction by ZEFSAII (Michael W. Deem and Ramdas Pophale) SiO2 
 PCOD8308371
Probable space group: P -4 2 C
;
_chemical_formula_sum "Si O2"
_cell_formula_units_Z 48
_cell_length_a 14.101447
_cell_length_b 14.101447
_cell_length_c 11.236520
_cell_angle_alpha 90.000000
_cell_angle_beta 90.000000
_cell_angle_gamma 90.000000
_cell_volume 2234.391075
_symmetry_space_group_name_H-M "P -4 2 C"
_symmetry_group_IT_number 112
_symmetry_cell_setting 'tetragonal'
loop_
_space_group_symop_operation_xyz
x,y,z
y,-x,-z
-x,-y,z
-y,x,-z
x,-y,1/2-z
-x,y,1/2-z
-y,-x,1/2+z
y,x,1/2+z
loop_
_atom_site_type_symbol
_atom_site_label
_atom_site_fract_x
_atom_site_fract_y
_atom_site_fract_z
Si Si1 0.150860 0.963047 0.014871
Si Si2 0.500000 0.146699 0.750000
Si Si3 0.604094 0.262179 0.093863
Si Si4 0.304432 0.807318 0.325006
Si Si5 0.000000 0.235277 0.750000
Si Si6 0.133188 0.684105 0.386995
Si Si7 0.584058 0.741172 0.968388
O O1 0.174392 0.943920 0.152177
O O2 0.241863 0.949564 0.926928
O O3 0.070712 0.885846 0.987840
O O4 0.408048 0.092093 0.689561
O O5 0.457674 0.210015 0.853123
O O6 0.619799 0.229881 0.229186
O O7 0.645376 0.366699 0.073649
O O8 0.647211 0.182180 0.007100
O O9 0.494333 0.277982 0.068194
O O10 0.296714 0.919957 0.313077
O O11 0.208810 0.744136 0.308351
O O12 0.337548 0.802209 0.461863
#
# Coordination Sequence:
#
# PCOD8308371 Si02
#       7
#     8   4   8   8   4   8   8
#     4  11  24  42  65 103 140 177 234 291 357 423
#     4  10  20  40  70  96 132 178 236 278 353 428
#     4  10  20  38  64  93 130 173 225 281 347 413
#     4  11  21  40  65  96 131 178 228 281 354 415
#     4  12  24  43  69  98 128 182 232 286 337 427
#     4  10  20  39  67  99 132 177 224 286 347 414
#     4  10  22  37  64  96 129 175 225 285 346 427
#
# _framework density 21.482364
#
# number of rings (size 3 to 8) (size 9 to 14) (size 15 to 20)
#    0.000    1.500    5.000    0.500    0.000    1.667 
#    0.000    1.667    0.000    1.000    0.000    0.000 
#    0.000    0.000    0.000    0.000    0.000    0.000 
#
# Total GULP energy -594706.343186 kJ/mol
# GULP energy per Si atom -12389.715483 kJ/mol
# Density = 2.143347 g / cm^3
# Si number density = 21.482364 Si / 1000 Ang^3
#
#
#
# Elastic Constant Matrix: (Units=GPa)
#
#
# Indices 1 2 3 4 5 6 
#
# 1 103.4001 29.8854 30.7263 0.0000 0.0000 0.0000
# 2 29.8854 103.4001 30.7263 0.0000 0.0000 0.0000
# 3 30.7263 30.7263 111.9149 0.0000 0.0000 0.0000
# 4 0.0000 0.0000 0.0000 31.4714 0.0000 0.0000
# 5 0.0000 0.0000 0.0000 0.0000 31.4714 0.0000
# 6 0.0000 0.0000 0.0000 0.0000 0.0000 14.3272
#
#
#
# Elastic Compliance Matrix: (Units=1/GPa)
#
#
# Indices 1 2 3 4 5 6 
#
# 1 0.011096 -0.002506 -0.002358 0.000000 0.000000 0.000000
# 2 -0.002506 0.011096 -0.002358 0.000000 0.000000 0.000000
# 3 -0.002358 -0.002358 0.010230 0.000000 0.000000 0.000000
# 4 0.000000 0.000000 0.000000 0.031775 0.000000 0.000000
# 5 0.000000 0.000000 0.000000 0.000000 0.031775 0.000000
# 6 0.000000 0.000000 0.000000 0.000000 0.000000 0.069797
#
#
# Mechanical properties :
#
#
# Convention : Reuss Voigt Hill
#
# Bulk Modulus (GPa) = 55.62708 55.71013 55.66861
# Shear Modulus (GPa) = 26.85155 30.61245 28.73200
#
# Velocity S-wave (km/s) = 3.53928 3.77902 3.66111
# Velocity P-wave (km/s) = 6.53089 6.71048 6.62129
#
# Compressibility (1/GPa) = 0.01797686
#
# Stress axis : x y z
#
# Youngs Moduli (GPa) = 90.11937 90.11937 97.74822
#
# Poissons Ratio (x) = 0.22587 0.23053
# Poissons Ratio (y) = 0.22587 0.23053
# Poissons Ratio (z) = 0.21254 0.21254
#
# Static dielectric constant tensor:
#      x y z
#    x 3.863840 0.000000 0.000000 
#    y 0.000000 3.863840 0.000000 
#    z 0.000000 0.000000 4.867960 
# 
# 
# High freq. dielectric constant tensor:
#      x y z
#    x 1.833110 0.000000 0.000000 
#    y 0.000000 1.833110 0.000000 
#    z 0.000000 0.000000 1.860020 
# 
# From -- ./inp_files/2611.got.cif
#   From: 2010.03.12/outbox.cif.g09.slc.cpg/sg112_2_cif.got.tgz:2611.got - 2010.04.14 02:02:48.
