data_PCOD8308764
_publ_section_title
;
Structure prediction by ZEFSAII (Michael W. Deem and Ramdas Pophale) SiO2 
 PCOD8308764
Probable space group: P -4 21 M 
;
_chemical_formula_sum "Si O2"
_cell_formula_units_Z 48
_cell_length_a 13.894477
_cell_length_b 13.894477
_cell_length_c 12.437023
_cell_angle_alpha 90.000000
_cell_angle_beta 90.000000
_cell_angle_gamma 90.000000
_cell_volume 2401.048020
_symmetry_space_group_name_H-M "P -4 21 M "
_symmetry_group_IT_number 113
_symmetry_cell_setting 'tetragonal'
loop_
_space_group_symop_operation_xyz
x,y,z
y,-x,-z
-x,-y,z
-y,x,-z
1/2+x,1/2-y,-z
1/2-x,1/2+y,-z
1/2-y,1/2-x,z
1/2+y,1/2+x,z
loop_
_atom_site_type_symbol
_atom_site_label
_atom_site_fract_x
_atom_site_fract_y
_atom_site_fract_z
Si Si1 0.764926 0.006128 0.891726
Si Si2 0.420238 0.079763 0.232946
Si Si3 0.726208 0.502134 0.723848
Si Si4 0.858017 0.065424 0.489383
Si Si5 0.421693 0.078308 0.994544
Si Si6 0.299441 0.358382 0.294090
Si Si7 0.857638 0.804379 0.916515
O O1 0.835768 0.915196 0.891147
O O2 0.758547 0.051569 0.773142
O O3 0.661177 0.969702 0.925600
O O4 0.801087 0.091994 0.968030
O O5 0.460549 0.168739 0.300623
O O6 0.385899 0.114102 0.112510
O O7 0.500000 0.000000 0.224511
O O8 0.695999 0.569132 0.624456
O O9 0.654669 0.411534 0.739252
O O10 0.733684 0.566480 0.829967
O O11 0.792368 0.115783 0.579788
O O12 0.956555 0.123247 0.473575
O O13 0.500000 0.000000 0.020149
O O14 0.237708 0.262293 0.271345
O O15 0.761300 0.738701 0.916251
#
# Coordination Sequence:
#
# PCOD8308764 Si02
#       7
#     8   4   8   8   4   8   8
#     4  12  25  40  63  92 128 167 209 256 318 376
#     4  11  22  38  61  93 123 165 215 257 307 369
#     4  11  22  40  66  93 124 164 211 263 314 366
#     4   9  20  40  64  90 123 162 206 259 317 371
#     4  11  22  42  61  87 129 173 209 247 309 381
#     4  11  23  40  63  94 128 166 208 254 316 383
#     4  12  25  41  62  93 126 164 213 264 311 374
#
# _framework density 19.99127
#
# number of rings (size 3 to 8) (size 9 to 14) (size 15 to 20)
#    0.000    1.000    3.333    4.000    0.000    5.000 
#    0.000    0.833    0.000    1.000    0.000    0.000 
#    0.000    0.000    0.000    0.000    0.000    0.000 
#
# Total GULP energy -595403.592809 kJ/mol
# GULP energy per Si atom -12404.241517 kJ/mol
# Density = 1.994577 g / cm^3
# Si number density = 19.991270 Si / 1000 Ang^3
#
#
#
# Elastic Constant Matrix: (Units=GPa)
#
#
# Indices 1 2 3 4 5 6 
#
# 1 78.5980 14.2709 19.4020 0.0000 0.0000 0.0000
# 2 14.2709 78.5982 19.4021 0.0000 0.0000 0.0000
# 3 19.4020 19.4021 65.3820 0.0000 0.0000 0.0000
# 4 0.0000 0.0000 0.0000 76.4795 0.0000 0.0000
# 5 0.0000 0.0000 0.0000 0.0000 76.4674 0.0000
# 6 0.0000 0.0000 0.0000 0.0000 0.0000 36.8785
#
#
#
# Elastic Compliance Matrix: (Units=1/GPa)
#
#
# Indices 1 2 3 4 5 6 
#
# 1 0.013919 -0.001627 -0.003648 0.000000 0.000000 0.000000
# 2 -0.001627 0.013919 -0.003648 0.000000 0.000000 0.000000
# 3 -0.003648 -0.003648 0.017460 0.000000 0.000000 0.000000
# 4 0.000000 0.000000 0.000000 0.013075 0.000000 0.000000
# 5 0.000000 0.000000 0.000000 0.000000 0.013077 0.000000
# 6 0.000000 0.000000 0.000000 0.000000 0.000000 0.027116
#
#
# Mechanical properties :
#
#
# Convention : Reuss Voigt Hill
#
# Bulk Modulus (GPa) = 36.42588 36.52535 36.47561
# Shear Modulus (GPa) = 39.82124 49.26529 44.54327
#
# Velocity S-wave (km/s) = 4.46795 4.96960 4.72543
# Velocity P-wave (km/s) = 6.69904 7.15818 6.93241
#
# Compressibility (1/GPa) = 0.02745301
#
# Stress axis : x y z
#
# Youngs Moduli (GPa) = 71.84548 71.84557 57.27512
#
# Poissons Ratio (x) = 0.11688 0.20892
# Poissons Ratio (y) = 0.11688 0.20892
# Poissons Ratio (z) = 0.26206 0.26207
#
# Static dielectric constant tensor:
#      x y z
#    x 3.604240 0.000000 0.000000 
#    y 0.000000 3.604350 0.000000 
#    z 0.000000 0.000000 3.613340 
# 
# 
# High freq. dielectric constant tensor:
#      x y z
#    x 1.784240 0.000000 0.000000 
#    y 0.000000 1.784240 0.000000 
#    z 0.000000 0.000000 1.776710 
# 
# From -- ./inp_files/1868.got.cif
#   From: 2010.03.12/outbox.cif.g09.slc.cpg/sg113_cif.got.tgz:1868.got - 2010.04.14 02:06:34.
