data_PCOD8308043
_publ_section_title
;
Structure prediction by ZEFSAII (Michael W. Deem and Ramdas Pophale) SiO2 
 PCOD8308043
Probable space group: I 41 C D
;
_chemical_formula_sum "Si O2"
_cell_formula_units_Z 64
_cell_length_a 19.358334
_cell_length_b 19.358334
_cell_length_c 9.569307
_cell_angle_alpha 90.000000
_cell_angle_beta 90.000000
_cell_angle_gamma 90.000000
_cell_volume 3586.050863
_symmetry_space_group_name_H-M "I 41 C D"
_symmetry_group_IT_number 110
_symmetry_cell_setting 'tetragonal'
loop_
_space_group_symop_operation_xyz
x,y,z
-y,1/2+x,1/4+z
-x,-y,z
y,1/2-x,1/4+z
-x,y,1/2+z
x,-y,1/2+z
1/2-y,-x,1/4+z
1/2+y,x,1/4+z
1/2+x,1/2+y,1/2+z
1/2-y,x,3/4+z
1/2-x,1/2-y,1/2+z
1/2+y,-x,3/4+z
1/2-x,1/2+y,z
1/2+x,1/2-y,z
-y,1/2-x,3/4+z
y,1/2+x,3/4+z
loop_
_atom_site_type_symbol
_atom_site_label
_atom_site_fract_x
_atom_site_fract_y
_atom_site_fract_z
Si Si1 0.979610 0.320770 0.078050
Si Si2 0.426680 0.591082 0.902151
Si Si3 0.018722 0.773160 0.324201
Si Si4 0.551123 0.599166 0.723314
O O1 0.053847 0.355189 0.113915
O O2 0.950811 0.280954 0.213558
O O3 0.922572 0.377520 0.044093
O O4 0.986233 0.267095 0.953253
O O5 0.420729 0.674192 0.875774
O O6 0.486923 0.560863 0.800865
O O7 0.448945 0.577772 0.061629
O O8 0.957960 0.818215 0.248505
#
# Coordination Sequence:
#
# PCOD8308043 Si02
#       4
#    16  16  16  16
#     4  12  21  36  66  81 120 158 182 244 307 317
#     4  10  22  38  57  90 120 144 199 240 286 347
#     4  10  22  37  55  92 114 152 194 239 281 362
#     4  10  22  38  57  90 120 144 199 239 288 347
#
# _framework density 17.846931000000001
#
# number of rings (size 3 to 8) (size 9 to 14) (size 15 to 20)
#    1.500    0.000    5.000    0.750    3.500    2.000 
#    0.000    0.000    0.000    9.000    0.000    0.000 
#    0.000    0.000    0.000    0.000    0.000    0.000 
#
# Total GULP energy -396546.837753 kJ/mol
# GULP energy per Si atom -12392.088680 kJ/mol
# Density = 1.780631 g / cm^3
# Si number density = 17.846931 Si / 1000 Ang^3
#
#
#
# Elastic Constant Matrix: (Units=GPa)
#
#
# Indices 1 2 3 4 5 6 
#
# 1 71.4309 17.9299 23.8155 0.0000 0.0000 0.0000
# 2 17.9299 71.4309 23.8155 0.0000 0.0000 0.0000
# 3 23.8155 23.8155 115.4747 0.0000 0.0000 0.0000
# 4 0.0000 0.0000 0.0000 29.9336 0.0000 0.0000
# 5 0.0000 0.0000 0.0000 0.0000 29.9336 0.0000
# 6 0.0000 0.0000 0.0000 0.0000 0.0000 8.2279
#
#
#
# Elastic Compliance Matrix: (Units=1/GPa)
#
#
# Indices 1 2 3 4 5 6 
#
# 1 0.015632 -0.003059 -0.002593 0.000000 0.000000 0.000000
# 2 -0.003059 0.015632 -0.002593 0.000000 0.000000 0.000000
# 3 -0.002593 -0.002593 0.009729 0.000000 0.000000 0.000000
# 4 0.000000 0.000000 0.000000 0.033407 0.000000 0.000000
# 5 0.000000 0.000000 0.000000 0.000000 0.033407 0.000000
# 6 0.000000 0.000000 0.000000 0.000000 0.000000 0.121537
#
#
# Mechanical properties :
#
#
# Convention : Reuss Voigt Hill
#
# Bulk Modulus (GPa) = 40.81150 43.27315 42.04232
# Shear Modulus (GPa) = 19.68479 26.47073 23.07776
#
# Velocity S-wave (km/s) = 3.32472 3.85542 3.59986
# Velocity P-wave (km/s) = 6.13641 6.64218 6.39429
#
# Compressibility (1/GPa) = 0.02450290
#
# Stress axis : x y z
#
# Youngs Moduli (GPa) = 63.97144 63.97144 102.78053
#
# Poissons Ratio (x) = 0.19571 0.26651
# Poissons Ratio (y) = 0.19571 0.26651
# Poissons Ratio (z) = 0.16588 0.16588
#
# Static dielectric constant tensor:
#      x y z
#    x 3.143810 0.000000 0.000000 
#    y 0.000000 3.143810 0.000000 
#    z 0.000000 0.000000 3.495900 
# 
# 
# High freq. dielectric constant tensor:
#      x y z
#    x 1.671650 0.000000 0.000000 
#    y 0.000000 1.671650 0.000000 
#    z 0.000000 0.000000 1.715010 
# 
# From -- ./inp_files/343.got.cif
#   From: 2010.03.12/outbox.cif.g09.slc.cpg/sg110_1_cif.got.tgz:343.got - 2010.04.14 01:58:01.
