data_PCOD8308082
_publ_section_title
;
Structure prediction by ZEFSAII (Michael W. Deem and Ramdas Pophale) SiO2 
 PCOD8308082
Probable space group: I 41 C D
;
_chemical_formula_sum "Si O2"
_cell_formula_units_Z 64
_cell_length_a 10.077126
_cell_length_b 10.077126
_cell_length_c 25.774551
_cell_angle_alpha 90.000000
_cell_angle_beta 90.000000
_cell_angle_gamma 90.000000
_cell_volume 2617.366178
_symmetry_space_group_name_H-M "I 41 C D"
_symmetry_group_IT_number 110
_symmetry_cell_setting 'tetragonal'
loop_
_space_group_symop_operation_xyz
x,y,z
-y,1/2+x,1/4+z
-x,-y,z
y,1/2-x,1/4+z
-x,y,1/2+z
x,-y,1/2+z
1/2-y,-x,1/4+z
1/2+y,x,1/4+z
1/2+x,1/2+y,1/2+z
1/2-y,x,3/4+z
1/2-x,1/2-y,1/2+z
1/2+y,-x,3/4+z
1/2-x,1/2+y,z
1/2+x,1/2-y,z
-y,1/2-x,3/4+z
y,1/2+x,3/4+z
loop_
_atom_site_type_symbol
_atom_site_label
_atom_site_fract_x
_atom_site_fract_y
_atom_site_fract_z
Si Si1 0.858408 0.199347 0.952080
Si Si2 0.520427 0.348917 0.349827
Si Si3 0.988387 0.848685 0.169659
Si Si4 0.806825 0.636467 0.818604
O O1 0.977961 0.161196 0.912749
O O2 0.736344 0.097636 0.949538
O O3 0.798658 0.342750 0.935713
O O4 0.918023 0.192033 0.009911
O O5 0.500000 0.500000 0.331879
O O6 0.663450 0.300094 0.330003
O O7 0.410165 0.255321 0.325870
O O8 0.013493 0.836229 0.107468
O O9 0.000000 0.000000 0.188047
#
# Coordination Sequence:
#
# PCOD8308082 Si02
#       4
#    16  16  16  16
#     4  11  26  47  77 111 153 212 253 324 401 460
#     4  11  27  50  74 117 156 195 269 325 383 492
#     4  11  25  48  72 114 158 195 272 333 379 496
#     4  11  26  48  78 109 158 208 255 326 399 459
#
# _framework density 24.452059999999999
#
# number of rings (size 3 to 8) (size 9 to 14) (size 15 to 20)
#    0.000    1.000    2.500    1.500   14.000    5.000 
#    0.000    0.000    0.000    0.000    0.000    0.000 
#    0.000    0.000    0.000    0.000    0.000    0.000 
#
# Total GULP energy -396831.935842 kJ/mol
# GULP energy per Si atom -12400.997995 kJ/mol
# Density = 2.439641 g / cm^3
# Si number density = 24.452060 Si / 1000 Ang^3
#
#
#
# Elastic Constant Matrix: (Units=GPa)
#
#
# Indices 1 2 3 4 5 6 
#
# 1 127.2270 28.0973 2.2304 0.0000 0.0000 0.0000
# 2 28.0973 127.2270 2.2304 0.0000 0.0000 0.0000
# 3 2.2304 2.2304 149.3208 0.0000 0.0000 0.0000
# 4 0.0000 0.0000 0.0000 16.3384 0.0000 0.0000
# 5 0.0000 0.0000 0.0000 0.0000 16.3384 0.0000
# 6 0.0000 0.0000 0.0000 0.0000 0.0000 25.0961
#
#
#
# Elastic Compliance Matrix: (Units=1/GPa)
#
#
# Indices 1 2 3 4 5 6 
#
# 1 0.008264 -0.001823 -0.000096 0.000000 0.000000 0.000000
# 2 -0.001823 0.008264 -0.000096 0.000000 0.000000 0.000000
# 3 -0.000096 -0.000096 0.006700 0.000000 0.000000 0.000000
# 4 0.000000 0.000000 0.000000 0.061206 0.000000 0.000000
# 5 0.000000 0.000000 0.000000 0.000000 0.061206 0.000000
# 6 0.000000 0.000000 0.000000 0.000000 0.000000 0.039847
#
#
# Mechanical properties :
#
#
# Convention : Reuss Voigt Hill
#
# Bulk Modulus (GPa) = 52.09192 52.09903 52.09547
# Shear Modulus (GPa) = 25.52095 36.30233 30.91164
#
# Velocity S-wave (km/s) = 3.23416 3.85727 3.55938
# Velocity P-wave (km/s) = 5.94107 6.41802 6.18414
#
# Compressibility (1/GPa) = 0.01919684
#
# Stress axis : x y z
#
# Youngs Moduli (GPa) = 121.00166 121.00166 149.25676
#
# Poissons Ratio (x) = 0.22064 0.01436
# Poissons Ratio (y) = 0.22064 0.01436
# Poissons Ratio (z) = 0.01164 0.01164
#
# Static dielectric constant tensor:
#      x y z
#    x 4.469800 0.000000 0.000000 
#    y 0.000000 4.469800 0.000000 
#    z 0.000000 0.000000 4.574430 
# 
# 
# High freq. dielectric constant tensor:
#      x y z
#    x 1.974670 0.000000 0.000000 
#    y 0.000000 1.974670 0.000000 
#    z 0.000000 0.000000 1.972560 
# 
# From -- ./inp_files/2816.got.cif
#   From: 2010.03.12/outbox.cif.g09.slc.cpg/sg110_2_cif.got.tgz:2816.got - 2010.04.14 01:58:01.
