data_PCOD8308415
_publ_section_title
;
Structure prediction by ZEFSAII (Michael W. Deem and Ramdas Pophale) SiO2 
 PCOD8308415
Probable space group: P -4 2 C
;
_chemical_formula_sum "Si O2"
_cell_formula_units_Z 26
_cell_length_a 10.637366
_cell_length_b 10.637366
_cell_length_c 8.799931
_cell_angle_alpha 90.000000
_cell_angle_beta 90.000000
_cell_angle_gamma 90.000000
_cell_volume 995.743480
_symmetry_space_group_name_H-M "P -4 2 C"
_symmetry_group_IT_number 112
_symmetry_cell_setting 'tetragonal'
loop_
_space_group_symop_operation_xyz
x,y,z
y,-x,-z
-x,-y,z
-y,x,-z
x,-y,1/2-z
-x,y,1/2-z
-y,-x,1/2+z
y,x,1/2+z
loop_
_atom_site_type_symbol
_atom_site_label
_atom_site_fract_x
_atom_site_fract_y
_atom_site_fract_z
Si Si1 0.500000 0.500000 0.500000
Si Si2 0.597197 0.757472 0.630631
Si Si3 0.676225 0.037054 0.085017
Si Si4 0.122007 0.784399 0.160663
O O1 0.568685 0.610521 0.595561
O O2 0.500000 0.813371 0.750000
O O3 0.591227 0.849105 0.483664
O O4 0.728671 0.773488 0.721561
O O5 0.818207 0.089356 0.094391
O O6 0.621077 0.000000 0.250000
O O7 0.684878 0.915943 0.973009
O O8 0.000000 0.825471 0.250000
#
# Coordination Sequence:
#
# PCOD8308415 Si02
#       4
#     2   8   8   8
#     4  12  26  48  84  98 126 196 256 318 370 440
#     4  11  25  47  70 103 140 180 241 309 371 430
#     4  11  23  42  71 105 144 191 237 288 357 449
#     4  10  23  42  67 105 150 185 233 297 354 436
#
# _framework density 26.111145
#
# number of rings (size 3 to 8) (size 9 to 14) (size 15 to 20)
#    0.000    1.231    0.000    6.000    0.000    9.231 
#    0.000    9.231    0.000    1.846    0.000    0.000 
#    0.000    0.000    0.000    0.000    0.000    0.000 
#
# Total GULP energy -322146.489241 kJ/mol
# GULP energy per Si atom -12390.249586 kJ/mol
# Density = 2.605171 g / cm^3
# Si number density = 26.111145 Si / 1000 Ang^3
#
#
#
# Elastic Constant Matrix: (Units=GPa)
#
#
# Indices 1 2 3 4 5 6 
#
# 1 128.9468 46.2143 62.4430 0.0000 0.0000 0.0000
# 2 46.2143 128.9468 62.4430 0.0000 0.0000 0.0000
# 3 62.4430 62.4430 179.9622 0.0000 0.0000 0.0000
# 4 0.0000 0.0000 0.0000 45.4786 0.0000 0.0000
# 5 0.0000 0.0000 0.0000 0.0000 45.4786 0.0000
# 6 0.0000 0.0000 0.0000 0.0000 0.0000 35.6720
#
#
#
# Elastic Compliance Matrix: (Units=1/GPa)
#
#
# Indices 1 2 3 4 5 6 
#
# 1 0.009836 -0.002251 -0.002632 0.000000 0.000000 0.000000
# 2 -0.002251 0.009836 -0.002632 0.000000 0.000000 0.000000
# 3 -0.002632 -0.002632 0.007383 0.000000 0.000000 0.000000
# 4 0.000000 0.000000 0.000000 0.021988 0.000000 0.000000
# 5 0.000000 0.000000 0.000000 0.000000 0.021988 0.000000
# 6 0.000000 0.000000 0.000000 0.000000 0.000000 0.028033
#
#
# Mechanical properties :
#
#
# Convention : Reuss Voigt Hill
#
# Bulk Modulus (GPa) = 83.15105 86.67292 84.91199
# Shear Modulus (GPa) = 42.33543 43.10955 42.72249
#
# Velocity S-wave (km/s) = 4.03097 4.06766 4.04936
# Velocity P-wave (km/s) = 7.31978 7.43822 7.37924
#
# Compressibility (1/GPa) = 0.01202631
#
# Stress axis : x y z
#
# Youngs Moduli (GPa) = 101.66334 101.66334 135.44170
#
# Poissons Ratio (x) = 0.22882 0.35649
# Poissons Ratio (y) = 0.22882 0.35649
# Poissons Ratio (z) = 0.26758 0.26758
#
# Static dielectric constant tensor:
#      x y z
#    x 4.613950 0.000000 0.000000 
#    y 0.000000 4.613950 0.000000 
#    z 0.000000 0.000000 5.326410 
# 
# 
# High freq. dielectric constant tensor:
#      x y z
#    x 2.034620 0.000000 0.000000 
#    y 0.000000 2.034620 0.000000 
#    z 0.000000 0.000000 2.068190 
# 
# From -- ./inp_files/850.got.cif
#   From: 2010.03.12/outbox.cif.g09.slc.cpg/sg112_1_cif.got.tgz:850.got - 2010.04.14 02:02:48.
