data_PCOD8308559
_publ_section_title
;
Structure prediction by ZEFSAII (Michael W. Deem and Ramdas Pophale) SiO2 
 PCOD8308559
Probable space group: P -4 21 M 
;
_chemical_formula_sum "Si O2"
_cell_formula_units_Z 48
_cell_length_a 13.572797
_cell_length_b 13.572797
_cell_length_c 14.999764
_cell_angle_alpha 90.000000
_cell_angle_beta 90.000000
_cell_angle_gamma 90.000000
_cell_volume 2763.268800
_symmetry_space_group_name_H-M "P -4 21 M "
_symmetry_group_IT_number 113
_symmetry_cell_setting 'tetragonal'
loop_
_space_group_symop_operation_xyz
x,y,z
y,-x,-z
-x,-y,z
-y,x,-z
1/2+x,1/2-y,-z
1/2-x,1/2+y,-z
1/2-y,1/2-x,z
1/2+y,1/2+x,z
loop_
_atom_site_type_symbol
_atom_site_label
_atom_site_fract_x
_atom_site_fract_y
_atom_site_fract_z
Si Si1 0.390887 0.450966 0.697519
Si Si2 0.192979 0.154057 0.333295
Si Si3 0.213504 0.130139 0.837861
Si Si4 0.888420 0.886254 0.513744
Si Si5 0.252767 0.911006 0.824062
Si Si6 0.609400 0.385695 0.988005
O O1 0.500000 0.500000 0.684971
O O2 0.311143 0.539350 0.694115
O O3 0.380395 0.391149 0.788129
O O4 0.365679 0.370889 0.619036
O O5 0.301865 0.198136 0.313476
O O6 0.171262 0.174425 0.438834
O O7 0.112855 0.213075 0.274691
O O8 0.282659 0.217342 0.800303
O O9 0.187570 0.154606 0.940129
O O10 0.272651 0.027435 0.830409
O O11 0.001847 0.861595 0.502340
O O12 0.355000 0.855000 0.843685
O O13 0.170546 0.876279 0.895035
O O14 0.500696 0.369979 0.028529
#
# Coordination Sequence:
#
# PCOD8308559 Si02
#       6
#     8   8   8   8   8   8
#     4  11  18  33  56  75 105 137 174 220 265 309
#     4  10  19  30  51  81 103 130 175 218 262 314
#     4  11  22  33  50  79 108 139 179 225 267 317
#     4   9  14  27  47  72  96 130 161 209 257 300
#     4  10  19  33  50  72 106 143 174 217 270 323
#     4   9  18  31  53  77 102 134 179 225 270 310
#
# _framework density 17.370729999999998
#
# number of rings (size 3 to 8) (size 9 to 14) (size 15 to 20)
#    0.000    2.000    5.000    1.500    2.333    1.000 
#    0.000    0.000    0.000    0.500    0.000    0.000 
#    0.000    0.000    0.000    0.000    0.000    0.000 
#
# Total GULP energy -594729.979526 kJ/mol
# GULP energy per Si atom -12390.207907 kJ/mol
# Density = 1.733119 g / cm^3
# Si number density = 17.370730 Si / 1000 Ang^3
#
#
#
# Elastic Constant Matrix: (Units=GPa)
#
#
# Indices 1 2 3 4 5 6 
#
# 1 69.3319 43.5383 31.6416 0.0000 0.0000 0.0000
# 2 43.5383 69.3309 31.6410 0.0000 0.0000 0.0000
# 3 31.6416 31.6410 73.8777 0.0000 0.0000 0.0000
# 4 0.0000 0.0000 0.0000 19.4898 0.0000 0.0000
# 5 0.0000 0.0000 0.0000 0.0000 19.4895 0.0000
# 6 0.0000 0.0000 0.0000 0.0000 0.0000 31.8500
#
#
#
# Elastic Compliance Matrix: (Units=1/GPa)
#
#
# Indices 1 2 3 4 5 6 
#
# 1 0.025215 -0.013555 -0.004994 0.000000 0.000000 0.000000
# 2 -0.013555 0.025215 -0.004994 0.000000 0.000000 0.000000
# 3 -0.004994 -0.004994 0.017813 0.000000 0.000000 0.000000
# 4 0.000000 0.000000 0.000000 0.051309 0.000000 0.000000
# 5 0.000000 0.000000 0.000000 0.000000 0.051310 0.000000
# 6 0.000000 0.000000 0.000000 0.000000 0.000000 0.031397
#
#
# Mechanical properties :
#
#
# Convention : Reuss Voigt Hill
#
# Bulk Modulus (GPa) = 47.26401 47.35357 47.30879
# Shear Modulus (GPa) = 19.50104 21.21384 20.35744
#
# Velocity S-wave (km/s) = 3.35421 3.49842 3.42707
# Velocity P-wave (km/s) = 6.50147 6.60593 6.55391
#
# Compressibility (1/GPa) = 0.02115775
#
# Stress axis : x y z
#
# Youngs Moduli (GPa) = 39.65938 39.65901 56.13739
#
# Poissons Ratio (x) = 0.53759 0.28034
# Poissons Ratio (y) = 0.53759 0.28033
# Poissons Ratio (z) = 0.19805 0.19804
#
# Static dielectric constant tensor:
#      x y z
#    x 3.011710 0.000000 0.000000 
#    y 0.000000 3.011700 0.000000 
#    z 0.000000 0.000000 3.522540 
# 
# 
# High freq. dielectric constant tensor:
#      x y z
#    x 1.642280 0.000000 0.000000 
#    y 0.000000 1.642280 0.000000 
#    z 0.000000 0.000000 1.691670 
# 
# From -- ./inp_files/2238.got.cif
#   From: 2010.03.12/outbox.cif.g09.slc.cpg/sg113_cif.got.tgz:2238.got - 2010.04.14 02:06:34.
