data_PCOD8308611
_publ_section_title
;
Structure prediction by ZEFSAII (Michael W. Deem and Ramdas Pophale) SiO2 
 PCOD8308611
Probable space group: P -4 21 M 
;
_chemical_formula_sum "Si O2"
_cell_formula_units_Z 48
_cell_length_a 12.312396
_cell_length_b 12.312396
_cell_length_c 17.987711
_cell_angle_alpha 90.000000
_cell_angle_beta 90.000000
_cell_angle_gamma 90.000000
_cell_volume 2726.848763
_symmetry_space_group_name_H-M "P -4 21 M "
_symmetry_group_IT_number 113
_symmetry_cell_setting 'tetragonal'
loop_
_space_group_symop_operation_xyz
x,y,z
y,-x,-z
-x,-y,z
-y,x,-z
1/2+x,1/2-y,-z
1/2-x,1/2+y,-z
1/2-y,1/2-x,z
1/2+y,1/2+x,z
loop_
_atom_site_type_symbol
_atom_site_label
_atom_site_fract_x
_atom_site_fract_y
_atom_site_fract_z
Si Si1 0.787899 0.890135 0.567583
Si Si2 0.000808 0.667174 0.929533
Si Si3 0.631978 0.312932 0.172194
Si Si4 0.876117 0.026474 0.326213
Si Si5 0.819268 0.142253 0.592703
Si Si6 0.451067 0.345268 0.968945
O O1 0.673516 0.826485 0.580940
O O2 0.881542 0.833499 0.617172
O O3 0.825693 0.879067 0.483177
O O4 0.778867 0.016776 0.591126
O O5 0.085014 0.585014 0.891809
O O6 0.896473 0.603528 0.962106
O O7 0.964340 0.746131 0.864709
O O8 0.060204 0.725390 0.998108
O O9 0.738901 0.238901 0.187785
O O10 0.576556 0.359306 0.245223
O O11 0.659522 0.412619 0.116560
O O12 0.824279 0.907752 0.343228
O O13 0.000000 0.000000 0.342279
O O14 0.711948 0.211948 0.607613
O O15 0.380337 0.423449 0.022746
#
# Coordination Sequence:
#
# PCOD8308611 Si02
#       6
#     8   8   8   8   8   8
#     4  10  19  35  57  80 108 142 182 226 270 324
#     4   9  18  32  50  73 104 140 173 212 263 317
#     4  10  20  33  52  79 106 139 174 214 269 321
#     4  10  21  33  56  77 109 139 181 222 271 319
#     4  10  20  35  56  81 110 143 183 224 272 326
#     4   9  18  31  53  74 103 130 177 223 259 309
#
# _framework density 17.602734999999999
#
# number of rings (size 3 to 8) (size 9 to 14) (size 15 to 20)
#    0.000    2.333    1.667    1.000    4.667    1.667 
#    0.000    0.000    0.000    2.500    0.000    0.000 
#    0.000    0.000    0.000    0.000    0.000    0.000 
#
# Total GULP energy -594660.885670 kJ/mol
# GULP energy per Si atom -12388.768451 kJ/mol
# Density = 1.756267 g / cm^3
# Si number density = 17.602735 Si / 1000 Ang^3
#
#
#
# Elastic Constant Matrix: (Units=GPa)
#
#
# Indices 1 2 3 4 5 6 
#
# 1 64.1952 25.1028 14.5060 0.0000 0.0000 0.0000
# 2 25.1028 64.1926 14.5062 0.0000 0.0000 0.0000
# 3 14.5060 14.5062 69.3002 0.0000 0.0000 0.0000
# 4 0.0000 0.0000 0.0000 20.7947 0.0000 0.0000
# 5 0.0000 0.0000 0.0000 0.0000 20.7943 0.0000
# 6 0.0000 0.0000 0.0000 0.0000 0.0000 18.2137
#
#
#
# Elastic Compliance Matrix: (Units=1/GPa)
#
#
# Indices 1 2 3 4 5 6 
#
# 1 0.018798 -0.006783 -0.002515 0.000000 0.000000 0.000000
# 2 -0.006783 0.018799 -0.002515 0.000000 0.000000 0.000000
# 3 -0.002515 -0.002515 0.015483 0.000000 0.000000 0.000000
# 4 0.000000 0.000000 0.000000 0.048089 0.000000 0.000000
# 5 0.000000 0.000000 0.000000 0.000000 0.048090 0.000000
# 6 0.000000 0.000000 0.000000 0.000000 0.000000 0.054904
#
#
# Mechanical properties :
#
#
# Convention : Reuss Voigt Hill
#
# Bulk Modulus (GPa) = 33.95146 33.99089 33.97117
# Shear Modulus (GPa) = 21.04313 21.53207 21.28760
#
# Velocity S-wave (km/s) = 3.46127 3.50125 3.48132
# Velocity P-wave (km/s) = 5.94166 5.97469 5.95820
#
# Compressibility (1/GPa) = 0.02945382
#
# Stress axis : x y z
#
# Youngs Moduli (GPa) = 53.19678 53.19446 64.58725
#
# Poissons Ratio (x) = 0.36080 0.16244
# Poissons Ratio (y) = 0.36082 0.16246
# Poissons Ratio (z) = 0.13379 0.13380
#
# Static dielectric constant tensor:
#      x y z
#    x 3.439370 0.000000 0.000000 
#    y 0.000000 3.439370 0.000000 
#    z 0.000000 0.000000 3.144890 
# 
# 
# High freq. dielectric constant tensor:
#      x y z
#    x 1.682580 0.000000 0.000000 
#    y 0.000000 1.682580 0.000000 
#    z 0.000000 0.000000 1.664410 
# 
# From -- ./inp_files/2464.got.cif
#   From: 2010.03.12/outbox.cif.g09.slc.cpg/sg113_cif.got.tgz:2464.got - 2010.04.14 02:06:34.
