data_PCOD8308323
_publ_section_title
;
Structure prediction by ZEFSAII (Michael W. Deem and Ramdas Pophale) SiO2 
 PCOD8308323
Probable space group: P -4 2 C
;
_chemical_formula_sum "Si O2"
_cell_formula_units_Z 38
_cell_length_a 8.691429
_cell_length_b 8.691429
_cell_length_c 24.498737
_cell_angle_alpha 90.000000
_cell_angle_beta 90.000000
_cell_angle_gamma 90.000000
_cell_volume 1850.657574
_symmetry_space_group_name_H-M "P -4 2 C"
_symmetry_group_IT_number 112
_symmetry_cell_setting 'tetragonal'
loop_
_space_group_symop_operation_xyz
x,y,z
y,-x,-z
-x,-y,z
-y,x,-z
x,-y,1/2-z
-x,y,1/2-z
-y,-x,1/2+z
y,x,1/2+z
loop_
_atom_site_type_symbol
_atom_site_label
_atom_site_fract_x
_atom_site_fract_y
_atom_site_fract_z
Si Si1 0.500000 0.500000 0.250000
Si Si2 0.616891 0.298935 0.085486
Si Si3 0.845591 0.578968 0.103043
Si Si4 0.625050 0.747758 0.175406
Si Si5 0.500000 0.000000 0.250000
Si Si6 0.500000 0.500000 0.500000
Si Si7 0.901533 0.228238 0.503114
O O1 0.614006 0.600320 0.213766
O O2 0.713693 0.450433 0.100393
O O3 0.524631 0.238682 0.137063
O O4 0.498413 0.347057 0.037308
O O5 0.719126 0.160540 0.062279
O O6 0.783373 0.720058 0.141296
O O7 0.884257 0.642644 0.043079
O O8 0.000000 0.500000 0.127505
O O9 0.618258 0.899892 0.212975
O O10 0.078566 0.192765 0.514899
#
# Coordination Sequence:
#
# PCOD8308323 Si02
#       7
#     2   8   8   8   2   2   8
#     4  10  18  42  66  84 124 146 216 286 340 372
#     4  12  20  37  62  92 132 173 220 269 318 388
#     4  12  23  39  64  98 129 174 221 268 328 392
#     4  11  23  42  68  95 122 166 218 287 337 390
#     4  10  28  46  72  96 124 166 232 288 348 404
#     4  12  18  32  60  98 132 160 218 260 304 382
#     4  11  25  39  56  92 146 184 211 257 324 408
#
# _framework density 20.533239999999999
#
# number of rings (size 3 to 8) (size 9 to 14) (size 15 to 20)
#    0.000    0.632    8.421    0.000    2.947    0.000 
#    0.000    0.526    0.000    1.263    0.000    0.000 
#    0.000    0.000    0.000    0.000    0.000    0.000 
#
# Total GULP energy -471154.242082 kJ/mol
# GULP energy per Si atom -12398.795844 kJ/mol
# Density = 2.048651 g / cm^3
# Si number density = 20.533240 Si / 1000 Ang^3
#
#
#
# Elastic Constant Matrix: (Units=GPa)
#
#
# Indices 1 2 3 4 5 6 
#
# 1 100.9121 41.7296 45.0999 0.0000 0.0000 0.0000
# 2 41.7296 100.9121 45.0999 0.0000 0.0000 0.0000
# 3 45.0999 45.0999 100.0940 0.0000 0.0000 0.0000
# 4 0.0000 0.0000 0.0000 28.5567 0.0000 0.0000
# 5 0.0000 0.0000 0.0000 0.0000 28.5567 0.0000
# 6 0.0000 0.0000 0.0000 0.0000 0.0000 27.8198
#
#
#
# Elastic Compliance Matrix: (Units=1/GPa)
#
#
# Indices 1 2 3 4 5 6 
#
# 1 0.013350 -0.003546 -0.004417 0.000000 0.000000 0.000000
# 2 -0.003546 0.013350 -0.004417 0.000000 0.000000 0.000000
# 3 -0.004417 -0.004417 0.013971 0.000000 0.000000 0.000000
# 4 0.000000 0.000000 0.000000 0.035018 0.000000 0.000000
# 5 0.000000 0.000000 0.000000 0.000000 0.035018 0.000000
# 6 0.000000 0.000000 0.000000 0.000000 0.000000 0.035946
#
#
# Mechanical properties :
#
#
# Convention : Reuss Voigt Hill
#
# Bulk Modulus (GPa) = 62.85521 62.86412 62.85966
# Shear Modulus (GPa) = 28.29339 28.31923 28.30631
#
# Velocity S-wave (km/s) = 3.71608 3.71777 3.71693
# Velocity P-wave (km/s) = 7.00644 7.00795 7.00719
#
# Compressibility (1/GPa) = 0.01590958
#
# Stress axis : x y z
#
# Youngs Moduli (GPa) = 74.90411 74.90411 71.57496
#
# Poissons Ratio (x) = 0.26565 0.31618
# Poissons Ratio (y) = 0.26565 0.31618
# Poissons Ratio (z) = 0.33088 0.33088
#
# Static dielectric constant tensor:
#      x y z
#    x 3.804980 0.000000 0.000000 
#    y 0.000000 3.804980 0.000000 
#    z 0.000000 0.000000 3.824920 
# 
# 
# High freq. dielectric constant tensor:
#      x y z
#    x 1.796430 0.000000 0.000000 
#    y 0.000000 1.796430 0.000000 
#    z 0.000000 0.000000 1.799800 
# 
# From -- ./inp_files/5426.got.cif
#   From: 2010.03.12/outbox.cif.g09.slc.cpg/sg112_3_cif.got.tgz:5426.got - 2010.04.14 02:02:48.
