data_PCOD8308866
_publ_section_title
;
Structure prediction by ZEFSAII (Michael W. Deem and Ramdas Pophale) SiO2 
 PCOD8308866
Probable space group: P -4 21 C
;
_chemical_formula_sum "Si O2"
_cell_formula_units_Z 24
_cell_length_a 8.758514
_cell_length_b 8.758514
_cell_length_c 14.310445
_cell_angle_alpha 90.000000
_cell_angle_beta 90.000000
_cell_angle_gamma 90.000000
_cell_volume 1097.776667
_symmetry_space_group_name_H-M "P -4 21 C"
_symmetry_group_IT_number 114
_symmetry_cell_setting 'tetragonal'
loop_
_space_group_symop_operation_xyz
x,y,z
y,-x,-z
-x,-y,z
-y,x,-z
1/2+x,1/2-y,1/2-z
1/2-x,1/2+y,1/2-z
1/2-y,1/2-x,1/2+z
1/2+y,1/2+x,1/2+z
loop_
_atom_site_type_symbol
_atom_site_label
_atom_site_fract_x
_atom_site_fract_y
_atom_site_fract_z
Si Si1 0.096774 0.347876 0.944974
Si Si2 0.695940 0.310175 0.377144
Si Si3 0.002161 0.679954 0.271928
O O1 0.207530 0.382904 0.857419
O O2 0.000000 0.500000 0.967939
O O3 0.982245 0.210247 0.915634
O O4 0.196907 0.302121 0.033765
O O5 0.541364 0.283345 0.317401
O O6 0.833155 0.265158 0.307637
O O7 0.000000 0.500000 0.245107
#
# Coordination Sequence:
#
# PCOD8308866 Si02
#       3
#     8   8   8
#     4   9  21  39  62  90 123 170 201 266 321 372
#     4  10  20  39  65  87 128 163 214 256 319 380
#     4   9  21  40  61  90 123 170 206 259 322 374
#
# _framework density 21.862369999999999
#
# number of rings (size 3 to 8) (size 9 to 14) (size 15 to 20)
#    0.000    3.333    0.000    1.000    4.667    0.667 
#   12.000    0.000   29.333    0.000    0.000    0.000 
#    0.000    0.000    0.000    0.000    0.000    0.000 
#
# Total GULP energy -297454.056945 kJ/mol
# GULP energy per Si atom -12393.919039 kJ/mol
# Density = 2.181261 g / cm^3
# Si number density = 21.862370 Si / 1000 Ang^3
#
#
#
# Elastic Constant Matrix: (Units=GPa)
#
#
# Indices 1 2 3 4 5 6 
#
# 1 53.7274 27.8878 32.6090 0.0000 0.0000 0.0000
# 2 27.8878 53.7274 32.6090 0.0000 0.0000 0.0000
# 3 32.6090 32.6090 102.1975 0.0000 0.0000 0.0000
# 4 0.0000 0.0000 0.0000 21.9645 0.0000 0.0000
# 5 0.0000 0.0000 0.0000 0.0000 21.9645 0.0000
# 6 0.0000 0.0000 0.0000 0.0000 0.0000 33.9805
#
#
#
# Elastic Compliance Matrix: (Units=1/GPa)
#
#
# Indices 1 2 3 4 5 6 
#
# 1 0.027573 -0.011127 -0.005248 0.000000 0.000000 0.000000
# 2 -0.011127 0.027573 -0.005248 0.000000 0.000000 0.000000
# 3 -0.005248 -0.005248 0.013134 0.000000 0.000000 0.000000
# 4 0.000000 0.000000 0.000000 0.045528 0.000000 0.000000
# 5 0.000000 0.000000 0.000000 0.000000 0.045528 0.000000
# 6 0.000000 0.000000 0.000000 0.000000 0.000000 0.029429
#
#
# Mechanical properties :
#
#
# Convention : Reuss Voigt Hill
#
# Bulk Modulus (GPa) = 39.94347 43.98486 41.96416
# Shear Modulus (GPa) = 20.80264 23.35169 22.07717
#
# Velocity S-wave (km/s) = 3.08803 3.27176 3.18122
# Velocity P-wave (km/s) = 5.56998 5.86815 5.72101
#
# Compressibility (1/GPa) = 0.02503538
#
# Stress axis : x y z
#
# Youngs Moduli (GPa) = 36.26721 36.26721 76.14001
#
# Poissons Ratio (x) = 0.40355 0.39955
# Poissons Ratio (y) = 0.40355 0.39955
# Poissons Ratio (z) = 0.19031 0.19031
#
# Static dielectric constant tensor:
#      x y z
#    x 3.682950 0.000000 0.000000 
#    y 0.000000 3.682950 0.000000 
#    z 0.000000 0.000000 4.069460 
# 
# 
# High freq. dielectric constant tensor:
#      x y z
#    x 1.836810 0.000000 0.000000 
#    y 0.000000 1.836810 0.000000 
#    z 0.000000 0.000000 1.876150 
# 
# From -- ./inp_files/1922.got.cif
#   From: 2010.03.12/outbox.cif.g09.slc.cpg/sg114_1_cif.got.tgz:1922.got - 2010.04.14 02:08:34.
