data_PCOD8308374
_publ_section_title
;
Structure prediction by ZEFSAII (Michael W. Deem and Ramdas Pophale) SiO2 
 PCOD8308374
Probable space group: P -4 2 C
;
_chemical_formula_sum "Si O2"
_cell_formula_units_Z 64
_cell_length_a 19.467512
_cell_length_b 19.467512
_cell_length_c 9.053201
_cell_angle_alpha 90.000000
_cell_angle_beta 90.000000
_cell_angle_gamma 90.000000
_cell_volume 3431.018540
_symmetry_space_group_name_H-M "P -4 2 C"
_symmetry_group_IT_number 112
_symmetry_cell_setting 'tetragonal'
loop_
_space_group_symop_operation_xyz
x,y,z
y,-x,-z
-x,-y,z
-y,x,-z
x,-y,1/2-z
-x,y,1/2-z
-y,-x,1/2+z
y,x,1/2+z
loop_
_atom_site_type_symbol
_atom_site_label
_atom_site_fract_x
_atom_site_fract_y
_atom_site_fract_z
Si Si1 0.250993 0.866586 0.140862
Si Si2 0.632128 0.030951 0.095760
Si Si3 0.783355 0.157259 0.456345
Si Si4 0.941161 0.301479 0.134067
Si Si5 0.846593 0.459410 0.484223
Si Si6 0.334181 0.271079 0.026381
Si Si7 0.171166 0.407220 0.333480
Si Si8 0.366777 0.248294 0.348131
O O1 0.291972 0.936252 0.112215
O O2 0.206711 0.870841 0.291183
O O3 0.196067 0.852325 0.010290
O O4 0.306684 0.807150 0.152119
O O5 0.605140 0.000000 0.250000
O O6 0.574765 0.081437 0.029547
O O7 0.643943 0.968900 0.984685
O O8 0.766328 0.091850 0.560692
O O9 0.722040 0.211750 0.456835
O O10 0.879580 0.344350 0.207326
O O11 0.000000 0.279683 0.250000
O O12 0.858924 0.540975 0.461209
O O13 0.815953 0.438363 0.326282
O O14 0.788490 0.438418 0.605112
O O15 0.384131 0.244665 0.896892
O O16 0.304752 0.344260 0.970486
O O17 0.373100 0.280751 0.183751
#
# Coordination Sequence:
#
# PCOD8308374 Si02
#       8
#     8   8   8   8   8   8   8   8
#     4   9  18  30  48  68  93 117 155 203 256 296
#     4  11  21  36  50  69 100 134 169 208 247 290
#     4   9  18  30  47  70  91 119 155 205 254 298
#     4  11  21  34  50  69  98 135 172 205 241 293
#     4  10  21  35  49  68 100 138 174 212 247 289
#     4   9  17  30  50  71  93 122 163 210 257 302
#     4  10  21  35  48  69 100 136 177 210 245 292
#     4   9  17  30  50  71  92 123 162 209 260 298
#
# _framework density 18.653352999999999
#
# number of rings (size 3 to 8) (size 9 to 14) (size 15 to 20)
#    0.000    2.250    2.500    0.750    3.500    4.000 
#    0.000    0.625    0.000    0.000    0.000    0.000 
#    0.000    3.500    0.000    5.250    0.000    2.500 
#
# Total GULP energy -793052.770847 kJ/mol
# GULP energy per Si atom -12391.449544 kJ/mol
# Density = 1.861090 g / cm^3
# Si number density = 18.653353 Si / 1000 Ang^3
#
#
#
# Elastic Constant Matrix: (Units=GPa)
#
#
# Indices 1 2 3 4 5 6 
#
# 1 30.5309 21.8029 5.9057 0.0000 0.0000 0.0000
# 2 21.8029 30.5309 5.9057 0.0000 0.0000 0.0000
# 3 5.9057 5.9057 80.3592 0.0000 0.0000 0.0000
# 4 0.0000 0.0000 0.0000 26.9533 0.0000 0.0000
# 5 0.0000 0.0000 0.0000 0.0000 26.9533 0.0000
# 6 0.0000 0.0000 0.0000 0.0000 0.0000 15.1343
#
#
#
# Elastic Compliance Matrix: (Units=1/GPa)
#
#
# Indices 1 2 3 4 5 6 
#
# 1 0.067002 -0.047572 -0.001428 0.000000 0.000000 0.000000
# 2 -0.047572 0.067002 -0.001428 0.000000 0.000000 0.000000
# 3 -0.001428 -0.001428 0.012654 0.000000 0.000000 0.000000
# 4 0.000000 0.000000 0.000000 0.037101 0.000000 0.000000
# 5 0.000000 0.000000 0.000000 0.000000 0.037101 0.000000
# 6 0.000000 0.000000 0.000000 0.000000 0.000000 0.066075
#
#
# Mechanical properties :
#
#
# Convention : Reuss Voigt Hill
#
# Bulk Modulus (GPa) = 21.83270 23.18332 22.50801
# Shear Modulus (GPa) = 12.40517 20.99531 16.70024
#
# Velocity S-wave (km/s) = 2.58163 3.35856 2.99539
# Velocity P-wave (km/s) = 4.54051 5.24361 4.90467
#
# Compressibility (1/GPa) = 0.04580286
#
# Stress axis : x y z
#
# Youngs Moduli (GPa) = 14.92494 14.92494 79.02629
#
# Poissons Ratio (x) = 0.71000 0.11285
# Poissons Ratio (y) = 0.71000 0.11285
# Poissons Ratio (z) = 0.02131 0.02131
#
# Static dielectric constant tensor:
#      x y z
#    x 3.252030 0.000000 0.000000 
#    y 0.000000 3.252030 0.000000 
#    z 0.000000 0.000000 3.697070 
# 
# 
# High freq. dielectric constant tensor:
#      x y z
#    x 1.683530 0.000000 0.000000 
#    y 0.000000 1.683530 0.000000 
#    z 0.000000 0.000000 1.745360 
# 
# From -- ./inp_files/1654.got.cif
#   From: 2010.03.12/outbox.cif.g09.slc.cpg/sg112_1_cif.got.tgz:1654.got - 2010.04.14 02:02:48.
