data_PCOD8308996
_publ_section_title
;
Structure prediction by ZEFSAII (Michael W. Deem and Ramdas Pophale) SiO2 
 PCOD8308996
Probable space group: P -4 21 C
;
_chemical_formula_sum "Si O2"
_cell_formula_units_Z 44
_cell_length_a 8.866645
_cell_length_b 8.866645
_cell_length_c 28.140081
_cell_angle_alpha 90.000000
_cell_angle_beta 90.000000
_cell_angle_gamma 90.000000
_cell_volume 2212.299823
_symmetry_space_group_name_H-M "P -4 21 C"
_symmetry_group_IT_number 114
_symmetry_cell_setting 'tetragonal'
loop_
_space_group_symop_operation_xyz
x,y,z
y,-x,-z
-x,-y,z
-y,x,-z
1/2+x,1/2-y,1/2-z
1/2-x,1/2+y,1/2-z
1/2-y,1/2-x,1/2+z
1/2+y,1/2+x,1/2+z
loop_
_atom_site_type_symbol
_atom_site_label
_atom_site_fract_x
_atom_site_fract_y
_atom_site_fract_z
Si Si1 0.500000 0.000000 0.124585
Si Si2 0.238853 0.035670 0.447012
Si Si3 0.522528 0.831919 0.845668
Si Si4 0.976337 0.250124 0.449277
Si Si5 0.833299 0.687310 0.305098
Si Si6 0.633110 0.385550 0.781342
O O1 0.567057 0.869260 0.091062
O O2 0.357500 0.944447 0.156241
O O3 0.324760 0.038717 0.497897
O O4 0.131316 0.892170 0.446798
O O5 0.351112 0.021456 0.402591
O O6 0.145361 0.190359 0.440211
O O7 0.676059 0.755907 0.828535
O O8 0.391362 0.716765 0.828452
O O9 0.500000 0.000000 0.824094
O O10 0.732492 0.634485 0.261528
O O11 0.006740 0.722599 0.288530
O O12 0.500000 0.500000 0.770167
#
# Coordination Sequence:
#
# PCOD8308996 Si02
#       6
#     4   8   8   8   8   8
#     4  12  22  34  62  94 126 152 202 258 324 366
#     4   9  18  38  59  87 116 165 202 250 299 373
#     4  11  22  38  61  89 119 161 210 250 302 374
#     4   9  19  35  61  86 122 153 207 252 306 362
#     4  11  24  40  62  90 122 162 204 261 320 372
#     4  10  24  41  62  84 122 158 209 255 305 371
#
# _framework density 19.888805999999999
#
# number of rings (size 3 to 8) (size 9 to 14) (size 15 to 20)
#    0.000    1.818    1.818    3.273   12.727    0.000 
#    3.273    0.000    0.000    0.000    0.000    0.000 
#    0.000    0.000    0.000    0.000    0.000    0.000 
#
# Total GULP energy -545241.563161 kJ/mol
# GULP energy per Si atom -12391.853708 kJ/mol
# Density = 1.984354 g / cm^3
# Si number density = 19.888806 Si / 1000 Ang^3
#
#
#
# Elastic Constant Matrix: (Units=GPa)
#
#
# Indices 1 2 3 4 5 6 
#
# 1 91.7394 33.9949 49.2413 0.0000 0.0000 0.0000
# 2 33.9949 91.7394 49.2413 0.0000 0.0000 0.0000
# 3 49.2413 49.2413 140.0039 0.0000 0.0000 0.0000
# 4 0.0000 0.0000 0.0000 28.9092 0.0000 0.0000
# 5 0.0000 0.0000 0.0000 0.0000 28.9092 0.0000
# 6 0.0000 0.0000 0.0000 0.0000 0.0000 16.0322
#
#
#
# Elastic Compliance Matrix: (Units=1/GPa)
#
#
# Indices 1 2 3 4 5 6 
#
# 1 0.014148 -0.003170 -0.003861 0.000000 0.000000 0.000000
# 2 -0.003170 0.014148 -0.003861 0.000000 0.000000 0.000000
# 3 -0.003861 -0.003861 0.009859 0.000000 0.000000 0.000000
# 4 0.000000 0.000000 0.000000 0.034591 0.000000 0.000000
# 5 0.000000 0.000000 0.000000 0.000000 0.034591 0.000000
# 6 0.000000 0.000000 0.000000 0.000000 0.000000 0.062374
#
#
# Mechanical properties :
#
#
# Convention : Reuss Voigt Hill
#
# Bulk Modulus (GPa) = 61.08859 65.38199 63.23529
# Shear Modulus (GPa) = 25.38708 27.50378 26.44543
#
# Velocity S-wave (km/s) = 3.57662 3.72274 3.65041
# Velocity P-wave (km/s) = 6.91650 7.17102 7.04491
#
# Compressibility (1/GPa) = 0.01636967
#
# Stress axis : x y z
#
# Youngs Moduli (GPa) = 70.68381 70.68381 101.43510
#
# Poissons Ratio (x) = 0.22408 0.39163
# Poissons Ratio (y) = 0.22408 0.39163
# Poissons Ratio (z) = 0.27290 0.27290
#
# Static dielectric constant tensor:
#      x y z
#    x 3.601450 0.000000 0.000000 
#    y 0.000000 3.601450 0.000000 
#    z 0.000000 0.000000 4.012340 
# 
# 
# High freq. dielectric constant tensor:
#      x y z
#    x 1.758250 0.000000 0.000000 
#    y 0.000000 1.758250 0.000000 
#    z 0.000000 0.000000 1.797260 
# 
# From -- ./inp_files/3857.got.cif
#   From: 2010.03.12/outbox.cif.g09.slc.cpg/sg114_2_cif.got.tgz:3857.got - 2010.04.14 02:08:34.
