data_PCOD8308036
_publ_section_title
;
Structure prediction by ZEFSAII (Michael W. Deem and Ramdas Pophale) SiO2 
 PCOD8308036
Probable space group: I 41 C D
;
_chemical_formula_sum "Si O2"
_cell_formula_units_Z 120
_cell_length_a 17.663569
_cell_length_b 17.663569
_cell_length_c 19.604341
_cell_angle_alpha 90.000000
_cell_angle_beta 90.000000
_cell_angle_gamma 90.000000
_cell_volume 6116.587128
_symmetry_space_group_name_H-M "I 41 C D"
_symmetry_group_IT_number 110
_symmetry_cell_setting 'tetragonal'
loop_
_space_group_symop_operation_xyz
x,y,z
-y,1/2+x,1/4+z
-x,-y,z
y,1/2-x,1/4+z
-x,y,1/2+z
x,-y,1/2+z
1/2-y,-x,1/4+z
1/2+y,x,1/4+z
1/2+x,1/2+y,1/2+z
1/2-y,x,3/4+z
1/2-x,1/2-y,1/2+z
1/2+y,-x,3/4+z
1/2-x,1/2+y,z
1/2+x,1/2-y,z
-y,1/2-x,3/4+z
y,1/2+x,3/4+z
loop_
_atom_site_type_symbol
_atom_site_label
_atom_site_fract_x
_atom_site_fract_y
_atom_site_fract_z
Si Si1 0.351947 0.960093 0.099680
Si Si2 0.355499 0.475069 0.508278
Si Si3 0.623343 0.638671 0.618585
Si Si4 0.493061 0.299032 0.201727
Si Si5 0.694854 0.489710 0.647992
Si Si6 0.329529 0.173542 0.437507
Si Si7 0.696724 0.204908 0.087410
Si Si8 0.000000 0.500000 0.174565
O O1 0.285890 0.990040 0.149694
O O2 0.356151 0.868319 0.102061
O O3 0.428695 0.994548 0.126126
O O4 0.341003 0.992646 0.024168
O O5 0.378014 0.392534 0.540426
O O6 0.283892 0.468293 0.457415
O O7 0.331535 0.530715 0.570297
O O8 0.426656 0.510842 0.471036
O O9 0.539275 0.650715 0.647522
O O10 0.663997 0.574164 0.666645
O O11 0.665973 0.718452 0.620951
O O12 0.407502 0.290933 0.175122
O O13 0.664300 0.421595 0.695782
O O14 0.296142 0.213212 0.505524
O O15 0.310292 0.221835 0.370675
#
# Coordination Sequence:
#
# PCOD8308036 Si02
#       8
#    16  16  16  16  16  16  16   8
#     4   9  21  39  59  89 127 161 204 264 317 377
#     4   9  23  39  59  93 124 159 206 265 308 379
#     4  10  22  37  67  85 124 165 208 261 318 380
#     4  10  21  42  62  89 129 157 213 263 309 392
#     4   8  20  38  57  87 124 157 205 259 309 376
#     4  10  22  40  65  89 130 168 210 261 326 377
#     4  10  22  40  64  92 124 178 207 261 326 383
#     4  12  22  36  68  84 124 164 206 258 326 368
#
# _framework density 19.618784000000002
#
# number of rings (size 3 to 8) (size 9 to 14) (size 15 to 20)
#    0.800    1.600    0.000    1.600    7.467    3.733 
#    0.000    1.333    0.000    0.000    0.000    0.000 
#    0.000    0.000    0.000    0.000    0.000    0.000 
#
# Total GULP energy -743607.167154 kJ/mol
# GULP energy per Si atom -12393.452786 kJ/mol
# Density = 1.957413 g / cm^3
# Si number density = 19.618784 Si / 1000 Ang^3
#
#
#
# Elastic Constant Matrix: (Units=GPa)
#
#
# Indices 1 2 3 4 5 6 
#
# 1 114.1394 63.5160 53.8362 0.0000 0.0000 0.0000
# 2 63.5160 114.1394 53.8362 0.0000 0.0000 0.0000
# 3 53.8362 53.8362 65.4029 0.0000 0.0000 0.0000
# 4 0.0000 0.0000 0.0000 35.0214 0.0000 0.0000
# 5 0.0000 0.0000 0.0000 0.0000 35.0214 0.0000
# 6 0.0000 0.0000 0.0000 0.0000 0.0000 28.7954
#
#
#
# Elastic Compliance Matrix: (Units=1/GPa)
#
#
# Indices 1 2 3 4 5 6 
#
# 1 0.015493 -0.004260 -0.009246 0.000000 0.000000 0.000000
# 2 -0.004260 0.015493 -0.009246 0.000000 0.000000 0.000000
# 3 -0.009246 -0.009246 0.030512 0.000000 0.000000 0.000000
# 4 0.000000 0.000000 0.000000 0.028554 0.000000 0.000000
# 5 0.000000 0.000000 0.000000 0.000000 0.028554 0.000000
# 6 0.000000 0.000000 0.000000 0.000000 0.000000 0.034728
#
#
# Mechanical properties :
#
#
# Convention : Reuss Voigt Hill
#
# Bulk Modulus (GPa) = 62.52930 70.67314 66.60122
# Shear Modulus (GPa) = 24.48931 27.93385 26.21158
#
# Velocity S-wave (km/s) = 3.53690 3.77746 3.65916
# Velocity P-wave (km/s) = 6.97287 7.42476 7.20236
#
# Compressibility (1/GPa) = 0.01599250
#
# Stress axis : x y z
#
# Youngs Moduli (GPa) = 64.54423 64.54424 32.77416
#
# Poissons Ratio (x) = 0.27499 0.30304
# Poissons Ratio (y) = 0.27499 0.30304
# Poissons Ratio (z) = 0.59679 0.59679
#
# Static dielectric constant tensor:
#      x y z
#    x 3.506820 0.000000 0.000000 
#    y 0.000000 3.506820 0.000000 
#    z 0.000000 0.000000 3.417870 
# 
# 
# High freq. dielectric constant tensor:
#      x y z
#    x 1.761450 0.000000 0.000000 
#    y 0.000000 1.761450 0.000000 
#    z 0.000000 0.000000 1.748800 
# 
# From -- ./inp_files/2363.got.cif
#   From: 2010.03.12/outbox.cif.g09.slc.cpg/sg110_2_cif.got.tgz:2363.got - 2010.04.14 01:58:01.
