data_PCOD8308075
_publ_section_title
;
Structure prediction by ZEFSAII (Michael W. Deem and Ramdas Pophale) SiO2 
 PCOD8308075
Probable space group: I 41 C D
;
_chemical_formula_sum "Si O2"
_cell_formula_units_Z 120
_cell_length_a 18.515767
_cell_length_b 18.515767
_cell_length_c 16.118248
_cell_angle_alpha 90.000000
_cell_angle_beta 90.000000
_cell_angle_gamma 90.000000
_cell_volume 5525.877432
_symmetry_space_group_name_H-M "I 41 C D"
_symmetry_group_IT_number 110
_symmetry_cell_setting 'tetragonal'
loop_
_space_group_symop_operation_xyz
x,y,z
-y,1/2+x,1/4+z
-x,-y,z
y,1/2-x,1/4+z
-x,y,1/2+z
x,-y,1/2+z
1/2-y,-x,1/4+z
1/2+y,x,1/4+z
1/2+x,1/2+y,1/2+z
1/2-y,x,3/4+z
1/2-x,1/2-y,1/2+z
1/2+y,-x,3/4+z
1/2-x,1/2+y,z
1/2+x,1/2-y,z
-y,1/2-x,3/4+z
y,1/2+x,3/4+z
loop_
_atom_site_type_symbol
_atom_site_label
_atom_site_fract_x
_atom_site_fract_y
_atom_site_fract_z
Si Si1 0.015437 0.297735 0.111800
Si Si2 0.212818 0.613319 0.192330
Si Si3 0.413697 0.099425 0.323724
Si Si4 0.424111 0.383077 0.373389
Si Si5 0.000000 0.500000 0.719117
Si Si6 0.238260 0.047706 0.684690
Si Si7 0.849495 0.132466 0.785442
Si Si8 0.502011 0.347013 0.705699
O O1 0.066750 0.357820 0.148934
O O2 0.997636 0.238337 0.182183
O O3 0.944298 0.336354 0.077958
O O4 0.059156 0.268421 0.032661
O O5 0.151383 0.620401 0.262440
O O6 0.233678 0.532614 0.165417
O O7 0.191366 0.651146 0.107345
O O8 0.283855 0.653758 0.225465
O O9 0.433702 0.166684 0.382523
O O10 0.484136 0.072296 0.273407
O O11 0.390017 0.028870 0.375561
O O12 0.491597 0.426446 0.414522
O O13 0.402402 0.305576 0.410420
O O14 0.441015 0.367495 0.277169
O O15 0.922311 0.128265 0.731613
#
# Coordination Sequence:
#
# PCOD8308075 Si02
#       8
#    16  16  16  16   8  16  16  16
#     4  11  25  47  70 102 145 189 240 308 361 441
#     4  11  24  49  66 104 145 193 239 301 368 438
#     4  12  25  44  76 104 145 195 239 304 377 442
#     4  12  24  44  72 104 143 185 244 301 368 433
#     4  12  26  42  72 112 142 186 252 302 366 434
#     4  11  24  46  67 103 146 179 243 304 364 442
#     4  11  25  46  76  99 151 189 242 304 367 432
#     4  12  24  46  72 107 138 193 246 300 368 437
#
# _framework density 21.716007000000001
#
# number of rings (size 3 to 8) (size 9 to 14) (size 15 to 20)
#    0.000    0.533    6.667    1.600    7.467    0.533 
#    4.800    0.000    0.000    0.000    0.000    0.000 
#    0.000    0.000    0.000    0.000    0.000    0.000 
#
# Total GULP energy -743760.663742 kJ/mol
# GULP energy per Si atom -12396.011062 kJ/mol
# Density = 2.166658 g / cm^3
# Si number density = 21.716007 Si / 1000 Ang^3
#
#
#
# Elastic Constant Matrix: (Units=GPa)
#
#
# Indices 1 2 3 4 5 6 
#
# 1 102.4366 34.3560 39.5798 0.0000 0.0000 0.0000
# 2 34.3560 102.4366 39.5798 0.0000 0.0000 0.0000
# 3 39.5798 39.5798 92.9204 0.0000 0.0000 0.0000
# 4 0.0000 0.0000 0.0000 40.6143 0.0000 0.0000
# 5 0.0000 0.0000 0.0000 0.0000 40.6143 0.0000
# 6 0.0000 0.0000 0.0000 0.0000 0.0000 12.1113
#
#
#
# Elastic Compliance Matrix: (Units=1/GPa)
#
#
# Indices 1 2 3 4 5 6 
#
# 1 0.012195 -0.002493 -0.004132 0.000000 0.000000 0.000000
# 2 -0.002493 0.012195 -0.004132 0.000000 0.000000 0.000000
# 3 -0.004132 -0.004132 0.014282 0.000000 0.000000 0.000000
# 4 0.000000 0.000000 0.000000 0.024622 0.000000 0.000000
# 5 0.000000 0.000000 0.000000 0.000000 0.024622 0.000000
# 6 0.000000 0.000000 0.000000 0.000000 0.000000 0.082568
#
#
# Mechanical properties :
#
#
# Convention : Reuss Voigt Hill
#
# Bulk Modulus (GPa) = 58.28894 58.31386 58.30140
# Shear Modulus (GPa) = 25.28836 30.95318 28.12077
#
# Velocity S-wave (km/s) = 3.41618 3.77949 3.60242
# Velocity P-wave (km/s) = 6.51615 6.77918 6.64896
#
# Compressibility (1/GPa) = 0.01715591
#
# Stress axis : x y z
#
# Youngs Moduli (GPa) = 82.00009 82.00009 70.01622
#
# Poissons Ratio (x) = 0.20446 0.28934
# Poissons Ratio (y) = 0.20446 0.28934
# Poissons Ratio (z) = 0.33887 0.33887
#
# Static dielectric constant tensor:
#      x y z
#    x 3.987110 0.000000 0.000000 
#    y 0.000000 3.987110 0.000000 
#    z 0.000000 0.000000 4.246520 
# 
# 
# High freq. dielectric constant tensor:
#      x y z
#    x 1.849460 0.000000 0.000000 
#    y 0.000000 1.849460 0.000000 
#    z 0.000000 0.000000 1.870000 
# 
# From -- ./inp_files/1797.got.cif
#   From: 2010.03.12/outbox.cif.g09.slc.cpg/sg110_1_cif.got.tgz:1797.got - 2010.04.14 01:58:01.
