data_PCOD8308331
_publ_section_title
;
Structure prediction by ZEFSAII (Michael W. Deem and Ramdas Pophale) SiO2 
 PCOD8308331
Probable space group: P -4 2 C
;
_chemical_formula_sum "Si O2"
_cell_formula_units_Z 48
_cell_length_a 12.014574
_cell_length_b 12.014574
_cell_length_c 18.846124
_cell_angle_alpha 90.000000
_cell_angle_beta 90.000000
_cell_angle_gamma 90.000000
_cell_volume 2720.437781
_symmetry_space_group_name_H-M "P -4 2 C"
_symmetry_group_IT_number 112
_symmetry_cell_setting 'tetragonal'
loop_
_space_group_symop_operation_xyz
x,y,z
y,-x,-z
-x,-y,z
-y,x,-z
x,-y,1/2-z
-x,y,1/2-z
-y,-x,1/2+z
y,x,1/2+z
loop_
_atom_site_type_symbol
_atom_site_label
_atom_site_fract_x
_atom_site_fract_y
_atom_site_fract_z
Si Si1 0.631425 0.782662 0.957284
Si Si2 0.000000 0.208517 0.669271
Si Si3 0.873287 0.240400 0.169128
Si Si4 0.782661 0.368575 0.457283
Si Si5 1.000000 0.370248 0.543678
Si Si6 0.240400 0.873287 0.830872
O O1 0.688399 0.790419 0.880073
O O2 0.500000 0.771292 0.947409
O O3 0.675421 0.675422 0.000001
O O4 0.667640 0.891998 0.000327
O O5 0.891237 0.134761 0.653114
O O6 0.000000 0.316841 0.620777
O O7 0.000000 0.251410 0.750000
O O8 0.108763 0.134761 0.653114
O O9 0.838069 0.265661 0.250000
O O10 1.000000 0.278184 0.155483
O O11 0.891997 0.332360 0.500328
O O12 0.790419 0.311602 0.380072
O O13 0.000000 0.500000 0.557043
#
# Coordination Sequence:
#
# PCOD8308331 Si02
#       6
#     8   8   8   8   8   8
#     4  11  22  37  57  80 108 144 187 231 274 322
#     4  10  19  33  54  80 112 147 175 209 270 337
#     4  10  20  34  54  83 116 145 175 216 270 333
#     4  11  22  37  57  80 108 144 187 231 274 322
#     4  10  20  34  54  80 103 133 184 234 270 317
#     4  10  20  34  54  83 116 145 175 216 270 333
#
# _framework density 17.644217999999999
#
# number of rings (size 3 to 8) (size 9 to 14) (size 15 to 20)
#    0.000    1.667    5.000    0.500    0.000    3.333 
#    0.000    1.667    0.000    1.000    0.000    2.333 
#    0.000    0.000    0.000    0.000    0.000    0.000 
#
# Total GULP energy -595325.700911 kJ/mol
# GULP energy per Si atom -12402.618769 kJ/mol
# Density = 1.760406 g / cm^3
# Si number density = 17.644218 Si / 1000 Ang^3
#
#
#
# Elastic Constant Matrix: (Units=GPa)
#
#
# Indices 1 2 3 4 5 6 
#
# 1 84.8590 31.7263 52.7208 0.0000 0.0000 0.0000
# 2 31.7263 84.8590 52.7208 0.0000 0.0000 0.0000
# 3 52.7208 52.7208 116.7724 0.0000 0.0000 0.0000
# 4 0.0000 0.0000 0.0000 25.5497 0.0000 0.0000
# 5 0.0000 0.0000 0.0000 0.0000 25.5497 0.0000
# 6 0.0000 0.0000 0.0000 0.0000 0.0000 25.2427
#
#
#
# Elastic Compliance Matrix: (Units=1/GPa)
#
#
# Indices 1 2 3 4 5 6 
#
# 1 0.016659 -0.002162 -0.006545 0.000000 0.000000 0.000000
# 2 -0.002162 0.016659 -0.006545 0.000000 0.000000 0.000000
# 3 -0.006545 -0.006545 0.014474 0.000000 0.000000 0.000000
# 4 0.000000 0.000000 0.000000 0.039139 0.000000 0.000000
# 5 0.000000 0.000000 0.000000 0.000000 0.039139 0.000000
# 6 0.000000 0.000000 0.000000 0.000000 0.000000 0.039615
#
#
# Mechanical properties :
#
#
# Convention : Reuss Voigt Hill
#
# Bulk Modulus (GPa) = 57.84675 62.31403 60.08039
# Shear Modulus (GPa) = 24.75832 25.22326 24.99079
#
# Velocity S-wave (km/s) = 3.74999 3.78504 3.76756
# Velocity P-wave (km/s) = 7.18375 7.38212 7.28361
#
# Compressibility (1/GPa) = 0.01728706
#
# Stress axis : x y z
#
# Youngs Moduli (GPa) = 60.02808 60.02808 69.09087
#
# Poissons Ratio (x) = 0.12978 0.45221
# Poissons Ratio (y) = 0.12978 0.45221
# Poissons Ratio (z) = 0.39289 0.39289
#
# Static dielectric constant tensor:
#      x y z
#    x 3.121570 0.000000 0.000000 
#    y 0.000000 3.121570 0.000000 
#    z 0.000000 0.000000 3.353480 
# 
# 
# High freq. dielectric constant tensor:
#      x y z
#    x 1.670950 0.000000 0.000000 
#    y 0.000000 1.670950 0.000000 
#    z 0.000000 0.000000 1.692340 
# 
# From -- ./inp_files/4131.got.cif
#   From: 2010.03.12/outbox.cif.g09.slc.cpg/sg112_3_cif.got.tgz:4131.got - 2010.04.14 02:02:48.
