data_PCOD8308265
_publ_section_title
;
Structure prediction by ZEFSAII (Michael W. Deem and Ramdas Pophale) SiO2 
 PCOD8308265
Probable space group: P -4 2 M 
;
_chemical_formula_sum "Si O2"
_cell_formula_units_Z 40
_cell_length_a 14.624858
_cell_length_b 14.624858
_cell_length_c 9.244622
_cell_angle_alpha 90.000000
_cell_angle_beta 90.000000
_cell_angle_gamma 90.000000
_cell_volume 1977.299580
_symmetry_space_group_name_H-M "P -4 2 M "
_symmetry_group_IT_number 111
_symmetry_cell_setting 'tetragonal'
loop_
_space_group_symop_operation_xyz
x,y,z
y,-x,-z
-x,-y,z
-y,x,-z
x,-y,-z
-x,y,-z
-y,-x,z
y,x,z
loop_
_atom_site_type_symbol
_atom_site_label
_atom_site_fract_x
_atom_site_fract_y
_atom_site_fract_z
Si Si1 0.227821 0.081958 0.307361
Si Si2 0.837310 0.557526 0.801684
Si Si3 0.094520 0.619257 0.916963
Si Si4 0.497376 0.356322 0.171092
Si Si5 0.880934 0.266224 0.369819
O O1 0.127783 0.127783 0.287236
O O2 0.292840 0.116961 0.179110
O O3 0.272027 0.114408 0.457638
O O4 0.218695 0.972129 0.304969
O O5 0.907905 0.472547 0.817976
O O6 0.740566 0.515223 0.752413
O O7 0.873502 0.629679 0.684560
O O8 0.827912 0.608397 0.958508
O O9 0.000000 0.632260 0.000000
O O10 0.576439 0.423562 0.225325
O O11 0.399049 0.399049 0.218081
O O12 0.500000 0.345723 0.000000
O O13 0.794592 0.205409 0.318460
#
# Coordination Sequence:
#
# PCOD8308265 Si02
#       5
#     8   8   8   8   8
#     4  10  23  41  60  87 125 162 204 259 312 371
#     4  11  20  35  61  86 118 151 201 250 301 362
#     4  11  22  37  56  85 120 151 195 252 309 366
#     4   9  17  29  46  77 115 147 186 234 289 352
#     4  10  22  40  63  89 117 162 213 253 309 377
#
# _framework density 20.229610999999998
#
# number of rings (size 3 to 8) (size 9 to 14) (size 15 to 20)
#    0.000    1.800    4.000    2.400    0.000    3.600 
#    0.000    4.000    0.000    0.000    0.000    1.400 
#    0.000    9.600    0.000    0.000    0.000    0.000 
#
# Total GULP energy -495806.797592 kJ/mol
# GULP energy per Si atom -12395.169940 kJ/mol
# Density = 2.018357 g / cm^3
# Si number density = 20.229611 Si / 1000 Ang^3
#
#
#
# Elastic Constant Matrix: (Units=GPa)
#
#
# Indices 1 2 3 4 5 6 
#
# 1 115.8706 41.0366 30.5138 0.0000 0.0000 0.0000
# 2 41.0366 115.8686 30.5127 0.0000 0.0000 0.0000
# 3 30.5138 30.5127 47.0989 0.0000 0.0000 0.0000
# 4 0.0000 0.0000 0.0000 23.9681 0.0000 0.0000
# 5 0.0000 0.0000 0.0000 0.0000 23.9681 0.0000
# 6 0.0000 0.0000 0.0000 0.0000 0.0000 36.6646
#
#
#
# Elastic Compliance Matrix: (Units=1/GPa)
#
#
# Indices 1 2 3 4 5 6 
#
# 1 0.010942 -0.002422 -0.005520 0.000000 0.000000 0.000000
# 2 -0.002422 0.010942 -0.005520 0.000000 0.000000 0.000000
# 3 -0.005520 -0.005520 0.028384 0.000000 0.000000 0.000000
# 4 0.000000 0.000000 0.000000 0.041722 0.000000 0.000000
# 5 0.000000 0.000000 0.000000 0.000000 0.041722 0.000000
# 6 0.000000 0.000000 0.000000 0.000000 0.000000 0.027274
#
#
# Mechanical properties :
#
#
# Convention : Reuss Voigt Hill
#
# Bulk Modulus (GPa) = 42.83572 53.66271 48.24921
# Shear Modulus (GPa) = 25.55070 28.70517 27.12793
#
# Velocity S-wave (km/s) = 3.55778 3.77101 3.66594
# Velocity P-wave (km/s) = 6.17234 6.74871 6.46695
#
# Compressibility (1/GPa) = 0.02334500
#
# Stress axis : x y z
#
# Youngs Moduli (GPa) = 91.39478 91.39410 35.23119
#
# Poissons Ratio (x) = 0.22131 0.19447
# Poissons Ratio (y) = 0.22131 0.19446
# Poissons Ratio (z) = 0.50449 0.50446
#
# Static dielectric constant tensor:
#      x y z
#    x 3.787740 0.000000 0.000000 
#    y 0.000000 3.787740 0.000000 
#    z 0.000000 0.000000 3.497050 
# 
# 
# High freq. dielectric constant tensor:
#      x y z
#    x 1.789810 0.000000 0.000000 
#    y 0.000000 1.789810 0.000000 
#    z 0.000000 0.000000 1.757810 
# 
# From -- ./inp_files/1547.got.cif
#   From: 2010.03.12/outbox.cif.g09.slc.cpg/sg111_1_cif.got.tgz:1547.got - 2010.04.14 01:59:48.
