data_PCOD8308723
_publ_section_title
;
Structure prediction by ZEFSAII (Michael W. Deem and Ramdas Pophale) SiO2 
 PCOD8308723
Probable space group: P -4 21 M 
;
_chemical_formula_sum "Si O2"
_cell_formula_units_Z 32
_cell_length_a 13.146010
_cell_length_b 13.146010
_cell_length_c 9.360029
_cell_angle_alpha 90.000000
_cell_angle_beta 90.000000
_cell_angle_gamma 90.000000
_cell_volume 1617.577550
_symmetry_space_group_name_H-M "P -4 21 M "
_symmetry_group_IT_number 113
_symmetry_cell_setting 'tetragonal'
loop_
_space_group_symop_operation_xyz
x,y,z
y,-x,-z
-x,-y,z
-y,x,-z
1/2+x,1/2-y,-z
1/2-x,1/2+y,-z
1/2-y,1/2-x,z
1/2+y,1/2+x,z
loop_
_atom_site_type_symbol
_atom_site_label
_atom_site_fract_x
_atom_site_fract_y
_atom_site_fract_z
Si Si1 0.263595 0.928765 0.048274
Si Si2 0.108725 0.776387 0.157676
Si Si3 0.153765 0.032786 0.541976
Si Si4 0.497633 0.834470 0.339797
O O1 0.367900 0.867900 0.025767
O O2 0.167347 0.853328 0.052091
O O3 0.266856 0.988751 0.197782
O O4 0.256274 0.004700 0.916418
O O5 0.178018 0.678018 0.190894
O O6 0.081946 0.834920 0.302723
O O7 0.264401 0.027264 0.472195
O O8 0.079925 0.105261 0.448425
O O9 0.585357 0.914644 0.312380
O O10 0.390898 0.890898 0.373747
#
# Coordination Sequence:
#
# PCOD8308723 Si02
#       4
#     8   8   8   8
#     4  10  23  42  64  93 126 163 209 259 311 374
#     4  11  24  42  65  94 128 166 209 260 313 369
#     4  11  24  40  62  94 128 165 207 257 311 372
#     4  10  21  40  65  89 120 166 213 258 313 371
#
# _framework density 19.782668000000001
#
# number of rings (size 3 to 8) (size 9 to 14) (size 15 to 20)
#    0.000    1.500    2.500    1.500    3.500    4.000 
#    0.000    0.000    0.000    0.000    0.000    0.000 
#    0.000    0.000    0.000    0.000    0.000    0.000 
#
# Total GULP energy -396963.715630 kJ/mol
# GULP energy per Si atom -12405.116113 kJ/mol
# Density = 1.973764 g / cm^3
# Si number density = 19.782668 Si / 1000 Ang^3
#
#
#
# Elastic Constant Matrix: (Units=GPa)
#
#
# Indices 1 2 3 4 5 6 
#
# 1 98.1467 37.1329 42.7504 0.0000 0.0000 0.0000
# 2 37.1329 98.1455 42.7508 0.0000 0.0000 0.0000
# 3 42.7504 42.7508 73.1019 0.0000 0.0000 0.0000
# 4 0.0000 0.0000 0.0000 40.3142 0.0000 0.0000
# 5 0.0000 0.0000 0.0000 0.0000 40.3146 0.0000
# 6 0.0000 0.0000 0.0000 0.0000 0.0000 27.9784
#
#
#
# Elastic Compliance Matrix: (Units=1/GPa)
#
#
# Indices 1 2 3 4 5 6 
#
# 1 0.014058 -0.002332 -0.006858 0.000000 0.000000 0.000000
# 2 -0.002332 0.014058 -0.006858 0.000000 0.000000 0.000000
# 3 -0.006858 -0.006858 0.021700 0.000000 0.000000 0.000000
# 4 0.000000 0.000000 0.000000 0.024805 0.000000 0.000000
# 5 0.000000 0.000000 0.000000 0.000000 0.024805 0.000000
# 6 0.000000 0.000000 0.000000 0.000000 0.000000 0.035742
#
#
# Mechanical properties :
#
#
# Convention : Reuss Voigt Hill
#
# Bulk Modulus (GPa) = 56.42561 57.18470 56.80515
# Shear Modulus (GPa) = 28.87328 31.50544 30.18936
#
# Velocity S-wave (km/s) = 3.82452 3.99504 3.91071
# Velocity P-wave (km/s) = 6.93450 7.08870 7.01202
#
# Compressibility (1/GPa) = 0.01772245
#
# Stress axis : x y z
#
# Youngs Moduli (GPa) = 71.13384 71.13219 46.08206
#
# Poissons Ratio (x) = 0.16586 0.31601
# Poissons Ratio (y) = 0.16586 0.31602
# Poissons Ratio (z) = 0.48781 0.48781
#
# Static dielectric constant tensor:
#      x y z
#    x 3.685180 0.000000 0.000000 
#    y 0.000000 3.685170 0.000000 
#    z 0.000000 0.000000 3.407900 
# 
# 
# High freq. dielectric constant tensor:
#      x y z
#    x 1.782060 0.000000 0.000000 
#    y 0.000000 1.782060 0.000000 
#    z 0.000000 0.000000 1.758520 
# 
# From -- ./inp_files/850.got.cif
#   From: 2010.03.12/outbox.cif.g09.slc.cpg/sg113_cif.got.tgz:850.got - 2010.04.14 02:06:34.
