data_PCOD8308644
_publ_section_title
;
Structure prediction by ZEFSAII (Michael W. Deem and Ramdas Pophale) SiO2 
 PCOD8308644
Probable space group: P -4 21 M 
;
_chemical_formula_sum "Si O2"
_cell_formula_units_Z 56
_cell_length_a 11.100323
_cell_length_b 11.100323
_cell_length_c 21.542518
_cell_angle_alpha 90.000000
_cell_angle_beta 90.000000
_cell_angle_gamma 90.000000
_cell_volume 2654.408118
_symmetry_space_group_name_H-M "P -4 21 M "
_symmetry_group_IT_number 113
_symmetry_cell_setting 'tetragonal'
loop_
_space_group_symop_operation_xyz
x,y,z
y,-x,-z
-x,-y,z
-y,x,-z
1/2+x,1/2-y,-z
1/2-x,1/2+y,-z
1/2-y,1/2-x,z
1/2+y,1/2+x,z
loop_
_atom_site_type_symbol
_atom_site_label
_atom_site_fract_x
_atom_site_fract_y
_atom_site_fract_z
Si Si1 0.351691 0.648313 0.849568
Si Si2 0.006290 0.304745 0.930225
Si Si3 0.147975 0.852026 0.708776
Si Si4 0.000001 0.802136 0.500000
Si Si5 0.304746 0.006289 0.930229
Si Si6 0.690796 0.004990 0.368189
Si Si7 0.504990 0.809205 0.631809
O O1 0.250002 0.750002 0.852634
O O2 0.302996 0.526990 0.882999
O O3 0.384896 0.615111 0.779200
O O4 0.473012 0.697005 0.883002
O O5 0.911055 0.411055 0.923702
O O6 0.139164 0.360837 0.915717
O O7 0.000006 0.252228 0.999998
O O8 0.250001 0.750001 0.704782
O O9 0.193016 0.973919 0.674200
O O10 0.026081 0.806983 0.674203
O O11 0.881474 0.881473 0.507979
O O12 0.012323 0.718926 0.559690
O O13 0.987680 0.718924 0.440311
O O14 0.360835 0.139166 0.915726
O O15 0.411057 0.911057 0.923701
O O16 0.640721 0.140721 0.355576
O O17 0.586972 0.913029 0.349362
O O18 0.413029 0.913029 0.650637
O O19 0.640722 0.859279 0.644425
#
# Coordination Sequence:
#
# PCOD8308644 Si02
#       7
#     8   8   8   8   8   8   8
#     4   9  16  26  46  74 104 144 180 219 276 329
#     4   8  14  25  42  69 103 135 176 228 274 323
#     4   9  18  32  47  73 113 143 182 233 270 329
#     4  11  22  35  54  80 104 135 184 237 286 336
#     4   8  14  25  42  69 103 135 176 228 274 323
#     4  10  20  34  53  77 108 146 183 226 282 335
#     4  10  20  34  53  77 108 146 183 226 282 335
#
# _framework density 21.096979999999999
#
# number of rings (size 3 to 8) (size 9 to 14) (size 15 to 20)
#    0.000    2.714    1.429    1.714    0.000    4.000 
#    0.000    5.714    0.000    0.429    7.429    0.000 
#    0.000    0.000    0.000    0.000    0.000    0.000 
#
# Total GULP energy -694083.051554 kJ/mol
# GULP energy per Si atom -12394.340206 kJ/mol
# Density = 2.104896 g / cm^3
# Si number density = 21.096980 Si / 1000 Ang^3
#
#
#
# Elastic Constant Matrix: (Units=GPa)
#
#
# Indices 1 2 3 4 5 6 
#
# 1 55.5449 40.0738 48.4350 0.0000 0.0000 0.0000
# 2 40.0738 55.5454 48.4351 0.0000 0.0000 0.0000
# 3 48.4350 48.4351 178.8003 0.0000 0.0000 0.0000
# 4 0.0000 0.0000 0.0000 6.4193 0.0000 0.0000
# 5 0.0000 0.0000 0.0000 0.0000 6.4224 0.0000
# 6 0.0000 0.0000 0.0000 0.0000 0.0000 16.4757
#
#
#
# Elastic Compliance Matrix: (Units=1/GPa)
#
#
# Indices 1 2 3 4 5 6 
#
# 1 0.039525 -0.025111 -0.003905 0.000000 0.000000 0.000000
# 2 -0.025111 0.039524 -0.003905 0.000000 0.000000 0.000000
# 3 -0.003905 -0.003905 0.007708 0.000000 0.000000 0.000000
# 4 0.000000 0.000000 0.000000 0.155780 0.000000 0.000000
# 5 0.000000 0.000000 0.000000 0.000000 0.155704 0.000000
# 6 0.000000 0.000000 0.000000 0.000000 0.000000 0.060695
#
#
# Mechanical properties :
#
#
# Convention : Reuss Voigt Hill
#
# Bulk Modulus (GPa) = 47.80646 62.64206 55.22426
# Shear Modulus (GPa) = 9.40291 16.05993 12.73142
#
# Velocity S-wave (km/s) = 2.11345 2.76206 2.45923
# Velocity P-wave (km/s) = 5.35398 6.31893 5.85636
#
# Compressibility (1/GPa) = 0.02091768
#
# Stress axis : x y z
#
# Youngs Moduli (GPa) = 25.30053 25.30081 129.73145
#
# Poissons Ratio (x) = 0.63532 0.50655
# Poissons Ratio (y) = 0.63532 0.50654
# Poissons Ratio (z) = 0.09879 0.09879
#
# Static dielectric constant tensor:
#      x y z
#    x 3.857020 0.000000 0.000000 
#    y 0.000000 3.857020 0.000000 
#    z 0.000000 0.000000 3.787140 
# 
# 
# High freq. dielectric constant tensor:
#      x y z
#    x 1.807940 0.000000 0.000000 
#    y 0.000000 1.807940 0.000000 
#    z 0.000000 0.000000 1.816790 
# 
# From -- ./inp_files/2714.got.cif
#   From: 2010.03.12/outbox.cif.g09.slc.cpg/sg113_cif.got.tgz:2714.got - 2010.04.14 02:06:34.
