data_PCOD8308517
_publ_section_title
;
Structure prediction by ZEFSAII (Michael W. Deem and Ramdas Pophale) SiO2 
 PCOD8308517
Probable space group: P -4 2 C
;
_chemical_formula_sum "Si O2"
_cell_formula_units_Z 48
_cell_length_a 9.242540
_cell_length_b 9.242540
_cell_length_c 31.138909
_cell_angle_alpha 90.000000
_cell_angle_beta 90.000000
_cell_angle_gamma 90.000000
_cell_volume 2660.027153
_symmetry_space_group_name_H-M "P -4 2 C"
_symmetry_group_IT_number 112
_symmetry_cell_setting 'tetragonal'
loop_
_space_group_symop_operation_xyz
x,y,z
y,-x,-z
-x,-y,z
-y,x,-z
x,-y,1/2-z
-x,y,1/2-z
-y,-x,1/2+z
y,x,1/2+z
loop_
_atom_site_type_symbol
_atom_site_label
_atom_site_fract_x
_atom_site_fract_y
_atom_site_fract_z
Si Si1 0.336342 0.327670 0.167508
Si Si2 0.833117 0.330448 0.084356
Si Si3 0.669551 0.833116 0.584356
Si Si4 0.327379 0.835971 0.750000
Si Si5 0.663658 0.672331 0.332492
Si Si6 0.832275 0.167726 0.500000
O O1 0.260213 0.271413 0.124199
O O2 0.247125 0.267589 0.208151
O O3 0.500000 0.268056 0.169475
O O4 0.335582 0.500000 0.168400
O O5 0.811309 0.499999 0.077829
O O6 0.739789 0.271413 0.124199
O O7 0.775615 0.253155 0.041531
O O8 0.000000 0.291548 0.093475
O O9 0.746843 0.775615 0.541531
O O10 0.500000 0.836851 0.750000
O O11 0.267588 0.752875 0.708152
O O12 0.268030 0.000000 0.750000
O O13 0.000001 0.199389 0.508162
#
# Coordination Sequence:
#
# PCOD8308517 Si02
#       6
#     8   8   8   8   8   8
#     4   9  16  25  38  59  87 116 146 182 223 265
#     4   9  17  29  44  62  85 112 142 177 217 261
#     4   9  17  29  44  62  85 112 142 177 217 261
#     4   9  15  23  37  57  84 119 154 185 220 264
#     4   9  16  25  38  59  87 116 146 182 223 265
#     4   9  18  32  48  65  86 114 148 183 218 260
#
# _framework density 18.044930000000001
#
# number of rings (size 3 to 8) (size 9 to 14) (size 15 to 20)
#    0.000    3.000    0.000    1.500    0.000    7.333 
#    0.000    0.000    0.000    0.000    0.000    1.167 
#    0.000    9.333    0.000    0.000    0.000    0.000 
#
# Total GULP energy -595184.125903 kJ/mol
# GULP energy per Si atom -12399.669290 kJ/mol
# Density = 1.800386 g / cm^3
# Si number density = 18.044930 Si / 1000 Ang^3
#
#
#
# Elastic Constant Matrix: (Units=GPa)
#
#
# Indices 1 2 3 4 5 6 
#
# 1 68.7715 26.7867 68.6238 0.0000 0.0000 0.0000
# 2 26.7867 68.7715 68.6238 0.0000 0.0000 0.0000
# 3 68.6238 68.6238 208.9543 0.0000 0.0000 0.0000
# 4 0.0000 0.0000 0.0000 16.2517 0.0000 0.0000
# 5 0.0000 0.0000 0.0000 0.0000 16.2517 0.0000
# 6 0.0000 0.0000 0.0000 0.0000 0.0000 10.6853
#
#
#
# Elastic Compliance Matrix: (Units=1/GPa)
#
#
# Indices 1 2 3 4 5 6 
#
# 1 0.021813 -0.002005 -0.006505 0.000000 0.000000 0.000000
# 2 -0.002005 0.021813 -0.006505 0.000000 0.000000 0.000000
# 3 -0.006505 -0.006505 0.009059 0.000000 0.000000 0.000000
# 4 0.000000 0.000000 0.000000 0.061532 0.000000 0.000000
# 5 0.000000 0.000000 0.000000 0.000000 0.061532 0.000000
# 6 0.000000 0.000000 0.000000 0.000000 0.000000 0.093586
#
#
# Mechanical properties :
#
#
# Convention : Reuss Voigt Hill
#
# Bulk Modulus (GPa) = 44.14268 74.95178 59.54723
# Shear Modulus (GPa) = 16.29101 20.80195 18.54648
#
# Velocity S-wave (km/s) = 3.00793 3.39895 3.20940
# Velocity P-wave (km/s) = 6.04808 7.55184 6.84140
#
# Compressibility (1/GPa) = 0.02265381
#
# Stress axis : x y z
#
# Youngs Moduli (GPa) = 45.84379 45.84379 110.39183
#
# Poissons Ratio (x) = 0.09191 0.71814
# Poissons Ratio (y) = 0.09191 0.71814
# Poissons Ratio (z) = 0.29823 0.29823
#
# Static dielectric constant tensor:
#      x y z
#    x 3.100080 0.000000 0.000000 
#    y 0.000000 3.100080 0.000000 
#    z 0.000000 0.000000 3.593810 
# 
# 
# High freq. dielectric constant tensor:
#      x y z
#    x 1.667450 0.000000 0.000000 
#    y 0.000000 1.667450 0.000000 
#    z 0.000000 0.000000 1.716270 
# 
# From -- ./inp_files/6288.got.cif
#   From: 2010.03.12/outbox.cif.g09.slc.cpg/sg112_4_cif.got.tgz:6288.got - 2010.04.14 02:02:48.
