data_PCOD8308499
_publ_section_title
;
Structure prediction by ZEFSAII (Michael W. Deem and Ramdas Pophale) SiO2 
 PCOD8308499
Probable space group: P -4 2 C
;
_chemical_formula_sum "Si O2"
_cell_formula_units_Z 40
_cell_length_a 13.791833
_cell_length_b 13.791833
_cell_length_c 8.974459
_cell_angle_alpha 90.000000
_cell_angle_beta 90.000000
_cell_angle_gamma 90.000000
_cell_volume 1707.073645
_symmetry_space_group_name_H-M "P -4 2 C"
_symmetry_group_IT_number 112
_symmetry_cell_setting 'tetragonal'
loop_
_space_group_symop_operation_xyz
x,y,z
y,-x,-z
-x,-y,z
-y,x,-z
x,-y,1/2-z
-x,y,1/2-z
-y,-x,1/2+z
y,x,1/2+z
loop_
_atom_site_type_symbol
_atom_site_label
_atom_site_fract_x
_atom_site_fract_y
_atom_site_fract_z
Si Si1 0.368842 0.275815 0.624962
Si Si2 0.587908 0.754871 0.963005
Si Si3 0.760375 0.875538 0.458714
Si Si4 0.030424 0.602954 0.922074
Si Si5 0.897025 0.888299 0.212704
O O1 0.360640 0.256691 0.801312
O O2 0.474228 0.254071 0.561468
O O3 0.331772 0.383218 0.577905
O O4 0.296369 0.211884 0.529188
O O5 0.617470 0.856293 0.041673
O O6 0.797451 0.850427 0.292438
O O7 0.864823 0.884920 0.539544
O O8 0.695198 0.971650 0.483531
O O9 0.000000 0.500000 0.998017
O O10 0.000000 0.596935 0.750000
O O11 0.000000 0.837345 0.250000
O O12 0.902594 0.000000 0.250000
#
# Coordination Sequence:
#
# PCOD8308499 Si02
#       5
#     8   8   8   8   8
#     4  11  27  47  79 108 159 195 255 331 382 493
#     4  11  27  51  73 119 148 200 261 315 412 459
#     4  12  25  45  71 105 144 210 248 320 374 444
#     4  11  26  47  75 112 154 199 261 328 389 464
#     4  11  26  44  65  99 148 201 257 305 369 453
#
# _framework density 23.431912000000001
#
# number of rings (size 3 to 8) (size 9 to 14) (size 15 to 20)
#    0.000    0.800    2.000    3.000   14.000    2.800 
#    0.000    2.000    0.000    0.000    0.000    0.000 
#    0.000    0.000    0.000    0.000    0.000    0.000 
#
# Total GULP energy -495539.373085 kJ/mol
# GULP energy per Si atom -12388.484327 kJ/mol
# Density = 2.337858 g / cm^3
# Si number density = 23.431912 Si / 1000 Ang^3
#
#
#
# Elastic Constant Matrix: (Units=GPa)
#
#
# Indices 1 2 3 4 5 6 
#
# 1 111.7909 23.9466 47.0387 0.0000 0.0000 0.0000
# 2 23.9466 111.7909 47.0387 0.0000 0.0000 0.0000
# 3 47.0387 47.0387 117.2752 0.0000 0.0000 0.0000
# 4 0.0000 0.0000 0.0000 35.2087 0.0000 0.0000
# 5 0.0000 0.0000 0.0000 0.0000 35.2087 0.0000
# 6 0.0000 0.0000 0.0000 0.0000 0.0000 31.3298
#
#
#
# Elastic Compliance Matrix: (Units=1/GPa)
#
#
# Indices 1 2 3 4 5 6 
#
# 1 0.010794 -0.000590 -0.004093 0.000000 0.000000 0.000000
# 2 -0.000590 0.010794 -0.004093 0.000000 0.000000 0.000000
# 3 -0.004093 -0.004093 0.011810 0.000000 0.000000 0.000000
# 4 0.000000 0.000000 0.000000 0.028402 0.000000 0.000000
# 5 0.000000 0.000000 0.000000 0.000000 0.028402 0.000000
# 6 0.000000 0.000000 0.000000 0.000000 0.000000 0.031918
#
#
# Mechanical properties :
#
#
# Convention : Reuss Voigt Hill
#
# Bulk Modulus (GPa) = 63.10422 64.10058 63.60240
# Shear Modulus (GPa) = 34.49387 35.20497 34.84942
#
# Velocity S-wave (km/s) = 3.84094 3.88033 3.86069
# Velocity P-wave (km/s) = 6.83080 6.89141 6.86117
#
# Compressibility (1/GPa) = 0.01584680
#
# Stress axis : x y z
#
# Youngs Moduli (GPa) = 92.64616 92.64616 84.67347
#
# Poissons Ratio (x) = 0.05466 0.34654
# Poissons Ratio (y) = 0.05466 0.34654
# Poissons Ratio (z) = 0.37917 0.37917
#
# Static dielectric constant tensor:
#      x y z
#    x 4.817530 0.000000 0.000000 
#    y 0.000000 4.817530 0.000000 
#    z 0.000000 0.000000 4.486780 
# 
# 
# High freq. dielectric constant tensor:
#      x y z
#    x 1.937570 0.000000 0.000000 
#    y 0.000000 1.937570 0.000000 
#    z 0.000000 0.000000 1.927380 
# 
# From -- ./inp_files/1254.got.cif
#   From: 2010.03.12/outbox.cif.g09.slc.cpg/sg112_1_cif.got.tgz:1254.got - 2010.04.14 02:02:48.
