data_PCOD8308895
_publ_section_title
;
Structure prediction by ZEFSAII (Michael W. Deem and Ramdas Pophale) SiO2 
 PCOD8308895
Probable space group: P -4 21 C
;
_chemical_formula_sum "Si O2"
_cell_formula_units_Z 56
_cell_length_a 16.281509
_cell_length_b 16.281509
_cell_length_c 10.604759
_cell_angle_alpha 90.000000
_cell_angle_beta 90.000000
_cell_angle_gamma 90.000000
_cell_volume 2811.189426
_symmetry_space_group_name_H-M "P -4 21 C"
_symmetry_group_IT_number 114
_symmetry_cell_setting 'tetragonal'
loop_
_space_group_symop_operation_xyz
x,y,z
y,-x,-z
-x,-y,z
-y,x,-z
1/2+x,1/2-y,1/2-z
1/2-x,1/2+y,1/2-z
1/2-y,1/2-x,1/2+z
1/2+y,1/2+x,1/2+z
loop_
_atom_site_type_symbol
_atom_site_label
_atom_site_fract_x
_atom_site_fract_y
_atom_site_fract_z
Si Si1 0.414473 0.814185 0.784373
Si Si2 0.670168 0.688225 0.304248
Si Si3 0.617447 0.451104 0.510842
Si Si4 0.918658 0.262006 0.827328
Si Si5 0.085311 0.324018 0.430686
Si Si6 0.396362 0.199977 0.101430
Si Si7 0.309449 0.291546 0.893061
O O1 0.365066 0.728274 0.787136
O O2 0.510876 0.797413 0.763939
O O3 0.384047 0.872453 0.670901
O O4 0.400007 0.853422 0.923708
O O5 0.604552 0.629237 0.367103
O O6 0.618609 0.758046 0.234895
O O7 0.727545 0.733360 0.407919
O O8 0.541008 0.408297 0.438285
O O9 0.697504 0.457554 0.424157
O O10 0.879347 0.336783 0.907477
O O11 0.848800 0.215538 0.745957
O O12 0.118167 0.230202 0.412450
O O13 0.989189 0.328958 0.405274
O O14 0.377945 0.268328 0.995088
#
# Coordination Sequence:
#
# PCOD8308895 Si02
#       7
#     8   8   8   8   8   8   8
#     4  11  23  43  66  91 133 165 213 261 333 375
#     4  10  21  38  61  89 120 166 209 258 315 389
#     4  11  23  37  60  97 132 166 217 271 327 385
#     4  11  23  41  65  88 127 176 208 269 321 393
#     4  11  25  42  66  99 124 167 213 272 314 388
#     4  11  22  40  63  93 120 163 219 259 315 388
#     4  10  21  39  64  87 120 160 216 252 319 383
#
# _framework density 19.920394000000002
#
# number of rings (size 3 to 8) (size 9 to 14) (size 15 to 20)
#    0.000    1.286    5.714    0.000    2.000    1.714 
#    0.000    1.429    0.000    2.143    0.000    0.000 
#    0.000    0.000    0.000    0.000    0.000    0.000 
#
# Total GULP energy -694310.337756 kJ/mol
# GULP energy per Si atom -12398.398889 kJ/mol
# Density = 1.987505 g / cm^3
# Si number density = 19.920394 Si / 1000 Ang^3
#
#
#
# Elastic Constant Matrix: (Units=GPa)
#
#
# Indices 1 2 3 4 5 6 
#
# 1 101.2142 36.0062 36.4893 0.0000 0.0000 0.0000
# 2 36.0062 101.2142 36.4893 0.0000 0.0000 0.0000
# 3 36.4893 36.4893 97.1899 0.0000 0.0000 0.0000
# 4 0.0000 0.0000 0.0000 29.1919 0.0000 0.0000
# 5 0.0000 0.0000 0.0000 0.0000 29.1919 0.0000
# 6 0.0000 0.0000 0.0000 0.0000 0.0000 25.9846
#
#
#
# Elastic Compliance Matrix: (Units=1/GPa)
#
#
# Indices 1 2 3 4 5 6 
#
# 1 0.012221 -0.003115 -0.003419 0.000000 0.000000 0.000000
# 2 -0.003115 0.012221 -0.003419 0.000000 0.000000 0.000000
# 3 -0.003419 -0.003419 0.012856 0.000000 0.000000 0.000000
# 4 0.000000 0.000000 0.000000 0.034256 0.000000 0.000000
# 5 0.000000 0.000000 0.000000 0.000000 0.034256 0.000000
# 6 0.000000 0.000000 0.000000 0.000000 0.000000 0.038484
#
#
# Mechanical properties :
#
#
# Convention : Reuss Voigt Hill
#
# Bulk Modulus (GPa) = 57.49474 57.50975 57.50225
# Shear Modulus (GPa) = 29.41244 29.58258 29.49751
#
# Velocity S-wave (km/s) = 3.84669 3.85780 3.85225
# Velocity P-wave (km/s) = 6.97526 6.98398 6.97962
#
# Compressibility (1/GPa) = 0.01739290
#
# Stress axis : x y z
#
# Youngs Moduli (GPa) = 81.82881 81.82881 77.78363
#
# Poissons Ratio (x) = 0.25489 0.26592
# Poissons Ratio (y) = 0.25489 0.26592
# Poissons Ratio (z) = 0.27975 0.27975
#
# Static dielectric constant tensor:
#      x y z
#    x 3.627590 0.000000 0.000000 
#    y 0.000000 3.627590 0.000000 
#    z 0.000000 0.000000 3.481610 
# 
# 
# High freq. dielectric constant tensor:
#      x y z
#    x 1.773760 0.000000 0.000000 
#    y 0.000000 1.773760 0.000000 
#    z 0.000000 0.000000 1.772960 
# 
# From -- ./inp_files/1745.got.cif
#   From: 2010.03.12/outbox.cif.g09.slc.cpg/sg114_1_cif.got.tgz:1745.got - 2010.04.14 02:08:34.
