data_PCOD8308710
_publ_section_title
;
Structure prediction by ZEFSAII (Michael W. Deem and Ramdas Pophale) SiO2 
 PCOD8308710
Probable space group: P -4 21 M 
;
_chemical_formula_sum "Si O2"
_cell_formula_units_Z 56
_cell_length_a 12.131992
_cell_length_b 12.131992
_cell_length_c 20.474201
_cell_angle_alpha 90.000000
_cell_angle_beta 90.000000
_cell_angle_gamma 90.000000
_cell_volume 3013.499981
_symmetry_space_group_name_H-M "P -4 21 M "
_symmetry_group_IT_number 113
_symmetry_cell_setting 'tetragonal'
loop_
_space_group_symop_operation_xyz
x,y,z
y,-x,-z
-x,-y,z
-y,x,-z
1/2+x,1/2-y,-z
1/2-x,1/2+y,-z
1/2-y,1/2-x,z
1/2+y,1/2+x,z
loop_
_atom_site_type_symbol
_atom_site_label
_atom_site_fract_x
_atom_site_fract_y
_atom_site_fract_z
Si Si1 0.125031 0.019213 0.102130
Si Si2 0.005935 0.325159 0.418272
Si Si3 0.835775 0.034695 0.476141
Si Si4 0.643658 0.673039 0.796096
Si Si5 0.567433 0.245196 0.860878
Si Si6 0.500832 0.178997 0.003166
Si Si7 0.351846 0.331411 0.647935
O O1 0.137423 0.142845 0.129497
O O2 0.156137 0.933202 0.158511
O O3 0.000000 0.000000 0.077565
O O4 0.207346 0.000761 0.042321
O O5 0.108477 0.391524 0.386336
O O6 0.904472 0.404472 0.431166
O O7 0.042093 0.282715 0.489805
O O8 0.968306 0.226215 0.370669
O O9 0.881147 0.911542 0.482813
O O10 0.830147 0.065083 0.399549
O O11 0.745600 0.754401 0.808538
O O12 0.529501 0.738114 0.808428
O O13 0.641910 0.627800 0.722233
O O14 0.650237 0.150237 0.835840
O O15 0.508537 0.209027 0.927555
O O16 0.606037 0.106037 0.024874
O O17 0.388453 0.111548 0.015582
O O18 0.253130 0.246871 0.638087
#
# Coordination Sequence:
#
# PCOD8308710 Si02
#       7
#     8   8   8   8   8   8   8
#     4  10  22  36  54  82 109 142 180 222 271 323
#     4   9  17  30  50  77 107 138 174 218 266 312
#     4   9  17  31  49  80 104 137 173 216 266 311
#     4  10  21  37  57  80 108 149 184 220 268 323
#     4  10  22  37  54  80 111 143 179 225 274 324
#     4  10  21  37  59  83 106 138 179 228 277 323
#     4   9  18  33  54  77 105 138 177 215 256 311
#
# _framework density 18.583043
#
# number of rings (size 3 to 8) (size 9 to 14) (size 15 to 20)
#    0.000    2.429    0.000    1.714    4.000    2.000 
#   15.429    1.429    0.000    1.714    0.000    6.000 
#    0.000    0.000    0.000    0.000    0.000    0.000 
#
# Total GULP energy -694303.460594 kJ/mol
# GULP energy per Si atom -12398.276082 kJ/mol
# Density = 1.854075 g / cm^3
# Si number density = 18.583043 Si / 1000 Ang^3
#
#
#
# Elastic Constant Matrix: (Units=GPa)
#
#
# Indices 1 2 3 4 5 6 
#
# 1 67.7379 15.3984 26.8096 0.0000 0.0000 0.0000
# 2 15.3984 67.7398 26.8104 0.0000 0.0000 0.0000
# 3 26.8096 26.8104 79.9619 0.0000 0.0000 0.0000
# 4 0.0000 0.0000 0.0000 26.1804 0.0000 0.0000
# 5 0.0000 0.0000 0.0000 0.0000 26.1807 0.0000
# 6 0.0000 0.0000 0.0000 0.0000 0.0000 18.8165
#
#
#
# Elastic Compliance Matrix: (Units=1/GPa)
#
#
# Indices 1 2 3 4 5 6 
#
# 1 0.017227 -0.001879 -0.005146 0.000000 0.000000 0.000000
# 2 -0.001879 0.017226 -0.005146 0.000000 0.000000 0.000000
# 3 -0.005146 -0.005146 0.015956 0.000000 0.000000 0.000000
# 4 0.000000 0.000000 0.000000 0.038197 0.000000 0.000000
# 5 0.000000 0.000000 0.000000 0.000000 0.038196 0.000000
# 6 0.000000 0.000000 0.000000 0.000000 0.000000 0.053145
#
#
# Mechanical properties :
#
#
# Convention : Reuss Voigt Hill
#
# Bulk Modulus (GPa) = 38.36120 39.27514 38.81817
# Shear Modulus (GPa) = 23.47669 23.99691 23.73680
#
# Velocity S-wave (km/s) = 3.55820 3.59741 3.57786
# Velocity P-wave (km/s) = 6.12936 6.19968 6.16462
#
# Compressibility (1/GPa) = 0.02606801
#
# Stress axis : x y z
#
# Youngs Moduli (GPa) = 58.04993 58.05131 62.67058
#
# Poissons Ratio (x) = 0.10910 0.32248
# Poissons Ratio (y) = 0.10910 0.32248
# Poissons Ratio (z) = 0.29870 0.29871
#
# Static dielectric constant tensor:
#      x y z
#    x 3.541570 0.000000 0.000000 
#    y 0.000000 3.541570 0.000000 
#    z 0.000000 0.000000 3.321790 
# 
# 
# High freq. dielectric constant tensor:
#      x y z
#    x 1.723970 0.000000 0.000000 
#    y 0.000000 1.723970 0.000000 
#    z 0.000000 0.000000 1.703730 
# 
# From -- ./inp_files/2691.got.cif
#   From: 2010.03.12/outbox.cif.g09.slc.cpg/sg113_cif.got.tgz:2691.got - 2010.04.14 02:06:34.
