data_PCOD8308815
_publ_section_title
;
Structure prediction by ZEFSAII (Michael W. Deem and Ramdas Pophale) SiO2 
 PCOD8308815
Probable space group: P -4 21 C
;
_chemical_formula_sum "Si O2"
_cell_formula_units_Z 46
_cell_length_a 11.602085
_cell_length_b 11.602085
_cell_length_c 18.178260
_cell_angle_alpha 90.000000
_cell_angle_beta 90.000000
_cell_angle_gamma 90.000000
_cell_volume 2446.946063
_symmetry_space_group_name_H-M "P -4 21 C"
_symmetry_group_IT_number 114
_symmetry_cell_setting 'tetragonal'
loop_
_space_group_symop_operation_xyz
x,y,z
y,-x,-z
-x,-y,z
-y,x,-z
1/2+x,1/2-y,1/2-z
1/2-x,1/2+y,1/2-z
1/2-y,1/2-x,1/2+z
1/2+y,1/2+x,1/2+z
loop_
_atom_site_type_symbol
_atom_site_label
_atom_site_fract_x
_atom_site_fract_y
_atom_site_fract_z
Si Si1 0.400977 0.146590 0.896680
Si Si2 0.500000 0.000000 0.521874
Si Si3 0.500000 0.500000 0.500000
Si Si4 0.591757 0.591903 0.870128
Si Si5 0.354012 0.892849 0.642215
Si Si6 0.628640 0.641467 0.381500
Si Si7 0.000000 0.000000 0.767402
Si Si8 0.500000 0.000000 0.268372
O O1 0.420843 0.282645 0.904732
O O2 0.271545 0.099852 0.902059
O O3 0.457292 0.103065 0.820847
O O4 0.455126 0.101196 0.971013
O O5 0.441079 0.906979 0.574451
O O6 0.601123 0.558870 0.451209
O O7 0.500000 0.500000 0.907588
O O8 0.726768 0.555836 0.876537
O O9 0.557769 0.598892 0.783644
O O10 0.357381 0.756376 0.651703
O O11 0.396853 0.953911 0.716925
O O12 0.547774 0.604089 0.315119
#
# Coordination Sequence:
#
# PCOD8308815 Si02
#       8
#     8   4   2   8   8   8   4   4
#     4  10  20  37  56  82 112 149 187 236 281 338
#     4  10  22  38  54  76 116 146 186 228 272 340
#     4  10  20  32  52  84 112 158 196 226 284 338
#     4   9  20  37  56  84 112 142 185 236 286 336
#     4  10  20  37  56  82 112 149 187 236 281 338
#     4  10  19  33  55  78 113 147 187 235 280 335
#     4   9  18  33  54  83 114 137 182 236 280 337
#     4  10  20  34  60  82 108 150 188 226 284 338
#
# _framework density 18.798943000000001
#
# number of rings (size 3 to 8) (size 9 to 14) (size 15 to 20)
#    0.522    1.739    0.000    3.130    0.000    0.000 
#    6.261    0.000   15.304    0.000    0.000    0.000 
#    0.000    0.000    0.000    0.000    0.000    0.000 
#
# Total GULP energy -569927.683729 kJ/mol
# GULP energy per Si atom -12389.732255 kJ/mol
# Density = 1.875616 g / cm^3
# Si number density = 18.798943 Si / 1000 Ang^3
#
#
#
# Elastic Constant Matrix: (Units=GPa)
#
#
# Indices 1 2 3 4 5 6 
#
# 1 82.4794 28.2901 16.0839 0.0000 0.0000 0.0000
# 2 28.2901 82.4794 16.0839 0.0000 0.0000 0.0000
# 3 16.0839 16.0839 83.3171 0.0000 0.0000 0.0000
# 4 0.0000 0.0000 0.0000 9.9855 0.0000 0.0000
# 5 0.0000 0.0000 0.0000 0.0000 9.9855 0.0000
# 6 0.0000 0.0000 0.0000 0.0000 0.0000 33.5461
#
#
#
# Elastic Compliance Matrix: (Units=1/GPa)
#
#
# Indices 1 2 3 4 5 6 
#
# 1 0.014009 -0.004445 -0.001846 0.000000 0.000000 0.000000
# 2 -0.004445 0.014009 -0.001846 0.000000 0.000000 0.000000
# 3 -0.001846 -0.001846 0.012715 0.000000 0.000000 0.000000
# 4 0.000000 0.000000 0.000000 0.100145 0.000000 0.000000
# 5 0.000000 0.000000 0.000000 0.000000 0.100145 0.000000
# 6 0.000000 0.000000 0.000000 0.000000 0.000000 0.029810
#
#
# Mechanical properties :
#
#
# Convention : Reuss Voigt Hill
#
# Bulk Modulus (GPa) = 40.88647 41.02127 40.95387
# Shear Modulus (GPa) = 16.93416 23.22461 20.07939
#
# Velocity S-wave (km/s) = 3.00460 3.51867 3.27174
# Velocity P-wave (km/s) = 5.81664 6.19487 6.00874
#
# Compressibility (1/GPa) = 0.02445797
#
# Stress axis : x y z
#
# Youngs Moduli (GPa) = 71.38333 71.38333 78.64626
#
# Poissons Ratio (x) = 0.31730 0.14520
# Poissons Ratio (y) = 0.31730 0.14520
# Poissons Ratio (z) = 0.13179 0.13179
#
# Static dielectric constant tensor:
#      x y z
#    x 3.451780 0.000000 0.000000 
#    y 0.000000 3.451780 0.000000 
#    z 0.000000 0.000000 3.358900 
# 
# 
# High freq. dielectric constant tensor:
#      x y z
#    x 1.730530 0.000000 0.000000 
#    y 0.000000 1.730530 0.000000 
#    z 0.000000 0.000000 1.731690 
# 
# From -- ./inp_files/2697.got.cif
#   From: 2010.03.12/outbox.cif.g09.slc.cpg/sg114_2_cif.got.tgz:2697.got - 2010.04.14 02:08:34.
