data_PCOD8308621
_publ_section_title
;
Structure prediction by ZEFSAII (Michael W. Deem and Ramdas Pophale) SiO2 
 PCOD8308621
Probable space group: P -4 21 M 
;
_chemical_formula_sum "Si O2"
_cell_formula_units_Z 48
_cell_length_a 14.304652
_cell_length_b 14.304652
_cell_length_c 11.639230
_cell_angle_alpha 90.000000
_cell_angle_beta 90.000000
_cell_angle_gamma 90.000000
_cell_volume 2381.654962
_symmetry_space_group_name_H-M "P -4 21 M "
_symmetry_group_IT_number 113
_symmetry_cell_setting 'tetragonal'
loop_
_space_group_symop_operation_xyz
x,y,z
y,-x,-z
-x,-y,z
-y,x,-z
1/2+x,1/2-y,-z
1/2-x,1/2+y,-z
1/2-y,1/2-x,z
1/2+y,1/2+x,z
loop_
_atom_site_type_symbol
_atom_site_label
_atom_site_fract_x
_atom_site_fract_y
_atom_site_fract_z
Si Si1 0.218851 0.568611 0.938407
Si Si2 0.577778 0.077778 0.007668
Si Si3 0.578959 0.078959 0.751535
Si Si4 0.211808 0.142443 0.833050
Si Si5 0.493343 0.612104 0.186951
Si Si6 0.703864 0.948780 0.619290
Si Si7 0.487925 0.359317 0.453814
O O1 0.155835 0.655835 0.891219
O O2 0.321404 0.569142 0.877131
O O3 0.163853 0.469644 0.922105
O O4 0.232042 0.579845 0.075270
O O5 0.610064 0.110064 0.879760
O O6 0.500000 0.000000 0.988626
O O7 0.542395 0.168062 0.680724
O O8 0.500000 0.000000 0.757600
O O9 0.252239 0.247762 0.835500
O O10 0.104134 0.145040 0.866622
O O11 0.223346 0.099354 0.706410
O O12 0.500000 0.500000 0.165550
O O13 0.497293 0.639514 0.318972
O O14 0.618634 0.881367 0.588083
O O15 0.754605 0.972408 0.499598
O O16 0.397887 0.421802 0.480564
#
# Coordination Sequence:
#
# PCOD8308621 Si02
#       7
#     8   4   4   8   8   8   8
#     4  10  23  40  63  96 131 165 209 254 312 384
#     4   9  16  36  65  91 131 177 197 237 312 386
#     4   9  16  32  61  95 127 157 200 248 299 361
#     4  10  21  39  61  90 124 159 206 253 299 365
#     4  12  25  41  66  87 123 167 210 255 325 377
#     4  10  19  36  63  93 120 155 203 252 299 357
#     4  11  21  43  63  80 116 159 205 248 306 367
#
# _framework density 20.154053000000001
#
# number of rings (size 3 to 8) (size 9 to 14) (size 15 to 20)
#    0.000    1.667    5.000    0.000    3.500    0.667 
#    3.000    0.000    5.500    3.000    0.000    0.000 
#    0.000    0.000    0.000    0.000    0.000    0.000 
#
# Total GULP energy -594982.977518 kJ/mol
# GULP energy per Si atom -12395.478698 kJ/mol
# Density = 2.010818 g / cm^3
# Si number density = 20.154053 Si / 1000 Ang^3
#
#
#
# Elastic Constant Matrix: (Units=GPa)
#
#
# Indices 1 2 3 4 5 6 
#
# 1 109.9023 54.6104 50.7560 0.0000 0.0000 0.0000
# 2 54.6104 109.9023 50.7562 0.0000 0.0000 0.0000
# 3 50.7560 50.7562 90.5837 0.0000 0.0000 0.0000
# 4 0.0000 0.0000 0.0000 28.7830 0.0000 0.0000
# 5 0.0000 0.0000 0.0000 0.0000 28.7834 0.0000
# 6 0.0000 0.0000 0.0000 0.0000 0.0000 19.8499
#
#
#
# Elastic Compliance Matrix: (Units=1/GPa)
#
#
# Indices 1 2 3 4 5 6 
#
# 1 0.013688 -0.004398 -0.005206 0.000000 0.000000 0.000000
# 2 -0.004398 0.013688 -0.005206 0.000000 0.000000 0.000000
# 3 -0.005206 -0.005206 0.016873 0.000000 0.000000 0.000000
# 4 0.000000 0.000000 0.000000 0.034743 0.000000 0.000000
# 5 0.000000 0.000000 0.000000 0.000000 0.034742 0.000000
# 6 0.000000 0.000000 0.000000 0.000000 0.000000 0.050378
#
#
# Mechanical properties :
#
#
# Convention : Reuss Voigt Hill
#
# Bulk Modulus (GPa) = 68.34503 69.18151 68.76327
# Shear Modulus (GPa) = 25.17513 25.76764 25.47138
#
# Velocity S-wave (km/s) = 3.53814 3.57954 3.55890
# Velocity P-wave (km/s) = 7.11872 7.17530 7.14707
#
# Compressibility (1/GPa) = 0.01463164
#
# Stress axis : x y z
#
# Youngs Moduli (GPa) = 73.05507 73.05479 59.26482
#
# Poissons Ratio (x) = 0.32126 0.30852
# Poissons Ratio (y) = 0.32126 0.30853
# Poissons Ratio (z) = 0.38031 0.38032
#
# Static dielectric constant tensor:
#      x y z
#    x 3.679730 0.000000 0.000000 
#    y 0.000000 3.679730 0.000000 
#    z 0.000000 0.000000 3.454770 
# 
# 
# High freq. dielectric constant tensor:
#      x y z
#    x 1.781050 0.000000 0.000000 
#    y 0.000000 1.781050 0.000000 
#    z 0.000000 0.000000 1.771540 
# 
# From -- ./inp_files/1888.got.cif
#   From: 2010.03.12/outbox.cif.g09.slc.cpg/sg113_cif.got.tgz:1888.got - 2010.04.14 02:06:34.
