data_PCOD8308034
_publ_section_title
;
Structure prediction by ZEFSAII (Michael W. Deem and Ramdas Pophale) SiO2 
 PCOD8308034
Probable space group: I 41 C D
;
_chemical_formula_sum "Si O2"
_cell_formula_units_Z 96
_cell_length_a 20.083620
_cell_length_b 20.083620
_cell_length_c 9.404826
_cell_angle_alpha 90.000000
_cell_angle_beta 90.000000
_cell_angle_gamma 90.000000
_cell_volume 3793.453423
_symmetry_space_group_name_H-M "I 41 C D"
_symmetry_group_IT_number 110
_symmetry_cell_setting 'tetragonal'
loop_
_space_group_symop_operation_xyz
x,y,z
-y,1/2+x,1/4+z
-x,-y,z
y,1/2-x,1/4+z
-x,y,1/2+z
x,-y,1/2+z
1/2-y,-x,1/4+z
1/2+y,x,1/4+z
1/2+x,1/2+y,1/2+z
1/2-y,x,3/4+z
1/2-x,1/2-y,1/2+z
1/2+y,-x,3/4+z
1/2-x,1/2+y,z
1/2+x,1/2-y,z
-y,1/2-x,3/4+z
y,1/2+x,3/4+z
loop_
_atom_site_type_symbol
_atom_site_label
_atom_site_fract_x
_atom_site_fract_y
_atom_site_fract_z
Si Si1 0.550380 0.279225 0.543770
Si Si2 0.859136 0.667190 0.872206
Si Si3 0.550106 0.865829 0.112879
Si Si4 0.025012 0.855893 0.780714
Si Si5 0.593204 0.109337 0.149430
Si Si6 0.293439 0.196734 0.753316
O O1 0.621725 0.292088 0.619699
O O2 0.531010 0.202149 0.532696
O O3 0.557096 0.298952 0.378696
O O4 0.495419 0.323975 0.629873
O O5 0.896260 0.655984 0.726887
O O6 0.842135 0.743976 0.897183
O O7 0.907630 0.644602 0.996869
O O8 0.583238 0.921976 0.008751
O O9 0.484510 0.893486 0.193834
O O10 0.965083 0.881358 0.879616
O O11 0.638395 0.153891 0.257341
O O12 0.267853 0.200367 0.917418
#
# Coordination Sequence:
#
# PCOD8308034 Si02
#       6
#    16  16  16  16  16  16
#     4  10  23  42  68  94 129 176 222 275 335 401
#     4   9  20  42  64  84 129 180 213 268 342 398
#     4  11  22  38  65  98 126 176 221 275 336 400
#     4  10  23  45  65  94 137 171 223 277 333 408
#     4  10  22  38  66  92 129 177 218 271 336 404
#     4  10  21  41  66  94 134 178 224 279 343 404
#
# _framework density 25.306756
#
# number of rings (size 3 to 8) (size 9 to 14) (size 15 to 20)
#    0.000    2.000    0.000    3.500    7.000    1.333 
#    9.000    6.667    0.000    0.000    0.000    0.000 
#    0.000    0.000    0.000    0.000    0.000    0.000 
#
# Total GULP energy -594831.189408 kJ/mol
# GULP energy per Si atom -12392.316446 kJ/mol
# Density = 2.524916 g / cm^3
# Si number density = 25.306756 Si / 1000 Ang^3
#
#
#
# Elastic Constant Matrix: (Units=GPa)
#
#
# Indices 1 2 3 4 5 6 
#
# 1 114.9323 38.8257 6.8488 0.0000 0.0000 0.0000
# 2 38.8257 114.9323 6.8488 0.0000 0.0000 0.0000
# 3 6.8488 6.8488 44.6271 0.0000 0.0000 0.0000
# 4 0.0000 0.0000 0.0000 20.5809 0.0000 0.0000
# 5 0.0000 0.0000 0.0000 0.0000 20.5809 0.0000
# 6 0.0000 0.0000 0.0000 0.0000 0.0000 28.0723
#
#
#
# Elastic Compliance Matrix: (Units=1/GPa)
#
#
# Indices 1 2 3 4 5 6 
#
# 1 0.009867 -0.003273 -0.001012 0.000000 0.000000 0.000000
# 2 -0.003273 0.009867 -0.001012 0.000000 0.000000 0.000000
# 3 -0.001012 -0.001012 0.022719 0.000000 0.000000 0.000000
# 4 0.000000 0.000000 0.000000 0.048589 0.000000 0.000000
# 5 0.000000 0.000000 0.000000 0.000000 0.048589 0.000000
# 6 0.000000 0.000000 0.000000 0.000000 0.000000 0.035622
#
#
# Mechanical properties :
#
#
# Convention : Reuss Voigt Hill
#
# Bulk Modulus (GPa) = 31.38879 42.17091 36.77985
# Shear Modulus (GPa) = 25.44987 28.64470 27.04728
#
# Velocity S-wave (km/s) = 3.17465 3.36802 3.27276
# Velocity P-wave (km/s) = 5.08607 5.64135 5.37089
#
# Compressibility (1/GPa) = 0.03185851
#
# Stress axis : x y z
#
# Youngs Moduli (GPa) = 101.35133 101.35133 44.01694
#
# Poissons Ratio (x) = 0.33170 0.04454
# Poissons Ratio (y) = 0.33170 0.04454
# Poissons Ratio (z) = 0.10256 0.10256
#
# Static dielectric constant tensor:
#      x y z
#    x 4.732570 0.000000 0.000000 
#    y 0.000000 4.732570 0.000000 
#    z 0.000000 0.000000 4.134690 
# 
# 
# High freq. dielectric constant tensor:
#      x y z
#    x 2.011140 0.000000 0.000000 
#    y 0.000000 2.011140 0.000000 
#    z 0.000000 0.000000 1.995090 
# 
# From -- ./inp_files/907.got.cif
#   From: 2010.03.12/outbox.cif.g09.slc.cpg/sg110_1_cif.got.tgz:907.got - 2010.04.14 01:58:01.
