data_PCOD8308555
_publ_section_title
;
Structure prediction by ZEFSAII (Michael W. Deem and Ramdas Pophale) SiO2 
 PCOD8308555
Probable space group: P -4 21 M 
;
_chemical_formula_sum "Si O2"
_cell_formula_units_Z 64
_cell_length_a 24.860235
_cell_length_b 24.860235
_cell_length_c 6.716839
_cell_angle_alpha 90.000000
_cell_angle_beta 90.000000
_cell_angle_gamma 90.000000
_cell_volume 4151.216633
_symmetry_space_group_name_H-M "P -4 21 M "
_symmetry_group_IT_number 113
_symmetry_cell_setting 'tetragonal'
loop_
_space_group_symop_operation_xyz
x,y,z
y,-x,-z
-x,-y,z
-y,x,-z
1/2+x,1/2-y,-z
1/2-x,1/2+y,-z
1/2-y,1/2-x,z
1/2+y,1/2+x,z
loop_
_atom_site_type_symbol
_atom_site_label
_atom_site_fract_x
_atom_site_fract_y
_atom_site_fract_z
Si Si1 0.728319 0.560760 0.711316
Si Si2 0.800533 0.878501 0.903319
Si Si3 0.749995 0.661304 0.463890
Si Si4 0.300534 0.378498 0.096686
Si Si5 0.771679 0.939243 0.288690
Si Si6 0.441549 0.366596 0.591900
Si Si7 0.866597 0.058453 0.591894
Si Si8 0.161300 0.750002 0.463883
O O1 0.760983 0.609832 0.607605
O O2 0.755081 0.500002 0.704081
O O3 0.672882 0.557746 0.595220
O O4 0.719898 0.577106 0.940998
O O5 0.847151 0.903159 0.767030
O O6 0.750816 0.860415 0.763175
O O7 0.824577 0.824579 0.000001
O O8 0.780102 0.922897 0.059008
O O9 0.799687 0.700314 0.500012
O O10 0.749182 0.639591 0.236829
O O11 0.693148 0.693151 0.500002
O O12 0.347150 0.403156 0.232981
O O13 0.827115 0.942256 0.404791
O O14 0.739013 0.890172 0.392398
O O15 0.422773 0.422772 0.500000
O O16 0.500002 0.374123 0.686394
O O17 0.200310 0.700310 0.499996
#
# Coordination Sequence:
#
# PCOD8308555 Si02
#       8
#     8   8   8   8   8   8   8   8
#     4  10  19  32  49  66  90 125 160 193 233 283
#     4  11  17  30  47  66  88 118 158 196 236 284
#     4  10  20  32  48  73 100 125 156 196 241 291
#     4  11  17  30  47  66  88 118 158 196 236 284
#     4  10  19  32  49  66  90 125 160 193 233 283
#     4  10  19  30  43  59  81 113 156 204 244 280
#     4  10  19  30  43  59  81 113 156 204 244 280
#     4  10  20  32  48  73 100 125 156 196 241 291
#
# _framework density 15.417168
#
# number of rings (size 3 to 8) (size 9 to 14) (size 15 to 20)
#    0.000    1.750    5.000    2.250    0.000    2.750 
#    0.000    0.000    0.000    0.000    0.000    0.000 
#    0.000    0.500    0.000    1.000    0.000    0.000 
#
# Total GULP energy -792976.911683 kJ/mol
# GULP energy per Si atom -12390.264245 kJ/mol
# Density = 1.538208 g / cm^3
# Si number density = 15.417168 Si / 1000 Ang^3
#
#
#
# Elastic Constant Matrix: (Units=GPa)
#
#
# Indices 1 2 3 4 5 6 
#
# 1 71.8921 38.6496 27.7766 0.0000 0.0000 0.0000
# 2 38.6496 71.8889 27.7760 0.0000 0.0000 0.0000
# 3 27.7766 27.7760 95.6700 0.0000 0.0000 0.0000
# 4 0.0000 0.0000 0.0000 9.2200 0.0000 0.0000
# 5 0.0000 0.0000 0.0000 0.0000 9.2192 0.0000
# 6 0.0000 0.0000 0.0000 0.0000 0.0000 17.3105
#
#
#
# Elastic Compliance Matrix: (Units=1/GPa)
#
#
# Indices 1 2 3 4 5 6 
#
# 1 0.020337 -0.009746 -0.003075 0.000000 0.000000 0.000000
# 2 -0.009746 0.020338 -0.003075 0.000000 0.000000 0.000000
# 3 -0.003075 -0.003075 0.012238 0.000000 0.000000 0.000000
# 4 0.000000 0.000000 0.000000 0.108460 0.000000 0.000000
# 5 0.000000 0.000000 0.000000 0.000000 0.108470 0.000000
# 6 0.000000 0.000000 0.000000 0.000000 0.000000 0.057768
#
#
# Mechanical properties :
#
#
# Convention : Reuss Voigt Hill
#
# Bulk Modulus (GPa) = 47.34548 47.53950 47.44249
# Shear Modulus (GPa) = 13.64465 16.83319 15.23892
#
# Velocity S-wave (km/s) = 2.97817 3.30790 3.14735
# Velocity P-wave (km/s) = 6.52704 6.74477 6.63680
#
# Compressibility (1/GPa) = 0.02112134
#
# Stress axis : x y z
#
# Youngs Moduli (GPa) = 49.17087 49.16869 81.71085
#
# Poissons Ratio (x) = 0.47919 0.25128
# Poissons Ratio (y) = 0.47921 0.25128
# Poissons Ratio (z) = 0.15121 0.15121
#
# Static dielectric constant tensor:
#      x y z
#    x 2.905310 0.000000 0.000000 
#    y 0.000000 2.905310 0.000000 
#    z 0.000000 0.000000 3.138570 
# 
# 
# High freq. dielectric constant tensor:
#      x y z
#    x 1.561230 0.000000 0.000000 
#    y 0.000000 1.561230 0.000000 
#    z 0.000000 0.000000 1.608760 
# 
# From -- ./inp_files/617.got.cif
#   From: 2010.03.12/outbox.cif.g09.slc.cpg/sg113_cif.got.tgz:617.got - 2010.04.14 02:06:34.
