data_PCOD8308962
_publ_section_title
;
Structure prediction by ZEFSAII (Michael W. Deem and Ramdas Pophale) SiO2 
 PCOD8308962
Probable space group: P -4 21 C
;
_chemical_formula_sum "Si O2"
_cell_formula_units_Z 30
_cell_length_a 8.011423
_cell_length_b 8.011423
_cell_length_c 20.207499
_cell_angle_alpha 90.000000
_cell_angle_beta 90.000000
_cell_angle_gamma 90.000000
_cell_volume 1296.975857
_symmetry_space_group_name_H-M "P -4 21 C"
_symmetry_group_IT_number 114
_symmetry_cell_setting 'tetragonal'
loop_
_space_group_symop_operation_xyz
x,y,z
y,-x,-z
-x,-y,z
-y,x,-z
1/2+x,1/2-y,1/2-z
1/2-x,1/2+y,1/2-z
1/2-y,1/2-x,1/2+z
1/2+y,1/2+x,1/2+z
loop_
_atom_site_type_symbol
_atom_site_label
_atom_site_fract_x
_atom_site_fract_y
_atom_site_fract_z
Si Si1 0.000000 0.500000 0.810699
Si Si2 0.095808 0.232282 0.211698
Si Si3 0.000000 0.000000 0.000000
Si Si4 0.312579 0.356364 0.382422
Si Si5 0.528065 0.686977 0.830623
O O1 0.836368 0.483606 0.764263
O O2 0.980278 0.666765 0.855761
O O3 0.212110 0.355132 0.168452
O O4 0.197783 0.096362 0.254891
O O5 0.978285 0.129967 0.162569
O O6 0.142505 0.911253 0.043654
O O7 0.260899 0.161819 0.382128
O O8 0.500000 0.500000 0.854574
#
# Coordination Sequence:
#
# PCOD8308962 Si02
#       5
#     4   8   2   8   8
#     4  10  22  42  72 114 134 170 220 316 368 422
#     4  11  23  40  74 117 148 175 222 300 377 436
#     4  12  32  52  68  88 136 216 244 286 336 444
#     4  11  26  44  72  98 146 188 244 283 357 443
#     4  11  23  39  73 113 149 177 222 300 376 429
#
# _framework density 23.130734
#
# number of rings (size 3 to 8) (size 9 to 14) (size 15 to 20)
#    0.000    1.067    2.667    3.200   13.067    0.000 
#    4.800    0.000    0.000    0.000    0.000    0.000 
#    0.000    0.000    0.000    0.000    0.000    0.000 
#
# Total GULP energy -371961.243029 kJ/mol
# GULP energy per Si atom -12398.708101 kJ/mol
# Density = 2.307809 g / cm^3
# Si number density = 23.130734 Si / 1000 Ang^3
#
#
#
# Elastic Constant Matrix: (Units=GPa)
#
#
# Indices 1 2 3 4 5 6 
#
# 1 130.8636 44.4167 49.8192 0.0000 0.0000 0.0000
# 2 44.4167 130.8636 49.8192 0.0000 0.0000 0.0000
# 3 49.8192 49.8192 129.5548 0.0000 0.0000 0.0000
# 4 0.0000 0.0000 0.0000 33.6287 0.0000 0.0000
# 5 0.0000 0.0000 0.0000 0.0000 33.6287 0.0000
# 6 0.0000 0.0000 0.0000 0.0000 0.0000 52.8144
#
#
#
# Elastic Compliance Matrix: (Units=1/GPa)
#
#
# Indices 1 2 3 4 5 6 
#
# 1 0.009434 -0.002133 -0.002808 0.000000 0.000000 0.000000
# 2 -0.002133 0.009434 -0.002808 0.000000 0.000000 0.000000
# 3 -0.002808 -0.002808 0.009878 0.000000 0.000000 0.000000
# 4 0.000000 0.000000 0.000000 0.029736 0.000000 0.000000
# 5 0.000000 0.000000 0.000000 0.000000 0.029736 0.000000
# 6 0.000000 0.000000 0.000000 0.000000 0.000000 0.018934
#
#
# Mechanical properties :
#
#
# Convention : Reuss Voigt Hill
#
# Bulk Modulus (GPa) = 75.47216 75.48800 75.48008
# Shear Modulus (GPa) = 39.34907 40.49616 39.92261
#
# Velocity S-wave (km/s) = 4.12899 4.18874 4.15897
# Velocity P-wave (km/s) = 7.44518 7.49001 7.46763
#
# Compressibility (1/GPa) = 0.01324992
#
# Stress axis : x y z
#
# Youngs Moduli (GPa) = 105.99441 105.99441 101.23499
#
# Poissons Ratio (x) = 0.22612 0.28423
# Poissons Ratio (y) = 0.22612 0.28423
# Poissons Ratio (z) = 0.29759 0.29759
#
# Static dielectric constant tensor:
#      x y z
#    x 4.750690 0.000000 0.000000 
#    y 0.000000 4.750690 0.000000 
#    z 0.000000 0.000000 3.526530 
# 
# 
# High freq. dielectric constant tensor:
#      x y z
#    x 1.948960 0.000000 0.000000 
#    y 0.000000 1.948960 0.000000 
#    z 0.000000 0.000000 1.836420 
# 
# From -- ./inp_files/3272.got.cif
#   From: 2010.03.12/outbox.cif.g09.slc.cpg/sg114_2_cif.got.tgz:3272.got - 2010.04.14 02:08:34.
