data_PCOD8308770
_publ_section_title
;
Structure prediction by ZEFSAII (Michael W. Deem and Ramdas Pophale) SiO2 
 PCOD8308770
Probable space group: P -4 21 M 
;
_chemical_formula_sum "Si O2"
_cell_formula_units_Z 64
_cell_length_a 11.587789
_cell_length_b 11.587789
_cell_length_c 23.157487
_cell_angle_alpha 90.000000
_cell_angle_beta 90.000000
_cell_angle_gamma 90.000000
_cell_volume 3109.514499
_symmetry_space_group_name_H-M "P -4 21 M "
_symmetry_group_IT_number 113
_symmetry_cell_setting 'tetragonal'
loop_
_space_group_symop_operation_xyz
x,y,z
y,-x,-z
-x,-y,z
-y,x,-z
1/2+x,1/2-y,-z
1/2-x,1/2+y,-z
1/2-y,1/2-x,z
1/2+y,1/2+x,z
loop_
_atom_site_type_symbol
_atom_site_label
_atom_site_fract_x
_atom_site_fract_y
_atom_site_fract_z
Si Si1 0.443606 0.241641 0.941749
Si Si2 0.926982 0.760640 0.943046
Si Si3 0.325001 0.486980 0.521297
Si Si4 0.354959 0.663777 0.237730
Si Si5 0.233401 0.449092 0.178673
Si Si6 0.818601 0.506783 0.419090
Si Si7 0.656333 0.649841 0.632270
Si Si8 0.241124 0.075273 0.163930
O O1 0.350625 0.149376 0.964332
O O2 0.382355 0.364511 0.930744
O O3 0.498260 0.196765 0.882567
O O4 0.541478 0.254482 0.989787
O O5 0.843535 0.656466 0.925831
O O6 0.039345 0.750528 0.903035
O O7 0.389921 0.608118 0.516152
O O8 0.202858 0.495593 0.488509
O O9 0.312206 0.453857 0.588533
O O10 0.267678 0.767678 0.232430
O O11 0.284710 0.548789 0.219693
O O12 0.399351 0.647143 0.303203
O O13 0.465011 0.702407 0.201003
O O14 0.119167 0.380834 0.203708
O O15 0.333688 0.359171 0.168779
O O16 0.866081 0.633920 0.400603
O O17 0.703103 0.468921 0.384814
O O18 0.916457 0.416457 0.403614
O O19 0.754281 0.745720 0.626463
O O20 0.363321 0.136679 0.182500
#
# Coordination Sequence:
#
# PCOD8308770 Si02
#       8
#     8   8   8   8   8   8   8   8
#     4  11  23  38  59  91 124 158 202 251 309 370
#     4  11  23  38  60  90 122 160 203 250 309 370
#     4   9  17  32  52  82 114 147 190 231 288 344
#     4  11  23  41  64  90 120 163 208 251 311 365
#     4  11  24  42  63  89 122 162 206 256 313 370
#     4   9  17  31  53  81 114 152 192 238 294 353
#     4   9  19  35  57  83 115 151 191 240 289 349
#     4  11  24  43  64  88 119 161 211 256 308 370
#
# _framework density 20.581992
#
# number of rings (size 3 to 8) (size 9 to 14) (size 15 to 20)
#    0.000    1.750    1.250    3.000    0.000    7.500 
#    9.000    1.875    0.000    0.750    0.000    0.000 
#    0.000    0.000    0.000    0.000    0.000    0.000 
#
# Total GULP energy -793259.735352 kJ/mol
# GULP energy per Si atom -12394.683365 kJ/mol
# Density = 2.053515 g / cm^3
# Si number density = 20.581992 Si / 1000 Ang^3
#
#
#
# Elastic Constant Matrix: (Units=GPa)
#
#
# Indices 1 2 3 4 5 6 
#
# 1 67.8642 17.3608 22.2199 0.0000 0.0000 0.0000
# 2 17.3608 67.8593 22.2195 0.0000 0.0000 0.0000
# 3 22.2199 22.2195 109.0402 0.0000 0.0000 0.0000
# 4 0.0000 0.0000 0.0000 27.3663 0.0000 0.0000
# 5 0.0000 0.0000 0.0000 0.0000 27.3663 0.0000
# 6 0.0000 0.0000 0.0000 0.0000 0.0000 27.3203
#
#
#
# Elastic Compliance Matrix: (Units=1/GPa)
#
#
# Indices 1 2 3 4 5 6 
#
# 1 0.016465 -0.003336 -0.002675 0.000000 0.000000 0.000000
# 2 -0.003336 0.016466 -0.002675 0.000000 0.000000 0.000000
# 3 -0.002675 -0.002675 0.010261 0.000000 0.000000 0.000000
# 4 0.000000 0.000000 0.000000 0.036541 0.000000 0.000000
# 5 0.000000 0.000000 0.000000 0.000000 0.036541 0.000000
# 6 0.000000 0.000000 0.000000 0.000000 0.000000 0.036603
#
#
# Mechanical properties :
#
#
# Convention : Reuss Voigt Hill
#
# Bulk Modulus (GPa) = 38.73282 40.92934 39.83108
# Shear Modulus (GPa) = 27.95523 28.60815 28.28169
#
# Velocity S-wave (km/s) = 3.68943 3.73226 3.71091
# Velocity P-wave (km/s) = 6.08349 6.20501 6.14455
#
# Compressibility (1/GPa) = 0.02581790
#
# Stress axis : x y z
#
# Youngs Moduli (GPa) = 60.73588 60.73143 97.45374
#
# Poissons Ratio (x) = 0.20262 0.26072
# Poissons Ratio (y) = 0.20263 0.26073
# Poissons Ratio (z) = 0.16249 0.16248
#
# Static dielectric constant tensor:
#      x y z
#    x 3.849980 0.000000 0.000000 
#    y 0.000000 3.849980 0.000000 
#    z 0.000000 0.000000 3.720240 
# 
# 
# High freq. dielectric constant tensor:
#      x y z
#    x 1.807150 0.000000 0.000000 
#    y 0.000000 1.807150 0.000000 
#    z 0.000000 0.000000 1.792080 
# 
# From -- ./inp_files/2916.got.cif
#   From: 2010.03.12/outbox.cif.g09.slc.cpg/sg113_cif.got.tgz:2916.got - 2010.04.14 02:06:34.
