data_PCOD8308589
_publ_section_title
;
Structure prediction by ZEFSAII (Michael W. Deem and Ramdas Pophale) SiO2 
 PCOD8308589
Probable space group: P -4 21 M 
;
_chemical_formula_sum "Si O2"
_cell_formula_units_Z 56
_cell_length_a 12.624192
_cell_length_b 12.624192
_cell_length_c 20.074530
_cell_angle_alpha 90.000000
_cell_angle_beta 90.000000
_cell_angle_gamma 90.000000
_cell_volume 3199.282336
_symmetry_space_group_name_H-M "P -4 21 M "
_symmetry_group_IT_number 113
_symmetry_cell_setting 'tetragonal'
loop_
_space_group_symop_operation_xyz
x,y,z
y,-x,-z
-x,-y,z
-y,x,-z
1/2+x,1/2-y,-z
1/2-x,1/2+y,-z
1/2-y,1/2-x,z
1/2+y,1/2+x,z
loop_
_atom_site_type_symbol
_atom_site_label
_atom_site_fract_x
_atom_site_fract_y
_atom_site_fract_z
Si Si1 0.858903 0.189700 0.147216
Si Si2 0.197812 0.127177 0.351262
Si Si3 0.097659 0.137541 0.994992
Si Si4 0.025889 0.878179 0.784515
Si Si5 0.836188 0.499875 0.551155
Si Si6 0.147966 0.953384 0.529741
Si Si7 0.272536 0.398246 0.132713
O O1 0.782129 0.282129 0.172355
O O2 0.978910 0.234038 0.155683
O O3 0.829681 0.085647 0.190636
O O4 0.835141 0.165488 0.069908
O O5 0.262477 0.237524 0.341236
O O6 0.170942 0.071158 0.282706
O O7 0.091085 0.144652 0.395049
O O8 0.266691 0.040886 0.388624
O O9 0.113560 0.224525 0.052660
O O10 0.974934 0.132720 0.974049
O O11 0.116841 0.854622 0.838597
O O12 0.000000 0.000000 0.773578
O O13 0.913219 0.586782 0.582745
O O14 0.768866 0.554784 0.493042
O O15 0.902981 0.402981 0.519154
O O16 0.076052 0.888036 0.476284
O O17 0.171219 0.328782 0.158224
#
# Coordination Sequence:
#
# PCOD8308589 Si02
#       7
#     8   8   8   8   8   8   8
#     4  10  20  34  52  79 107 140 177 223 274 320
#     4  10  20  33  54  79 104 137 175 214 259 311
#     4   9  15  29  54  79 104 132 177 224 270 320
#     4  10  21  35  53  75 104 141 180 222 258 319
#     4   9  18  32  50  75 107 139 171 209 258 313
#     4   9  18  31  53  78 103 134 169 219 263 301
#     4  10  19  33  54  79 103 138 179 222 272 320
#
# _framework density 17.503926
#
# number of rings (size 3 to 8) (size 9 to 14) (size 15 to 20)
#    0.000    2.429    1.429    1.286    4.000    1.429 
#    0.000    0.000    0.000    2.143    0.000    0.000 
#    0.000    0.000    0.000    0.000    0.000    0.000 
#
# Total GULP energy -693885.881877 kJ/mol
# GULP energy per Si atom -12390.819319 kJ/mol
# Density = 1.746409 g / cm^3
# Si number density = 17.503926 Si / 1000 Ang^3
#
#
#
# Elastic Constant Matrix: (Units=GPa)
#
#
# Indices 1 2 3 4 5 6 
#
# 1 76.7828 59.0828 43.6902 0.0000 0.0000 0.0000
# 2 59.0828 76.7803 43.6906 0.0000 0.0000 0.0000
# 3 43.6902 43.6906 88.6476 0.0000 0.0000 0.0000
# 4 0.0000 0.0000 0.0000 17.2912 0.0000 0.0000
# 5 0.0000 0.0000 0.0000 0.0000 17.2913 0.0000
# 6 0.0000 0.0000 0.0000 0.0000 0.0000 28.6579
#
#
#
# Elastic Compliance Matrix: (Units=1/GPa)
#
#
# Indices 1 2 3 4 5 6 
#
# 1 0.033638 -0.022863 -0.005310 0.000000 0.000000 0.000000
# 2 -0.022863 0.033639 -0.005312 0.000000 0.000000 0.000000
# 3 -0.005310 -0.005312 0.016516 0.000000 0.000000 0.000000
# 4 0.000000 0.000000 0.000000 0.057833 0.000000 0.000000
# 5 0.000000 0.000000 0.000000 0.000000 0.057832 0.000000
# 6 0.000000 0.000000 0.000000 0.000000 0.000000 0.034894
#
#
# Mechanical properties :
#
#
# Convention : Reuss Voigt Hill
#
# Bulk Modulus (GPa) = 59.43980 59.45977 59.44979
# Shear Modulus (GPa) = 16.29037 19.03122 17.66079
#
# Velocity S-wave (km/s) = 3.05400 3.30093 3.17986
# Velocity P-wave (km/s) = 6.81671 6.96931 6.89344
#
# Compressibility (1/GPa) = 0.01682374
#
# Stress axis : x y z
#
# Youngs Moduli (GPa) = 29.72856 29.72698 60.54816
#
# Poissons Ratio (x) = 0.67963 0.32154
# Poissons Ratio (y) = 0.67967 0.32161
# Poissons Ratio (z) = 0.15787 0.15790
#
# Static dielectric constant tensor:
#      x y z
#    x 3.321450 0.000000 0.000000 
#    y 0.000000 3.321460 0.000000 
#    z 0.000000 0.000000 3.105320 
# 
# 
# High freq. dielectric constant tensor:
#      x y z
#    x 1.673050 0.000000 0.000000 
#    y 0.000000 1.673050 0.000000 
#    z 0.000000 0.000000 1.659820 
# 
# From -- ./inp_files/2699.got.cif
#   From: 2010.03.12/outbox.cif.g09.slc.cpg/sg113_cif.got.tgz:2699.got - 2010.04.14 02:06:34.
