data_PCOD8308416
_publ_section_title
;
Structure prediction by ZEFSAII (Michael W. Deem and Ramdas Pophale) SiO2 
 PCOD8308416
Probable space group: P -4 2 C
;
_chemical_formula_sum "Si O2"
_cell_formula_units_Z 40
_cell_length_a 8.873175
_cell_length_b 8.873175
_cell_length_c 23.120491
_cell_angle_alpha 90.000000
_cell_angle_beta 90.000000
_cell_angle_gamma 90.000000
_cell_volume 1820.351042
_symmetry_space_group_name_H-M "P -4 2 C"
_symmetry_group_IT_number 112
_symmetry_cell_setting 'tetragonal'
loop_
_space_group_symop_operation_xyz
x,y,z
y,-x,-z
-x,-y,z
-y,x,-z
x,-y,1/2-z
-x,y,1/2-z
-y,-x,1/2+z
y,x,1/2+z
loop_
_atom_site_type_symbol
_atom_site_label
_atom_site_fract_x
_atom_site_fract_y
_atom_site_fract_z
Si Si1 0.829591 0.060316 0.833843
Si Si2 0.217524 0.333694 0.068313
Si Si3 0.646182 0.403281 0.130182
Si Si4 0.164923 0.528427 0.551082
Si Si5 0.189010 0.333940 0.267024
O O1 0.794421 0.120164 0.898378
O O2 0.786695 0.192424 0.786209
O O3 0.720756 0.924570 0.817056
O O4 0.000000 0.000000 0.829261
O O5 0.224702 0.479128 0.110615
O O6 0.376313 0.262961 0.048056
O O7 0.136930 0.392374 0.010611
O O8 0.500000 0.500000 0.120834
O O9 0.646517 0.253147 0.091427
O O10 0.655061 0.350990 0.197521
O O11 0.000000 0.500000 0.578342
O O12 0.135638 0.500000 0.250000
#
# Coordination Sequence:
#
# PCOD8308416 Si02
#       5
#     8   8   8   8   8
#     4  11  25  42  66 101 139 182 224 295 359 425
#     4  11  23  44  70  95 137 182 236 286 357 429
#     4  10  23  42  67  96 133 175 233 293 342 429
#     4  11  25  43  69 101 133 180 234 296 357 422
#     4  11  22  41  69  99 131 179 240 275 352 433
#
# _framework density 21.973783000000001
#
# number of rings (size 3 to 8) (size 9 to 14) (size 15 to 20)
#    0.000    1.200    4.000    2.400    5.600    0.400 
#    0.000    0.000    0.000    1.200    0.000    0.000 
#    0.000    0.000    0.000    0.000    0.000    0.000 
#
# Total GULP energy -495532.098005 kJ/mol
# GULP energy per Si atom -12388.302450 kJ/mol
# Density = 2.192377 g / cm^3
# Si number density = 21.973783 Si / 1000 Ang^3
#
#
#
# Elastic Constant Matrix: (Units=GPa)
#
#
# Indices 1 2 3 4 5 6 
#
# 1 101.5427 36.2582 51.9579 0.0000 0.0000 0.0000
# 2 36.2582 101.5427 51.9579 0.0000 0.0000 0.0000
# 3 51.9579 51.9579 135.2159 0.0000 0.0000 0.0000
# 4 0.0000 0.0000 0.0000 37.3006 0.0000 0.0000
# 5 0.0000 0.0000 0.0000 0.0000 37.3006 0.0000
# 6 0.0000 0.0000 0.0000 0.0000 0.0000 23.6833
#
#
#
# Elastic Compliance Matrix: (Units=1/GPa)
#
#
# Indices 1 2 3 4 5 6 
#
# 1 0.012768 -0.002550 -0.003926 0.000000 0.000000 0.000000
# 2 -0.002550 0.012768 -0.003926 0.000000 0.000000 0.000000
# 3 -0.003926 -0.003926 0.010413 0.000000 0.000000 0.000000
# 4 0.000000 0.000000 0.000000 0.026809 0.000000 0.000000
# 5 0.000000 0.000000 0.000000 0.000000 0.026809 0.000000
# 6 0.000000 0.000000 0.000000 0.000000 0.000000 0.042224
#
#
# Mechanical properties :
#
#
# Convention : Reuss Voigt Hill
#
# Bulk Modulus (GPa) = 66.03569 68.73880 67.38725
# Shear Modulus (GPa) = 31.71723 32.86537 32.29130
#
# Velocity S-wave (km/s) = 3.80335 3.87158 3.83761
# Velocity P-wave (km/s) = 7.02884 7.16488 7.09719
#
# Compressibility (1/GPa) = 0.01514333
#
# Stress axis : x y z
#
# Youngs Moduli (GPa) = 78.32331 78.32331 96.03442
#
# Poissons Ratio (x) = 0.19972 0.37705
# Poissons Ratio (y) = 0.19972 0.37705
# Poissons Ratio (z) = 0.30751 0.30751
#
# Static dielectric constant tensor:
#      x y z
#    x 4.019610 0.000000 0.000000 
#    y 0.000000 4.019610 0.000000 
#    z 0.000000 0.000000 4.210810 
# 
# 
# High freq. dielectric constant tensor:
#      x y z
#    x 1.854120 0.000000 0.000000 
#    y 0.000000 1.854120 0.000000 
#    z 0.000000 0.000000 1.868560 
# 
# From -- ./inp_files/5357.got.cif
#   From: 2010.03.12/outbox.cif.g09.slc.cpg/sg112_3_cif.got.tgz:5357.got - 2010.04.14 02:02:48.
