data_PCOD8308878
_publ_section_title
;
Structure prediction by ZEFSAII (Michael W. Deem and Ramdas Pophale) SiO2 
 PCOD8308878
Probable space group: P -4 21 C
;
_chemical_formula_sum "Si O2"
_cell_formula_units_Z 50
_cell_length_a 14.552993
_cell_length_b 14.552993
_cell_length_c 11.363972
_cell_angle_alpha 90.000000
_cell_angle_beta 90.000000
_cell_angle_gamma 90.000000
_cell_volume 2406.771144
_symmetry_space_group_name_H-M "P -4 21 C"
_symmetry_group_IT_number 114
_symmetry_cell_setting 'tetragonal'
loop_
_space_group_symop_operation_xyz
x,y,z
y,-x,-z
-x,-y,z
-y,x,-z
1/2+x,1/2-y,1/2-z
1/2-x,1/2+y,1/2-z
1/2-y,1/2-x,1/2+z
1/2+y,1/2+x,1/2+z
loop_
_atom_site_type_symbol
_atom_site_label
_atom_site_fract_x
_atom_site_fract_y
_atom_site_fract_z
Si Si1 0.935960 0.686302 0.612588
Si Si2 0.251241 0.560451 0.709768
Si Si3 0.767556 0.695166 0.320189
Si Si4 0.945249 0.407045 0.790619
Si Si5 0.500000 0.500000 0.000000
Si Si6 0.323818 0.958378 0.003849
Si Si7 0.567648 0.321441 0.100464
O O1 0.847089 0.710829 0.692539
O O2 0.913145 0.589455 0.551675
O O3 0.957372 0.765023 0.517760
O O4 0.025902 0.667882 0.691678
O O5 0.275342 0.662977 0.675251
O O6 0.157991 0.562413 0.781769
O O7 0.245454 0.499551 0.592054
O O8 0.319620 0.512184 0.800913
O O9 0.772524 0.617739 0.419357
O O10 0.836298 0.781012 0.347272
O O11 0.000000 0.500000 0.776540
O O12 0.958010 0.360595 0.917432
O O13 0.568447 0.430673 0.071230
#
# Coordination Sequence:
#
# PCOD8308878 Si02
#       7
#     8   8   8   8   2   8   8
#     4  10  20  42  65  89 136 166 210 273 334 398
#     4  12  24  41  68 100 130 177 227 272 343 405
#     4  10  23  44  67  92 134 181 218 273 340 396
#     4  11  22  34  62 102 130 165 205 275 340 400
#     4  12  28  44  68  92 134 176 236 280 320 414
#     4  10  22  40  60  95 133 170 212 275 326 393
#     4  11  25  45  66  98 131 179 226 283 332 405
#
# _framework density 20.774722000000001
#
# number of rings (size 3 to 8) (size 9 to 14) (size 15 to 20)
#    0.000    1.280    3.200    2.880    6.720    2.560 
#    0.000    0.000    0.000    0.000    0.000    0.000 
#    0.000    0.000    0.000    0.000    0.000    0.000 
#
# Total GULP energy -619813.899338 kJ/mol
# GULP energy per Si atom -12396.277987 kJ/mol
# Density = 2.072744 g / cm^3
# Si number density = 20.774722 Si / 1000 Ang^3
#
#
#
# Elastic Constant Matrix: (Units=GPa)
#
#
# Indices 1 2 3 4 5 6 
#
# 1 92.8377 19.9929 31.5651 0.0000 0.0000 0.0000
# 2 19.9929 92.8377 31.5651 0.0000 0.0000 0.0000
# 3 31.5651 31.5651 119.5475 0.0000 0.0000 0.0000
# 4 0.0000 0.0000 0.0000 16.9980 0.0000 0.0000
# 5 0.0000 0.0000 0.0000 0.0000 16.9980 0.0000
# 6 0.0000 0.0000 0.0000 0.0000 0.0000 31.5530
#
#
#
# Elastic Compliance Matrix: (Units=1/GPa)
#
#
# Indices 1 2 3 4 5 6 
#
# 1 0.012063 -0.001664 -0.002746 0.000000 0.000000 0.000000
# 2 -0.001664 0.012063 -0.002746 0.000000 0.000000 0.000000
# 3 -0.002746 -0.002746 0.009815 0.000000 0.000000 0.000000
# 4 0.000000 0.000000 0.000000 0.058830 0.000000 0.000000
# 5 0.000000 0.000000 0.000000 0.000000 0.058830 0.000000
# 6 0.000000 0.000000 0.000000 0.000000 0.000000 0.031693
#
#
# Mechanical properties :
#
#
# Convention : Reuss Voigt Hill
#
# Bulk Modulus (GPa) = 50.94229 52.38543 51.66386
# Shear Modulus (GPa) = 24.49175 27.91646 26.20411
#
# Velocity S-wave (km/s) = 3.43727 3.66972 3.55540
# Velocity P-wave (km/s) = 6.35040 6.57469 6.46352
#
# Compressibility (1/GPa) = 0.01963006
#
# Stress axis : x y z
#
# Youngs Moduli (GPa) = 82.89483 82.89483 101.88644
#
# Poissons Ratio (x) = 0.13797 0.27976
# Poissons Ratio (y) = 0.13797 0.27976
# Poissons Ratio (z) = 0.22761 0.22761
#
# Static dielectric constant tensor:
#      x y z
#    x 3.465260 0.000000 0.000000 
#    y 0.000000 3.465260 0.000000 
#    z 0.000000 0.000000 4.094130 
# 
# 
# High freq. dielectric constant tensor:
#      x y z
#    x 1.802970 0.000000 0.000000 
#    y 0.000000 1.802970 0.000000 
#    z 0.000000 0.000000 1.830460 
# 
# From -- ./inp_files/1692.got.cif
#   From: 2010.03.12/outbox.cif.g09.slc.cpg/sg114_1_cif.got.tgz:1692.got - 2010.04.14 02:08:34.
