data_PCOD8308788
_publ_section_title
;
Structure prediction by ZEFSAII (Michael W. Deem and Ramdas Pophale) SiO2 
 PCOD8308788
Probable space group: P -4 21 M 
;
_chemical_formula_sum "Si O2"
_cell_formula_units_Z 48
_cell_length_a 14.334850
_cell_length_b 14.334850
_cell_length_c 15.026131
_cell_angle_alpha 90.000000
_cell_angle_beta 90.000000
_cell_angle_gamma 90.000000
_cell_volume 3087.688473
_symmetry_space_group_name_H-M "P -4 21 M "
_symmetry_group_IT_number 113
_symmetry_cell_setting 'tetragonal'
loop_
_space_group_symop_operation_xyz
x,y,z
y,-x,-z
-x,-y,z
-y,x,-z
1/2+x,1/2-y,-z
1/2-x,1/2+y,-z
1/2-y,1/2-x,z
1/2+y,1/2+x,z
loop_
_atom_site_type_symbol
_atom_site_label
_atom_site_fract_x
_atom_site_fract_y
_atom_site_fract_z
Si Si1 0.393745 0.254822 0.242320
Si Si2 0.896953 0.111149 0.097695
Si Si3 0.238752 0.108507 0.446184
Si Si4 0.888850 0.103044 0.902304
Si Si5 0.606253 0.254818 0.242318
Si Si6 0.738751 0.608509 0.553817
O O1 0.342299 0.157702 0.227997
O O2 0.383023 0.290498 0.343128
O O3 0.349657 0.331331 0.175885
O O4 0.499998 0.234882 0.217282
O O5 0.831326 0.150341 0.175882
O O6 0.999998 0.153189 0.113889
O O7 0.902300 0.999999 0.101196
O O8 0.858796 0.141201 0.999999
O O9 0.334687 0.165314 0.465671
O O10 0.152629 0.152627 0.500002
O O11 0.253688 0.999999 0.473192
O O12 0.657696 0.157696 0.227995
O O13 0.616977 0.290495 0.343125
O O14 0.834685 0.665316 0.534328
#
# Coordination Sequence:
#
# PCOD8308788 Si02
#       6
#     8   8   8   8   8   8
#     4   9  17  28  42  61  84 109 136 165 199 241
#     4   8  14  25  40  58  81 107 135 169 205 238
#     4   9  18  31  45  63  87 112 140 175 212 252
#     4   8  14  25  40  58  81 107 135 169 205 238
#     4   9  17  28  42  61  84 109 136 165 199 241
#     4   9  18  31  45  63  87 112 140 175 212 252
#
# _framework density 15.54561
#
# number of rings (size 3 to 8) (size 9 to 14) (size 15 to 20)
#    0.000    3.333    0.000    1.000    0.000    3.000 
#    0.000    6.667    0.000    0.000    0.000    0.000 
#    0.000    0.667    0.000    0.667    0.000    0.667 
#
# Total GULP energy -594912.988835 kJ/mol
# GULP energy per Si atom -12394.020601 kJ/mol
# Density = 1.551023 g / cm^3
# Si number density = 15.545610 Si / 1000 Ang^3
#
#
#
# Elastic Constant Matrix: (Units=GPa)
#
#
# Indices 1 2 3 4 5 6 
#
# 1 81.6630 42.5768 52.3980 0.0000 0.0000 0.0000
# 2 42.5768 81.6646 52.3980 0.0000 0.0000 0.0000
# 3 52.3980 52.3980 90.6613 0.0000 0.0000 0.0000
# 4 0.0000 0.0000 0.0000 22.4293 0.0000 0.0000
# 5 0.0000 0.0000 0.0000 0.0000 22.4293 0.0000
# 6 0.0000 0.0000 0.0000 0.0000 0.0000 15.9481
#
#
#
# Elastic Compliance Matrix: (Units=1/GPa)
#
#
# Indices 1 2 3 4 5 6 
#
# 1 0.020645 -0.004939 -0.009077 0.000000 0.000000 0.000000
# 2 -0.004939 0.020644 -0.009077 0.000000 0.000000 0.000000
# 3 -0.009077 -0.009077 0.021522 0.000000 0.000000 0.000000
# 4 0.000000 0.000000 0.000000 0.044584 0.000000 0.000000
# 5 0.000000 0.000000 0.000000 0.000000 0.044585 0.000000
# 6 0.000000 0.000000 0.000000 0.000000 0.000000 0.062704
#
#
# Mechanical properties :
#
#
# Convention : Reuss Voigt Hill
#
# Bulk Modulus (GPa) = 60.15048 60.97050 60.56049
# Shear Modulus (GPa) = 18.76795 19.26907 19.01851
#
# Velocity S-wave (km/s) = 3.47837 3.52450 3.50151
# Velocity P-wave (km/s) = 7.41006 7.47451 7.44236
#
# Compressibility (1/GPa) = 0.01662497
#
# Stress axis : x y z
#
# Youngs Moduli (GPa) = 48.43809 48.43969 46.46403
#
# Poissons Ratio (x) = 0.23926 0.42176
# Poissons Ratio (y) = 0.23926 0.42174
# Poissons Ratio (z) = 0.43967 0.43967
#
# Static dielectric constant tensor:
#      x y z
#    x 2.910970 0.000000 0.000000 
#    y 0.000000 2.910970 0.000000 
#    z 0.000000 0.000000 3.205190 
# 
# 
# High freq. dielectric constant tensor:
#      x y z
#    x 1.576400 0.000000 0.000000 
#    y 0.000000 1.576400 0.000000 
#    z 0.000000 0.000000 1.604640 
# 
# From -- ./inp_files/2246.got.cif
#   From: 2010.03.12/outbox.cif.g09.slc.cpg/sg113_cif.got.tgz:2246.got - 2010.04.14 02:06:34.
