data_PCOD8308789
_publ_section_title
;
Structure prediction by ZEFSAII (Michael W. Deem and Ramdas Pophale) SiO2 
 PCOD8308789
Probable space group: P -4 21 M 
;
_chemical_formula_sum "Si O2"
_cell_formula_units_Z 40
_cell_length_a 10.746151
_cell_length_b 10.746151
_cell_length_c 16.714370
_cell_angle_alpha 90.000000
_cell_angle_beta 90.000000
_cell_angle_gamma 90.000000
_cell_volume 1930.171458
_symmetry_space_group_name_H-M "P -4 21 M "
_symmetry_group_IT_number 113
_symmetry_cell_setting 'tetragonal'
loop_
_space_group_symop_operation_xyz
x,y,z
y,-x,-z
-x,-y,z
-y,x,-z
1/2+x,1/2-y,-z
1/2-x,1/2+y,-z
1/2-y,1/2-x,z
1/2+y,1/2+x,z
loop_
_atom_site_type_symbol
_atom_site_label
_atom_site_fract_x
_atom_site_fract_y
_atom_site_fract_z
Si Si1 0.854329 0.148898 0.121268
Si Si2 0.007256 0.298245 0.411847
Si Si3 0.703370 0.000709 0.999761
Si Si4 0.798136 0.492732 0.588941
Si Si5 0.355111 0.644449 0.299098
O O1 0.763856 0.263856 0.131982
O O2 0.784134 0.035269 0.077610
O O3 0.896174 0.105167 0.209468
O O4 0.972999 0.198729 0.071233
O O5 0.144073 0.355928 0.395041
O O6 0.907536 0.407536 0.408116
O O7 0.999653 0.237252 0.500347
O O8 0.977575 0.194941 0.345065
O O9 0.616049 0.116049 0.973175
O O10 0.620069 0.879932 0.021117
O O11 0.856171 0.356171 0.606056
O O12 0.694138 0.522197 0.655365
O O13 0.907201 0.592800 0.592350
O O14 0.251029 0.751029 0.298549
#
# Coordination Sequence:
#
# PCOD8308789 Si02
#       5
#     8   8   8   8   8
#     4   9  18  31  49  75 101 130 169 205 249 304
#     4   8  14  25  42  66  97 132 165 197 240 289
#     4   9  18  33  52  74 102 133 164 203 250 300
#     4   8  14  25  42  66  97 132 165 197 240 289
#     4   9  16  26  45  73  98 123 163 208 242 284
#
# _framework density 20.723548000000001
#
# number of rings (size 3 to 8) (size 9 to 14) (size 15 to 20)
#    0.000    3.400    0.000    1.200    0.000    2.000 
#    0.000    8.000    0.000    5.400    0.000    8.400 
#    0.000    0.000    0.000    0.000    0.000    0.000 
#
# Total GULP energy -495721.344821 kJ/mol
# GULP energy per Si atom -12393.033621 kJ/mol
# Density = 2.067638 g / cm^3
# Si number density = 20.723548 Si / 1000 Ang^3
#
#
#
# Elastic Constant Matrix: (Units=GPa)
#
#
# Indices 1 2 3 4 5 6 
#
# 1 55.5608 48.8393 60.6927 0.0000 0.0000 0.0000
# 2 48.8393 55.5616 60.6931 0.0000 0.0000 0.0000
# 3 60.6927 60.6931 196.9447 0.0000 0.0000 0.0000
# 4 0.0000 0.0000 0.0000 4.5652 0.0000 0.0000
# 5 0.0000 0.0000 0.0000 0.0000 4.5651 0.0000
# 6 0.0000 0.0000 0.0000 0.0000 0.0000 31.2559
#
#
#
# Elastic Compliance Matrix: (Units=1/GPa)
#
#
# Indices 1 2 3 4 5 6 
#
# 1 0.081847 -0.066920 -0.004600 0.000000 0.000000 0.000000
# 2 -0.066920 0.081846 -0.004600 0.000000 0.000000 0.000000
# 3 -0.004600 -0.004600 0.007913 0.000000 0.000000 0.000000
# 4 0.000000 0.000000 0.000000 0.219049 0.000000 0.000000
# 5 0.000000 0.000000 0.000000 0.000000 0.219054 0.000000
# 6 0.000000 0.000000 0.000000 0.000000 0.000000 0.031994
#
#
# Mechanical properties :
#
#
# Convention : Reuss Voigt Hill
#
# Bulk Modulus (GPa) = 51.63573 72.05748 61.84661
# Shear Modulus (GPa) = 6.24689 17.26672 11.75680
#
# Velocity S-wave (km/s) = 1.73808 2.88964 2.38442
# Velocity P-wave (km/s) = 5.38502 6.78083 6.12283
#
# Compressibility (1/GPa) = 0.01936644
#
# Stress axis : x y z
#
# Youngs Moduli (GPa) = 12.21785 12.21804 126.37751
#
# Poissons Ratio (x) = 0.81763 0.58135
# Poissons Ratio (y) = 0.81762 0.58134
# Poissons Ratio (z) = 0.05620 0.05620
#
# Static dielectric constant tensor:
#      x y z
#    x 3.670900 0.000000 0.000000 
#    y 0.000000 3.670890 0.000000 
#    z 0.000000 0.000000 4.024410 
# 
# 
# High freq. dielectric constant tensor:
#      x y z
#    x 1.792370 0.000000 0.000000 
#    y 0.000000 1.792370 0.000000 
#    z 0.000000 0.000000 1.802020 
# 
# From -- ./inp_files/2167.got.cif
#   From: 2010.03.12/outbox.cif.g09.slc.cpg/sg113_cif.got.tgz:2167.got - 2010.04.14 02:06:34.
