data_PCOD8308728
_publ_section_title
;
Structure prediction by ZEFSAII (Michael W. Deem and Ramdas Pophale) SiO2 
 PCOD8308728
Probable space group: P -4 21 M 
;
_chemical_formula_sum "Si O2"
_cell_formula_units_Z 56
_cell_length_a 14.886318
_cell_length_b 14.886318
_cell_length_c 12.090247
_cell_angle_alpha 90.000000
_cell_angle_beta 90.000000
_cell_angle_gamma 90.000000
_cell_volume 2679.228521
_symmetry_space_group_name_H-M "P -4 21 M "
_symmetry_group_IT_number 113
_symmetry_cell_setting 'tetragonal'
loop_
_space_group_symop_operation_xyz
x,y,z
y,-x,-z
-x,-y,z
-y,x,-z
1/2+x,1/2-y,-z
1/2-x,1/2+y,-z
1/2-y,1/2-x,z
1/2+y,1/2+x,z
loop_
_atom_site_type_symbol
_atom_site_label
_atom_site_fract_x
_atom_site_fract_y
_atom_site_fract_z
Si Si1 0.822275 0.174538 0.167371
Si Si2 0.382167 0.269602 0.051562
Si Si3 0.890839 0.754365 0.428694
Si Si4 0.797065 0.444711 0.289768
Si Si5 0.213463 0.430958 0.668073
Si Si6 0.357832 0.994510 0.940369
Si Si7 0.623986 0.727012 0.296287
O O1 0.764058 0.264058 0.160134
O O2 0.903215 0.202680 0.248489
O O3 0.768194 0.092709 0.220533
O O4 0.855434 0.155083 0.041003
O O5 0.308606 0.191395 0.055799
O O6 0.391662 0.313573 0.172779
O O7 0.478682 0.227280 0.015576
O O8 0.825222 0.674779 0.390598
O O9 0.890405 0.764352 0.561441
O O10 0.856223 0.848958 0.376172
O O11 0.990826 0.727160 0.391538
O O12 0.869467 0.369467 0.329532
O O13 0.836498 0.503684 0.189684
O O14 0.112340 0.387661 0.674217
O O15 0.215808 0.538421 0.661139
O O16 0.393745 0.893745 0.970169
O O17 0.435843 0.064158 0.967393
O O18 0.704705 0.795296 0.295446
#
# Coordination Sequence:
#
# PCOD8308728 Si02
#       7
#     8   8   8   8   8   8   8
#     4   8  16  34  58  82 110 148 194 238 285 347
#     4   8  15  31  53  78 110 150 188 223 283 358
#     4  10  22  37  55  85 120 155 196 238 289 352
#     4   9  17  31  56  84 113 150 193 246 298 342
#     4  10  22  39  60  86 113 151 203 244 286 354
#     4   8  13  23  44  78 115 144 177 229 287 342
#     4  10  22  40  59  83 121 157 189 242 304 357
#
# _framework density 20.901537999999999
#
# number of rings (size 3 to 8) (size 9 to 14) (size 15 to 20)
#    0.000    3.000    0.000    2.143    2.000    2.286 
#    5.143    3.571    0.000    0.000    0.000    0.000 
#    0.000    0.000    0.000    0.000    0.000    0.000 
#
# Total GULP energy -693807.419938 kJ/mol
# GULP energy per Si atom -12389.418213 kJ/mol
# Density = 2.085397 g / cm^3
# Si number density = 20.901538 Si / 1000 Ang^3
#
#
#
# Elastic Constant Matrix: (Units=GPa)
#
#
# Indices 1 2 3 4 5 6 
#
# 1 49.4961 18.6679 25.0550 0.0000 0.0000 0.0000
# 2 18.6679 49.4955 25.0549 0.0000 0.0000 0.0000
# 3 25.0550 25.0549 104.8051 0.0000 0.0000 0.0000
# 4 0.0000 0.0000 0.0000 23.5495 0.0000 0.0000
# 5 0.0000 0.0000 0.0000 0.0000 23.5497 0.0000
# 6 0.0000 0.0000 0.0000 0.0000 0.0000 18.9858
#
#
#
# Elastic Compliance Matrix: (Units=1/GPa)
#
#
# Indices 1 2 3 4 5 6 
#
# 1 0.025118 -0.007320 -0.004255 0.000000 0.000000 0.000000
# 2 -0.007320 0.025119 -0.004255 0.000000 0.000000 0.000000
# 3 -0.004255 -0.004255 0.011576 0.000000 0.000000 0.000000
# 4 0.000000 0.000000 0.000000 0.042464 0.000000 0.000000
# 5 0.000000 0.000000 0.000000 0.000000 0.042463 0.000000
# 6 0.000000 0.000000 0.000000 0.000000 0.000000 0.052671
#
#
# Mechanical properties :
#
#
# Convention : Reuss Voigt Hill
#
# Bulk Modulus (GPa) = 33.16398 37.92803 35.54600
# Shear Modulus (GPa) = 20.73647 22.21827 21.47737
#
# Velocity S-wave (km/s) = 3.15318 3.26390 3.20902
# Velocity P-wave (km/s) = 5.39981 5.69118 5.54741
#
# Compressibility (1/GPa) = 0.03015320
#
# Stress axis : x y z
#
# Youngs Moduli (GPa) = 39.81182 39.81128 86.38618
#
# Poissons Ratio (x) = 0.29141 0.36757
# Poissons Ratio (y) = 0.29141 0.36757
# Poissons Ratio (z) = 0.16940 0.16940
#
# Static dielectric constant tensor:
#      x y z
#    x 3.532840 0.000000 0.000000 
#    y 0.000000 3.532850 0.000000 
#    z 0.000000 0.000000 3.987160 
# 
# 
# High freq. dielectric constant tensor:
#      x y z
#    x 1.786560 0.000000 0.000000 
#    y 0.000000 1.786560 0.000000 
#    z 0.000000 0.000000 1.826800 
# 
# From -- ./inp_files/1924.got.cif
#   From: 2010.03.12/outbox.cif.g09.slc.cpg/sg113_cif.got.tgz:1924.got - 2010.04.14 02:06:34.
