data_PCOD8308256
_publ_section_title
;
Structure prediction by ZEFSAII (Michael W. Deem and Ramdas Pophale) SiO2 
 PCOD8308256
Probable space group: P -4 2 M 
;
_chemical_formula_sum "Si O2"
_cell_formula_units_Z 54
_cell_length_a 14.884063
_cell_length_b 14.884063
_cell_length_c 11.424116
_cell_angle_alpha 90.000000
_cell_angle_beta 90.000000
_cell_angle_gamma 90.000000
_cell_volume 2530.845324
_symmetry_space_group_name_H-M "P -4 2 M "
_symmetry_group_IT_number 111
_symmetry_cell_setting 'tetragonal'
loop_
_space_group_symop_operation_xyz
x,y,z
y,-x,-z
-x,-y,z
-y,x,-z
x,-y,-z
-x,y,-z
-y,-x,z
y,x,z
loop_
_atom_site_type_symbol
_atom_site_label
_atom_site_fract_x
_atom_site_fract_y
_atom_site_fract_z
Si Si1 0.807550 0.958865 0.745092
Si Si2 0.261582 0.406052 0.751549
Si Si3 0.245998 0.610042 0.720446
Si Si4 0.500000 0.000000 0.000000
Si Si5 0.111109 0.348918 0.899394
Si Si6 0.263898 0.000000 0.500000
Si Si7 0.266203 0.874205 0.856580
Si Si8 0.400268 0.842364 0.486883
O O1 0.894195 0.894195 0.773822
O O2 0.714095 0.919094 0.792335
O O3 0.801893 0.975208 0.606674
O O4 0.808652 0.057385 0.804264
O O5 0.358078 0.358078 0.736731
O O6 0.271840 0.512160 0.767981
O O7 0.214987 0.369726 0.870739
O O8 0.197317 0.382712 0.641576
O O9 0.327991 0.672010 0.758060
O O10 0.151466 0.648819 0.773376
O O11 0.238429 0.607290 0.580017
O O12 0.442585 0.058079 0.906868
O O13 0.088579 0.301755 0.021575
O O14 0.326462 0.914855 0.524073
O O15 0.217634 0.782367 0.885771
O O16 0.500000 0.885168 0.500000
#
# Coordination Sequence:
#
# PCOD8308256 Si02
#       8
#     8   8   8   2   8   4   8   8
#     4  12  26  44  68 100 135 176 224 276 341 415
#     4  11  23  39  64  96 136 176 222 278 340 412
#     4  10  22  40  64  94 132 178 229 279 339 407
#     4  12  24  40  72 102 134 174 228 296 334 408
#     4  12  24  41  67 101 134 171 221 276 341 404
#     4  12  23  40  66  97 134 174 214 274 347 409
#     4  11  23  44  68  94 133 179 225 279 337 401
#     4  10  21  37  61  93 130 172 223 274 338 406
#
# _framework density 21.336745000000001
#
# number of rings (size 3 to 8) (size 9 to 14) (size 15 to 20)
#    0.000    0.889    4.444    2.889    0.000    1.778 
#    0.000    0.000    0.000    4.444    0.000    2.074 
#    0.000    0.000    0.000    0.000    0.000    0.000 
#
# Total GULP energy -669215.386706 kJ/mol
# GULP energy per Si atom -12392.877532 kJ/mol
# Density = 2.128818 g / cm^3
# Si number density = 21.336745 Si / 1000 Ang^3
#
#
#
# Elastic Constant Matrix: (Units=GPa)
#
#
# Indices 1 2 3 4 5 6 
#
# 1 103.0249 58.3219 32.2233 0.0000 0.0000 0.0000
# 2 58.3219 103.0281 32.2235 0.0000 0.0000 0.0000
# 3 32.2233 32.2235 109.2483 0.0000 0.0000 0.0000
# 4 0.0000 0.0000 0.0000 26.3266 0.0000 0.0000
# 5 0.0000 0.0000 0.0000 0.0000 26.3265 0.0000
# 6 0.0000 0.0000 0.0000 0.0000 0.0000 36.7792
#
#
#
# Elastic Compliance Matrix: (Units=1/GPa)
#
#
# Indices 1 2 3 4 5 6 
#
# 1 0.014698 -0.007672 -0.002072 0.000000 0.000000 0.000000
# 2 -0.007672 0.014697 -0.002072 0.000000 0.000000 0.000000
# 3 -0.002072 -0.002072 0.010376 0.000000 0.000000 0.000000
# 4 0.000000 0.000000 0.000000 0.037984 0.000000 0.000000
# 5 0.000000 0.000000 0.000000 0.000000 0.037984 0.000000
# 6 0.000000 0.000000 0.000000 0.000000 0.000000 0.027189
#
#
# Mechanical properties :
#
#
# Convention : Reuss Voigt Hill
#
# Bulk Modulus (GPa) = 61.96554 62.31539 62.14047
# Shear Modulus (GPa) = 29.07987 30.72198 29.90093
#
# Velocity S-wave (km/s) = 3.69575 3.79867 3.74756
# Velocity P-wave (km/s) = 6.87868 6.96483 6.92189
#
# Compressibility (1/GPa) = 0.01613800
#
# Stress axis : x y z
#
# Youngs Moduli (GPa) = 68.03873 68.04098 96.37739
#
# Poissons Ratio (x) = 0.52200 0.19972
# Poissons Ratio (y) = 0.52198 0.19971
# Poissons Ratio (z) = 0.14099 0.14099
#
# Static dielectric constant tensor:
#      x y z
#    x 3.890270 0.000000 0.000000 
#    y 0.000000 3.890280 0.000000 
#    z 0.000000 0.000000 3.824480 
# 
# 
# High freq. dielectric constant tensor:
#      x y z
#    x 1.832380 0.000000 0.000000 
#    y 0.000000 1.832380 0.000000 
#    z 0.000000 0.000000 1.839810 
# 
# From -- ./inp_files/2837.got.cif
#   From: 2010.03.12/outbox.cif.g09.slc.cpg/sg111_2_cif.got.tgz:2837.got - 2010.04.14 01:59:48.
