data_PCOD8308958
_publ_section_title
;
Structure prediction by ZEFSAII (Michael W. Deem and Ramdas Pophale) SiO2 
 PCOD8308958
Probable space group: P -4 21 C
;
_chemical_formula_sum "Si O2"
_cell_formula_units_Z 34
_cell_length_a 12.575597
_cell_length_b 12.575597
_cell_length_c 9.961941
_cell_angle_alpha 90.000000
_cell_angle_beta 90.000000
_cell_angle_gamma 90.000000
_cell_volume 1575.437534
_symmetry_space_group_name_H-M "P -4 21 C"
_symmetry_group_IT_number 114
_symmetry_cell_setting 'tetragonal'
loop_
_space_group_symop_operation_xyz
x,y,z
y,-x,-z
-x,-y,z
-y,x,-z
1/2+x,1/2-y,1/2-z
1/2-x,1/2+y,1/2-z
1/2-y,1/2-x,1/2+z
1/2+y,1/2+x,1/2+z
loop_
_atom_site_type_symbol
_atom_site_label
_atom_site_fract_x
_atom_site_fract_y
_atom_site_fract_z
Si Si1 0.054952 0.134179 0.437678
Si Si2 0.674527 0.161843 0.136860
Si Si3 0.466547 0.880428 0.386572
Si Si4 0.500000 0.500000 0.500000
Si Si5 0.078409 0.821277 0.179568
O O1 0.139928 0.228946 0.437301
O O2 0.978293 0.120851 0.572196
O O3 0.963704 0.155821 0.327758
O O4 0.626263 0.153323 0.284773
O O5 0.799296 0.151412 0.158768
O O6 0.632990 0.068392 0.040799
O O7 0.565681 0.802626 0.359603
O O8 0.500000 0.000000 0.358170
O O9 0.503943 0.607088 0.414144
#
# Coordination Sequence:
#
# PCOD8308958 Si02
#       5
#     8   8   8   2   8
#     4  10  22  42  67 102 133 182 233 288 346 428
#     4  11  24  45  68 104 138 184 235 290 363 424
#     4  11  25  46  68 101 139 186 231 292 359 427
#     4  12  20  44  66  96 128 176 236 278 356 412
#     4  11  24  43  71  98 140 182 232 300 353 432
#
# _framework density 21.581306999999999
#
# number of rings (size 3 to 8) (size 9 to 14) (size 15 to 20)
#    0.000    1.176    2.353    3.529    3.294    0.000 
#    8.471    0.000    0.000    0.000    0.000    0.000 
#    0.000    0.000    0.000    0.000    0.000    0.000 
#
# Total GULP energy -421384.827027 kJ/mol
# GULP energy per Si atom -12393.671383 kJ/mol
# Density = 2.153219 g / cm^3
# Si number density = 21.581307 Si / 1000 Ang^3
#
#
#
# Elastic Constant Matrix: (Units=GPa)
#
#
# Indices 1 2 3 4 5 6 
#
# 1 106.3350 14.3056 14.8328 0.0000 0.0000 0.0000
# 2 14.3056 106.3350 14.8328 0.0000 0.0000 0.0000
# 3 14.8328 14.8328 55.8858 0.0000 0.0000 0.0000
# 4 0.0000 0.0000 0.0000 29.5215 0.0000 0.0000
# 5 0.0000 0.0000 0.0000 0.0000 29.5215 0.0000
# 6 0.0000 0.0000 0.0000 0.0000 0.0000 32.9731
#
#
#
# Elastic Compliance Matrix: (Units=1/GPa)
#
#
# Indices 1 2 3 4 5 6 
#
# 1 0.009867 -0.000999 -0.002354 0.000000 0.000000 0.000000
# 2 -0.000999 0.009867 -0.002354 0.000000 0.000000 0.000000
# 3 -0.002354 -0.002354 0.019143 0.000000 0.000000 0.000000
# 4 0.000000 0.000000 0.000000 0.033874 0.000000 0.000000
# 5 0.000000 0.000000 0.000000 0.000000 0.033874 0.000000
# 6 0.000000 0.000000 0.000000 0.000000 0.000000 0.030328
#
#
# Mechanical properties :
#
#
# Convention : Reuss Voigt Hill
#
# Bulk Modulus (GPa) = 36.41111 39.61089 38.01100
# Shear Modulus (GPa) = 31.74209 33.37550 32.55880
#
# Velocity S-wave (km/s) = 3.83928 3.93682 3.88836
# Velocity P-wave (km/s) = 6.04662 6.24971 6.14901
#
# Compressibility (1/GPa) = 0.02746414
#
# Stress axis : x y z
#
# Youngs Moduli (GPa) = 101.34822 101.34822 52.23845
#
# Poissons Ratio (x) = 0.10126 0.12295
# Poissons Ratio (y) = 0.10126 0.12295
# Poissons Ratio (z) = 0.23854 0.23854
#
# Static dielectric constant tensor:
#      x y z
#    x 3.929670 0.000000 0.000000 
#    y 0.000000 3.929670 0.000000 
#    z 0.000000 0.000000 3.984070 
# 
# 
# High freq. dielectric constant tensor:
#      x y z
#    x 1.852030 0.000000 0.000000 
#    y 0.000000 1.852030 0.000000 
#    z 0.000000 0.000000 1.848430 
# 
# From -- ./inp_files/1436.got.cif
#   From: 2010.03.12/outbox.cif.g09.slc.cpg/sg114_1_cif.got.tgz:1436.got - 2010.04.14 02:08:34.
