data_PCOD8308931
_publ_section_title
;
Structure prediction by ZEFSAII (Michael W. Deem and Ramdas Pophale) SiO2 
 PCOD8308931
Probable space group: P -4 21 C
;
_chemical_formula_sum "Si O2"
_cell_formula_units_Z 52
_cell_length_a 15.458651
_cell_length_b 15.458651
_cell_length_c 9.098153
_cell_angle_alpha 90.000000
_cell_angle_beta 90.000000
_cell_angle_gamma 90.000000
_cell_volume 2174.184628
_symmetry_space_group_name_H-M "P -4 21 C"
_symmetry_group_IT_number 114
_symmetry_cell_setting 'tetragonal'
loop_
_space_group_symop_operation_xyz
x,y,z
y,-x,-z
-x,-y,z
-y,x,-z
1/2+x,1/2-y,1/2-z
1/2-x,1/2+y,1/2-z
1/2-y,1/2-x,1/2+z
1/2+y,1/2+x,1/2+z
loop_
_atom_site_type_symbol
_atom_site_label
_atom_site_fract_x
_atom_site_fract_y
_atom_site_fract_z
Si Si1 0.372444 0.564556 0.474651
Si Si2 0.654837 0.195146 0.892126
Si Si3 0.872071 0.516809 0.753077
Si Si4 0.325324 0.616453 0.159992
Si Si5 0.986258 0.776561 0.428003
Si Si6 0.722066 0.290322 0.632923
Si Si7 0.500000 0.000000 0.490753
O O1 0.464971 0.614518 0.477061
O O2 0.328742 0.564531 0.312811
O O3 0.301797 0.611857 0.581045
O O4 0.652609 0.113535 0.787225
O O5 0.680520 0.278059 0.793317
O O6 0.560665 0.212205 0.957476
O O7 0.727555 0.177766 0.013737
O O8 0.783819 0.467244 0.801956
O O9 0.921790 0.470005 0.619142
O O10 0.923665 0.528504 0.904852
O O11 0.414565 0.667907 0.154401
O O12 0.238715 0.676218 0.146713
O O13 0.331521 0.554908 0.018035
#
# Coordination Sequence:
#
# PCOD8308931 Si02
#       7
#     8   8   8   8   8   8   4
#     4  11  25  46  74 109 147 191 243 303 364 438
#     4  11  19  39  70  93 134 187 230 277 361 423
#     4  11  19  40  61  97 133 185 228 290 361 426
#     4  11  25  46  68 108 141 187 249 292 371 429
#     4  11  24  42  71  98 142 186 237 302 349 439
#     4  11  21  42  71 100 138 187 234 289 353 430
#     4  10  22  34  66  92 136 176 240 292 354 432
#
# _framework density 23.917010999999999
#
# number of rings (size 3 to 8) (size 9 to 14) (size 15 to 20)
#    0.000    1.077    6.154    0.923    0.000    5.231 
#    2.769    3.077    0.000    0.000    0.000    0.000 
#    0.000    0.000    0.000    0.000    0.000    0.000 
#
# Total GULP energy -644292.878052 kJ/mol
# GULP energy per Si atom -12390.247655 kJ/mol
# Density = 2.386257 g / cm^3
# Si number density = 23.917011 Si / 1000 Ang^3
#
#
#
# Elastic Constant Matrix: (Units=GPa)
#
#
# Indices 1 2 3 4 5 6 
#
# 1 50.7948 12.1870 18.7874 0.0000 0.0000 0.0000
# 2 12.1870 50.7948 18.7874 0.0000 0.0000 0.0000
# 3 18.7874 18.7874 108.0602 0.0000 0.0000 0.0000
# 4 0.0000 0.0000 0.0000 36.2207 0.0000 0.0000
# 5 0.0000 0.0000 0.0000 0.0000 36.2207 0.0000
# 6 0.0000 0.0000 0.0000 0.0000 0.0000 28.1170
#
#
#
# Elastic Compliance Matrix: (Units=1/GPa)
#
#
# Indices 1 2 3 4 5 6 
#
# 1 0.021808 -0.004093 -0.003080 0.000000 0.000000 0.000000
# 2 -0.004093 0.021808 -0.003080 0.000000 0.000000 0.000000
# 3 -0.003080 -0.003080 0.010325 0.000000 0.000000 0.000000
# 4 0.000000 0.000000 0.000000 0.027609 0.000000 0.000000
# 5 0.000000 0.000000 0.000000 0.000000 0.027609 0.000000
# 6 0.000000 0.000000 0.000000 0.000000 0.000000 0.035566
#
#
# Mechanical properties :
#
#
# Convention : Reuss Voigt Hill
#
# Bulk Modulus (GPa) = 29.90839 34.35262 32.13050
# Shear Modulus (GPa) = 28.34856 30.77086 29.55971
#
# Velocity S-wave (km/s) = 3.44654 3.59077 3.51939
# Velocity P-wave (km/s) = 5.32638 5.62014 5.47523
#
# Compressibility (1/GPa) = 0.03343544
#
# Stress axis : x y z
#
# Youngs Moduli (GPa) = 45.85411 45.85411 96.85162
#
# Poissons Ratio (x) = 0.18769 0.29830
# Poissons Ratio (y) = 0.18769 0.29830
# Poissons Ratio (z) = 0.14123 0.14123
#
# Static dielectric constant tensor:
#      x y z
#    x 4.277140 0.000000 0.000000 
#    y 0.000000 4.277140 0.000000 
#    z 0.000000 0.000000 4.529210 
# 
# 
# High freq. dielectric constant tensor:
#      x y z
#    x 1.933370 0.000000 0.000000 
#    y 0.000000 1.933370 0.000000 
#    z 0.000000 0.000000 1.976990 
# 
# From -- ./inp_files/964.got.cif
#   From: 2010.03.12/outbox.cif.g09.slc.cpg/sg114_1_cif.got.tgz:964.got - 2010.04.14 02:08:34.
