data_PCOD8308349
_publ_section_title
;
Structure prediction by ZEFSAII (Michael W. Deem and Ramdas Pophale) SiO2 
 PCOD8308349
Probable space group: P -4 2 C
;
_chemical_formula_sum "Si O2"
_cell_formula_units_Z 40
_cell_length_a 12.558068
_cell_length_b 12.558068
_cell_length_c 13.986316
_cell_angle_alpha 90.000000
_cell_angle_beta 90.000000
_cell_angle_gamma 90.000000
_cell_volume 2205.712970
_symmetry_space_group_name_H-M "P -4 2 C"
_symmetry_group_IT_number 112
_symmetry_cell_setting 'tetragonal'
loop_
_space_group_symop_operation_xyz
x,y,z
y,-x,-z
-x,-y,z
-y,x,-z
x,-y,1/2-z
-x,y,1/2-z
-y,-x,1/2+z
y,x,1/2+z
loop_
_atom_site_type_symbol
_atom_site_label
_atom_site_fract_x
_atom_site_fract_y
_atom_site_fract_z
Si Si1 0.731613 0.215724 0.862817
Si Si2 0.122124 0.122124 0.500000
Si Si3 0.624916 0.624916 0.000000
Si Si4 0.215724 0.268387 0.362817
Si Si5 0.383113 0.000000 0.636889
O O1 0.848176 0.199610 0.910245
O O2 0.669796 0.317317 0.905196
O O3 0.741248 0.230895 0.750000
O O4 0.672697 0.108074 0.896616
O O5 0.199609 0.151824 0.410244
O O6 1.000000 0.141772 0.471671
O O7 0.648038 0.500000 0.989385
O O8 0.669796 0.682684 0.905196
O O9 0.108074 0.327302 0.396616
O O10 0.500000 0.000000 0.590940
O O11 0.388746 0.000000 0.750000
#
# Coordination Sequence:
#
# PCOD8308349 Si02
#       5
#     8   8   8   8   8
#     4  10  20  35  55  81 110 144 185 225 271 326
#     4  10  20  34  54  82 114 144 178 224 276 328
#     4  10  22  38  56  82 114 146 182 226 276 328
#     4  10  20  35  55  81 110 144 185 225 271 326
#     4   9  16  28  49  75 100 131 175 223 265 309
#
# _framework density 18.134725
#
# number of rings (size 3 to 8) (size 9 to 14) (size 15 to 20)
#    0.000    2.200    2.000    1.200    0.000    4.000 
#    0.000    4.000    0.000    0.000    0.000    5.600 
#    0.000    0.000    0.000    0.000    0.000    0.000 
#
# Total GULP energy -495795.293387 kJ/mol
# GULP energy per Si atom -12394.882335 kJ/mol
# Density = 1.809345 g / cm^3
# Si number density = 18.134725 Si / 1000 Ang^3
#
#
#
# Elastic Constant Matrix: (Units=GPa)
#
#
# Indices 1 2 3 4 5 6 
#
# 1 83.0238 62.4131 49.3556 0.0000 0.0000 0.0000
# 2 62.4131 83.0238 49.3556 0.0000 0.0000 0.0000
# 3 49.3556 49.3556 131.6492 0.0000 0.0000 0.0000
# 4 0.0000 0.0000 0.0000 22.6435 0.0000 0.0000
# 5 0.0000 0.0000 0.0000 0.0000 22.6435 0.0000
# 6 0.0000 0.0000 0.0000 0.0000 0.0000 30.8557
#
#
#
# Elastic Compliance Matrix: (Units=1/GPa)
#
#
# Indices 1 2 3 4 5 6 
#
# 1 0.028871 -0.019648 -0.003458 0.000000 0.000000 0.000000
# 2 -0.019648 0.028871 -0.003458 0.000000 0.000000 0.000000
# 3 -0.003458 -0.003458 0.010188 0.000000 0.000000 0.000000
# 4 0.000000 0.000000 0.000000 0.044163 0.000000 0.000000
# 5 0.000000 0.000000 0.000000 0.000000 0.044163 0.000000
# 6 0.000000 0.000000 0.000000 0.000000 0.000000 0.032409
#
#
# Mechanical properties :
#
#
# Convention : Reuss Voigt Hill
#
# Bulk Modulus (GPa) = 67.55243 68.88281 68.21762
# Shear Modulus (GPa) = 20.26551 24.33339 22.29945
#
# Velocity S-wave (km/s) = 3.34653 3.66705 3.51045
# Velocity P-wave (km/s) = 7.22935 7.48305 7.35729
#
# Compressibility (1/GPa) = 0.01480332
#
# Stress axis : x y z
#
# Youngs Moduli (GPa) = 34.63738 34.63738 98.15056
#
# Poissons Ratio (x) = 0.68056 0.33936
# Poissons Ratio (y) = 0.68056 0.33936
# Poissons Ratio (z) = 0.11976 0.11976
#
# Static dielectric constant tensor:
#      x y z
#    x 3.494480 0.000000 0.000000 
#    y 0.000000 3.494480 0.000000 
#    z 0.000000 0.000000 3.108870 
# 
# 
# High freq. dielectric constant tensor:
#      x y z
#    x 1.707470 0.000000 0.000000 
#    y 0.000000 1.707470 0.000000 
#    z 0.000000 0.000000 1.687130 
# 
# From -- ./inp_files/3272.got.cif
#   From: 2010.03.12/outbox.cif.g09.slc.cpg/sg112_2_cif.got.tgz:3272.got - 2010.04.14 02:02:48.
