data_PCOD8308213
_publ_section_title
;
Structure prediction by ZEFSAII (Michael W. Deem and Ramdas Pophale) SiO2 
 PCOD8308213
Probable space group: P -4 2 M 
;
_chemical_formula_sum "Si O2"
_cell_formula_units_Z 48
_cell_length_a 12.522562
_cell_length_b 12.522562
_cell_length_c 16.866918
_cell_angle_alpha 90.000000
_cell_angle_beta 90.000000
_cell_angle_gamma 90.000000
_cell_volume 2644.978309
_symmetry_space_group_name_H-M "P -4 2 M "
_symmetry_group_IT_number 111
_symmetry_cell_setting 'tetragonal'
loop_
_space_group_symop_operation_xyz
x,y,z
y,-x,-z
-x,-y,z
-y,x,-z
x,-y,-z
-x,y,-z
-y,-x,z
y,x,z
loop_
_atom_site_type_symbol
_atom_site_label
_atom_site_fract_x
_atom_site_fract_y
_atom_site_fract_z
Si Si1 0.943100 0.769938 0.419341
Si Si2 0.800442 0.368644 0.683884
Si Si3 0.384562 0.012509 0.194898
Si Si4 0.129148 0.295417 0.677247
Si Si5 0.000675 0.827701 0.093237
Si Si6 0.269529 0.556348 0.416429
O O1 0.882346 0.882346 0.427991
O O2 0.863553 0.675200 0.393425
O O3 0.000000 0.736847 0.500000
O O4 0.033449 0.781609 0.351748
O O5 0.718641 0.281360 0.716139
O O6 0.877226 0.390238 0.757415
O O7 0.733592 0.471374 0.655285
O O8 0.287118 0.008260 0.133993
O O9 0.500000 0.000000 0.151364
O O10 0.374946 0.913424 0.255665
O O11 0.222309 0.222309 0.714229
O O12 0.173689 0.360576 0.601186
O O13 0.899366 0.899366 0.118737
O O14 0.109428 0.890573 0.117739
O O15 0.000000 0.808098 0.000000
O O16 0.250276 0.500000 0.500000
O O17 0.383757 0.616244 0.416342
#
# Coordination Sequence:
#
# PCOD8308213 Si02
#       6
#     8   8   8   8   8   8
#     4  10  20  32  48  69  96 130 169 219 278 338
#     4  10  21  36  51  73 101 134 178 227 276 327
#     4  11  20  35  55  82 112 149 179 212 269 325
#     4  10  21  35  50  72 102 137 179 224 269 323
#     4   9  19  37  62  91 120 149 181 219 264 319
#     4  11  22  36  53  71  94 133 186 242 289 325
#
# _framework density 18.147597999999999
#
# number of rings (size 3 to 8) (size 9 to 14) (size 15 to 20)
#    0.000    1.833    1.667    3.500    0.000    6.000 
#    0.000    2.500    0.000    0.000    0.000    0.000 
#    0.000    0.000    0.000    7.667    0.000    0.000 
#
# Total GULP energy -595007.377283 kJ/mol
# GULP energy per Si atom -12395.987027 kJ/mol
# Density = 1.810629 g / cm^3
# Si number density = 18.147598 Si / 1000 Ang^3
#
#
#
# Elastic Constant Matrix: (Units=GPa)
#
#
# Indices 1 2 3 4 5 6 
#
# 1 115.1768 56.0442 39.5011 0.0000 0.0000 0.0000
# 2 56.0442 115.1780 39.5013 0.0000 0.0000 0.0000
# 3 39.5011 39.5013 59.5043 0.0000 0.0000 0.0000
# 4 0.0000 0.0000 0.0000 24.2257 0.0000 0.0000
# 5 0.0000 0.0000 0.0000 0.0000 24.2253 0.0000
# 6 0.0000 0.0000 0.0000 0.0000 0.0000 19.4562
#
#
#
# Elastic Compliance Matrix: (Units=1/GPa)
#
#
# Indices 1 2 3 4 5 6 
#
# 1 0.012665 -0.004246 -0.005589 0.000000 0.000000 0.000000
# 2 -0.004246 0.012665 -0.005589 0.000000 0.000000 0.000000
# 3 -0.005589 -0.005589 0.024226 0.000000 0.000000 0.000000
# 4 0.000000 0.000000 0.000000 0.041278 0.000000 0.000000
# 5 0.000000 0.000000 0.000000 0.000000 0.041279 0.000000
# 6 0.000000 0.000000 0.000000 0.000000 0.000000 0.051397
#
#
# Mechanical properties :
#
#
# Convention : Reuss Voigt Hill
#
# Bulk Modulus (GPa) = 53.45214 62.21691 57.83453
# Shear Modulus (GPa) = 22.66601 23.90229 23.28415
#
# Velocity S-wave (km/s) = 3.53793 3.63313 3.58584
# Velocity P-wave (km/s) = 6.79759 7.20817 7.00589
#
# Compressibility (1/GPa) = 0.01870832
#
# Stress axis : x y z
#
# Youngs Moduli (GPa) = 78.95694 78.95784 41.27832
#
# Poissons Ratio (x) = 0.33525 0.23070
# Poissons Ratio (y) = 0.33524 0.23070
# Poissons Ratio (z) = 0.44129 0.44129
#
# Static dielectric constant tensor:
#      x y z
#    x 3.449520 0.000000 0.000000 
#    y 0.000000 3.449510 0.000000 
#    z 0.000000 0.000000 3.012820 
# 
# 
# High freq. dielectric constant tensor:
#      x y z
#    x 1.709680 0.000000 0.000000 
#    y 0.000000 1.709680 0.000000 
#    z 0.000000 0.000000 1.667280 
# 
# From -- ./inp_files/3644.got.cif
#   From: 2010.03.12/outbox.cif.g09.slc.cpg/sg111_2_cif.got.tgz:3644.got - 2010.04.14 01:59:48.
