data_PCOD8308781
_publ_section_title
;
Structure prediction by ZEFSAII (Michael W. Deem and Ramdas Pophale) SiO2 
 PCOD8308781
Probable space group: P -4 21 M 
;
_chemical_formula_sum "Si O2"
_cell_formula_units_Z 32
_cell_length_a 10.409810
_cell_length_b 10.409810
_cell_length_c 13.592704
_cell_angle_alpha 90.000000
_cell_angle_beta 90.000000
_cell_angle_gamma 90.000000
_cell_volume 1472.961737
_symmetry_space_group_name_H-M "P -4 21 M "
_symmetry_group_IT_number 113
_symmetry_cell_setting 'tetragonal'
loop_
_space_group_symop_operation_xyz
x,y,z
y,-x,-z
-x,-y,z
-y,x,-z
1/2+x,1/2-y,-z
1/2-x,1/2+y,-z
1/2-y,1/2-x,z
1/2+y,1/2+x,z
loop_
_atom_site_type_symbol
_atom_site_label
_atom_site_fract_x
_atom_site_fract_y
_atom_site_fract_z
Si Si1 0.866595 0.159019 0.529703
Si Si2 0.909500 0.108341 0.741192
Si Si3 0.795485 0.493058 0.117614
Si Si4 0.209219 0.495684 0.903185
O O1 0.764343 0.264343 0.484815
O O2 0.863654 0.188085 0.647049
O O3 0.012071 0.181432 0.489878
O O4 0.995843 0.185221 0.818738
O O5 0.789763 0.045089 0.795229
O O6 0.000000 0.000000 0.694839
O O7 0.853868 0.353868 0.147210
O O8 0.911898 0.588103 0.096944
O O9 0.724717 0.484811 0.010971
O O10 0.143037 0.356964 0.892857
O O11 0.108580 0.608580 0.884735
#
# Coordination Sequence:
#
# PCOD8308781 Si02
#       4
#     8   8   8   8
#     4  11  25  50  73 100 134 169 220 284 342 405
#     4  12  24  39  63  93 131 167 209 267 324 382
#     4   9  20  38  59  89 129 172 217 257 301 371
#     4   9  20  38  59  89 129 172 217 257 301 371
#
# _framework density 21.724934999999999
#
# number of rings (size 3 to 8) (size 9 to 14) (size 15 to 20)
#    0.000    1.750    2.500    3.750    3.500    3.500 
#    0.000    0.000    0.000    0.000    0.000    0.000 
#    0.000    0.000    0.000    0.000    0.000    0.000 
#
# Total GULP energy -396556.154467 kJ/mol
# GULP energy per Si atom -12392.379827 kJ/mol
# Density = 2.167549 g / cm^3
# Si number density = 21.724935 Si / 1000 Ang^3
#
#
#
# Elastic Constant Matrix: (Units=GPa)
#
#
# Indices 1 2 3 4 5 6 
#
# 1 75.2401 23.7892 11.1842 0.0000 0.0000 0.0000
# 2 23.7892 75.2409 11.1842 0.0000 0.0000 0.0000
# 3 11.1842 11.1842 111.2152 0.0000 0.0000 0.0000
# 4 0.0000 0.0000 0.0000 20.1780 0.0000 0.0000
# 5 0.0000 0.0000 0.0000 0.0000 20.1778 0.0000
# 6 0.0000 0.0000 0.0000 0.0000 0.0000 42.7781
#
#
#
# Elastic Compliance Matrix: (Units=1/GPa)
#
#
# Indices 1 2 3 4 5 6 
#
# 1 0.014884 -0.004552 -0.001039 0.000000 0.000000 0.000000
# 2 -0.004552 0.014884 -0.001039 0.000000 0.000000 0.000000
# 3 -0.001039 -0.001039 0.009201 0.000000 0.000000 0.000000
# 4 0.000000 0.000000 0.000000 0.049559 0.000000 0.000000
# 5 0.000000 0.000000 0.000000 0.000000 0.049559 0.000000
# 6 0.000000 0.000000 0.000000 0.000000 0.000000 0.023376
#
#
# Mechanical properties :
#
#
# Convention : Reuss Voigt Hill
#
# Bulk Modulus (GPa) = 38.89602 39.33460 39.11531
# Shear Modulus (GPa) = 27.27869 30.99602 29.13735
#
# Velocity S-wave (km/s) = 3.54734 3.78133 3.66620
# Velocity P-wave (km/s) = 5.89245 6.09997 5.99711
#
# Compressibility (1/GPa) = 0.02570957
#
# Stress axis : x y z
#
# Youngs Moduli (GPa) = 67.18468 67.18536 108.68898
#
# Poissons Ratio (x) = 0.30580 0.11294
# Poissons Ratio (y) = 0.30580 0.11294
# Poissons Ratio (z) = 0.06981 0.06981
#
# Static dielectric constant tensor:
#      x y z
#    x 3.810130 0.000000 0.000000 
#    y 0.000000 3.810130 0.000000 
#    z 0.000000 0.000000 3.822690 
# 
# 
# High freq. dielectric constant tensor:
#      x y z
#    x 1.851280 0.000000 0.000000 
#    y 0.000000 1.851280 0.000000 
#    z 0.000000 0.000000 1.851380 
# 
# From -- ./inp_files/1531.got.cif
#   From: 2010.03.12/outbox.cif.g09.slc.cpg/sg113_cif.got.tgz:1531.got - 2010.04.14 02:06:34.
