data_PCOD8308481
_publ_section_title
;
Structure prediction by ZEFSAII (Michael W. Deem and Ramdas Pophale) SiO2 
 PCOD8308481
Probable space group: P -4 2 C
;
_chemical_formula_sum "Si O2"
_cell_formula_units_Z 36
_cell_length_a 14.072315
_cell_length_b 14.072315
_cell_length_c 10.271809
_cell_angle_alpha 90.000000
_cell_angle_beta 90.000000
_cell_angle_gamma 90.000000
_cell_volume 2034.126844
_symmetry_space_group_name_H-M "P -4 2 C"
_symmetry_group_IT_number 112
_symmetry_cell_setting 'tetragonal'
loop_
_space_group_symop_operation_xyz
x,y,z
y,-x,-z
-x,-y,z
-y,x,-z
x,-y,1/2-z
-x,y,1/2-z
-y,-x,1/2+z
y,x,1/2+z
loop_
_atom_site_type_symbol
_atom_site_label
_atom_site_fract_x
_atom_site_fract_y
_atom_site_fract_z
Si Si1 0.313132 0.428469 0.571611
Si Si2 0.607502 0.893553 0.711718
Si Si3 0.687544 0.709398 0.812803
Si Si4 0.500000 0.000000 0.250000
Si Si5 0.844410 0.411963 0.582406
Si Si6 0.500000 0.500000 0.000000
O O1 0.328683 0.346130 0.677345
O O2 0.313147 0.388456 0.425226
O O3 0.220799 0.493352 0.595578
O O4 0.404413 0.496835 0.586919
O O5 0.500000 0.869635 0.750000
O O6 0.679756 0.821678 0.783475
O O7 0.614734 0.879201 0.559282
O O8 0.637254 0.000000 0.750000
O O9 0.791789 0.681448 0.863094
O O10 0.570676 0.938645 0.336752
#
# Coordination Sequence:
#
# PCOD8308481 Si02
#       6
#     8   8   8   2   8   2
#     4  12  24  38  54  84 123 165 207 240 286 360
#     4  11  23  39  61  85 120 163 204 248 300 354
#     4  12  23  39  57  81 122 157 199 252 296 349
#     4  12  24  40  62  82 122 152 208 258 308 346
#     4  12  24  40  59  88 120 160 204 253 298 357
#     4  12  24  34  56  78 124 174 200 230 288 346
#
# _framework density 17.698011000000001
#
# number of rings (size 3 to 8) (size 9 to 14) (size 15 to 20)
#    0.000    0.222    8.889    1.333    0.000    0.889 
#    0.000    0.000    0.000    0.000    0.000    0.778 
#    0.000    0.000    0.000    0.000    0.000    0.000 
#
# Total GULP energy -446321.944923 kJ/mol
# GULP energy per Si atom -12397.831803 kJ/mol
# Density = 1.765773 g / cm^3
# Si number density = 17.698011 Si / 1000 Ang^3
#
#
#
# Elastic Constant Matrix: (Units=GPa)
#
#
# Indices 1 2 3 4 5 6 
#
# 1 123.4936 60.2667 53.2138 0.0000 0.0000 0.0000
# 2 60.2667 123.4936 53.2138 0.0000 0.0000 0.0000
# 3 53.2138 53.2138 123.1390 0.0000 0.0000 0.0000
# 4 0.0000 0.0000 0.0000 29.3980 0.0000 0.0000
# 5 0.0000 0.0000 0.0000 0.0000 29.3980 0.0000
# 6 0.0000 0.0000 0.0000 0.0000 0.0000 6.4871
#
#
#
# Elastic Compliance Matrix: (Units=1/GPa)
#
#
# Indices 1 2 3 4 5 6 
#
# 1 0.011537 -0.004279 -0.003137 0.000000 0.000000 0.000000
# 2 -0.004279 0.011537 -0.003137 0.000000 0.000000 0.000000
# 3 -0.003137 -0.003137 0.010832 0.000000 0.000000 0.000000
# 4 0.000000 0.000000 0.000000 0.034016 0.000000 0.000000
# 5 0.000000 0.000000 0.000000 0.000000 0.034016 0.000000
# 6 0.000000 0.000000 0.000000 0.000000 0.000000 0.154151
#
#
# Mechanical properties :
#
#
# Convention : Reuss Voigt Hill
#
# Bulk Modulus (GPa) = 78.11217 78.16832 78.14024
# Shear Modulus (GPa) = 17.76441 26.61875 22.19158
#
# Velocity S-wave (km/s) = 3.17164 3.88242 3.54489
# Velocity P-wave (km/s) = 7.59239 8.02255 7.81043
#
# Compressibility (1/GPa) = 0.01280210
#
# Stress axis : x y z
#
# Youngs Moduli (GPa) = 86.67525 86.67525 92.31936
#
# Poissons Ratio (x) = 0.37086 0.28958
# Poissons Ratio (y) = 0.37086 0.28958
# Poissons Ratio (z) = 0.27188 0.27188
#
# Static dielectric constant tensor:
#      x y z
#    x 3.259370 0.000000 0.000000 
#    y 0.000000 3.259370 0.000000 
#    z 0.000000 0.000000 3.584380 
# 
# 
# High freq. dielectric constant tensor:
#      x y z
#    x 1.665380 0.000000 0.000000 
#    y 0.000000 1.665380 0.000000 
#    z 0.000000 0.000000 1.712840 
# 
# From -- ./inp_files/1158.got.cif
#   From: 2010.03.12/outbox.cif.g09.slc.cpg/sg112_1_cif.got.tgz:1158.got - 2010.04.14 02:02:48.
