data_PCOD8308496
_publ_section_title
;
Structure prediction by ZEFSAII (Michael W. Deem and Ramdas Pophale) SiO2 
 PCOD8308496
Probable space group: P -4 2 C
;
_chemical_formula_sum "Si O2"
_cell_formula_units_Z 20
_cell_length_a 9.923406
_cell_length_b 9.923406
_cell_length_c 9.746918
_cell_angle_alpha 90.000000
_cell_angle_beta 90.000000
_cell_angle_gamma 90.000000
_cell_volume 959.817873
_symmetry_space_group_name_H-M "P -4 2 C"
_symmetry_group_IT_number 112
_symmetry_cell_setting 'tetragonal'
loop_
_space_group_symop_operation_xyz
x,y,z
y,-x,-z
-x,-y,z
-y,x,-z
x,-y,1/2-z
-x,y,1/2-z
-y,-x,1/2+z
y,x,1/2+z
loop_
_atom_site_type_symbol
_atom_site_label
_atom_site_fract_x
_atom_site_fract_y
_atom_site_fract_z
Si Si1 0.000000 0.000000 0.500000
Si Si2 0.347483 0.154311 0.721797
Si Si3 0.733247 0.864116 0.416963
Si Si4 0.000000 0.500000 0.750000
O O1 0.033870 0.863701 0.587843
O O2 0.500000 0.193864 0.750000
O O3 0.297995 0.186928 0.569451
O O4 0.267240 0.241380 0.829687
O O5 0.317132 0.000000 0.750000
O O6 0.597191 0.924271 0.355275
#
# Coordination Sequence:
#
# PCOD8308496 Si02
#       4
#     2   8   8   2
#     4  12  24  46  76 118 132 190 248 322 348 426
#     4  11  25  45  72 108 149 187 236 305 376 443
#     4  12  26  44  74 106 148 188 248 303 370 433
#     4  12  28  42  72 104 148 202 238 306 368 438
#
# _framework density 20.837285000000001
#
# number of rings (size 3 to 8) (size 9 to 14) (size 15 to 20)
#    0.000    0.400    4.000    4.800    5.600    1.600 
#    0.000    1.000    0.000    0.000    0.000    0.000 
#    0.000    0.000    0.000    0.000    0.000    0.000 
#
# Total GULP energy -247925.594300 kJ/mol
# GULP energy per Si atom -12396.279715 kJ/mol
# Density = 2.078986 g / cm^3
# Si number density = 20.837285 Si / 1000 Ang^3
#
#
#
# Elastic Constant Matrix: (Units=GPa)
#
#
# Indices 1 2 3 4 5 6 
#
# 1 103.4034 104.3776 85.0343 0.0000 0.0000 0.0000
# 2 104.3776 103.4034 85.0343 0.0000 0.0000 0.0000
# 3 85.0343 85.0343 194.5178 0.0000 0.0000 0.0000
# 4 0.0000 0.0000 0.0000 38.0507 0.0000 0.0000
# 5 0.0000 0.0000 0.0000 0.0000 38.0507 0.0000
# 6 0.0000 0.0000 0.0000 0.0000 0.0000 31.0538
#
#
#
# Elastic Compliance Matrix: (Units=1/GPa)
#
#
# Indices 1 2 3 4 5 6 
#
# 1 -0.509492 0.516986 -0.003276 0.000000 0.000000 0.000000
# 2 0.516986 -0.509492 -0.003276 0.000000 0.000000 0.000000
# 3 -0.003276 -0.003276 0.008005 0.000000 0.000000 0.000000
# 4 0.000000 0.000000 0.000000 0.026281 0.000000 0.000000
# 5 0.000000 0.000000 0.000000 0.000000 0.026281 0.000000
# 6 0.000000 0.000000 0.000000 0.000000 0.000000 0.032202
#
#
# Mechanical properties :
#
#
# Convention : Reuss Voigt Hill
#
# Bulk Modulus (GPa) = 101.12007 105.57966 103.34987
# Shear Modulus (GPa) = -2.57230 29.88961 13.65866
#
# Velocity S-wave (km/s) = -1.11227 3.79149 2.56303
# Velocity P-wave (km/s) = 6.85451 8.36336 7.64624
#
# Compressibility (1/GPa) = 0.00988923
#
# Stress axis : x y z
#
# Youngs Moduli (GPa) = -1.96274 -1.96274 124.91726
#
# Poissons Ratio (x) = 1.01471 0.40925
# Poissons Ratio (y) = 1.01471 0.40925
# Poissons Ratio (z) = -0.00643 -0.00643
#
# Static dielectric constant tensor:
#      x y z
#    x 3.830080 0.000000 0.000000 
#    y 0.000000 3.830080 0.000000 
#    z 0.000000 0.000000 4.188830 
# 
# 
# High freq. dielectric constant tensor:
#      x y z
#    x 1.814990 0.000000 0.000000 
#    y 0.000000 1.814990 0.000000 
#    z 0.000000 0.000000 1.837420 
# 
# From -- ./inp_files/1914.got.cif
#   From: 2010.03.12/outbox.cif.g09.slc.cpg/sg112_1_cif.got.tgz:1914.got - 2010.04.14 02:02:48.
