data_PCOD8308717
_publ_section_title
;
Structure prediction by ZEFSAII (Michael W. Deem and Ramdas Pophale) SiO2 
 PCOD8308717
Probable space group: P -4 21 M 
;
_chemical_formula_sum "Si O2"
_cell_formula_units_Z 56
_cell_length_a 14.142943
_cell_length_b 14.142943
_cell_length_c 12.171417
_cell_angle_alpha 90.000000
_cell_angle_beta 90.000000
_cell_angle_gamma 90.000000
_cell_volume 2434.561355
_symmetry_space_group_name_H-M "P -4 21 M "
_symmetry_group_IT_number 113
_symmetry_cell_setting 'tetragonal'
loop_
_space_group_symop_operation_xyz
x,y,z
y,-x,-z
-x,-y,z
-y,x,-z
1/2+x,1/2-y,-z
1/2-x,1/2+y,-z
1/2-y,1/2-x,z
1/2+y,1/2+x,z
loop_
_atom_site_type_symbol
_atom_site_label
_atom_site_fract_x
_atom_site_fract_y
_atom_site_fract_z
Si Si1 0.718243 0.553145 0.686835
Si Si2 0.165518 0.815358 0.688732
Si Si3 0.542696 0.247925 0.073108
Si Si4 0.649495 0.006353 0.859272
Si Si5 0.104529 0.759221 0.306577
Si Si6 0.307556 0.659913 0.929843
Si Si7 0.942208 0.706067 0.454001
O O1 0.679060 0.447065 0.675587
O O2 0.779886 0.562199 0.799835
O O3 0.631742 0.629671 0.686555
O O4 0.787041 0.569919 0.584804
O O5 0.209404 0.709404 0.670388
O O6 0.194737 0.849287 0.812537
O O7 0.207291 0.885972 0.599942
O O8 0.452109 0.314859 0.069092
O O9 0.522277 0.162525 0.989958
O O10 0.633592 0.303809 0.032258
O O11 0.574251 0.925750 0.840121
O O12 0.742779 0.970227 0.794215
O O13 0.605187 0.105187 0.812155
O O14 0.201968 0.701968 0.292334
O O15 0.050921 0.718264 0.415380
O O16 0.200179 0.700179 0.943664
O O17 0.894899 0.605102 0.419760
#
# Coordination Sequence:
#
# PCOD8308717 Si02
#       7
#     8   8   8   8   8   8   8
#     4  11  24  39  63  94 127 167 205 254 324 384
#     4   9  21  43  66  89 120 161 212 260 304 368
#     4  11  22  37  59  90 126 160 201 252 309 377
#     4  10  21  38  62  90 122 165 213 261 312 365
#     4  11  24  43  65  92 127 165 213 266 308 365
#     4  10  21  38  61  86 117 161 204 248 305 363
#     4  11  23  41  66  93 122 162 210 260 317 375
#
# _framework density 23.002091
#
# number of rings (size 3 to 8) (size 9 to 14) (size 15 to 20)
#    0.000    1.571    0.000    4.286    0.000    8.571 
#    0.000    4.286    0.000    1.286    0.000    0.000 
#    0.000    0.000    0.000    0.000    0.000    0.000 
#
# Total GULP energy -693799.455659 kJ/mol
# GULP energy per Si atom -12389.275994 kJ/mol
# Density = 2.294974 g / cm^3
# Si number density = 23.002091 Si / 1000 Ang^3
#
#
#
# Elastic Constant Matrix: (Units=GPa)
#
#
# Indices 1 2 3 4 5 6 
#
# 1 97.1342 18.2481 23.2036 0.0000 0.0000 0.0000
# 2 18.2481 97.1346 23.2040 0.0000 0.0000 0.0000
# 3 23.2036 23.2040 153.1557 0.0000 0.0000 0.0000
# 4 0.0000 0.0000 0.0000 27.1868 0.0000 0.0000
# 5 0.0000 0.0000 0.0000 0.0000 27.1884 0.0000
# 6 0.0000 0.0000 0.0000 0.0000 0.0000 21.4214
#
#
#
# Elastic Compliance Matrix: (Units=1/GPa)
#
#
# Indices 1 2 3 4 5 6 
#
# 1 0.010953 -0.001724 -0.001398 0.000000 0.000000 0.000000
# 2 -0.001724 0.010953 -0.001398 0.000000 0.000000 0.000000
# 3 -0.001398 -0.001398 0.006953 0.000000 0.000000 0.000000
# 4 0.000000 0.000000 0.000000 0.036783 0.000000 0.000000
# 5 0.000000 0.000000 0.000000 0.000000 0.036780 0.000000
# 6 0.000000 0.000000 0.000000 0.000000 0.000000 0.046682
#
#
# Mechanical properties :
#
#
# Convention : Reuss Voigt Hill
#
# Bulk Modulus (GPa) = 50.45830 52.97067 51.71448
# Shear Modulus (GPa) = 30.34892 34.01055 32.17974
#
# Velocity S-wave (km/s) = 3.63629 3.84941 3.74437
# Velocity P-wave (km/s) = 6.29398 6.54491 6.42067
#
# Compressibility (1/GPa) = 0.01981835
#
# Stress axis : x y z
#
# Youngs Moduli (GPa) = 91.30034 91.30056 143.82293
#
# Poissons Ratio (x) = 0.15737 0.20110
# Poissons Ratio (y) = 0.15737 0.20111
# Poissons Ratio (z) = 0.12766 0.12766
#
# Static dielectric constant tensor:
#      x y z
#    x 4.094510 0.000000 0.000000 
#    y 0.000000 4.094510 0.000000 
#    z 0.000000 0.000000 4.537480 
# 
# 
# High freq. dielectric constant tensor:
#      x y z
#    x 1.898350 0.000000 0.000000 
#    y 0.000000 1.898350 0.000000 
#    z 0.000000 0.000000 1.924080 
# 
# From -- ./inp_files/1909.got.cif
#   From: 2010.03.12/outbox.cif.g09.slc.cpg/sg113_cif.got.tgz:1909.got - 2010.04.14 02:06:34.
