data_PCOD8308116
_publ_section_title
;
Structure prediction by ZEFSAII (Michael W. Deem and Ramdas Pophale) SiO2 
 PCOD8308116
Probable space group: P -4 2 M 
;
_chemical_formula_sum "Si O2"
_cell_formula_units_Z 48
_cell_length_a 12.710389
_cell_length_b 12.710389
_cell_length_c 17.500554
_cell_angle_alpha 90.000000
_cell_angle_beta 90.000000
_cell_angle_gamma 90.000000
_cell_volume 2827.284300
_symmetry_space_group_name_H-M "P -4 2 M "
_symmetry_group_IT_number 111
_symmetry_cell_setting 'tetragonal'
loop_
_space_group_symop_operation_xyz
x,y,z
y,-x,-z
-x,-y,z
-y,x,-z
x,-y,-z
-x,y,-z
-y,-x,z
y,x,z
loop_
_atom_site_type_symbol
_atom_site_label
_atom_site_fract_x
_atom_site_fract_y
_atom_site_fract_z
Si Si1 0.788529 0.617536 0.901307
Si Si2 0.381650 0.993211 0.836717
Si Si3 0.390142 0.220038 0.461050
Si Si4 0.242931 0.922136 0.438738
Si Si5 0.376634 0.207450 0.080825
Si Si6 0.050862 0.608526 0.659901
O O1 0.686379 0.686379 0.876718
O O2 0.889456 0.663788 0.853464
O O3 0.768400 0.493524 0.885301
O O4 0.809701 0.628113 0.990701
O O5 0.500000 0.000000 0.867759
O O6 0.326937 0.900274 0.884968
O O7 0.378977 0.952229 0.750268
O O8 0.500000 0.248204 0.500000
O O9 0.328447 0.328447 0.452028
O O10 0.334564 0.139359 0.517847
O O11 0.394904 0.167917 0.376337
O O12 0.155464 0.844537 0.404568
O O13 0.188829 0.000000 0.500000
O O14 0.291486 0.985588 0.368926
O O15 0.305585 0.305585 0.106442
O O16 0.000000 0.500000 0.632422
#
# Coordination Sequence:
#
# PCOD8308116 Si02
#       6
#     8   8   8   8   8   8
#     4   9  17  30  49  74 101 132 171 212 252 297
#     4   9  18  30  47  73  98 129 169 209 250 292
#     4  10  19  32  51  73  97 128 163 202 244 294
#     4   9  18  30  48  70  92 122 157 196 243 288
#     4   9  17  30  49  71 101 137 170 208 251 298
#     4  10  18  31  51  71  95 128 164 205 244 292
#
# _framework density 16.977422000000001
#
# number of rings (size 3 to 8) (size 9 to 14) (size 15 to 20)
#    0.000    2.667    1.667    0.500    0.000    4.000 
#    0.000    1.667    0.000    0.500    0.000    7.000 
#    0.000    0.000    0.000    0.000    0.000    0.000 
#
# Total GULP energy -594835.747190 kJ/mol
# GULP energy per Si atom -12392.411400 kJ/mol
# Density = 1.693878 g / cm^3
# Si number density = 16.977422 Si / 1000 Ang^3
#
#
#
# Elastic Constant Matrix: (Units=GPa)
#
#
# Indices 1 2 3 4 5 6 
#
# 1 94.8605 55.5462 36.7278 0.0000 0.0000 0.0000
# 2 55.5462 94.8627 36.7276 0.0000 0.0000 0.0000
# 3 36.7278 36.7276 54.8950 0.0000 0.0000 0.0000
# 4 0.0000 0.0000 0.0000 15.5956 0.0000 0.0000
# 5 0.0000 0.0000 0.0000 0.0000 15.5950 0.0000
# 6 0.0000 0.0000 0.0000 0.0000 0.0000 16.0153
#
#
#
# Elastic Compliance Matrix: (Units=1/GPa)
#
#
# Indices 1 2 3 4 5 6 
#
# 1 0.017656 -0.007780 -0.006607 0.000000 0.000000 0.000000
# 2 -0.007780 0.017655 -0.006607 0.000000 0.000000 0.000000
# 3 -0.006607 -0.006607 0.027058 0.000000 0.000000 0.000000
# 4 0.000000 0.000000 0.000000 0.064120 0.000000 0.000000
# 5 0.000000 0.000000 0.000000 0.000000 0.064123 0.000000
# 6 0.000000 0.000000 0.000000 0.000000 0.000000 0.062440
#
#
# Mechanical properties :
#
#
# Convention : Reuss Voigt Hill
#
# Bulk Modulus (GPa) = 49.06820 55.84682 52.45751
# Shear Modulus (GPa) = 16.56540 17.14897 16.85718
#
# Velocity S-wave (km/s) = 3.12706 3.18166 3.15448
# Velocity P-wave (km/s) = 6.48095 6.81641 6.65080
#
# Compressibility (1/GPa) = 0.02037980
#
# Stress axis : x y z
#
# Youngs Moduli (GPa) = 56.63914 56.64109 36.95813
#
# Poissons Ratio (x) = 0.44067 0.24420
# Poissons Ratio (y) = 0.44065 0.24418
# Poissons Ratio (z) = 0.37424 0.37422
#
# Static dielectric constant tensor:
#      x y z
#    x 3.231150 0.000000 0.000000 
#    y 0.000000 3.231150 0.000000 
#    z 0.000000 0.000000 2.972050 
# 
# 
# High freq. dielectric constant tensor:
#      x y z
#    x 1.645830 0.000000 0.000000 
#    y 0.000000 1.645830 0.000000 
#    z 0.000000 0.000000 1.643440 
# 
# From -- ./inp_files/3618.got.cif
#   From: 2010.03.12/outbox.cif.g09.slc.cpg/sg111_2_cif.got.tgz:3618.got - 2010.04.14 01:59:48.
