data_PCOD8308859
_publ_section_title
;
Structure prediction by ZEFSAII (Michael W. Deem and Ramdas Pophale) SiO2 
 PCOD8308859
Probable space group: P -4 21 C
;
_chemical_formula_sum "Si O2"
_cell_formula_units_Z 40
_cell_length_a 9.207028
_cell_length_b 9.207028
_cell_length_c 23.602247
_cell_angle_alpha 90.000000
_cell_angle_beta 90.000000
_cell_angle_gamma 90.000000
_cell_volume 2000.747481
_symmetry_space_group_name_H-M "P -4 21 C"
_symmetry_group_IT_number 114
_symmetry_cell_setting 'tetragonal'
loop_
_space_group_symop_operation_xyz
x,y,z
y,-x,-z
-x,-y,z
-y,x,-z
1/2+x,1/2-y,1/2-z
1/2-x,1/2+y,1/2-z
1/2-y,1/2-x,1/2+z
1/2+y,1/2+x,1/2+z
loop_
_atom_site_type_symbol
_atom_site_label
_atom_site_fract_x
_atom_site_fract_y
_atom_site_fract_z
Si Si1 0.337638 0.954276 0.276941
Si Si2 0.341123 0.648260 0.868656
Si Si3 0.202593 0.138651 0.430006
Si Si4 0.217969 0.839239 0.686011
Si Si5 0.840356 0.445813 0.962341
O O1 0.285698 0.845463 0.326722
O O2 0.333161 0.872604 0.216773
O O3 0.500000 0.000000 0.291881
O O4 0.231537 0.093792 0.274118
O O5 0.484818 0.643972 0.907334
O O6 0.326278 0.503860 0.829903
O O7 0.203725 0.663725 0.911296
O O8 0.250973 0.228697 0.373548
O O9 0.334110 0.125687 0.474968
O O10 0.074265 0.222381 0.462220
O O11 0.000000 0.500000 0.949435
#
# Coordination Sequence:
#
# PCOD8308859 Si02
#       5
#     8   8   8   8   8
#     4  11  22  37  59  89 125 161 201 256 302 358
#     4  10  22  40  63  88 120 164 211 247 295 362
#     4  10  20  37  61  89 117 153 208 251 290 352
#     4  10  22  37  60  87 123 163 208 246 300 360
#     4  11  21  35  64  94 118 154 204 258 306 358
#
# _framework density 19.992526999999999
#
# number of rings (size 3 to 8) (size 9 to 14) (size 15 to 20)
#    0.000    1.600    2.000    6.600    0.000    9.600 
#    0.000    0.000    0.000    0.600    0.000    0.000 
#    0.000    0.000    0.000    0.000    0.000    0.000 
#
# Total GULP energy -495613.319631 kJ/mol
# GULP energy per Si atom -12390.332991 kJ/mol
# Density = 1.994702 g / cm^3
# Si number density = 19.992527 Si / 1000 Ang^3
#
#
#
# Elastic Constant Matrix: (Units=GPa)
#
#
# Indices 1 2 3 4 5 6 
#
# 1 82.6994 35.8144 65.1724 0.0000 0.0000 0.0000
# 2 35.8144 82.6994 65.1724 0.0000 0.0000 0.0000
# 3 65.1724 65.1724 142.7162 0.0000 0.0000 0.0000
# 4 0.0000 0.0000 0.0000 30.7348 0.0000 0.0000
# 5 0.0000 0.0000 0.0000 0.0000 30.7348 0.0000
# 6 0.0000 0.0000 0.0000 0.0000 0.0000 15.3719
#
#
#
# Elastic Compliance Matrix: (Units=1/GPa)
#
#
# Indices 1 2 3 4 5 6 
#
# 1 0.019140 -0.002189 -0.007741 0.000000 0.000000 0.000000
# 2 -0.002189 0.019140 -0.007741 0.000000 0.000000 0.000000
# 3 -0.007741 -0.007741 0.014077 0.000000 0.000000 0.000000
# 4 0.000000 0.000000 0.000000 0.032536 0.000000 0.000000
# 5 0.000000 0.000000 0.000000 0.000000 0.032536 0.000000
# 6 0.000000 0.000000 0.000000 0.000000 0.000000 0.065054
#
#
# Mechanical properties :
#
#
# Convention : Reuss Voigt Hill
#
# Bulk Modulus (GPa) = 58.76841 71.15928 64.96384
# Shear Modulus (GPa) = 22.37158 24.83200 23.60179
#
# Velocity S-wave (km/s) = 3.34877 3.52812 3.43961
# Velocity P-wave (km/s) = 6.66418 7.22959 6.95264
#
# Compressibility (1/GPa) = 0.01701595
#
# Stress axis : x y z
#
# Youngs Moduli (GPa) = 52.24587 52.24587 71.03776
#
# Poissons Ratio (x) = 0.11434 0.54991
# Poissons Ratio (y) = 0.11434 0.54991
# Poissons Ratio (z) = 0.40444 0.40444
#
# Static dielectric constant tensor:
#      x y z
#    x 3.464850 0.000000 0.000000 
#    y 0.000000 3.464850 0.000000 
#    z 0.000000 0.000000 4.161480 
# 
# 
# High freq. dielectric constant tensor:
#      x y z
#    x 1.754570 0.000000 0.000000 
#    y 0.000000 1.754570 0.000000 
#    z 0.000000 0.000000 1.799870 
# 
# From -- ./inp_files/3657.got.cif
#   From: 2010.03.12/outbox.cif.g09.slc.cpg/sg114_2_cif.got.tgz:3657.got - 2010.04.14 02:08:34.
