data_PCOD8308076
_publ_section_title
;
Structure prediction by ZEFSAII (Michael W. Deem and Ramdas Pophale) SiO2 
 PCOD8308076
Probable space group: I 41 C D
;
_chemical_formula_sum "Si O2"
_cell_formula_units_Z 120
_cell_length_a 17.509018
_cell_length_b 17.509018
_cell_length_c 16.712076
_cell_angle_alpha 90.000000
_cell_angle_beta 90.000000
_cell_angle_gamma 90.000000
_cell_volume 5123.349467
_symmetry_space_group_name_H-M "I 41 C D"
_symmetry_group_IT_number 110
_symmetry_cell_setting 'tetragonal'
loop_
_space_group_symop_operation_xyz
x,y,z
-y,1/2+x,1/4+z
-x,-y,z
y,1/2-x,1/4+z
-x,y,1/2+z
x,-y,1/2+z
1/2-y,-x,1/4+z
1/2+y,x,1/4+z
1/2+x,1/2+y,1/2+z
1/2-y,x,3/4+z
1/2-x,1/2-y,1/2+z
1/2+y,-x,3/4+z
1/2-x,1/2+y,z
1/2+x,1/2-y,z
-y,1/2-x,3/4+z
y,1/2+x,3/4+z
loop_
_atom_site_type_symbol
_atom_site_label
_atom_site_fract_x
_atom_site_fract_y
_atom_site_fract_z
Si Si1 0.311895 0.707475 0.537980
Si Si2 0.000000 0.000000 0.991750
Si Si3 0.511977 0.197726 0.983578
Si Si4 0.424480 0.886459 0.352027
Si Si5 0.269344 0.876447 0.529083
Si Si6 0.178651 0.364039 0.960838
Si Si7 0.052790 0.156251 0.423649
Si Si8 0.517375 0.713771 0.639323
O O1 0.294940 0.791786 0.505764
O O2 0.236685 0.656334 0.530898
O O3 0.325384 0.710639 0.631449
O O4 0.382722 0.670523 0.491065
O O5 0.922273 0.990819 0.045471
O O6 0.014658 0.926835 0.934573
O O7 0.456825 0.134289 0.941247
O O8 0.595564 0.163162 0.985455
O O9 0.510343 0.276275 0.932447
O O10 0.489183 0.221294 0.075488
O O11 0.381419 0.811301 0.322788
O O12 0.362460 0.953681 0.345967
O O13 0.336468 0.912602 0.584383
O O14 0.254281 0.915801 0.444298
O O15 0.183455 0.453915 0.949813
#
# Coordination Sequence:
#
# PCOD8308076 Si02
#       8
#    16   8  16  16  16  16  16  16
#     4  12  24  47  73 104 149 197 248 309 381 451
#     4  12  24  48  78 108 154 202 252 318 402 458
#     4  11  24  47  75 105 148 195 251 309 377 471
#     4  11  24  46  75 103 148 198 243 314 390 455
#     4  11  26  44  73 109 146 195 255 311 378 458
#     4  12  28  43  76 110 144 194 253 309 378 460
#     4  11  24  47  73 105 147 199 250 309 384 454
#     4  12  26  49  71 111 149 192 253 314 380 462
#
# _framework density 23.422177999999999
#
# number of rings (size 3 to 8) (size 9 to 14) (size 15 to 20)
#    0.000    0.533    4.000    4.000    7.467    0.000 
#    2.400    0.667    0.000    0.000    0.000    0.000 
#    0.000    0.000    0.000    0.000    0.000    0.000 
#
# Total GULP energy -743847.427081 kJ/mol
# GULP energy per Si atom -12397.457118 kJ/mol
# Density = 2.336887 g / cm^3
# Si number density = 23.422178 Si / 1000 Ang^3
#
#
#
# Elastic Constant Matrix: (Units=GPa)
#
#
# Indices 1 2 3 4 5 6 
#
# 1 96.3145 30.2951 7.3425 0.0000 0.0000 0.0000
# 2 30.2951 96.3145 7.3425 0.0000 0.0000 0.0000
# 3 7.3425 7.3425 45.4656 0.0000 0.0000 0.0000
# 4 0.0000 0.0000 0.0000 22.2355 0.0000 0.0000
# 5 0.0000 0.0000 0.0000 0.0000 22.2355 0.0000
# 6 0.0000 0.0000 0.0000 0.0000 0.0000 40.6092
#
#
#
# Elastic Compliance Matrix: (Units=1/GPa)
#
#
# Indices 1 2 3 4 5 6 
#
# 1 0.011598 -0.003549 -0.001300 0.000000 0.000000 0.000000
# 2 -0.003549 0.011598 -0.001300 0.000000 0.000000 0.000000
# 3 -0.001300 -0.001300 0.022414 0.000000 0.000000 0.000000
# 4 0.000000 0.000000 0.000000 0.044973 0.000000 0.000000
# 5 0.000000 0.000000 0.000000 0.000000 0.044973 0.000000
# 6 0.000000 0.000000 0.000000 0.000000 0.000000 0.024625
#
#
# Mechanical properties :
#
#
# Convention : Reuss Voigt Hill
#
# Bulk Modulus (GPa) = 30.01824 36.45052 33.23438
# Shear Modulus (GPa) = 27.23556 29.89037 28.56297
#
# Velocity S-wave (km/s) = 3.41370 3.57621 3.49590
# Velocity P-wave (km/s) = 5.32746 5.71389 5.52405
#
# Compressibility (1/GPa) = 0.03331307
#
# Stress axis : x y z
#
# Youngs Moduli (GPa) = 86.22132 86.22132 44.61400
#
# Poissons Ratio (x) = 0.30600 0.05799
# Poissons Ratio (y) = 0.30600 0.05799
# Poissons Ratio (z) = 0.11208 0.11208
#
# Static dielectric constant tensor:
#      x y z
#    x 4.381740 0.000000 0.000000 
#    y 0.000000 4.381740 0.000000 
#    z 0.000000 0.000000 4.260130 
# 
# 
# High freq. dielectric constant tensor:
#      x y z
#    x 1.930420 0.000000 0.000000 
#    y 0.000000 1.930420 0.000000 
#    z 0.000000 0.000000 1.924710 
# 
# From -- ./inp_files/1785.got.cif
#   From: 2010.03.12/outbox.cif.g09.slc.cpg/sg110_1_cif.got.tgz:1785.got - 2010.04.14 01:58:01.
