data_PCOD8308851
_publ_section_title
;
Structure prediction by ZEFSAII (Michael W. Deem and Ramdas Pophale) SiO2 
 PCOD8308851
Probable space group: P -4 21 C
;
_chemical_formula_sum "Si O2"
_cell_formula_units_Z 32
_cell_length_a 7.682604
_cell_length_b 7.682604
_cell_length_c 24.149033
_cell_angle_alpha 90.000000
_cell_angle_beta 90.000000
_cell_angle_gamma 90.000000
_cell_volume 1425.333987
_symmetry_space_group_name_H-M "P -4 21 C"
_symmetry_group_IT_number 114
_symmetry_cell_setting 'tetragonal'
loop_
_space_group_symop_operation_xyz
x,y,z
y,-x,-z
-x,-y,z
-y,x,-z
1/2+x,1/2-y,1/2-z
1/2-x,1/2+y,1/2-z
1/2-y,1/2-x,1/2+z
1/2+y,1/2+x,1/2+z
loop_
_atom_site_type_symbol
_atom_site_label
_atom_site_fract_x
_atom_site_fract_y
_atom_site_fract_z
Si Si1 0.392238 0.739393 0.816786
Si Si2 0.500000 0.000000 0.505599
Si Si3 0.743948 0.877929 0.792374
Si Si4 0.264820 0.753115 0.431695
Si Si5 0.000000 0.000000 0.870560
O O1 0.600221 0.731234 0.806598
O O2 0.295056 0.619211 0.772153
O O3 0.349815 0.674498 0.879081
O O4 0.328765 0.934315 0.807593
O O5 0.353505 0.895441 0.471374
O O6 0.620798 0.871818 0.541268
O O7 0.914578 0.849547 0.831127
O O8 0.426415 0.643939 0.410663
#
# Coordination Sequence:
#
# PCOD8308851 Si02
#       5
#     8   4   8   8   4
#     4  10  21  37  60  92 129 165 206 262 323 389
#     4  12  26  46  68  96 128 174 230 278 324 382
#     4  10  20  36  61  93 126 162 207 255 322 403
#     4  11  24  43  66  93 128 172 221 277 328 382
#     4  10  20  41  66  88 122 175 214 258 330 408
#
# _framework density 22.450879
#
# number of rings (size 3 to 8) (size 9 to 14) (size 15 to 20)
#    0.000    1.500    0.000    7.500    0.000    4.500 
#    0.000    5.000    0.000    0.000    0.000    0.000 
#    0.000    0.000    0.000    0.000    0.000    0.000 
#
# Total GULP energy -396545.767366 kJ/mol
# GULP energy per Si atom -12392.055230 kJ/mol
# Density = 2.239978 g / cm^3
# Si number density = 22.450879 Si / 1000 Ang^3
#
#
#
# Elastic Constant Matrix: (Units=GPa)
#
#
# Indices 1 2 3 4 5 6 
#
# 1 84.0854 24.8268 56.9479 0.0000 0.0000 0.0000
# 2 24.8268 84.0854 56.9479 0.0000 0.0000 0.0000
# 3 56.9479 56.9479 172.4104 0.0000 0.0000 0.0000
# 4 0.0000 0.0000 0.0000 -1.9630 0.0000 0.0000
# 5 0.0000 0.0000 0.0000 0.0000 -1.9630 0.0000
# 6 0.0000 0.0000 0.0000 0.0000 0.0000 39.8663
#
#
#
# Elastic Compliance Matrix: (Units=1/GPa)
#
#
# Indices 1 2 3 4 5 6 
#
# 1 0.015451 -0.001424 -0.004633 0.000000 0.000000 0.000000
# 2 -0.001424 0.015451 -0.004633 0.000000 0.000000 0.000000
# 3 -0.004633 -0.004633 0.008861 0.000000 0.000000 0.000000
# 4 0.000000 0.000000 0.000000 -0.509427 0.000000 0.000000
# 5 0.000000 0.000000 0.000000 0.000000 -0.509427 0.000000
# 6 0.000000 0.000000 0.000000 0.000000 0.000000 0.025084
#
#
# Mechanical properties :
#
#
# Convention : Reuss Voigt Hill
#
# Bulk Modulus (GPa) = 54.40114 68.66962 61.53538
# Shear Modulus (GPa) = -5.39665 20.64530 7.62432
#
# Velocity S-wave (km/s) = -1.55209 3.03574 1.84482
# Velocity P-wave (km/s) = 4.59040 6.55291 5.65740
#
# Compressibility (1/GPa) = 0.01838197
#
# Stress axis : x y z
#
# Youngs Moduli (GPa) = 64.72061 64.72061 112.85660
#
# Poissons Ratio (x) = 0.09217 0.52288
# Poissons Ratio (y) = 0.09217 0.52288
# Poissons Ratio (z) = 0.29986 0.29986
#
# Static dielectric constant tensor:
#      x y z
#    x 4.386230 0.000000 0.000000 
#    y 0.000000 4.386230 0.000000 
#    z 0.000000 0.000000 4.487380 
# 
# 
# High freq. dielectric constant tensor:
#      x y z
#    x 1.883890 0.000000 0.000000 
#    y 0.000000 1.883890 0.000000 
#    z 0.000000 0.000000 1.896820 
# 
# From -- ./inp_files/2876.got.cif
#   From: 2010.03.12/outbox.cif.g09.slc.cpg/sg114_2_cif.got.tgz:2876.got - 2010.04.14 02:08:34.
