data_PCOD8308516
_publ_section_title
;
Structure prediction by ZEFSAII (Michael W. Deem and Ramdas Pophale) SiO2 
 PCOD8308516
Probable space group: P -4 2 C
;
_chemical_formula_sum "Si O2"
_cell_formula_units_Z 12
_cell_length_a 5.174541
_cell_length_b 5.174541
_cell_length_c 17.427504
_cell_angle_alpha 90.000000
_cell_angle_beta 90.000000
_cell_angle_gamma 90.000000
_cell_volume 466.636661
_symmetry_space_group_name_H-M "P -4 2 C"
_symmetry_group_IT_number 112
_symmetry_cell_setting 'tetragonal'
loop_
_space_group_symop_operation_xyz
x,y,z
y,-x,-z
-x,-y,z
-y,x,-z
x,-y,1/2-z
-x,y,1/2-z
-y,-x,1/2+z
y,x,1/2+z
loop_
_atom_site_type_symbol
_atom_site_label
_atom_site_fract_x
_atom_site_fract_y
_atom_site_fract_z
Si Si1 0.669281 0.745135 0.621916
Si Si2 0.000000 0.500000 0.750000
Si Si3 0.000000 0.000000 0.500000
O O1 0.500000 0.500000 0.598421
O O2 0.823050 0.688702 0.699771
O O3 0.500000 0.000000 0.635661
O O4 0.869306 0.782421 0.552618
#
# Coordination Sequence:
#
# PCOD8308516 Si02
#       3
#     8   2   2
#     4  12  31  53  87 123 175 232 294 371 445 533
#     4  12  30  58  84 132 172 228 306 362 450 534
#     4  12  32  50  80 128 172 226 304 360 448 530
#
# _framework density 25.715942999999999
#
# number of rings (size 3 to 8) (size 9 to 14) (size 15 to 20)
#    0.000    0.000    0.000    5.000   14.000   20.000 
#    0.000    0.000    0.000    0.000    0.000    0.000 
#    0.000    0.000    0.000    0.000    0.000    0.000 
#
# Total GULP energy -148931.361666 kJ/mol
# GULP energy per Si atom -12410.946805 kJ/mol
# Density = 2.565741 g / cm^3
# Si number density = 25.715943 Si / 1000 Ang^3
#
#
#
# Elastic Constant Matrix: (Units=GPa)
#
#
# Indices 1 2 3 4 5 6 
#
# 1 183.0617 90.9493 84.6370 0.0000 0.0000 0.0000
# 2 90.9493 183.0617 84.6370 0.0000 0.0000 0.0000
# 3 84.6370 84.6370 196.7742 0.0000 0.0000 0.0000
# 4 0.0000 0.0000 0.0000 20.0169 0.0000 0.0000
# 5 0.0000 0.0000 0.0000 0.0000 20.0169 0.0000
# 6 0.0000 0.0000 0.0000 0.0000 0.0000 54.8621
#
#
#
# Elastic Compliance Matrix: (Units=1/GPa)
#
#
# Indices 1 2 3 4 5 6 
#
# 1 0.007913 -0.002943 -0.002138 0.000000 0.000000 0.000000
# 2 -0.002943 0.007913 -0.002138 0.000000 0.000000 0.000000
# 3 -0.002138 -0.002138 0.006921 0.000000 0.000000 0.000000
# 4 0.000000 0.000000 0.000000 0.049958 0.000000 0.000000
# 5 0.000000 0.000000 0.000000 0.000000 0.049958 0.000000
# 6 0.000000 0.000000 0.000000 0.000000 0.000000 0.018228
#
#
# Mechanical properties :
#
#
# Convention : Reuss Voigt Hill
#
# Bulk Modulus (GPa) = 120.33459 120.37158 120.35309
# Shear Modulus (GPa) = 31.62605 39.15749 35.39177
#
# Velocity S-wave (km/s) = 3.51069 3.90640 3.71382
# Velocity P-wave (km/s) = 7.95793 8.20100 8.08038
#
# Compressibility (1/GPa) = 0.00831016
#
# Stress axis : x y z
#
# Youngs Moduli (GPa) = 126.37098 126.37098 144.48862
#
# Poissons Ratio (x) = 0.37192 0.30888
# Poissons Ratio (y) = 0.37192 0.30888
# Poissons Ratio (z) = 0.27015 0.27015
#
# Static dielectric constant tensor:
#      x y z
#    x 5.473760 0.000000 0.000000 
#    y 0.000000 5.473760 0.000000 
#    z 0.000000 0.000000 4.841650 
# 
# 
# High freq. dielectric constant tensor:
#      x y z
#    x 2.047480 0.000000 0.000000 
#    y 0.000000 2.047480 0.000000 
#    z 0.000000 0.000000 2.045940 
# 
# From -- ./inp_files/3514.got.cif
#   From: 2010.03.12/outbox.cif.g09.slc.cpg/sg112_2_cif.got.tgz:3514.got - 2010.04.14 02:02:48.
