data_PCOD8308343
_publ_section_title
;
Structure prediction by ZEFSAII (Michael W. Deem and Ramdas Pophale) SiO2 
 PCOD8308343
Probable space group: P -4 2 C
;
_chemical_formula_sum "Si O2"
_cell_formula_units_Z 48
_cell_length_a 9.190645
_cell_length_b 9.190645
_cell_length_c 31.182898
_cell_angle_alpha 90.000000
_cell_angle_beta 90.000000
_cell_angle_gamma 90.000000
_cell_volume 2633.955641
_symmetry_space_group_name_H-M "P -4 2 C"
_symmetry_group_IT_number 112
_symmetry_cell_setting 'tetragonal'
loop_
_space_group_symop_operation_xyz
x,y,z
y,-x,-z
-x,-y,z
-y,x,-z
x,-y,1/2-z
-x,y,1/2-z
-y,-x,1/2+z
y,x,1/2+z
loop_
_atom_site_type_symbol
_atom_site_label
_atom_site_fract_x
_atom_site_fract_y
_atom_site_fract_z
Si Si1 0.173008 0.162856 0.877785
Si Si2 0.671085 0.831487 0.462321
Si Si3 0.831487 0.328915 0.962321
Si Si4 0.173008 0.162856 0.622215
Si Si5 0.826933 0.336559 0.797297
Si Si6 0.663441 0.826933 0.297297
O O1 0.224044 0.257654 0.918197
O O2 0.238060 0.232432 0.834142
O O3 0.000000 0.160656 0.875341
O O4 0.235425 1.000000 0.882517
O O5 0.734392 0.734392 0.500000
O O6 0.500000 0.806884 0.458758
O O7 0.709611 1.000000 0.471147
O O8 0.775956 0.257654 0.918197
O O9 0.238060 0.232432 0.665858
O O10 0.777498 0.281325 0.750000
O O11 0.768970 0.500000 0.805069
O O12 1.000000 0.337066 0.799914
#
# Coordination Sequence:
#
# PCOD8308343 Si02
#       6
#     8   8   8   8   8   8
#     4   9  16  25  39  60  86 117 153 193 236 282
#     4  10  20  33  49  68  91 120 154 193 238 288
#     4  10  20  33  49  68  91 120 154 193 238 288
#     4   9  16  25  39  60  86 117 153 193 236 282
#     4   8  13  21  33  51  80 119 158 193 231 277
#     4   8  13  21  33  51  80 119 158 193 231 277
#
# _framework density 18.223542999999999
#
# number of rings (size 3 to 8) (size 9 to 14) (size 15 to 20)
#    0.000    3.000    0.000    3.000    0.000    6.667 
#    0.000    3.333    0.000    0.000    0.000    0.000 
#    0.000    1.333    0.000   14.000    0.000   19.333 
#
# Total GULP energy -594998.428741 kJ/mol
# GULP energy per Si atom -12395.800599 kJ/mol
# Density = 1.818207 g / cm^3
# Si number density = 18.223543 Si / 1000 Ang^3
#
#
#
# Elastic Constant Matrix: (Units=GPa)
#
#
# Indices 1 2 3 4 5 6 
#
# 1 70.1379 31.3406 62.2092 0.0000 0.0000 0.0000
# 2 31.3406 70.1379 62.2092 0.0000 0.0000 0.0000
# 3 62.2092 62.2092 186.9497 0.0000 0.0000 0.0000
# 4 0.0000 0.0000 0.0000 4.5394 0.0000 0.0000
# 5 0.0000 0.0000 0.0000 0.0000 4.5394 0.0000
# 6 0.0000 0.0000 0.0000 0.0000 0.0000 12.0820
#
#
#
# Elastic Compliance Matrix: (Units=1/GPa)
#
#
# Indices 1 2 3 4 5 6 
#
# 1 0.021210 -0.004565 -0.005539 0.000000 0.000000 0.000000
# 2 -0.004565 0.021210 -0.005539 0.000000 0.000000 0.000000
# 3 -0.005539 -0.005539 0.009035 0.000000 0.000000 0.000000
# 4 0.000000 0.000000 0.000000 0.220294 0.000000 0.000000
# 5 0.000000 0.000000 0.000000 0.000000 0.220294 0.000000
# 6 0.000000 0.000000 0.000000 0.000000 0.000000 0.082767
#
#
# Mechanical properties :
#
#
# Convention : Reuss Voigt Hill
#
# Bulk Modulus (GPa) = 49.57782 70.97154 60.27468
# Shear Modulus (GPa) = 8.15900 15.66326 11.91113
#
# Velocity S-wave (km/s) = 2.11823 2.93492 2.55936
# Velocity P-wave (km/s) = 5.76602 7.10735 6.47153
#
# Compressibility (1/GPa) = 0.02017031
#
# Stress axis : x y z
#
# Youngs Moduli (GPa) = 47.14728 47.14728 110.67768
#
# Poissons Ratio (x) = 0.21522 0.61303
# Poissons Ratio (y) = 0.21522 0.61303
# Poissons Ratio (z) = 0.26114 0.26114
#
# Static dielectric constant tensor:
#      x y z
#    x 3.085170 0.000000 0.000000 
#    y 0.000000 3.085170 0.000000 
#    z 0.000000 0.000000 3.716830 
# 
# 
# High freq. dielectric constant tensor:
#      x y z
#    x 1.666410 0.000000 0.000000 
#    y 0.000000 1.666410 0.000000 
#    z 0.000000 0.000000 1.727710 
# 
# From -- ./inp_files/6262.got.cif
#   From: 2010.03.12/outbox.cif.g09.slc.cpg/sg112_4_cif.got.tgz:6262.got - 2010.04.14 02:02:48.
