data_PCOD8308596
_publ_section_title
;
Structure prediction by ZEFSAII (Michael W. Deem and Ramdas Pophale) SiO2 
 PCOD8308596
Probable space group: P -4 21 M 
;
_chemical_formula_sum "Si O2"
_cell_formula_units_Z 40
_cell_length_a 15.560289
_cell_length_b 15.560289
_cell_length_c 10.086575
_cell_angle_alpha 90.000000
_cell_angle_beta 90.000000
_cell_angle_gamma 90.000000
_cell_volume 2442.187701
_symmetry_space_group_name_H-M "P -4 21 M "
_symmetry_group_IT_number 113
_symmetry_cell_setting 'tetragonal'
loop_
_space_group_symop_operation_xyz
x,y,z
y,-x,-z
-x,-y,z
-y,x,-z
1/2+x,1/2-y,-z
1/2-x,1/2+y,-z
1/2-y,1/2-x,z
1/2+y,1/2+x,z
loop_
_atom_site_type_symbol
_atom_site_label
_atom_site_fract_x
_atom_site_fract_y
_atom_site_fract_z
Si Si1 0.577020 0.619494 0.501024
Si Si2 0.439582 0.800340 0.183580
Si Si3 0.916207 0.278253 0.998502
Si Si4 0.889610 0.252432 0.713479
Si Si5 0.839957 0.199292 0.246028
O O1 0.617353 0.525506 0.507175
O O2 0.614665 0.665518 0.370906
O O3 0.603508 0.674355 0.628379
O O4 0.389068 0.889068 0.201609
O O5 0.514927 0.796104 0.295209
O O6 0.378395 0.719034 0.198657
O O7 0.483426 0.796261 0.036479
O O8 0.869156 0.369156 0.022283
O O9 0.906397 0.218813 0.127066
O O10 0.873030 0.230904 0.869512
O O11 0.819277 0.319277 0.657950
O O12 0.782084 0.282084 0.280625
#
# Coordination Sequence:
#
# PCOD8308596 Si02
#       5
#     8   8   8   8   8
#     4  11  21  34  50  74 107 142 179 217 262 315
#     4   9  17  32  55  79 101 135 177 213 257 315
#     4   8  17  31  49  75 101 131 168 213 262 305
#     4   9  18  34  53  77 103 134 178 219 261 307
#     4  10  19  34  54  75 106 139 173 216 267 317
#
# _framework density 16.378758000000001
#
# number of rings (size 3 to 8) (size 9 to 14) (size 15 to 20)
#    1.200    1.400    2.000    0.600    0.000    3.200 
#    0.000    0.000    0.000    2.400    0.000    2.800 
#    0.000    0.000    0.000    0.000    0.000    0.000 
#
# Total GULP energy -495588.315577 kJ/mol
# GULP energy per Si atom -12389.707889 kJ/mol
# Density = 1.634148 g / cm^3
# Si number density = 16.378758 Si / 1000 Ang^3
#
#
#
# Elastic Constant Matrix: (Units=GPa)
#
#
# Indices 1 2 3 4 5 6 
#
# 1 54.0747 22.8352 27.0749 0.0000 0.0000 0.0000
# 2 22.8352 54.0747 27.0749 0.0000 0.0000 0.0000
# 3 27.0749 27.0749 82.4404 0.0000 0.0000 0.0000
# 4 0.0000 0.0000 0.0000 29.6087 0.0000 0.0000
# 5 0.0000 0.0000 0.0000 0.0000 29.6087 0.0000
# 6 0.0000 0.0000 0.0000 0.0000 0.0000 20.1260
#
#
#
# Elastic Compliance Matrix: (Units=1/GPa)
#
#
# Indices 1 2 3 4 5 6 
#
# 1 0.024462 -0.007549 -0.005555 0.000000 0.000000 0.000000
# 2 -0.007549 0.024462 -0.005555 0.000000 0.000000 0.000000
# 3 -0.005555 -0.005555 0.015778 0.000000 0.000000 0.000000
# 4 0.000000 0.000000 0.000000 0.033774 0.000000 0.000000
# 5 0.000000 0.000000 0.000000 0.000000 0.033774 0.000000
# 6 0.000000 0.000000 0.000000 0.000000 0.000000 0.049687
#
#
# Mechanical properties :
#
#
# Convention : Reuss Voigt Hill
#
# Bulk Modulus (GPa) = 36.51465 38.28442 37.39953
# Shear Modulus (GPa) = 21.89317 23.44232 22.66774
#
# Velocity S-wave (km/s) = 3.66003 3.78731 3.72421
# Velocity P-wave (km/s) = 6.34062 6.52304 6.43248
#
# Compressibility (1/GPa) = 0.02738627
#
# Stress axis : x y z
#
# Youngs Moduli (GPa) = 40.87991 40.87991 63.37775
#
# Poissons Ratio (x) = 0.30860 0.35203
# Poissons Ratio (y) = 0.30860 0.35203
# Poissons Ratio (z) = 0.22707 0.22707
#
# Static dielectric constant tensor:
#      x y z
#    x 3.004470 0.000000 0.000000 
#    y 0.000000 3.004470 0.000000 
#    z 0.000000 0.000000 2.963430 
# 
# 
# High freq. dielectric constant tensor:
#      x y z
#    x 1.624650 0.000000 0.000000 
#    y 0.000000 1.624650 0.000000 
#    z 0.000000 0.000000 1.617780 
# 
# From -- ./inp_files/1029.got.cif
#   From: 2010.03.12/outbox.cif.g09.slc.cpg/sg113_cif.got.tgz:1029.got - 2010.04.14 02:06:34.
