data_PCOD8308873
_publ_section_title
;
Structure prediction by ZEFSAII (Michael W. Deem and Ramdas Pophale) SiO2 
 PCOD8308873
Probable space group: P -4 21 C
;
_chemical_formula_sum "Si O2"
_cell_formula_units_Z 48
_cell_length_a 8.497957
_cell_length_b 8.497957
_cell_length_c 31.924820
_cell_angle_alpha 90.000000
_cell_angle_beta 90.000000
_cell_angle_gamma 90.000000
_cell_volume 2305.459597
_symmetry_space_group_name_H-M "P -4 21 C"
_symmetry_group_IT_number 114
_symmetry_cell_setting 'tetragonal'
loop_
_space_group_symop_operation_xyz
x,y,z
y,-x,-z
-x,-y,z
-y,x,-z
1/2+x,1/2-y,1/2-z
1/2-x,1/2+y,1/2-z
1/2-y,1/2-x,1/2+z
1/2+y,1/2+x,1/2+z
loop_
_atom_site_type_symbol
_atom_site_label
_atom_site_fract_x
_atom_site_fract_y
_atom_site_fract_z
Si Si1 0.266304 0.589627 0.511494
Si Si2 0.000000 0.000000 0.139672
Si Si3 0.228779 0.179501 0.188919
Si Si4 0.396331 0.851950 0.738018
Si Si5 0.691075 0.244026 0.594097
Si Si6 0.500000 0.000000 0.543749
Si Si7 0.818517 0.038570 0.666044
O O1 0.404862 0.688418 0.489114
O O2 0.224761 0.649291 0.558508
O O3 0.109174 0.612082 0.484734
O O4 0.851259 0.053976 0.112943
O O5 0.064106 0.154724 0.164560
O O6 0.226089 0.328351 0.220056
O O7 0.378510 0.214638 0.158331
O O8 0.238772 0.011155 0.212298
O O9 0.500000 0.000000 0.751991
O O10 0.245588 0.892365 0.709644
O O11 0.616119 0.094666 0.572711
O O12 0.804009 0.170481 0.629593
O O13 0.000000 0.000000 0.670994
#
# Coordination Sequence:
#
# PCOD8308873 Si02
#       7
#     8   4   8   8   8   4   8
#     4   9  19  39  66  96 119 160 207 257 316 391
#     4  12  24  38  67 100 126 168 216 268 321 380
#     4  11  24  40  66  93 130 176 220 269 322 387
#     4  10  23  40  65  93 125 174 226 267 321 380
#     4  11  22  41  64  97 127 163 211 267 319 386
#     4  10  20  40  70  90 126 164 204 262 322 394
#     4  11  24  43  61  91 135 174 210 271 329 375
#
# _framework density 20.820146000000001
#
# number of rings (size 3 to 8) (size 9 to 14) (size 15 to 20)
#    0.000    1.500    1.667    4.000    7.000    1.333 
#    9.000    0.000    0.000    0.000    0.000    0.000 
#    0.000    0.000    0.000    0.000    0.000    0.000 
#
# Total GULP energy -594960.393433 kJ/mol
# GULP energy per Si atom -12395.008197 kJ/mol
# Density = 2.077276 g / cm^3
# Si number density = 20.820146 Si / 1000 Ang^3
#
#
#
# Elastic Constant Matrix: (Units=GPa)
#
#
# Indices 1 2 3 4 5 6 
#
# 1 110.1399 32.0593 47.1507 0.0000 0.0000 0.0000
# 2 32.0593 110.1399 47.1507 0.0000 0.0000 0.0000
# 3 47.1507 47.1507 89.0808 0.0000 0.0000 0.0000
# 4 0.0000 0.0000 0.0000 29.1254 0.0000 0.0000
# 5 0.0000 0.0000 0.0000 0.0000 29.1254 0.0000
# 6 0.0000 0.0000 0.0000 0.0000 0.0000 26.7471
#
#
#
# Elastic Compliance Matrix: (Units=1/GPa)
#
#
# Indices 1 2 3 4 5 6 
#
# 1 0.011822 -0.000986 -0.005736 0.000000 0.000000 0.000000
# 2 -0.000986 0.011822 -0.005736 0.000000 0.000000 0.000000
# 3 -0.005736 -0.005736 0.017297 0.000000 0.000000 0.000000
# 4 0.000000 0.000000 0.000000 0.034334 0.000000 0.000000
# 5 0.000000 0.000000 0.000000 0.000000 0.034334 0.000000
# 6 0.000000 0.000000 0.000000 0.000000 0.000000 0.037387
#
#
# Mechanical properties :
#
#
# Convention : Reuss Voigt Hill
#
# Bulk Modulus (GPa) = 62.39350 62.45356 62.42353
# Shear Modulus (GPa) = 28.20836 29.19955 28.70396
#
# Velocity S-wave (km/s) = 3.68483 3.74901 3.71706
# Velocity P-wave (km/s) = 6.93808 6.98584 6.96200
#
# Compressibility (1/GPa) = 0.01602731
#
# Stress axis : x y z
#
# Youngs Moduli (GPa) = 84.59072 84.59072 57.81210
#
# Poissons Ratio (x) = 0.08338 0.33158
# Poissons Ratio (y) = 0.08338 0.33158
# Poissons Ratio (z) = 0.48517 0.48517
#
# Static dielectric constant tensor:
#      x y z
#    x 3.789820 0.000000 0.000000 
#    y 0.000000 3.789820 0.000000 
#    z 0.000000 0.000000 3.909500 
# 
# 
# High freq. dielectric constant tensor:
#      x y z
#    x 1.812350 0.000000 0.000000 
#    y 0.000000 1.812350 0.000000 
#    z 0.000000 0.000000 1.812630 
# 
# From -- ./inp_files/4023.got.cif
#   From: 2010.03.12/outbox.cif.g09.slc.cpg/sg114_3_cif.got.tgz:4023.got - 2010.04.14 02:08:34.
