data_PCOD8308955
_publ_section_title
;
Structure prediction by ZEFSAII (Michael W. Deem and Ramdas Pophale) SiO2 
 PCOD8308955
Probable space group: P -4 21 C
;
_chemical_formula_sum "Si O2"
_cell_formula_units_Z 40
_cell_length_a 11.475237
_cell_length_b 11.475237
_cell_length_c 15.083040
_cell_angle_alpha 90.000000
_cell_angle_beta 90.000000
_cell_angle_gamma 90.000000
_cell_volume 1986.150759
_symmetry_space_group_name_H-M "P -4 21 C"
_symmetry_group_IT_number 114
_symmetry_cell_setting 'tetragonal'
loop_
_space_group_symop_operation_xyz
x,y,z
y,-x,-z
-x,-y,z
-y,x,-z
1/2+x,1/2-y,1/2-z
1/2-x,1/2+y,1/2-z
1/2-y,1/2-x,1/2+z
1/2+y,1/2+x,1/2+z
loop_
_atom_site_type_symbol
_atom_site_label
_atom_site_fract_x
_atom_site_fract_y
_atom_site_fract_z
Si Si1 0.919980 0.258088 0.325084
Si Si2 0.810300 0.483489 0.260695
Si Si3 0.673648 0.177860 0.384695
Si Si4 0.589350 0.100012 0.071013
Si Si5 0.062972 0.107914 0.201076
O O1 0.897856 0.372661 0.263160
O O2 0.804993 0.222592 0.377846
O O3 0.019838 0.287989 0.395006
O O4 0.965159 0.147584 0.271246
O O5 0.845786 0.565603 0.178257
O O6 0.821637 0.555093 0.353042
O O7 0.679948 0.435216 0.249858
O O8 0.643805 0.157361 0.486039
O O9 0.587135 0.282874 0.361025
O O10 0.500000 0.000000 0.042229
O O11 0.000000 0.000000 0.149913
#
# Coordination Sequence:
#
# PCOD8308955 Si02
#       5
#     8   8   8   8   8
#     4  10  22  42  64  96 131 162 226 272 308 395
#     4  10  22  42  64  95 128 164 220 269 315 392
#     4  11  23  41  69  93 126 179 207 265 341 374
#     4  10  23  42  64  96 128 165 220 268 317 395
#     4  11  22  41  65  93 129 167 212 267 322 379
#
# _framework density 20.139458999999999
#
# number of rings (size 3 to 8) (size 9 to 14) (size 15 to 20)
#    0.000    1.600    4.000    0.000    2.800    1.600 
#   10.800    0.000    0.000    0.000    0.000    0.000 
#    0.000    0.000    0.000    0.000    0.000    0.000 
#
# Total GULP energy -495910.518562 kJ/mol
# GULP energy per Si atom -12397.762964 kJ/mol
# Density = 2.009362 g / cm^3
# Si number density = 20.139459 Si / 1000 Ang^3
#
#
#
# Elastic Constant Matrix: (Units=GPa)
#
#
# Indices 1 2 3 4 5 6 
#
# 1 80.2676 37.8675 32.3932 0.0000 0.0000 0.0000
# 2 37.8675 80.2676 32.3932 0.0000 0.0000 0.0000
# 3 32.3932 32.3932 76.6779 0.0000 0.0000 0.0000
# 4 0.0000 0.0000 0.0000 23.9854 0.0000 0.0000
# 5 0.0000 0.0000 0.0000 0.0000 23.9854 0.0000
# 6 0.0000 0.0000 0.0000 0.0000 0.0000 40.9828
#
#
#
# Elastic Compliance Matrix: (Units=1/GPa)
#
#
# Indices 1 2 3 4 5 6 
#
# 1 0.017301 -0.006284 -0.004654 0.000000 0.000000 0.000000
# 2 -0.006284 0.017301 -0.004654 0.000000 0.000000 0.000000
# 3 -0.004654 -0.004654 0.016974 0.000000 0.000000 0.000000
# 4 0.000000 0.000000 0.000000 0.041692 0.000000 0.000000
# 5 0.000000 0.000000 0.000000 0.000000 0.041692 0.000000
# 6 0.000000 0.000000 0.000000 0.000000 0.000000 0.024401
#
#
# Mechanical properties :
#
#
# Convention : Reuss Voigt Hill
#
# Bulk Modulus (GPa) = 49.04038 49.16903 49.10470
# Shear Modulus (GPa) = 25.33660 26.76134 26.04897
#
# Velocity S-wave (km/s) = 3.55076 3.64923 3.60033
# Velocity P-wave (km/s) = 6.41980 6.49793 6.45898
#
# Compressibility (1/GPa) = 0.02039136
#
# Stress axis : x y z
#
# Youngs Moduli (GPa) = 57.79969 57.79969 58.91315
#
# Poissons Ratio (x) = 0.36320 0.27420
# Poissons Ratio (y) = 0.36320 0.27420
# Poissons Ratio (z) = 0.26902 0.26902
#
# Static dielectric constant tensor:
#      x y z
#    x 3.866860 0.000000 0.000000 
#    y 0.000000 3.866860 0.000000 
#    z 0.000000 0.000000 3.259130 
# 
# 
# High freq. dielectric constant tensor:
#      x y z
#    x 1.804510 0.000000 0.000000 
#    y 0.000000 1.804510 0.000000 
#    z 0.000000 0.000000 1.748940 
# 
# From -- ./inp_files/2101.got.cif
#   From: 2010.03.12/outbox.cif.g09.slc.cpg/sg114_2_cif.got.tgz:2101.got - 2010.04.14 02:08:34.
