data_PCOD8308397
_publ_section_title
;
Structure prediction by ZEFSAII (Michael W. Deem and Ramdas Pophale) SiO2 
 PCOD8308397
Probable space group: P -4 2 C
;
_chemical_formula_sum "Si O2"
_cell_formula_units_Z 40
_cell_length_a 12.556183
_cell_length_b 12.556183
_cell_length_c 12.919453
_cell_angle_alpha 90.000000
_cell_angle_beta 90.000000
_cell_angle_gamma 90.000000
_cell_volume 2036.851653
_symmetry_space_group_name_H-M "P -4 2 C"
_symmetry_group_IT_number 112
_symmetry_cell_setting 'tetragonal'
loop_
_space_group_symop_operation_xyz
x,y,z
y,-x,-z
-x,-y,z
-y,x,-z
x,-y,1/2-z
-x,y,1/2-z
-y,-x,1/2+z
y,x,1/2+z
loop_
_atom_site_type_symbol
_atom_site_label
_atom_site_fract_x
_atom_site_fract_y
_atom_site_fract_z
Si Si1 0.754419 0.994150 0.555626
Si Si2 0.046733 0.891144 0.863727
Si Si3 0.188357 0.360614 0.353671
Si Si4 0.372714 0.387268 0.988255
Si Si5 0.828079 0.601399 0.116736
O O1 0.731753 0.112515 0.599757
O O2 0.008955 0.202352 0.560469
O O3 0.827601 0.918846 0.630865
O O4 0.646404 0.926756 0.550667
O O5 0.000000 0.864673 0.750000
O O6 0.000000 0.000000 0.908333
O O7 0.312122 0.348566 0.388884
O O8 0.175315 0.353432 0.231944
O O9 0.151069 0.476114 0.391382
O O10 0.364442 0.512337 0.958468
O O11 0.284693 0.360391 0.072876
#
# Coordination Sequence:
#
# PCOD8308397 Si02
#       5
#     8   8   8   8   8
#     4  12  21  39  59  82 116 152 187 236 283 338
#     4  11  25  39  55  84 113 144 194 233 281 335
#     4  10  22  37  56  88 115 149 192 232 287 346
#     4   9  19  37  59  83 113 147 190 242 288 337
#     4  10  22  36  59  86 114 150 191 234 287 344
#
# _framework density 19.638152000000002
#
# number of rings (size 3 to 8) (size 9 to 14) (size 15 to 20)
#    0.000    1.600    2.000    2.400    5.600    2.400 
#    0.000    4.000    0.000    4.800    0.000    0.000 
#    0.000    0.000    0.000    0.000    0.000    0.000 
#
# Total GULP energy -495659.974618 kJ/mol
# GULP energy per Si atom -12391.499365 kJ/mol
# Density = 1.959345 g / cm^3
# Si number density = 19.638152 Si / 1000 Ang^3
#
#
#
# Elastic Constant Matrix: (Units=GPa)
#
#
# Indices 1 2 3 4 5 6 
#
# 1 78.4633 33.6615 38.5386 0.0000 0.0000 0.0000
# 2 33.6615 78.4633 38.5386 0.0000 0.0000 0.0000
# 3 38.5386 38.5386 92.5177 0.0000 0.0000 0.0000
# 4 0.0000 0.0000 0.0000 -1.3063 0.0000 0.0000
# 5 0.0000 0.0000 0.0000 0.0000 -1.3063 0.0000
# 6 0.0000 0.0000 0.0000 0.0000 0.0000 36.9160
#
#
#
# Elastic Compliance Matrix: (Units=1/GPa)
#
#
# Indices 1 2 3 4 5 6 
#
# 1 0.017409 -0.004912 -0.005206 0.000000 0.000000 0.000000
# 2 -0.004912 0.017409 -0.005206 0.000000 0.000000 0.000000
# 3 -0.005206 -0.005206 0.015146 0.000000 0.000000 0.000000
# 4 0.000000 0.000000 0.000000 -0.765548 0.000000 0.000000
# 5 0.000000 0.000000 0.000000 0.000000 -0.765548 0.000000
# 6 0.000000 0.000000 0.000000 0.000000 0.000000 0.027088
#
#
# Mechanical properties :
#
#
# Convention : Reuss Voigt Hill
#
# Bulk Modulus (GPa) = 51.76768 52.32462 52.04615
# Shear Modulus (GPa) = -3.52869 16.10775 6.28953
#
# Velocity S-wave (km/s) = -1.34192 2.86707 1.79155
# Velocity P-wave (km/s) = 4.90071 6.13696 5.55335
#
# Compressibility (1/GPa) = 0.01931707
#
# Stress axis : x y z
#
# Youngs Moduli (GPa) = 57.44202 57.44202 66.02535
#
# Poissons Ratio (x) = 0.28214 0.34371
# Poissons Ratio (y) = 0.28214 0.34371
# Poissons Ratio (z) = 0.29903 0.29903
#
# Static dielectric constant tensor:
#      x y z
#    x 5.558010 0.000000 0.000000 
#    y 0.000000 5.558010 0.000000 
#    z 0.000000 0.000000 3.342070 
# 
# 
# High freq. dielectric constant tensor:
#      x y z
#    x 1.773850 0.000000 0.000000 
#    y 0.000000 1.773850 0.000000 
#    z 0.000000 0.000000 1.745990 
# 
# From -- ./inp_files/3302.got.cif
#   From: 2010.03.12/outbox.cif.g09.slc.cpg/sg112_2_cif.got.tgz:3302.got - 2010.04.14 02:02:48.
