data_PCOD8308276
_publ_section_title
;
Structure prediction by ZEFSAII (Michael W. Deem and Ramdas Pophale) SiO2 
 PCOD8308276
Probable space group: P -4 2 M 
;
_chemical_formula_sum "Si O2"
_cell_formula_units_Z 56
_cell_length_a 11.680576
_cell_length_b 11.680576
_cell_length_c 25.630794
_cell_angle_alpha 90.000000
_cell_angle_beta 90.000000
_cell_angle_gamma 90.000000
_cell_volume 3496.959311
_symmetry_space_group_name_H-M "P -4 2 M "
_symmetry_group_IT_number 111
_symmetry_cell_setting 'tetragonal'
loop_
_space_group_symop_operation_xyz
x,y,z
y,-x,-z
-x,-y,z
-y,x,-z
x,-y,-z
-x,y,-z
-y,-x,z
y,x,z
loop_
_atom_site_type_symbol
_atom_site_label
_atom_site_fract_x
_atom_site_fract_y
_atom_site_fract_z
Si Si1 0.000001 0.191704 0.819104
Si Si2 0.369290 0.815710 0.638811
Si Si3 0.999995 0.368370 0.086643
Si Si4 0.999997 0.371184 0.273540
Si Si5 0.363476 0.000002 0.558456
Si Si6 0.816467 0.629484 0.999998
Si Si7 0.369294 0.815705 0.361190
O O1 0.886833 0.113168 0.819755
O O2 0.999989 0.276364 0.867825
O O3 0.000008 0.271554 0.768661
O O4 0.113171 0.113171 0.819762
O O5 0.300354 0.699647 0.644576
O O6 0.355822 0.887868 0.691440
O O7 0.499997 0.780923 0.629337
O O8 0.321441 0.887649 0.589429
O O9 0.000000 0.500000 0.107449
O O10 0.888883 0.345401 0.051737
O O11 0.111082 0.345402 0.051722
O O12 0.000000 0.500000 0.248919
O O13 0.887864 0.355826 0.308561
O O14 0.321444 0.112357 0.589427
O O15 0.500000 0.000000 0.558358
O O16 0.312567 0.000000 0.500000
O O17 0.704935 0.704935 0.000008
O O18 0.773615 0.500000 0.000000
O O19 0.300361 0.699640 0.355426
#
# Coordination Sequence:
#
# PCOD8308276 Si02
#       7
#     8   8   8   8   8   8   8
#     4  11  21  30  45  70  94 114 143 188 233 263
#     4   9  17  29  46  67  89 114 144 179 220 262
#     4   9  18  32  48  65  89 123 154 178 214 268
#     4   9  18  33  49  63  85 119 154 181 210 260
#     4   8  15  28  44  61  83 115 150 175 201 249
#     4   9  17  30  48  68  91 119 150 184 220 259
#     4   9  17  29  46  67  89 114 144 179 220 262
#
# _framework density 16.013912999999999
#
# number of rings (size 3 to 8) (size 9 to 14) (size 15 to 20)
#    0.000    2.857    0.000    4.714    0.000    1.000 
#    0.000    0.000    0.000    7.286    0.000    8.000 
#    0.000   20.571    0.000    0.000    0.000    0.000 
#
# Total GULP energy -694162.805849 kJ/mol
# GULP energy per Si atom -12395.764390 kJ/mol
# Density = 1.597746 g / cm^3
# Si number density = 16.013913 Si / 1000 Ang^3
#
#
#
# Elastic Constant Matrix: (Units=GPa)
#
#
# Indices 1 2 3 4 5 6 
#
# 1 110.3376 71.6448 55.7391 0.0000 0.0000 0.0000
# 2 71.6448 110.3395 55.7389 0.0000 0.0000 0.0000
# 3 55.7391 55.7389 106.4135 0.0000 0.0000 0.0000
# 4 0.0000 0.0000 0.0000 12.8603 0.0000 0.0000
# 5 0.0000 0.0000 0.0000 0.0000 12.8622 0.0000
# 6 0.0000 0.0000 0.0000 0.0000 0.0000 30.6701
#
#
#
# Elastic Compliance Matrix: (Units=1/GPa)
#
#
# Indices 1 2 3 4 5 6 
#
# 1 0.016968 -0.008876 -0.004238 0.000000 0.000000 0.000000
# 2 -0.008876 0.016967 -0.004238 0.000000 0.000000 0.000000
# 3 -0.004238 -0.004238 0.013837 0.000000 0.000000 0.000000
# 4 0.000000 0.000000 0.000000 0.077759 0.000000 0.000000
# 5 0.000000 0.000000 0.000000 0.000000 0.077747 0.000000
# 6 0.000000 0.000000 0.000000 0.000000 0.000000 0.032605
#
#
# Mechanical properties :
#
#
# Convention : Reuss Voigt Hill
#
# Bulk Modulus (GPa) = 76.52885 77.03737 76.78311
# Shear Modulus (GPa) = 18.18552 20.87637 19.53094
#
# Velocity S-wave (km/s) = 3.37353 3.61451 3.49610
# Velocity P-wave (km/s) = 7.94147 8.10127 8.02177
#
# Compressibility (1/GPa) = 0.01306697
#
# Stress axis : x y z
#
# Youngs Moduli (GPa) = 58.93514 58.93677 72.26928
#
# Poissons Ratio (x) = 0.52315 0.30630
# Poissons Ratio (y) = 0.52313 0.30628
# Poissons Ratio (z) = 0.24978 0.24977
#
# Static dielectric constant tensor:
#      x y z
#    x 2.921910 0.000000 0.000000 
#    y 0.000000 2.921910 0.000000 
#    z 0.000000 0.000000 3.087980 
# 
# 
# High freq. dielectric constant tensor:
#      x y z
#    x 1.610100 0.000000 0.000000 
#    y 0.000000 1.610100 0.000000 
#    z 0.000000 0.000000 1.617570 
# 
# From -- ./inp_files/4167.got.cif
#   From: 2010.03.12/outbox.cif.g09.slc.cpg/sg111_3_cif.got.tgz:4167.got - 2010.04.14 01:59:48.
