data_PCOD8308403
_publ_section_title
;
Structure prediction by ZEFSAII (Michael W. Deem and Ramdas Pophale) SiO2 
 PCOD8308403
Probable space group: P -4 2 C
;
_chemical_formula_sum "Si O2"
_cell_formula_units_Z 34
_cell_length_a 11.812605
_cell_length_b 11.812605
_cell_length_c 10.936495
_cell_angle_alpha 90.000000
_cell_angle_beta 90.000000
_cell_angle_gamma 90.000000
_cell_volume 1526.052668
_symmetry_space_group_name_H-M "P -4 2 C"
_symmetry_group_IT_number 112
_symmetry_cell_setting 'tetragonal'
loop_
_space_group_symop_operation_xyz
x,y,z
y,-x,-z
-x,-y,z
-y,x,-z
x,-y,1/2-z
-x,y,1/2-z
-y,-x,1/2+z
y,x,1/2+z
loop_
_atom_site_type_symbol
_atom_site_label
_atom_site_fract_x
_atom_site_fract_y
_atom_site_fract_z
Si Si1 0.320679 0.117552 0.812640
Si Si2 0.500000 0.000000 0.250000
Si Si3 0.756071 0.665831 0.084283
Si Si4 0.444689 0.177658 0.050350
Si Si5 0.881417 0.868815 0.975576
O O1 0.368969 0.217128 0.724325
O O2 0.188427 0.136131 0.848226
O O3 0.342640 0.000000 0.750000
O O4 0.394287 0.114031 0.934489
O O5 0.432789 0.087054 0.161275
O O6 0.626970 0.708731 0.077981
O O7 0.779718 0.571181 0.980954
O O8 0.843375 0.768205 0.063447
O O9 0.014716 0.856439 0.950520
#
# Coordination Sequence:
#
# PCOD8308403 Si02
#       5
#     8   2   8   8   8
#     4  11  22  44  73 103 143 190 244 299 362 448
#     4  12  28  48  74 106 150 188 240 318 362 450
#     4  11  25  46  70 106 141 193 245 303 358 443
#     4  11  28  45  75 105 144 193 245 300 376 430
#     4  10  22  40  63 103 145 183 231 294 376 433
#
# _framework density 22.279703000000001
#
# number of rings (size 3 to 8) (size 9 to 14) (size 15 to 20)
#    0.000    1.176    2.353    2.118    9.882    2.353 
#    0.000    0.000    0.000    0.000    0.000    0.000 
#    0.000    0.000    0.000    0.000    0.000    0.000 
#
# Total GULP energy -421442.023429 kJ/mol
# GULP energy per Si atom -12395.353630 kJ/mol
# Density = 2.222899 g / cm^3
# Si number density = 22.279703 Si / 1000 Ang^3
#
#
#
# Elastic Constant Matrix: (Units=GPa)
#
#
# Indices 1 2 3 4 5 6 
#
# 1 130.7133 47.2593 50.7344 0.0000 0.0000 0.0000
# 2 47.2593 130.7133 50.7344 0.0000 0.0000 0.0000
# 3 50.7344 50.7344 146.0694 0.0000 0.0000 0.0000
# 4 0.0000 0.0000 0.0000 36.9580 0.0000 0.0000
# 5 0.0000 0.0000 0.0000 0.0000 36.9580 0.0000
# 6 0.0000 0.0000 0.0000 0.0000 0.0000 22.1770
#
#
#
# Elastic Compliance Matrix: (Units=1/GPa)
#
#
# Indices 1 2 3 4 5 6 
#
# 1 0.009494 -0.002488 -0.002433 0.000000 0.000000 0.000000
# 2 -0.002488 0.009494 -0.002433 0.000000 0.000000 0.000000
# 3 -0.002433 -0.002433 0.008537 0.000000 0.000000 0.000000
# 4 0.000000 0.000000 0.000000 0.027058 0.000000 0.000000
# 5 0.000000 0.000000 0.000000 0.000000 0.027058 0.000000
# 6 0.000000 0.000000 0.000000 0.000000 0.000000 0.045092
#
#
# Mechanical properties :
#
#
# Convention : Reuss Voigt Hill
#
# Bulk Modulus (GPa) = 78.03307 78.32802 78.18054
# Shear Modulus (GPa) = 34.31365 36.46981 35.39173
#
# Velocity S-wave (km/s) = 3.92871 4.05026 3.98995
# Velocity P-wave (km/s) = 7.46190 7.55684 7.50952
#
# Compressibility (1/GPa) = 0.01281508
#
# Stress axis : x y z
#
# Youngs Moduli (GPa) = 105.32460 105.32460 117.14391
#
# Poissons Ratio (x) = 0.26207 0.28507
# Poissons Ratio (y) = 0.26207 0.28507
# Poissons Ratio (z) = 0.25631 0.25631
#
# Static dielectric constant tensor:
#      x y z
#    x 4.102070 0.000000 0.000000 
#    y 0.000000 4.102070 0.000000 
#    z 0.000000 0.000000 4.333040 
# 
# 
# High freq. dielectric constant tensor:
#      x y z
#    x 1.875100 0.000000 0.000000 
#    y 0.000000 1.875100 0.000000 
#    z 0.000000 0.000000 1.880520 
# 
# From -- ./inp_files/2329.got.cif
#   From: 2010.03.12/outbox.cif.g09.slc.cpg/sg112_2_cif.got.tgz:2329.got - 2010.04.14 02:02:48.
