data_PCOD8308263
_publ_section_title
;
Structure prediction by ZEFSAII (Michael W. Deem and Ramdas Pophale) SiO2 
 PCOD8308263
Probable space group: P -4 2 M 
;
_chemical_formula_sum "Si O2"
_cell_formula_units_Z 41
_cell_length_a 13.927597
_cell_length_b 13.927597
_cell_length_c 8.953519
_cell_angle_alpha 90.000000
_cell_angle_beta 90.000000
_cell_angle_gamma 90.000000
_cell_volume 1736.785334
_symmetry_space_group_name_H-M "P -4 2 M "
_symmetry_group_IT_number 111
_symmetry_cell_setting 'tetragonal'
loop_
_space_group_symop_operation_xyz
x,y,z
y,-x,-z
-x,-y,z
-y,x,-z
x,-y,-z
-x,y,-z
-y,-x,z
y,x,z
loop_
_atom_site_type_symbol
_atom_site_label
_atom_site_fract_x
_atom_site_fract_y
_atom_site_fract_z
Si Si1 0.591720 0.133863 0.605388
Si Si2 0.000000 0.000000 0.000000
Si Si3 0.192943 0.807058 0.187730
Si Si4 0.144997 0.855004 0.861722
Si Si5 0.426903 0.573098 0.330992
Si Si6 0.286119 0.443445 0.146577
Si Si7 0.995640 0.747858 0.335369
Si Si8 0.713754 0.713754 0.558057
O O1 0.500000 0.127310 0.500000
O O2 0.571629 0.190573 0.757440
O O3 0.632925 0.026307 0.642001
O O4 0.677680 0.187912 0.515755
O O5 0.934668 0.934668 0.103472
O O6 0.267230 0.732771 0.264189
O O7 0.087745 0.776072 0.240668
O O8 0.193676 0.806325 0.008129
O O9 0.225082 0.902861 0.760780
O O10 0.500000 0.500000 0.412117
O O11 0.354742 0.515710 0.230077
O O12 0.368387 0.631614 0.459246
O O13 0.342585 0.342585 0.116309
O O14 0.252525 0.500000 0.000000
O O15 0.000000 0.797585 0.500000
#
# Coordination Sequence:
#
# PCOD8308263 Si02
#       8
#     8   1   4   4   4   8   8   4
#     4  12  26  45  69 109 153 203 260 314 390 470
#     4  12  20  40  74 116 156 180 242 336 400 452
#     4  12  25  48  76 110 149 190 256 319 388 476
#     4  12  24  46  79 117 150 197 249 325 396 463
#     4  10  22  38  61  98 141 183 245 312 379 425
#     4  11  22  39  66 103 152 200 256 323 381 453
#     4  12  25  47  76 109 151 198 254 309 390 469
#     4  12  23  45  69 105 144 197 255 311 372 452
#
# _framework density 23.606832000000001
#
# number of rings (size 3 to 8) (size 9 to 14) (size 15 to 20)
#    0.000    0.390    7.805    1.171    0.000    1.951 
#    1.756    0.976    0.000    0.000    0.000    0.000 
#    0.000    0.000    0.000    0.000    0.000    0.000 
#
# Total GULP energy -508153.984851 kJ/mol
# GULP energy per Si atom -12393.999631 kJ/mol
# Density = 2.355310 g / cm^3
# Si number density = 23.606832 Si / 1000 Ang^3
#
#
#
# Elastic Constant Matrix: (Units=GPa)
#
#
# Indices 1 2 3 4 5 6 
#
# 1 78.3767 63.4393 38.3787 0.0000 0.0000 0.0000
# 2 63.4393 78.3770 38.3781 0.0000 0.0000 0.0000
# 3 38.3787 38.3781 172.2935 0.0000 0.0000 0.0000
# 4 0.0000 0.0000 0.0000 -40.8871 0.0000 0.0000
# 5 0.0000 0.0000 0.0000 0.0000 -40.6307 0.0000
# 6 0.0000 0.0000 0.0000 0.0000 0.0000 58.7456
#
#
#
# Elastic Compliance Matrix: (Units=1/GPa)
#
#
# Indices 1 2 3 4 5 6 
#
# 1 0.037482 -0.029464 -0.001786 0.000000 0.000000 0.000000
# 2 -0.029464 0.037482 -0.001786 0.000000 0.000000 0.000000
# 3 -0.001786 -0.001786 0.006600 0.000000 0.000000 0.000000
# 4 0.000000 0.000000 0.000000 -0.024458 0.000000 0.000000
# 5 0.000000 0.000000 0.000000 0.000000 -0.024612 0.000000
# 6 0.000000 0.000000 0.000000 0.000000 0.000000 0.017023
#
#
# Mechanical properties :
#
#
# Convention : Reuss Voigt Hill
#
# Bulk Modulus (GPa) = 64.55052 67.71548 66.13300
# Shear Modulus (GPa) = 41.40741 8.03567 24.72154
#
# Velocity S-wave (km/s) = 4.19267 1.84698 3.23959
# Velocity P-wave (km/s) = 7.13031 5.77022 6.48602
#
# Compressibility (1/GPa) = 0.01549174
#
# Stress axis : x y z
#
# Youngs Moduli (GPa) = 26.67960 26.67979 151.52156
#
# Poissons Ratio (x) = 0.78608 0.27064
# Poissons Ratio (y) = 0.78608 0.27060
# Poissons Ratio (z) = 0.04765 0.04765
#
# Static dielectric constant tensor:
#      x y z
#    x 5.229280 0.000000 0.000000 
#    y 0.000000 5.227870 0.000000 
#    z 0.000000 0.000000 4.511320 
# 
# 
# High freq. dielectric constant tensor:
#      x y z
#    x 1.936510 0.000000 0.000000 
#    y 0.000000 1.936510 0.000000 
#    z 0.000000 0.000000 1.948840 
# 
# From -- ./inp_files/1637.got.cif
#   From: 2010.03.12/outbox.cif.g09.slc.cpg/sg111_1_cif.got.tgz:1637.got - 2010.04.14 01:59:48.
