data_PCOD8308226
_publ_section_title
;
Structure prediction by ZEFSAII (Michael W. Deem and Ramdas Pophale) SiO2 
 PCOD8308226
Probable space group: P -4 2 M 
;
_chemical_formula_sum "Si O2"
_cell_formula_units_Z 64
_cell_length_a 12.751044
_cell_length_b 12.751044
_cell_length_c 21.506631
_cell_angle_alpha 90.000000
_cell_angle_beta 90.000000
_cell_angle_gamma 90.000000
_cell_volume 3496.744275
_symmetry_space_group_name_H-M "P -4 2 M "
_symmetry_group_IT_number 111
_symmetry_cell_setting 'tetragonal'
loop_
_space_group_symop_operation_xyz
x,y,z
y,-x,-z
-x,-y,z
-y,x,-z
x,-y,-z
-x,y,-z
-y,-x,z
y,x,z
loop_
_atom_site_type_symbol
_atom_site_label
_atom_site_fract_x
_atom_site_fract_y
_atom_site_fract_z
Si Si1 0.081283 0.253020 0.952834
Si Si2 0.121421 0.713367 0.735448
Si Si3 0.500239 0.330160 0.426593
Si Si4 0.234855 0.069492 0.816349
Si Si5 0.881550 0.518212 0.349081
Si Si6 0.388859 0.224188 0.756767
Si Si7 0.247194 0.586809 0.834741
Si Si8 0.219854 0.604917 0.971774
O O1 0.181103 0.181103 0.941025
O O2 0.026140 0.266721 0.885151
O O3 0.118462 0.360396 0.987334
O O4 0.000000 0.197769 0.000000
O O5 0.191715 0.808286 0.710474
O O6 0.110657 0.635089 0.677811
O O7 0.171580 0.656559 0.793686
O O8 0.013623 0.761063 0.760743
O O9 0.500000 0.316796 0.500000
O O10 0.606729 0.393272 0.406504
O O11 0.399569 0.399569 0.405091
O O12 0.492095 0.212743 0.398860
O O13 0.117370 0.117370 0.816041
O O14 0.318634 0.158734 0.803191
O O15 0.853291 0.434047 0.295903
O O16 0.000000 0.500000 0.376532
O O17 0.320666 0.320666 0.727746
O O18 0.478802 0.272078 0.800072
O O19 0.359959 0.640042 0.843981
O O20 0.188559 0.576923 0.900855
O O21 0.304010 0.695991 0.973772
O O22 0.269534 0.500000 0.000000
#
# Coordination Sequence:
#
# PCOD8308226 Si02
#       8
#     8   8   8   8   8   8   8   8
#     4  10  21  35  51  70  92 120 163 217 276 337
#     4  10  20  35  52  74 102 134 173 221 269 319
#     4   9  19  37  61  90 124 160 196 231 268 314
#     4  10  20  34  51  70  93 131 174 219 276 332
#     4  11  20  34  56  85 116 152 185 225 269 319
#     4  10  20  34  51  73 104 137 175 220 265 318
#     4   9  19  32  49  69  93 126 164 212 273 333
#     4  10  20  34  48  67  92 122 159 205 263 329
#
# _framework density 18.302741000000001
#
# number of rings (size 3 to 8) (size 9 to 14) (size 15 to 20)
#    0.000    2.125    1.250    2.625    0.000    4.750 
#    0.000    5.000    0.000    0.000    0.000    0.000 
#    0.000    0.000    0.000    5.750    0.000    0.000 
#
# Total GULP energy -793067.801605 kJ/mol
# GULP energy per Si atom -12391.684400 kJ/mol
# Density = 1.826108 g / cm^3
# Si number density = 18.302741 Si / 1000 Ang^3
#
#
#
# Elastic Constant Matrix: (Units=GPa)
#
#
# Indices 1 2 3 4 5 6 
#
# 1 95.9433 34.3979 33.0656 0.0000 0.0000 0.0000
# 2 34.3979 95.9428 33.0660 0.0000 0.0000 0.0000
# 3 33.0656 33.0660 69.4650 0.0000 0.0000 0.0000
# 4 0.0000 0.0000 0.0000 24.7181 0.0000 0.0000
# 5 0.0000 0.0000 0.0000 0.0000 24.7174 0.0000
# 6 0.0000 0.0000 0.0000 0.0000 0.0000 12.9488
#
#
#
# Elastic Compliance Matrix: (Units=1/GPa)
#
#
# Indices 1 2 3 4 5 6 
#
# 1 0.013182 -0.003067 -0.004815 0.000000 0.000000 0.000000
# 2 -0.003067 0.013182 -0.004815 0.000000 0.000000 0.000000
# 3 -0.004815 -0.004815 0.018980 0.000000 0.000000 0.000000
# 4 0.000000 0.000000 0.000000 0.040456 0.000000 0.000000
# 5 0.000000 0.000000 0.000000 0.000000 0.040457 0.000000
# 6 0.000000 0.000000 0.000000 0.000000 0.000000 0.077227
#
#
# Mechanical properties :
#
#
# Convention : Reuss Voigt Hill
#
# Bulk Modulus (GPa) = 50.12447 51.37890 50.75168
# Shear Modulus (GPa) = 21.22905 23.19829 22.21367
#
# Velocity S-wave (km/s) = 3.40940 3.56403 3.48757
# Velocity P-wave (km/s) = 6.55320 6.71335 6.63376
#
# Compressibility (1/GPa) = 0.01995034
#
# Stress axis : x y z
#
# Youngs Moduli (GPa) = 75.86329 75.86241 52.68829
#
# Poissons Ratio (x) = 0.23264 0.25368
# Poissons Ratio (y) = 0.23264 0.25369
# Poissons Ratio (z) = 0.36526 0.36527
#
# Static dielectric constant tensor:
#      x y z
#    x 3.402060 0.000000 0.000000 
#    y 0.000000 3.402050 0.000000 
#    z 0.000000 0.000000 3.210500 
# 
# 
# High freq. dielectric constant tensor:
#      x y z
#    x 1.706790 0.000000 0.000000 
#    y 0.000000 1.706780 0.000000 
#    z 0.000000 0.000000 1.691210 
# 
# From -- ./inp_files/4281.got.cif
#   From: 2010.03.12/outbox.cif.g09.slc.cpg/sg111_3_cif.got.tgz:4281.got - 2010.04.14 01:59:48.
