data_PCOD8308577
_publ_section_title
;
Structure prediction by ZEFSAII (Michael W. Deem and Ramdas Pophale) SiO2 
 PCOD8308577
Probable space group: P -4 21 M 
;
_chemical_formula_sum "Si O2"
_cell_formula_units_Z 48
_cell_length_a 15.452781
_cell_length_b 15.452781
_cell_length_c 12.155161
_cell_angle_alpha 90.000000
_cell_angle_beta 90.000000
_cell_angle_gamma 90.000000
_cell_volume 2902.511941
_symmetry_space_group_name_H-M "P -4 21 M "
_symmetry_group_IT_number 113
_symmetry_cell_setting 'tetragonal'
loop_
_space_group_symop_operation_xyz
x,y,z
y,-x,-z
-x,-y,z
-y,x,-z
1/2+x,1/2-y,-z
1/2-x,1/2+y,-z
1/2-y,1/2-x,z
1/2+y,1/2+x,z
loop_
_atom_site_type_symbol
_atom_site_label
_atom_site_fract_x
_atom_site_fract_y
_atom_site_fract_z
Si Si1 0.257231 0.478205 0.564958
Si Si2 0.650180 0.704308 0.566069
Si Si3 0.932463 0.567538 0.825751
Si Si4 0.789551 0.848802 0.817069
Si Si5 0.468461 0.745965 0.183177
Si Si6 0.568932 0.068932 0.436508
Si Si7 0.538693 0.635704 0.000528
O O1 0.314948 0.392835 0.546174
O O2 0.291460 0.563570 0.505331
O O3 0.254363 0.503706 0.693096
O O4 0.162276 0.457711 0.517524
O O5 0.724111 0.775890 0.534376
O O6 0.619783 0.719895 0.691520
O O7 0.840606 0.535895 0.870648
O O8 0.927219 0.572782 0.694461
O O9 0.000000 0.500000 0.872038
O O10 0.704447 0.795554 0.854332
O O11 0.870921 0.786209 0.821840
O O12 0.805326 0.929340 0.898775
O O13 0.535694 0.690825 0.111849
O O14 0.500000 0.000000 0.480694
O O15 0.602500 0.556990 0.028488
#
# Coordination Sequence:
#
# PCOD8308577 Si02
#       7
#     8   8   4   8   8   4   8
#     4  10  19  32  52  75 104 133 166 216 260 299
#     4  10  20  34  51  75 104 136 174 211 252 309
#     4   9  16  26  46  73  97 119 156 208 254 286
#     4   9  17  32  52  68  95 137 171 196 240 308
#     4   9  17  31  49  71  98 128 163 204 254 300
#     4   9  16  30  50  71  95 132 172 202 248 303
#     4   9  18  31  49  73  99 127 164 207 243 293
#
# _framework density 16.537400000000002
#
# number of rings (size 3 to 8) (size 9 to 14) (size 15 to 20)
#    0.000    2.667    1.667    0.500    0.000    3.000 
#    0.000    3.333    0.000    1.000    0.000    2.333 
#    0.000    0.000    0.000    0.000    0.000    0.000 
#
# Total GULP energy -594969.564813 kJ/mol
# GULP energy per Si atom -12395.199267 kJ/mol
# Density = 1.649976 g / cm^3
# Si number density = 16.537400 Si / 1000 Ang^3
#
#
#
# Elastic Constant Matrix: (Units=GPa)
#
#
# Indices 1 2 3 4 5 6 
#
# 1 108.5274 52.0028 55.0575 0.0000 0.0000 0.0000
# 2 52.0028 108.5290 55.0573 0.0000 0.0000 0.0000
# 3 55.0575 55.0573 80.0784 0.0000 0.0000 0.0000
# 4 0.0000 0.0000 0.0000 19.5785 0.0000 0.0000
# 5 0.0000 0.0000 0.0000 0.0000 19.5788 0.0000
# 6 0.0000 0.0000 0.0000 0.0000 0.0000 22.1921
#
#
#
# Elastic Compliance Matrix: (Units=1/GPa)
#
#
# Indices 1 2 3 4 5 6 
#
# 1 0.014740 -0.002951 -0.008106 0.000000 0.000000 0.000000
# 2 -0.002951 0.014740 -0.008106 0.000000 0.000000 0.000000
# 3 -0.008106 -0.008106 0.023634 0.000000 0.000000 0.000000
# 4 0.000000 0.000000 0.000000 0.051076 0.000000 0.000000
# 5 0.000000 0.000000 0.000000 0.000000 0.051076 0.000000
# 6 0.000000 0.000000 0.000000 0.000000 0.000000 0.045061
#
#
# Mechanical properties :
#
#
# Convention : Reuss Voigt Hill
#
# Bulk Modulus (GPa) = 67.61449 69.04112 68.32781
# Shear Modulus (GPa) = 20.52697 21.27103 20.89900
#
# Velocity S-wave (km/s) = 3.52695 3.59031 3.55877
# Velocity P-wave (km/s) = 7.58686 7.68285 7.63500
#
# Compressibility (1/GPa) = 0.01478973
#
# Stress axis : x y z
#
# Youngs Moduli (GPa) = 67.84049 67.84232 42.31225
#
# Poissons Ratio (x) = 0.20020 0.34298
# Poissons Ratio (y) = 0.20019 0.34296
# Poissons Ratio (z) = 0.54991 0.54990
#
# Static dielectric constant tensor:
#      x y z
#    x 3.148090 0.000000 0.000000 
#    y 0.000000 3.148090 0.000000 
#    z 0.000000 0.000000 3.020810 
# 
# 
# High freq. dielectric constant tensor:
#      x y z
#    x 1.639470 0.000000 0.000000 
#    y 0.000000 1.639470 0.000000 
#    z 0.000000 0.000000 1.611620 
# 
# From -- ./inp_files/1867.got.cif
#   From: 2010.03.12/outbox.cif.g09.slc.cpg/sg113_cif.got.tgz:1867.got - 2010.04.14 02:06:34.
