data_PCOD8308400
_publ_section_title
;
Structure prediction by ZEFSAII (Michael W. Deem and Ramdas Pophale) SiO2 
 PCOD8308400
Probable space group: P -4 2 C
;
_chemical_formula_sum "Si O2"
_cell_formula_units_Z 48
_cell_length_a 14.311059
_cell_length_b 14.311059
_cell_length_c 11.336990
_cell_angle_alpha 90.000000
_cell_angle_beta 90.000000
_cell_angle_gamma 90.000000
_cell_volume 2321.888219
_symmetry_space_group_name_H-M "P -4 2 C"
_symmetry_group_IT_number 112
_symmetry_cell_setting 'tetragonal'
loop_
_space_group_symop_operation_xyz
x,y,z
y,-x,-z
-x,-y,z
-y,x,-z
x,-y,1/2-z
-x,y,1/2-z
-y,-x,1/2+z
y,x,1/2+z
loop_
_atom_site_type_symbol
_atom_site_label
_atom_site_fract_x
_atom_site_fract_y
_atom_site_fract_z
Si Si1 0.410303 0.396105 0.958177
Si Si2 0.013311 0.762923 0.110081
Si Si3 0.227266 0.645799 0.426628
Si Si4 0.000000 0.735782 0.750000
Si Si5 0.500000 0.706978 0.750000
Si Si6 0.831439 0.145338 0.424127
Si Si7 0.951095 0.600788 0.955961
O O1 0.440109 0.359803 0.832363
O O2 0.383190 0.505139 0.948194
O O3 0.325238 0.337446 0.009581
O O4 0.943070 0.843584 0.061827
O O5 0.000000 0.762476 0.250000
O O6 0.996301 0.657037 0.065581
O O7 0.113258 0.792976 0.053118
O O8 0.229933 0.576469 0.315145
O O9 0.198078 0.749430 0.387812
O O10 0.158287 0.591304 0.516031
O O11 0.924457 0.800403 0.681395
O O12 0.952208 0.665949 0.841469
O O13 0.000000 0.500000 0.937328
#
# Coordination Sequence:
#
# PCOD8308400 Si02
#       7
#     8   8   8   4   4   8   8
#     4   9  20  37  58  88 130 166 215 275 325 402
#     4  10  24  41  66  93 128 173 213 279 340 395
#     4  10  23  38  66  94 130 173 221 276 330 412
#     4  10  23  42  67  90 134 176 216 287 337 400
#     4  10  22  39  61  98 126 178 215 280 340 393
#     4  10  24  43  63  99 127 172 223 277 342 408
#     4  10  23  42  63  95 130 170 222 268 334 407
#
# _framework density 20.672827999999999
#
# number of rings (size 3 to 8) (size 9 to 14) (size 15 to 20)
#    0.000    2.167    0.000    0.250    9.333   15.333 
#    0.000    0.000    3.667    0.000    0.000    0.000 
#    0.000    0.000    0.000    0.000    0.000    0.000 
#
# Total GULP energy -594698.278027 kJ/mol
# GULP energy per Si atom -12389.547459 kJ/mol
# Density = 2.062578 g / cm^3
# Si number density = 20.672828 Si / 1000 Ang^3
#
#
#
# Elastic Constant Matrix: (Units=GPa)
#
#
# Indices 1 2 3 4 5 6 
#
# 1 99.8861 39.6107 34.3752 0.0000 0.0000 0.0000
# 2 39.6107 99.8861 34.3752 0.0000 0.0000 0.0000
# 3 34.3752 34.3752 112.0587 0.0000 0.0000 0.0000
# 4 0.0000 0.0000 0.0000 29.0184 0.0000 0.0000
# 5 0.0000 0.0000 0.0000 0.0000 29.0184 0.0000
# 6 0.0000 0.0000 0.0000 0.0000 0.0000 26.5230
#
#
#
# Elastic Compliance Matrix: (Units=1/GPa)
#
#
# Indices 1 2 3 4 5 6 
#
# 1 0.012518 -0.004073 -0.002591 0.000000 0.000000 0.000000
# 2 -0.004073 0.012518 -0.002591 0.000000 0.000000 0.000000
# 3 -0.002591 -0.002591 0.010513 0.000000 0.000000 0.000000
# 4 0.000000 0.000000 0.000000 0.034461 0.000000 0.000000
# 5 0.000000 0.000000 0.000000 0.000000 0.034461 0.000000
# 6 0.000000 0.000000 0.000000 0.000000 0.000000 0.037703
#
#
# Mechanical properties :
#
#
# Convention : Reuss Voigt Hill
#
# Bulk Modulus (GPa) = 58.68082 58.72811 58.70446
# Shear Modulus (GPa) = 30.05483 30.47663 30.26573
#
# Velocity S-wave (km/s) = 3.81705 3.84374 3.83042
# Velocity P-wave (km/s) = 6.91908 6.94040 6.92975
#
# Compressibility (1/GPa) = 0.01704134
#
# Stress axis : x y z
#
# Youngs Moduli (GPa) = 79.88502 79.88502 95.11702
#
# Poissons Ratio (x) = 0.32533 0.24642
# Poissons Ratio (y) = 0.32533 0.24642
# Poissons Ratio (z) = 0.20696 0.20696
#
# Static dielectric constant tensor:
#      x y z
#    x 3.966530 0.000000 0.000000 
#    y 0.000000 3.966530 0.000000 
#    z 0.000000 0.000000 3.817300 
# 
# 
# High freq. dielectric constant tensor:
#      x y z
#    x 1.813370 0.000000 0.000000 
#    y 0.000000 1.813370 0.000000 
#    z 0.000000 0.000000 1.807670 
# 
# From -- ./inp_files/2614.got.cif
#   From: 2010.03.12/outbox.cif.g09.slc.cpg/sg112_2_cif.got.tgz:2614.got - 2010.04.14 02:02:48.
