data_PCOD8308002
_publ_section_title
;
Structure prediction by ZEFSAII (Michael W. Deem and Ramdas Pophale) SiO2 
 PCOD8308002
Probable space group: I 41 C D
;
_chemical_formula_sum "Si O2"
_cell_formula_units_Z 112
_cell_length_a 29.094967
_cell_length_b 29.094967
_cell_length_c 5.599835
_cell_angle_alpha 90.000000
_cell_angle_beta 90.000000
_cell_angle_gamma 90.000000
_cell_volume 4740.356111
_symmetry_space_group_name_H-M "I 41 C D"
_symmetry_group_IT_number 110
_symmetry_cell_setting 'tetragonal'
loop_
_space_group_symop_operation_xyz
x,y,z
-y,1/2+x,1/4+z
-x,-y,z
y,1/2-x,1/4+z
-x,y,1/2+z
x,-y,1/2+z
1/2-y,-x,1/4+z
1/2+y,x,1/4+z
1/2+x,1/2+y,1/2+z
1/2-y,x,3/4+z
1/2-x,1/2-y,1/2+z
1/2+y,-x,3/4+z
1/2-x,1/2+y,z
1/2+x,1/2-y,z
-y,1/2-x,3/4+z
y,1/2+x,3/4+z
loop_
_atom_site_type_symbol
_atom_site_label
_atom_site_fract_x
_atom_site_fract_y
_atom_site_fract_z
Si Si1 0.247396 0.181612 0.368210
Si Si2 0.121710 0.820912 0.292914
Si Si3 0.165791 0.462276 0.333895
Si Si4 0.313633 0.613709 0.087736
Si Si5 0.981612 0.920107 0.520760
Si Si6 0.977109 0.736082 0.233317
Si Si7 0.385714 0.893694 0.644592
O O1 0.211515 0.213036 0.500571
O O2 0.272222 0.148096 0.558615
O O3 0.222757 0.151484 0.169403
O O4 0.069779 0.811081 0.379880
O O5 0.150015 0.861643 0.417416
O O6 0.118347 0.837544 0.020501
O O7 0.134639 0.504324 0.228739
O O8 0.207947 0.478113 0.504061
O O9 0.126785 0.428349 0.433041
O O10 0.345544 0.592748 0.302588
O O11 0.285374 0.573561 0.961055
O O12 0.925523 0.921306 0.549898
O O13 0.998368 0.943318 0.266220
O O14 0.998292 0.719436 0.487510
#
# Coordination Sequence:
#
# PCOD8308002 Si02
#       7
#    16  16  16  16  16  16  16
#     4  12  25  40  60  87 127 182 251 300 336 387
#     4  11  23  40  65  85 128 180 225 291 344 403
#     4  10  22  36  62  96 129 166 219 280 361 413
#     4  11  27  44  63  91 130 179 238 282 347 405
#     4  10  18  32  56  91 129 156 200 262 338 414
#     4  12  29  45  70  99 133 176 228 289 351 424
#     4  10  20  39  60  91 124 177 209 274 335 404
#
# _framework density 23.626918
#
# number of rings (size 3 to 8) (size 9 to 14) (size 15 to 20)
#    0.000    1.143    2.857    3.429   10.000    0.000 
#    0.000    0.000    0.000    0.000    0.000    0.000 
#    0.000   30.857    0.000    0.000    0.000    0.000 
#
# Total GULP energy -693842.278048 kJ/mol
# GULP energy per Si atom -12390.040679 kJ/mol
# Density = 2.357314 g / cm^3
# Si number density = 23.626918 Si / 1000 Ang^3
#
#
#
# Elastic Constant Matrix: (Units=GPa)
#
#
# Indices 1 2 3 4 5 6 
#
# 1 41.2287 -20.9940 -3.8320 0.0000 0.0000 0.0000
# 2 -20.9940 41.2287 -3.8320 0.0000 0.0000 0.0000
# 3 -3.8320 -3.8320 93.1573 0.0000 0.0000 0.0000
# 4 0.0000 0.0000 0.0000 22.8042 0.0000 0.0000
# 5 0.0000 0.0000 0.0000 0.0000 22.8042 0.0000
# 6 0.0000 0.0000 0.0000 0.0000 0.0000 20.3104
#
#
#
# Elastic Compliance Matrix: (Units=1/GPa)
#
#
# Indices 1 2 3 4 5 6 
#
# 1 0.033137 0.017065 0.002065 0.000000 0.000000 0.000000
# 2 0.017065 0.033137 0.002065 0.000000 0.000000 0.000000
# 3 0.002065 0.002065 0.010904 0.000000 0.000000 0.000000
# 4 0.000000 0.000000 0.000000 0.043852 0.000000 0.000000
# 5 0.000000 0.000000 0.000000 0.000000 0.043852 0.000000
# 6 0.000000 0.000000 0.000000 0.000000 0.000000 0.049236
#
#
# Mechanical properties :
#
#
# Convention : Reuss Voigt Hill
#
# Bulk Modulus (GPa) = 8.36337 13.14430 10.75384
# Shear Modulus (GPa) = 23.63149 26.80194 25.21672
#
# Velocity S-wave (km/s) = 3.16601 3.37171 3.27048
# Velocity P-wave (km/s) = 4.11246 4.55338 4.33852
#
# Compressibility (1/GPa) = 0.11956900
#
# Stress axis : x y z
#
# Youngs Moduli (GPa) = 30.17798 30.17798 91.70591
#
# Poissons Ratio (x) = -0.51500 -0.18938
# Poissons Ratio (y) = -0.51500 -0.18938
# Poissons Ratio (z) = -0.06232 -0.06232
#
# Static dielectric constant tensor:
#      x y z
#    x 4.355370 0.000000 0.000000 
#    y 0.000000 4.355370 0.000000 
#    z 0.000000 0.000000 4.458150 
# 
# 
# High freq. dielectric constant tensor:
#      x y z
#    x 1.920790 0.000000 0.000000 
#    y 0.000000 1.920790 0.000000 
#    z 0.000000 0.000000 1.945910 
# 
# From -- ./inp_files/155.got.cif
#   From: 2010.03.12/outbox.cif.g09.slc.cpg/sg110_1_cif.got.tgz:155.got - 2010.04.14 01:58:01.
