data_PCOD8308361
_publ_section_title
;
Structure prediction by ZEFSAII (Michael W. Deem and Ramdas Pophale) SiO2 
 PCOD8308361
Probable space group: P -4 2 C
;
_chemical_formula_sum "Si O2"
_cell_formula_units_Z 48
_cell_length_a 11.701799
_cell_length_b 11.701799
_cell_length_c 20.143616
_cell_angle_alpha 90.000000
_cell_angle_beta 90.000000
_cell_angle_gamma 90.000000
_cell_volume 2758.307637
_symmetry_space_group_name_H-M "P -4 2 C"
_symmetry_group_IT_number 112
_symmetry_cell_setting 'tetragonal'
loop_
_space_group_symop_operation_xyz
x,y,z
y,-x,-z
-x,-y,z
-y,x,-z
x,-y,1/2-z
-x,y,1/2-z
-y,-x,1/2+z
y,x,1/2+z
loop_
_atom_site_type_symbol
_atom_site_label
_atom_site_fract_x
_atom_site_fract_y
_atom_site_fract_z
Si Si1 0.867218 0.500000 0.828334
Si Si2 0.134748 0.000000 0.326537
Si Si3 0.630738 0.871360 0.960099
Si Si4 0.724140 0.813385 0.399428
Si Si5 0.275860 0.813385 0.399428
Si Si6 0.630738 0.871360 0.539901
O O1 0.860186 0.500000 0.750000
O O2 0.801460 0.610646 0.855418
O O3 0.801460 0.389354 0.855418
O O4 0.000000 0.500000 0.852319
O O5 0.183156 0.111627 0.361497
O O6 0.173628 0.000000 0.250000
O O7 0.183156 0.888373 0.361497
O O8 0.000000 0.000000 0.334482
O O9 0.689482 0.781801 0.909907
O O10 0.500000 0.832632 0.968989
O O11 0.638994 1.000000 0.931356
O O12 0.693307 0.870691 0.030776
O O13 0.693307 0.870691 0.469224
O O14 0.218199 0.689482 0.409907
#
# Coordination Sequence:
#
# PCOD8308361 Si02
#       6
#     8   8   8   8   8   8
#     4  11  20  34  59  85 113 149 188 230 282 341
#     4  11  22  35  53  83 121 152 185 228 281 346
#     4  10  20  36  56  79 113 150 186 234 284 344
#     4  11  20  34  55  83 113 147 189 233 284 333
#     4  11  20  34  55  83 113 147 189 233 284 333
#     4  10  20  36  56  79 113 150 186 234 284 344
#
# _framework density 17.401973999999999
#
# number of rings (size 3 to 8) (size 9 to 14) (size 15 to 20)
#    0.000    1.333    5.000    2.000    0.000    0.000 
#    0.000    0.833    0.000    5.000    0.000   11.667 
#    0.000    0.000    0.000    0.000    0.000    0.000 
#
# Total GULP energy -595288.014303 kJ/mol
# GULP energy per Si atom -12401.833631 kJ/mol
# Density = 1.736237 g / cm^3
# Si number density = 17.401974 Si / 1000 Ang^3
#
#
#
# Elastic Constant Matrix: (Units=GPa)
#
#
# Indices 1 2 3 4 5 6 
#
# 1 111.8415 63.7228 52.4379 0.0000 0.0000 0.0000
# 2 63.7228 111.8415 52.4379 0.0000 0.0000 0.0000
# 3 52.4379 52.4379 87.1153 0.0000 0.0000 0.0000
# 4 0.0000 0.0000 0.0000 27.9818 0.0000 0.0000
# 5 0.0000 0.0000 0.0000 0.0000 27.9818 0.0000
# 6 0.0000 0.0000 0.0000 0.0000 0.0000 27.9541
#
#
#
# Elastic Compliance Matrix: (Units=1/GPa)
#
#
# Indices 1 2 3 4 5 6 
#
# 1 0.014838 -0.005944 -0.005354 0.000000 0.000000 0.000000
# 2 -0.005944 0.014838 -0.005354 0.000000 0.000000 0.000000
# 3 -0.005354 -0.005354 0.017924 0.000000 0.000000 0.000000
# 4 0.000000 0.000000 0.000000 0.035737 0.000000 0.000000
# 5 0.000000 0.000000 0.000000 0.000000 0.035737 0.000000
# 6 0.000000 0.000000 0.000000 0.000000 0.000000 0.035773
#
#
# Mechanical properties :
#
#
# Convention : Reuss Voigt Hill
#
# Bulk Modulus (GPa) = 69.94175 71.99952 70.97063
# Shear Modulus (GPa) = 25.91798 26.26352 26.09075
#
# Velocity S-wave (km/s) = 3.86342 3.88909 3.87628
# Velocity P-wave (km/s) = 7.75761 7.85053 7.80421
#
# Compressibility (1/GPa) = 0.01429761
#
# Stress axis : x y z
#
# Youngs Moduli (GPa) = 67.39466 67.39466 55.79079
#
# Poissons Ratio (x) = 0.40059 0.29868
# Poissons Ratio (y) = 0.40059 0.29868
# Poissons Ratio (z) = 0.36080 0.36080
#
# Static dielectric constant tensor:
#      x y z
#    x 3.314760 0.000000 0.000000 
#    y 0.000000 3.314760 0.000000 
#    z 0.000000 0.000000 3.239320 
# 
# 
# High freq. dielectric constant tensor:
#      x y z
#    x 1.670810 0.000000 0.000000 
#    y 0.000000 1.670810 0.000000 
#    z 0.000000 0.000000 1.665670 
# 
# From -- ./inp_files/4109.got.cif
#   From: 2010.03.12/outbox.cif.g09.slc.cpg/sg112_3_cif.got.tgz:4109.got - 2010.04.14 02:02:48.
