data_PCOD8308981
_publ_section_title
;
Structure prediction by ZEFSAII (Michael W. Deem and Ramdas Pophale) SiO2 
 PCOD8308981
Probable space group: P -4 21 C
;
_chemical_formula_sum "Si O2"
_cell_formula_units_Z 34
_cell_length_a 11.175029
_cell_length_b 11.175029
_cell_length_c 11.156308
_cell_angle_alpha 90.000000
_cell_angle_beta 90.000000
_cell_angle_gamma 90.000000
_cell_volume 1393.213947
_symmetry_space_group_name_H-M "P -4 21 C"
_symmetry_group_IT_number 114
_symmetry_cell_setting 'tetragonal'
loop_
_space_group_symop_operation_xyz
x,y,z
y,-x,-z
-x,-y,z
-y,x,-z
1/2+x,1/2-y,1/2-z
1/2-x,1/2+y,1/2-z
1/2-y,1/2-x,1/2+z
1/2+y,1/2+x,1/2+z
loop_
_atom_site_type_symbol
_atom_site_label
_atom_site_fract_x
_atom_site_fract_y
_atom_site_fract_z
Si Si1 0.227323 0.026287 0.357954
Si Si2 0.586059 0.325502 0.318410
Si Si3 0.404784 0.907304 0.682612
Si Si4 0.243585 0.794485 0.490783
Si Si5 0.500000 0.500000 0.500000
O O1 0.117697 0.069252 0.274935
O O2 0.273405 0.138079 0.438426
O O3 0.337561 0.980124 0.281152
O O4 0.184754 0.917746 0.442316
O O5 0.530655 0.210773 0.248813
O O6 0.710801 0.287050 0.381816
O O7 0.496098 0.380354 0.417729
O O8 0.356976 0.822176 0.577078
O O9 0.500000 0.000000 0.626377
#
# Coordination Sequence:
#
# PCOD8308981 Si02
#       5
#     8   8   8   8   2
#     4  10  23  42  66  95 136 173 227 283 332 414
#     4  10  24  42  63 103 132 178 227 279 351 401
#     4  10  23  42  68 102 136 179 232 279 343 417
#     4  10  23  42  67 100 133 181 226 280 347 406
#     4  12  24  40  72  94 148 176 220 296 340 414
#
# _framework density 24.404004
#
# number of rings (size 3 to 8) (size 9 to 14) (size 15 to 20)
#    0.000    1.882    0.000    1.412    6.588    8.000 
#    0.000    0.000    0.000    0.000    0.000    0.000 
#    0.000    0.000    0.000    0.000    0.000    0.000 
#
# Total GULP energy -421561.873892 kJ/mol
# GULP energy per Si atom -12398.878644 kJ/mol
# Density = 2.434846 g / cm^3
# Si number density = 24.404004 Si / 1000 Ang^3
#
#
#
# Elastic Constant Matrix: (Units=GPa)
#
#
# Indices 1 2 3 4 5 6 
#
# 1 78.3785 33.2934 26.7199 0.0000 0.0000 0.0000
# 2 33.2934 78.3785 26.7199 0.0000 0.0000 0.0000
# 3 26.7199 26.7199 100.2635 0.0000 0.0000 0.0000
# 4 0.0000 0.0000 0.0000 28.4920 0.0000 0.0000
# 5 0.0000 0.0000 0.0000 0.0000 28.4920 0.0000
# 6 0.0000 0.0000 0.0000 0.0000 0.0000 37.5596
#
#
#
# Elastic Compliance Matrix: (Units=1/GPa)
#
#
# Indices 1 2 3 4 5 6 
#
# 1 0.016222 -0.005958 -0.002735 0.000000 0.000000 0.000000
# 2 -0.005958 0.016222 -0.002735 0.000000 0.000000 0.000000
# 3 -0.002735 -0.002735 0.011432 0.000000 0.000000 0.000000
# 4 0.000000 0.000000 0.000000 0.035098 0.000000 0.000000
# 5 0.000000 0.000000 0.000000 0.000000 0.035098 0.000000
# 6 0.000000 0.000000 0.000000 0.000000 0.000000 0.026624
#
#
# Mechanical properties :
#
#
# Convention : Reuss Voigt Hill
#
# Bulk Modulus (GPa) = 47.57814 47.83189 47.70501
# Shear Modulus (GPa) = 29.31542 30.26120 29.78831
#
# Velocity S-wave (km/s) = 3.46967 3.52520 3.49754
# Velocity P-wave (km/s) = 5.96572 6.01763 5.99174
#
# Compressibility (1/GPa) = 0.02101806
#
# Stress axis : x y z
#
# Youngs Moduli (GPa) = 61.64467 61.64467 87.47682
#
# Poissons Ratio (x) = 0.36729 0.23927
# Poissons Ratio (y) = 0.36729 0.23927
# Poissons Ratio (z) = 0.16861 0.16861
#
# Static dielectric constant tensor:
#      x y z
#    x 4.220800 0.000000 0.000000 
#    y 0.000000 4.220800 0.000000 
#    z 0.000000 0.000000 4.687730 
# 
# 
# High freq. dielectric constant tensor:
#      x y z
#    x 1.952220 0.000000 0.000000 
#    y 0.000000 1.952220 0.000000 
#    z 0.000000 0.000000 1.989770 
# 
# From -- ./inp_files/1401.got.cif
#   From: 2010.03.12/outbox.cif.g09.slc.cpg/sg114_1_cif.got.tgz:1401.got - 2010.04.14 02:08:34.
