data_PCOD8308344
_publ_section_title
;
Structure prediction by ZEFSAII (Michael W. Deem and Ramdas Pophale) SiO2 
 PCOD8308344
Probable space group: P -4 2 C
;
_chemical_formula_sum "Si O2"
_cell_formula_units_Z 40
_cell_length_a 8.075084
_cell_length_b 8.075084
_cell_length_c 28.846393
_cell_angle_alpha 90.000000
_cell_angle_beta 90.000000
_cell_angle_gamma 90.000000
_cell_volume 1880.986218
_symmetry_space_group_name_H-M "P -4 2 C"
_symmetry_group_IT_number 112
_symmetry_cell_setting 'tetragonal'
loop_
_space_group_symop_operation_xyz
x,y,z
y,-x,-z
-x,-y,z
-y,x,-z
x,-y,1/2-z
-x,y,1/2-z
-y,-x,1/2+z
y,x,1/2+z
loop_
_atom_site_type_symbol
_atom_site_label
_atom_site_fract_x
_atom_site_fract_y
_atom_site_fract_z
Si Si1 0.819661 0.807717 0.355427
Si Si2 0.197748 0.500000 0.802847
Si Si3 0.819661 0.192284 0.355427
Si Si4 0.696107 0.687337 0.551405
Si Si5 0.696107 0.687337 0.948595
O O1 0.665244 0.727032 0.327428
O O2 0.801661 0.781297 0.410405
O O3 1.000000 0.733177 0.340361
O O4 0.821171 0.000000 0.344013
O O5 0.257955 0.500000 0.750000
O O6 0.272968 0.665244 0.827428
O O7 0.000000 0.500000 0.806795
O O8 0.801661 0.218703 0.410405
O O9 0.758043 0.500000 0.559318
O O10 0.500000 0.697136 0.556464
O O11 0.748540 0.748540 0.500000
#
# Coordination Sequence:
#
# PCOD8308344 Si02
#       5
#     8   8   8   8   8
#     4  10  20  33  52  79 108 139 179 229 281 336
#     4   9  18  34  55  77 105 143 183 231 289 338
#     4  10  20  33  52  79 108 139 179 229 281 336
#     4   9  18  33  53  76 104 142 183 219 263 326
#     4   9  18  33  53  76 104 142 183 219 263 326
#
# _framework density 21.265443000000001
#
# number of rings (size 3 to 8) (size 9 to 14) (size 15 to 20)
#    0.000    2.600    2.000    1.200    0.000    3.200 
#    0.000   10.000    0.000    2.400    0.000    2.800 
#    0.000    0.000    0.000    0.000    0.000    0.000 
#
# Total GULP energy -495722.279430 kJ/mol
# GULP energy per Si atom -12393.056986 kJ/mol
# Density = 2.121704 g / cm^3
# Si number density = 21.265443 Si / 1000 Ang^3
#
#
#
# Elastic Constant Matrix: (Units=GPa)
#
#
# Indices 1 2 3 4 5 6 
#
# 1 90.6710 24.4323 46.1281 0.0000 0.0000 0.0000
# 2 24.4323 90.6710 46.1281 0.0000 0.0000 0.0000
# 3 46.1281 46.1281 142.9335 0.0000 0.0000 0.0000
# 4 0.0000 0.0000 0.0000 24.8573 0.0000 0.0000
# 5 0.0000 0.0000 0.0000 0.0000 24.8573 0.0000
# 6 0.0000 0.0000 0.0000 0.0000 0.0000 14.3906
#
#
#
# Elastic Compliance Matrix: (Units=1/GPa)
#
#
# Indices 1 2 3 4 5 6 
#
# 1 0.013408 -0.001689 -0.003782 0.000000 0.000000 0.000000
# 2 -0.001689 0.013408 -0.003782 0.000000 0.000000 0.000000
# 3 -0.003782 -0.003782 0.009437 0.000000 0.000000 0.000000
# 4 0.000000 0.000000 0.000000 0.040230 0.000000 0.000000
# 5 0.000000 0.000000 0.000000 0.000000 0.040230 0.000000
# 6 0.000000 0.000000 0.000000 0.000000 0.000000 0.069490
#
#
# Mechanical properties :
#
#
# Convention : Reuss Voigt Hill
#
# Bulk Modulus (GPa) = 56.34588 61.96138 59.15363
# Shear Modulus (GPa) = 23.73895 26.66017 25.19956
#
# Velocity S-wave (km/s) = 3.34476 3.54458 3.44612
# Velocity P-wave (km/s) = 6.43976 6.77883 6.61147
#
# Compressibility (1/GPa) = 0.01774753
#
# Stress axis : x y z
#
# Youngs Moduli (GPa) = 74.58196 74.58196 105.96147
#
# Poissons Ratio (x) = 0.12596 0.40075
# Poissons Ratio (y) = 0.12596 0.40075
# Poissons Ratio (z) = 0.28207 0.28207
#
# Static dielectric constant tensor:
#      x y z
#    x 3.776660 0.000000 0.000000 
#    y 0.000000 3.776660 0.000000 
#    z 0.000000 0.000000 3.869750 
# 
# 
# High freq. dielectric constant tensor:
#      x y z
#    x 1.812740 0.000000 0.000000 
#    y 0.000000 1.812740 0.000000 
#    z 0.000000 0.000000 1.828750 
# 
# From -- ./inp_files/6132.got.cif
#   From: 2010.03.12/outbox.cif.g09.slc.cpg/sg112_4_cif.got.tgz:6132.got - 2010.04.14 02:02:48.
