data_PCOD8308884
_publ_section_title
;
Structure prediction by ZEFSAII (Michael W. Deem and Ramdas Pophale) SiO2 
 PCOD8308884
Probable space group: P -4 21 C
;
_chemical_formula_sum "Si O2"
_cell_formula_units_Z 40
_cell_length_a 9.246081
_cell_length_b 9.246081
_cell_length_c 25.524440
_cell_angle_alpha 90.000000
_cell_angle_beta 90.000000
_cell_angle_gamma 90.000000
_cell_volume 2182.084729
_symmetry_space_group_name_H-M "P -4 21 C"
_symmetry_group_IT_number 114
_symmetry_cell_setting 'tetragonal'
loop_
_space_group_symop_operation_xyz
x,y,z
y,-x,-z
-x,-y,z
-y,x,-z
1/2+x,1/2-y,1/2-z
1/2-x,1/2+y,1/2-z
1/2-y,1/2-x,1/2+z
1/2+y,1/2+x,1/2+z
loop_
_atom_site_type_symbol
_atom_site_label
_atom_site_fract_x
_atom_site_fract_y
_atom_site_fract_z
Si Si1 0.657371 0.176217 0.605476
Si Si2 0.335139 0.673340 0.208471
Si Si3 0.839376 0.326721 0.401281
Si Si4 0.339622 0.674291 0.798716
Si Si5 0.673986 0.339687 0.503245
O O1 0.743362 0.222141 0.657310
O O2 0.488227 0.211964 0.614395
O O3 0.722732 0.267103 0.557457
O O4 0.680598 0.010115 0.591429
O O5 0.506827 0.686725 0.213632
O O6 0.284050 0.507600 0.205279
O O7 0.268113 0.746943 0.258996
O O8 0.787400 0.215800 0.356801
O O9 0.769629 0.277053 0.455949
O O10 0.509482 0.300601 0.490244
#
# Coordination Sequence:
#
# PCOD8308884 Si02
#       5
#     8   8   8   8   8
#     4   9  18  33  51  71  99 133 166 204 252 303
#     4  10  21  36  54  77 104 135 172 213 258 307
#     4   9  18  33  51  71  99 133 166 204 252 303
#     4  10  21  36  54  77 104 135 172 213 258 307
#     4   9  18  32  50  73 100 130 166 207 250 297
#
# _framework density 18.331092999999999
#
# number of rings (size 3 to 8) (size 9 to 14) (size 15 to 20)
#    0.000    2.600    0.000    1.200    0.000    5.600 
#    0.000    4.000    0.000    0.000    0.000    0.000 
#    0.000    0.000    0.000    0.000    0.000    0.000 
#
# Total GULP energy -496123.109393 kJ/mol
# GULP energy per Si atom -12403.077735 kJ/mol
# Density = 1.828937 g / cm^3
# Si number density = 18.331093 Si / 1000 Ang^3
#
#
#
# Elastic Constant Matrix: (Units=GPa)
#
#
# Indices 1 2 3 4 5 6 
#
# 1 43.4046 9.0649 11.4634 0.0000 0.0000 0.0000
# 2 9.0649 43.4046 11.4634 0.0000 0.0000 0.0000
# 3 11.4634 11.4634 50.7094 0.0000 0.0000 0.0000
# 4 0.0000 0.0000 0.0000 39.9344 0.0000 0.0000
# 5 0.0000 0.0000 0.0000 0.0000 39.9344 0.0000
# 6 0.0000 0.0000 0.0000 0.0000 0.0000 23.1648
#
#
#
# Elastic Compliance Matrix: (Units=1/GPa)
#
#
# Indices 1 2 3 4 5 6 
#
# 1 0.025134 -0.003987 -0.004781 0.000000 0.000000 0.000000
# 2 -0.003987 0.025134 -0.004781 0.000000 0.000000 0.000000
# 3 -0.004781 -0.004781 0.021882 0.000000 0.000000 0.000000
# 4 0.000000 0.000000 0.000000 0.025041 0.000000 0.000000
# 5 0.000000 0.000000 0.000000 0.000000 0.025041 0.000000
# 6 0.000000 0.000000 0.000000 0.000000 0.000000 0.043169
#
#
# Mechanical properties :
#
#
# Convention : Reuss Voigt Hill
#
# Bulk Modulus (GPa) = 22.19541 22.38908 22.29224
# Shear Modulus (GPa) = 24.09465 27.64186 25.86826
#
# Velocity S-wave (km/s) = 3.62942 3.88741 3.76063
# Velocity P-wave (km/s) = 5.44958 5.69118 5.57169
#
# Compressibility (1/GPa) = 0.04505437
#
# Stress axis : x y z
#
# Youngs Moduli (GPa) = 39.78638 39.78638 45.70039
#
# Poissons Ratio (x) = 0.15861 0.21848
# Poissons Ratio (y) = 0.15861 0.21848
# Poissons Ratio (z) = 0.19020 0.19020
#
# Static dielectric constant tensor:
#      x y z
#    x 3.362690 0.000000 0.000000 
#    y 0.000000 3.362690 0.000000 
#    z 0.000000 0.000000 3.486030 
# 
# 
# High freq. dielectric constant tensor:
#      x y z
#    x 1.705550 0.000000 0.000000 
#    y 0.000000 1.705550 0.000000 
#    z 0.000000 0.000000 1.720580 
# 
# From -- ./inp_files/3351.got.cif
#   From: 2010.03.12/outbox.cif.g09.slc.cpg/sg114_2_cif.got.tgz:3351.got - 2010.04.14 02:08:34.
