data_PCOD8308708
_publ_section_title
;
Structure prediction by ZEFSAII (Michael W. Deem and Ramdas Pophale) SiO2 
 PCOD8308708
Probable space group: P -4 21 M 
;
_chemical_formula_sum "Si O2"
_cell_formula_units_Z 64
_cell_length_a 22.056687
_cell_length_b 22.056687
_cell_length_c 6.189643
_cell_angle_alpha 90.000000
_cell_angle_beta 90.000000
_cell_angle_gamma 90.000000
_cell_volume 3011.245483
_symmetry_space_group_name_H-M "P -4 21 M "
_symmetry_group_IT_number 113
_symmetry_cell_setting 'tetragonal'
loop_
_space_group_symop_operation_xyz
x,y,z
y,-x,-z
-x,-y,z
-y,x,-z
1/2+x,1/2-y,-z
1/2-x,1/2+y,-z
1/2-y,1/2-x,z
1/2+y,1/2+x,z
loop_
_atom_site_type_symbol
_atom_site_label
_atom_site_fract_x
_atom_site_fract_y
_atom_site_fract_z
Si Si1 0.404804 0.299383 0.196470
Si Si2 0.500039 0.098611 0.727189
Si Si3 0.500695 0.787185 0.010749
Si Si4 0.730986 0.588039 0.282808
Si Si5 0.131333 0.867616 0.416116
Si Si6 0.168238 0.427867 0.609153
Si Si7 0.310934 0.711309 0.048316
Si Si8 0.582304 0.448530 0.050599
O O1 0.444169 0.240829 0.143665
O O2 0.402296 0.313014 0.453845
O O3 0.339562 0.280858 0.103416
O O4 0.430653 0.360227 0.089622
O O5 0.556393 0.056393 0.804807
O O6 0.516981 0.132142 0.504498
O O7 0.440931 0.059070 0.679720
O O8 0.483392 0.147183 0.912040
O O9 0.447937 0.794587 0.183986
O O10 0.478712 0.740340 0.823644
O O11 0.666208 0.591018 0.404633
O O12 0.785388 0.602760 0.443870
O O13 0.739646 0.634812 0.088368
O O14 0.181291 0.837058 0.264523
O O15 0.082443 0.908963 0.287515
O O16 0.122833 0.377168 0.692567
O O17 0.261830 0.761830 0.112490
O O18 0.521535 0.422210 0.936263
#
# Coordination Sequence:
#
# PCOD8308708 Si02
#       8
#     8   8   8   8   8   8   8   8
#     4  10  25  41  62  91 128 167 207 254 316 376
#     4   9  20  40  63  90 129 173 218 269 321 377
#     4  11  23  39  62  94 128 167 209 262 314 380
#     4  10  22  38  65  93 124 162 203 260 317 374
#     4  10  23  42  64  94 123 165 204 257 322 377
#     4  10  21  36  60  97 129 163 212 261 319 376
#     4  10  22  43  63  87 123 165 211 256 305 367
#     4  10  24  45  68  93 123 159 210 262 316 385
#
# _framework density 21.253661999999998
#
# number of rings (size 3 to 8) (size 9 to 14) (size 15 to 20)
#    0.000    2.000    0.000    1.500    7.000   11.000 
#    0.000    2.500    0.000    0.000    0.000    0.000 
#    0.000    0.000    0.000    0.000    0.000    0.000 
#
# Total GULP energy -793423.128581 kJ/mol
# GULP energy per Si atom -12397.236384 kJ/mol
# Density = 2.120529 g / cm^3
# Si number density = 21.253662 Si / 1000 Ang^3
#
#
#
# Elastic Constant Matrix: (Units=GPa)
#
#
# Indices 1 2 3 4 5 6 
#
# 1 84.7843 39.0724 35.2625 0.0000 0.0000 0.0000
# 2 39.0724 84.7837 35.2630 0.0000 0.0000 0.0000
# 3 35.2625 35.2630 99.8204 0.0000 0.0000 0.0000
# 4 0.0000 0.0000 0.0000 25.3034 0.0000 0.0000
# 5 0.0000 0.0000 0.0000 0.0000 25.3023 0.0000
# 6 0.0000 0.0000 0.0000 0.0000 0.0000 41.4590
#
#
#
# Elastic Compliance Matrix: (Units=1/GPa)
#
#
# Indices 1 2 3 4 5 6 
#
# 1 0.015991 -0.005885 -0.003570 0.000000 0.000000 0.000000
# 2 -0.005885 0.015992 -0.003570 0.000000 0.000000 0.000000
# 3 -0.003570 -0.003570 0.012541 0.000000 0.000000 0.000000
# 4 0.000000 0.000000 0.000000 0.039520 0.000000 0.000000
# 5 0.000000 0.000000 0.000000 0.000000 0.039522 0.000000
# 6 0.000000 0.000000 0.000000 0.000000 0.000000 0.024120
#
#
# Mechanical properties :
#
#
# Convention : Reuss Voigt Hill
#
# Bulk Modulus (GPa) = 54.13361 54.28713 54.21037
# Shear Modulus (GPa) = 27.79402 29.06565 28.42983
#
# Velocity S-wave (km/s) = 3.62018 3.70206 3.66135
# Velocity P-wave (km/s) = 6.55742 6.62357 6.59058
#
# Compressibility (1/GPa) = 0.01847281
#
# Stress axis : x y z
#
# Youngs Moduli (GPa) = 62.53340 62.53253 79.74128
#
# Poissons Ratio (x) = 0.36798 0.28470
# Poissons Ratio (y) = 0.36799 0.28471
# Poissons Ratio (z) = 0.22326 0.22327
#
# Static dielectric constant tensor:
#      x y z
#    x 3.885700 0.000000 0.000000 
#    y 0.000000 3.885710 0.000000 
#    z 0.000000 0.000000 4.009880 
# 
# 
# High freq. dielectric constant tensor:
#      x y z
#    x 1.828760 0.000000 0.000000 
#    y 0.000000 1.828760 0.000000 
#    z 0.000000 0.000000 1.840360 
# 
# From -- ./inp_files/603.got.cif
#   From: 2010.03.12/outbox.cif.g09.slc.cpg/sg113_cif.got.tgz:603.got - 2010.04.14 02:06:34.
