data_PCOD8308524
_publ_section_title
;
Structure prediction by ZEFSAII (Michael W. Deem and Ramdas Pophale) SiO2 
 PCOD8308524
Probable space group: P -4 21 M 
;
_chemical_formula_sum "Si O2"
_cell_formula_units_Z 56
_cell_length_a 17.960276
_cell_length_b 17.960276
_cell_length_c 10.899393
_cell_angle_alpha 90.000000
_cell_angle_beta 90.000000
_cell_angle_gamma 90.000000
_cell_volume 3515.833702
_symmetry_space_group_name_H-M "P -4 21 M "
_symmetry_group_IT_number 113
_symmetry_cell_setting 'tetragonal'
loop_
_space_group_symop_operation_xyz
x,y,z
y,-x,-z
-x,-y,z
-y,x,-z
1/2+x,1/2-y,-z
1/2-x,1/2+y,-z
1/2-y,1/2-x,z
1/2+y,1/2+x,z
loop_
_atom_site_type_symbol
_atom_site_label
_atom_site_fract_x
_atom_site_fract_y
_atom_site_fract_z
Si Si1 0.717867 0.462258 0.451523
Si Si2 0.008926 0.080830 0.310122
Si Si3 0.121861 0.907844 0.119884
Si Si4 0.126392 0.255029 0.468023
Si Si5 0.649696 0.729806 0.329617
Si Si6 0.424560 0.354289 0.142980
Si Si7 0.322020 0.300091 0.693430
O O1 0.634403 0.491288 0.424189
O O2 0.767711 0.537681 0.447887
O O3 0.726727 0.422111 0.581467
O O4 0.736000 0.401965 0.344757
O O5 0.091072 0.091814 0.257315
O O6 0.955547 0.089723 0.192108
O O7 0.000000 0.000000 0.368279
O O8 0.174581 0.846158 0.181059
O O9 0.161307 0.988171 0.123812
O O10 0.110693 0.885507 0.980079
O O11 0.163159 0.336842 0.479328
O O12 0.164831 0.209724 0.357473
O O13 0.142874 0.206528 0.589764
O O14 0.690019 0.809982 0.342289
O O15 0.618026 0.720036 0.190591
O O16 0.267623 0.232378 0.714895
#
# Coordination Sequence:
#
# PCOD8308524 Si02
#       7
#     8   8   8   8   8   8   8
#     4  10  17  32  49  68  93 129 160 200 246 290
#     4   9  18  29  43  70  99 127 156 192 231 287
#     4  10  19  29  49  68  97 131 161 197 235 279
#     4   9  17  31  48  69  95 121 159 203 244 295
#     4  10  21  33  47  68  99 131 162 201 246 293
#     4  11  18  31  47  69 101 129 160 196 240 280
#     4   9  19  33  47  66  94 129 165 197 235 288
#
# _framework density 15.927943000000001
#
# number of rings (size 3 to 8) (size 9 to 14) (size 15 to 20)
#    0.000    2.286    2.857    2.143    0.000    1.714 
#    0.000    0.000    0.000    1.714    0.000    0.000 
#    0.000    0.000    0.000    5.714    0.000    0.000 
#
# Total GULP energy -694010.205576 kJ/mol
# GULP energy per Si atom -12393.039385 kJ/mol
# Density = 1.589169 g / cm^3
# Si number density = 15.927943 Si / 1000 Ang^3
#
#
#
# Elastic Constant Matrix: (Units=GPa)
#
#
# Indices 1 2 3 4 5 6 
#
# 1 91.5250 51.4602 43.8589 0.0000 0.0000 0.0000
# 2 51.4602 91.5226 43.8591 0.0000 0.0000 0.0000
# 3 43.8589 43.8591 60.5986 0.0000 0.0000 0.0000
# 4 0.0000 0.0000 0.0000 18.2296 0.0000 0.0000
# 5 0.0000 0.0000 0.0000 0.0000 18.2297 0.0000
# 6 0.0000 0.0000 0.0000 0.0000 0.0000 25.0119
#
#
#
# Elastic Compliance Matrix: (Units=1/GPa)
#
#
# Indices 1 2 3 4 5 6 
#
# 1 0.018769 -0.006191 -0.009104 0.000000 0.000000 0.000000
# 2 -0.006191 0.018770 -0.009105 0.000000 0.000000 0.000000
# 3 -0.009104 -0.009105 0.029681 0.000000 0.000000 0.000000
# 4 0.000000 0.000000 0.000000 0.054856 0.000000 0.000000
# 5 0.000000 0.000000 0.000000 0.000000 0.054856 0.000000
# 6 0.000000 0.000000 0.000000 0.000000 0.000000 0.039981
#
#
# Mechanical properties :
#
#
# Convention : Reuss Voigt Hill
#
# Bulk Modulus (GPa) = 54.28357 58.00029 56.14193
# Shear Modulus (GPa) = 18.39239 19.25876 18.82558
#
# Velocity S-wave (km/s) = 3.40181 3.48101 3.44164
# Velocity P-wave (km/s) = 7.04162 7.25602 7.14962
#
# Compressibility (1/GPa) = 0.01842178
#
# Stress axis : x y z
#
# Youngs Moduli (GPa) = 53.27854 53.27620 33.69194
#
# Poissons Ratio (x) = 0.32981 0.30673
# Poissons Ratio (y) = 0.32983 0.30675
# Poissons Ratio (z) = 0.48504 0.48506
#
# Static dielectric constant tensor:
#      x y z
#    x 2.975660 0.000000 0.000000 
#    y 0.000000 2.975660 0.000000 
#    z 0.000000 0.000000 2.918470 
# 
# 
# High freq. dielectric constant tensor:
#      x y z
#    x 1.593920 0.000000 0.000000 
#    y 0.000000 1.593920 0.000000 
#    z 0.000000 0.000000 1.608060 
# 
# From -- ./inp_files/1968.got.cif
#   From: 2010.03.12/outbox.cif.g09.slc.cpg/sg113_cif.got.tgz:1968.got - 2010.04.14 02:06:34.
