data_PCOD8308640
_publ_section_title
;
Structure prediction by ZEFSAII (Michael W. Deem and Ramdas Pophale) SiO2 
 PCOD8308640
Probable space group: P -4 21 M 
;
_chemical_formula_sum "Si O2"
_cell_formula_units_Z 48
_cell_length_a 15.206989
_cell_length_b 15.206989
_cell_length_c 11.730299
_cell_angle_alpha 90.000000
_cell_angle_beta 90.000000
_cell_angle_gamma 90.000000
_cell_volume 2712.661139
_symmetry_space_group_name_H-M "P -4 21 M "
_symmetry_group_IT_number 113
_symmetry_cell_setting 'tetragonal'
loop_
_space_group_symop_operation_xyz
x,y,z
y,-x,-z
-x,-y,z
-y,x,-z
1/2+x,1/2-y,-z
1/2-x,1/2+y,-z
1/2-y,1/2-x,z
1/2+y,1/2+x,z
loop_
_atom_site_type_symbol
_atom_site_label
_atom_site_fract_x
_atom_site_fract_y
_atom_site_fract_z
Si Si1 0.062734 0.080860 0.120328
Si Si2 0.214492 0.019758 0.717655
Si Si3 0.998938 0.355735 0.097229
Si Si4 0.147740 0.210459 0.705953
Si Si5 0.287589 0.467154 0.919511
Si Si6 0.859796 0.031500 0.492864
O O1 0.021518 0.126426 0.229741
O O2 0.161618 0.046575 0.145171
O O3 0.072149 0.146799 0.014056
O O4 0.000000 0.000000 0.089421
O O5 0.299776 0.990203 0.787222
O O6 0.215217 0.981802 0.589490
O O7 0.208492 0.124990 0.721361
O O8 0.082634 0.417367 0.090538
O O9 0.908701 0.408701 0.103008
O O10 0.996119 0.298421 0.982325
O O11 0.209233 0.290768 0.664022
O O12 0.106645 0.237536 0.827663
O O13 0.070217 0.191004 0.616019
O O14 0.936427 0.097821 0.535065
#
# Coordination Sequence:
#
# PCOD8308640 Si02
#       6
#     8   8   8   8   8   8
#     4  11  17  29  52  82 109 136 157 207 271 331
#     4  10  20  33  55  78 103 137 176 218 267 323
#     4  10  22  38  53  71 102 146 187 221 258 307
#     4  11  21  32  51  79 110 137 173 220 265 318
#     4  11  18  31  52  80 107 137 172 209 270 323
#     4   9  19  34  53  78 103 136 171 215 272 330
#
# _framework density 17.694800999999998
#
# number of rings (size 3 to 8) (size 9 to 14) (size 15 to 20)
#    0.000    1.667    3.333    3.000    2.333    0.667 
#    0.000    3.333    0.000    9.000    0.000    2.333 
#    0.000    0.000    0.000    0.000    0.000    0.000 
#
# Total GULP energy -595034.736949 kJ/mol
# GULP energy per Si atom -12396.557020 kJ/mol
# Density = 1.765453 g / cm^3
# Si number density = 17.694801 Si / 1000 Ang^3
#
#
#
# Elastic Constant Matrix: (Units=GPa)
#
#
# Indices 1 2 3 4 5 6 
#
# 1 85.6704 39.0853 35.7466 0.0000 0.0000 0.0000
# 2 39.0853 85.6675 35.7458 0.0000 0.0000 0.0000
# 3 35.7466 35.7458 87.0465 0.0000 0.0000 0.0000
# 4 0.0000 0.0000 0.0000 17.8204 0.0000 0.0000
# 5 0.0000 0.0000 0.0000 0.0000 17.8194 0.0000
# 6 0.0000 0.0000 0.0000 0.0000 0.0000 22.4144
#
#
#
# Elastic Compliance Matrix: (Units=1/GPa)
#
#
# Indices 1 2 3 4 5 6 
#
# 1 0.015974 -0.005492 -0.004305 0.000000 0.000000 0.000000
# 2 -0.005492 0.015975 -0.004305 0.000000 0.000000 0.000000
# 3 -0.004305 -0.004305 0.015024 0.000000 0.000000 0.000000
# 4 0.000000 0.000000 0.000000 0.056115 0.000000 0.000000
# 5 0.000000 0.000000 0.000000 0.000000 0.056119 0.000000
# 6 0.000000 0.000000 0.000000 0.000000 0.000000 0.044614
#
#
# Mechanical properties :
#
#
# Convention : Reuss Voigt Hill
#
# Bulk Modulus (GPa) = 53.27671 53.28220 53.27945
# Shear Modulus (GPa) = 20.98363 21.46464 21.22413
#
# Velocity S-wave (km/s) = 3.44737 3.48666 3.46707
# Velocity P-wave (km/s) = 6.78380 6.81074 6.79728
#
# Compressibility (1/GPa) = 0.01876993
#
# Stress axis : x y z
#
# Youngs Moduli (GPa) = 62.59990 62.59795 66.56162
#
# Poissons Ratio (x) = 0.34379 0.28653
# Poissons Ratio (y) = 0.34380 0.28653
# Poissons Ratio (z) = 0.26948 0.26947
#
# Static dielectric constant tensor:
#      x y z
#    x 3.290660 0.000000 0.000000 
#    y 0.000000 3.290660 0.000000 
#    z 0.000000 0.000000 3.290030 
# 
# 
# High freq. dielectric constant tensor:
#      x y z
#    x 1.671150 0.000000 0.000000 
#    y 0.000000 1.671150 0.000000 
#    z 0.000000 0.000000 1.687470 
# 
# From -- ./inp_files/1835.got.cif
#   From: 2010.03.12/outbox.cif.g09.slc.cpg/sg113_cif.got.tgz:1835.got - 2010.04.14 02:06:34.
