data_PCOD8308194
_publ_section_title
;
Structure prediction by ZEFSAII (Michael W. Deem and Ramdas Pophale) SiO2 
 PCOD8308194
Probable space group: P -4 2 M 
;
_chemical_formula_sum "Si O2"
_cell_formula_units_Z 56
_cell_length_a 14.380748
_cell_length_b 14.380748
_cell_length_c 14.933413
_cell_angle_alpha 90.000000
_cell_angle_beta 90.000000
_cell_angle_gamma 90.000000
_cell_volume 3088.318110
_symmetry_space_group_name_H-M "P -4 2 M "
_symmetry_group_IT_number 111
_symmetry_cell_setting 'tetragonal'
loop_
_space_group_symop_operation_xyz
x,y,z
y,-x,-z
-x,-y,z
-y,x,-z
x,-y,-z
-x,y,-z
-y,-x,z
y,x,z
loop_
_atom_site_type_symbol
_atom_site_label
_atom_site_fract_x
_atom_site_fract_y
_atom_site_fract_z
Si Si1 0.855155 0.709755 0.342635
Si Si2 0.610641 0.237935 0.997625
Si Si3 0.307266 0.838034 0.332797
Si Si4 0.608330 0.099803 0.153123
Si Si5 0.892508 0.605615 0.161348
Si Si6 0.237182 0.392737 0.502074
Si Si7 0.978025 0.834748 0.600746
O O1 0.756503 0.756503 0.321101
O O2 0.885797 0.650795 0.257959
O O3 0.839619 0.640892 0.428072
O O4 0.928730 0.794532 0.354413
O O5 0.663772 0.336229 0.003675
O O6 0.643890 0.172300 0.079089
O O7 0.500000 0.256663 0.000000
O O8 0.642233 0.185581 0.907047
O O9 0.251431 0.748570 0.297992
O O10 0.338183 0.893296 0.246111
O O11 0.389024 0.806716 0.398617
O O12 0.245423 0.902010 0.396672
O O13 0.502801 0.122829 0.175428
O O14 0.623257 0.994506 0.118249
O O15 0.267078 0.500000 0.500000
O O16 0.328786 0.328786 0.493960
O O17 0.929438 0.929438 0.643744
O O18 0.000000 0.860888 0.500000
#
# Coordination Sequence:
#
# PCOD8308194 Si02
#       7
#     8   8   8   8   8   8   8
#     4  11  21  35  53  76 109 146 180 219 272 326
#     4  10  21  37  57  81 108 140 177 221 275 331
#     4  10  19  33  52  76 106 138 177 220 265 320
#     4  10  19  34  56  79 106 137 173 221 273 322
#     4  10  20  34  54  81 108 135 174 222 269 324
#     4  10  21  36  54  77 107 143 183 228 277 330
#     4  11  21  35  52  74 107 145 186 228 267 316
#
# _framework density 18.132847000000002
#
# number of rings (size 3 to 8) (size 9 to 14) (size 15 to 20)
#    0.000    1.714    2.857    2.571    0.000    3.000 
#    0.000    0.714    0.000    0.000    0.000    4.000 
#    0.000    2.286    0.000    0.000    0.000    0.000 
#
# Total GULP energy -693834.294051 kJ/mol
# GULP energy per Si atom -12389.898108 kJ/mol
# Density = 1.809158 g / cm^3
# Si number density = 18.132847 Si / 1000 Ang^3
#
#
#
# Elastic Constant Matrix: (Units=GPa)
#
#
# Indices 1 2 3 4 5 6 
#
# 1 81.0541 39.4334 37.5511 0.0000 0.0000 0.0000
# 2 39.4334 81.0530 37.5505 0.0000 0.0000 0.0000
# 3 37.5511 37.5505 89.6514 0.0000 0.0000 0.0000
# 4 0.0000 0.0000 0.0000 23.6369 0.0000 0.0000
# 5 0.0000 0.0000 0.0000 0.0000 23.6370 0.0000
# 6 0.0000 0.0000 0.0000 0.0000 0.0000 27.7934
#
#
#
# Elastic Compliance Matrix: (Units=1/GPa)
#
#
# Indices 1 2 3 4 5 6 
#
# 1 0.017629 -0.006397 -0.004705 0.000000 0.000000 0.000000
# 2 -0.006397 0.017630 -0.004705 0.000000 0.000000 0.000000
# 3 -0.004705 -0.004705 0.015095 0.000000 0.000000 0.000000
# 4 0.000000 0.000000 0.000000 0.042307 0.000000 0.000000
# 5 0.000000 0.000000 0.000000 0.000000 0.042307 0.000000
# 6 0.000000 0.000000 0.000000 0.000000 0.000000 0.035980
#
#
# Mechanical properties :
#
#
# Convention : Reuss Voigt Hill
#
# Bulk Modulus (GPa) = 53.35840 53.42539 53.39189
# Shear Modulus (GPa) = 23.94549 24.16169 24.05359
#
# Velocity S-wave (km/s) = 3.63789 3.65428 3.64609
# Velocity P-wave (km/s) = 6.86556 6.87985 6.87271
#
# Compressibility (1/GPa) = 0.01874119
#
# Stress axis : x y z
#
# Youngs Moduli (GPa) = 56.72342 56.72300 66.24532
#
# Poissons Ratio (x) = 0.36288 0.31166
# Poissons Ratio (y) = 0.36288 0.31165
# Poissons Ratio (z) = 0.26687 0.26686
#
# Static dielectric constant tensor:
#      x y z
#    x 3.362300 0.000000 0.000000 
#    y 0.000000 3.362300 0.000000 
#    z 0.000000 0.000000 3.301120 
# 
# 
# High freq. dielectric constant tensor:
#      x y z
#    x 1.701980 0.000000 0.000000 
#    y 0.000000 1.701980 0.000000 
#    z 0.000000 0.000000 1.697140 
# 
# From -- ./inp_files/3390.got.cif
#   From: 2010.03.12/outbox.cif.g09.slc.cpg/sg111_2_cif.got.tgz:3390.got - 2010.04.14 01:59:48.
