data_PCOD8308814
_publ_section_title
;
Structure prediction by ZEFSAII (Michael W. Deem and Ramdas Pophale) SiO2 
 PCOD8308814
Probable space group: P -4 21 C
;
_chemical_formula_sum "Si O2"
_cell_formula_units_Z 48
_cell_length_a 16.349373
_cell_length_b 16.349373
_cell_length_c 8.778147
_cell_angle_alpha 90.000000
_cell_angle_beta 90.000000
_cell_angle_gamma 90.000000
_cell_volume 2346.416227
_symmetry_space_group_name_H-M "P -4 21 C"
_symmetry_group_IT_number 114
_symmetry_cell_setting 'tetragonal'
loop_
_space_group_symop_operation_xyz
x,y,z
y,-x,-z
-x,-y,z
-y,x,-z
1/2+x,1/2-y,1/2-z
1/2-x,1/2+y,1/2-z
1/2-y,1/2-x,1/2+z
1/2+y,1/2+x,1/2+z
loop_
_atom_site_type_symbol
_atom_site_label
_atom_site_fract_x
_atom_site_fract_y
_atom_site_fract_z
Si Si1 0.341635 0.571444 0.646855
Si Si2 0.288252 0.583321 0.314038
Si Si3 0.500000 0.500000 0.500000
Si Si4 0.500000 0.500000 0.000000
Si Si5 0.711748 0.583321 0.185962
Si Si6 0.633815 0.000000 0.250000
Si Si7 0.428556 0.658365 0.146855
Si Si8 0.500000 0.000000 0.000000
O O1 0.288596 0.587417 0.496885
O O2 0.431656 0.540698 0.604856
O O3 0.344118 0.657136 0.741572
O O4 0.299834 0.500000 0.750000
O O5 0.329707 0.500000 0.250000
O O6 0.192219 0.581162 0.264471
O O7 0.342864 0.655882 0.241572
O O8 0.568344 0.540698 0.895144
O O9 0.807781 0.581162 0.235529
O O10 0.711404 0.587417 0.003115
O O11 0.579998 0.987119 0.398976
O O12 0.579998 0.012882 0.101024
#
# Coordination Sequence:
#
# PCOD8308814 Si02
#       8
#     8   8   2   2   8   8   8   4
#     4  12  18  27  48  82 136 181 185 216 258 351
#     4  10  19  33  49  91 131 148 211 224 278 356
#     4  12  14  20  38  68 114 172 218 208 214 300
#     4  12  14  20  38  68 114 172 218 208 214 300
#     4  10  19  33  49  91 131 148 211 224 278 356
#     4   9  22  42  67 100  98 144 207 280 304 369
#     4  12  18  27  48  82 136 181 185 216 258 351
#     4  10  20  50  80  74 100 134 216 294 348 314
#
# _framework density 20.45673
#
# number of rings (size 3 to 8) (size 9 to 14) (size 15 to 20)
#    1.000    0.333    6.667    0.500    0.000    0.000 
#    6.000    0.000    0.000    6.000    0.000    0.000 
#    0.000    0.000    0.000    0.000    0.000    0.000 
#
# Total GULP energy -594631.494138 kJ/mol
# GULP energy per Si atom -12388.156128 kJ/mol
# Density = 2.041017 g / cm^3
# Si number density = 20.456730 Si / 1000 Ang^3
#
#
#
# Elastic Constant Matrix: (Units=GPa)
#
#
# Indices 1 2 3 4 5 6 
#
# 1 96.2640 16.0982 52.1321 0.0000 0.0000 0.0000
# 2 16.0982 96.2640 52.1321 0.0000 0.0000 0.0000
# 3 52.1321 52.1321 172.8362 0.0000 0.0000 0.0000
# 4 0.0000 0.0000 0.0000 1.3323 0.0000 0.0000
# 5 0.0000 0.0000 0.0000 0.0000 1.3323 0.0000
# 6 0.0000 0.0000 0.0000 0.0000 0.0000 4.0762
#
#
#
# Elastic Compliance Matrix: (Units=1/GPa)
#
#
# Indices 1 2 3 4 5 6 
#
# 1 0.012417 -0.000058 -0.003728 0.000000 0.000000 0.000000
# 2 -0.000058 0.012417 -0.003728 0.000000 0.000000 0.000000
# 3 -0.003728 -0.003728 0.008035 0.000000 0.000000 0.000000
# 4 0.000000 0.000000 0.000000 0.750575 0.000000 0.000000
# 5 0.000000 0.000000 0.000000 0.000000 0.750575 0.000000
# 6 0.000000 0.000000 0.000000 0.000000 0.000000 0.245324
#
#
# Mechanical properties :
#
#
# Convention : Reuss Voigt Hill
#
# Bulk Modulus (GPa) = 56.04971 67.34321 61.69646
# Shear Modulus (GPa) = 2.77729 17.68164 10.22946
#
# Velocity S-wave (km/s) = 1.16644 2.94316 2.23861
# Velocity P-wave (km/s) = 5.41043 6.67390 6.07510
#
# Compressibility (1/GPa) = 0.01784131
#
# Stress axis : x y z
#
# Youngs Moduli (GPa) = 80.53788 80.53788 124.46138
#
# Poissons Ratio (x) = 0.00464 0.46396
# Poissons Ratio (y) = 0.00464 0.46396
# Poissons Ratio (z) = 0.30023 0.30023
#
# Static dielectric constant tensor:
#      x y z
#    x 3.378110 0.000000 0.000000 
#    y 0.000000 3.378110 0.000000 
#    z 0.000000 0.000000 3.873330 
# 
# 
# High freq. dielectric constant tensor:
#      x y z
#    x 1.759180 0.000000 0.000000 
#    y 0.000000 1.759180 0.000000 
#    z 0.000000 0.000000 1.820840 
# 
# From -- ./inp_files/946.got.cif
#   From: 2010.03.12/outbox.cif.g09.slc.cpg/sg114_1_cif.got.tgz:946.got - 2010.04.14 02:08:34.
