data_PCOD8308540
_publ_section_title
;
Structure prediction by ZEFSAII (Michael W. Deem and Ramdas Pophale) SiO2 
 PCOD8308540
Probable space group: P -4 21 M 
;
_chemical_formula_sum "Si O2"
_cell_formula_units_Z 40
_cell_length_a 16.703463
_cell_length_b 16.703463
_cell_length_c 6.854900
_cell_angle_alpha 90.000000
_cell_angle_beta 90.000000
_cell_angle_gamma 90.000000
_cell_volume 1912.556010
_symmetry_space_group_name_H-M "P -4 21 M "
_symmetry_group_IT_number 113
_symmetry_cell_setting 'tetragonal'
loop_
_space_group_symop_operation_xyz
x,y,z
y,-x,-z
-x,-y,z
-y,x,-z
1/2+x,1/2-y,-z
1/2-x,1/2+y,-z
1/2-y,1/2-x,z
1/2+y,1/2+x,z
loop_
_atom_site_type_symbol
_atom_site_label
_atom_site_fract_x
_atom_site_fract_y
_atom_site_fract_z
Si Si1 0.695327 0.680216 0.057685
Si Si2 0.869093 0.498182 0.063548
Si Si3 0.913164 0.714286 0.731979
Si Si4 0.457625 0.385762 0.941609
Si Si5 0.769685 0.038939 0.673767
O O1 0.729923 0.770078 0.081129
O O2 0.725922 0.641593 0.856169
O O3 0.598403 0.681058 0.047179
O O4 0.727308 0.628216 0.238163
O O5 0.913726 0.413726 0.042078
O O6 0.821275 0.515976 0.864764
O O7 0.930678 0.569323 0.108723
O O8 0.807773 0.492504 0.243953
O O9 0.858199 0.641802 0.649371
O O10 0.954671 0.763730 0.558187
O O11 0.490461 0.350417 0.736989
O O12 0.405314 0.467137 0.914689
#
# Coordination Sequence:
#
# PCOD8308540 Si02
#       5
#     8   8   8   8   8
#     4   9  18  34  55  77 102 134 177 228 275 323
#     4   9  18  31  48  76 112 144 178 226 279 327
#     4   9  17  31  52  78 106 139 182 228 271 323
#     4   9  19  36  55  76 108 146 180 222 277 333
#     4  10  18  32  55  76 101 141 184 221 270 333
#
# _framework density 20.914421999999998
#
# number of rings (size 3 to 8) (size 9 to 14) (size 15 to 20)
#    0.000    2.800    0.000    3.000    0.000    1.600 
#    0.000   16.000    0.000    9.600    0.000    0.000 
#    0.000    0.000    0.000    0.000    0.000    0.000 
#
# Total GULP energy -495791.929110 kJ/mol
# GULP energy per Si atom -12394.798228 kJ/mol
# Density = 2.086682 g / cm^3
# Si number density = 20.914422 Si / 1000 Ang^3
#
#
#
# Elastic Constant Matrix: (Units=GPa)
#
#
# Indices 1 2 3 4 5 6 
#
# 1 77.0764 30.9828 14.8022 0.0000 0.0000 0.0000
# 2 30.9828 77.0759 14.8026 0.0000 0.0000 0.0000
# 3 14.8022 14.8026 86.5826 0.0000 0.0000 0.0000
# 4 0.0000 0.0000 0.0000 16.8788 0.0000 0.0000
# 5 0.0000 0.0000 0.0000 0.0000 16.8788 0.0000
# 6 0.0000 0.0000 0.0000 0.0000 0.0000 39.1646
#
#
#
# Elastic Compliance Matrix: (Units=1/GPa)
#
#
# Indices 1 2 3 4 5 6 
#
# 1 0.015702 -0.005993 -0.001660 0.000000 0.000000 0.000000
# 2 -0.005993 0.015702 -0.001660 0.000000 0.000000 0.000000
# 3 -0.001660 -0.001660 0.012117 0.000000 0.000000 0.000000
# 4 0.000000 0.000000 0.000000 0.059246 0.000000 0.000000
# 5 0.000000 0.000000 0.000000 0.000000 0.059246 0.000000
# 6 0.000000 0.000000 0.000000 0.000000 0.000000 0.025533
#
#
# Mechanical properties :
#
#
# Convention : Reuss Voigt Hill
#
# Bulk Modulus (GPa) = 40.16764 40.21222 40.18993
# Shear Modulus (GPa) = 23.31326 26.59428 24.95377
#
# Velocity S-wave (km/s) = 3.34233 3.56979 3.45793
# Velocity P-wave (km/s) = 5.84314 6.02162 5.93305
#
# Compressibility (1/GPa) = 0.02489566
#
# Stress axis : x y z
#
# Youngs Moduli (GPa) = 63.68629 63.68576 82.52721
#
# Poissons Ratio (x) = 0.38167 0.13698
# Poissons Ratio (y) = 0.38168 0.13699
# Poissons Ratio (z) = 0.10571 0.10571
#
# Static dielectric constant tensor:
#      x y z
#    x 3.982030 0.000000 0.000000 
#    y 0.000000 3.982040 0.000000 
#    z 0.000000 0.000000 3.319100 
# 
# 
# High freq. dielectric constant tensor:
#      x y z
#    x 1.821070 0.000000 0.000000 
#    y 0.000000 1.821070 0.000000 
#    z 0.000000 0.000000 1.778300 
# 
# From -- ./inp_files/315.got.cif
#   From: 2010.03.12/outbox.cif.g09.slc.cpg/sg113_cif.got.tgz:315.got - 2010.04.14 02:06:34.
