data_PCOD8308179
_publ_section_title
;
Structure prediction by ZEFSAII (Michael W. Deem and Ramdas Pophale) SiO2 
 PCOD8308179
Probable space group: P -4 2 M 
;
_chemical_formula_sum "Si O2"
_cell_formula_units_Z 60
_cell_length_a 14.679517
_cell_length_b 14.679517
_cell_length_c 15.436784
_cell_angle_alpha 90.000000
_cell_angle_beta 90.000000
_cell_angle_gamma 90.000000
_cell_volume 3326.445097
_symmetry_space_group_name_H-M "P -4 2 M "
_symmetry_group_IT_number 111
_symmetry_cell_setting 'tetragonal'
loop_
_space_group_symop_operation_xyz
x,y,z
y,-x,-z
-x,-y,z
-y,x,-z
x,-y,-z
-x,y,-z
-y,-x,z
y,x,z
loop_
_atom_site_type_symbol
_atom_site_label
_atom_site_fract_x
_atom_site_fract_y
_atom_site_fract_z
Si Si1 0.844304 0.704835 0.301207
Si Si2 0.242623 0.613491 0.168063
Si Si3 0.124316 0.269872 0.715232
Si Si4 0.842752 0.399343 0.991274
Si Si5 0.033805 0.818493 0.814834
Si Si6 0.256383 0.000000 0.000000
Si Si7 0.605636 0.001144 0.602402
Si Si8 0.590206 0.731867 0.180884
O O1 0.792042 0.792042 0.344084
O O2 0.899835 0.737875 0.216425
O O3 0.905374 0.653916 0.370916
O O4 0.770121 0.634709 0.267560
O O5 0.326966 0.673035 0.196296
O O6 0.151954 0.656852 0.210832
O O7 0.268583 0.515192 0.203866
O O8 0.234110 0.608999 0.064658
O O9 0.211841 0.211841 0.680712
O O10 0.055960 0.194129 0.755623
O O11 0.081291 0.332121 0.639197
O O12 0.913319 0.320135 0.009666
O O13 0.797109 0.385829 0.899019
O O14 0.888582 0.500000 0.000000
O O15 0.082391 0.917610 0.801607
O O16 0.009205 0.807657 0.915996
O O17 0.500000 0.000000 0.636013
O O18 0.606904 0.000000 0.500000
O O19 0.630869 0.630869 0.162274
#
# Coordination Sequence:
#
# PCOD8308179 Si02
#       8
#     8   8   8   8   8   4   8   8
#     4   9  18  34  54  76 103 136 171 208 255 311
#     4  10  20  33  50  73 102 138 179 218 260 308
#     4  10  21  38  57  77 106 141 173 212 260 315
#     4  10  20  31  46  73 104 138 183 227 264 304
#     4  10  21  34  51  75 102 137 178 224 264 298
#     4  12  19  32  50  75 104 140 184 224 264 310
#     4  10  21  37  58  85 111 132 164 213 260 309
#     4  10  19  32  51  74 104 139 176 218 260 305
#
# _framework density 18.037272999999999
#
# number of rings (size 3 to 8) (size 9 to 14) (size 15 to 20)
#    0.000    2.000    2.667    1.400    0.000    2.133 
#    0.000    0.000    0.000    2.400    0.000    1.867 
#    0.000    0.000    0.000   24.800    0.000    0.000 
#
# Total GULP energy -743581.364714 kJ/mol
# GULP energy per Si atom -12393.022745 kJ/mol
# Density = 1.799622 g / cm^3
# Si number density = 18.037273 Si / 1000 Ang^3
#
#
#
# Elastic Constant Matrix: (Units=GPa)
#
#
# Indices 1 2 3 4 5 6 
#
# 1 98.1968 59.2838 32.0136 0.0000 0.0000 0.0000
# 2 59.2838 98.1945 32.0135 0.0000 0.0000 0.0000
# 3 32.0136 32.0135 69.9147 0.0000 0.0000 0.0000
# 4 0.0000 0.0000 0.0000 20.6767 0.0000 0.0000
# 5 0.0000 0.0000 0.0000 0.0000 20.6768 0.0000
# 6 0.0000 0.0000 0.0000 0.0000 0.0000 31.9466
#
#
#
# Elastic Compliance Matrix: (Units=1/GPa)
#
#
# Indices 1 2 3 4 5 6 
#
# 1 0.016751 -0.008948 -0.003573 0.000000 0.000000 0.000000
# 2 -0.008948 0.016751 -0.003573 0.000000 0.000000 0.000000
# 3 -0.003573 -0.003573 0.017575 0.000000 0.000000 0.000000
# 4 0.000000 0.000000 0.000000 0.048364 0.000000 0.000000
# 5 0.000000 0.000000 0.000000 0.000000 0.048363 0.000000
# 6 0.000000 0.000000 0.000000 0.000000 0.000000 0.031302
#
#
# Mechanical properties :
#
#
# Convention : Reuss Voigt Hill
#
# Bulk Modulus (GPa) = 52.94031 56.99198 54.96615
# Shear Modulus (GPa) = 22.97898 24.19301 23.58600
#
# Velocity S-wave (km/s) = 3.57315 3.66632 3.62003
# Velocity P-wave (km/s) = 6.81450 7.04187 6.92912
#
# Compressibility (1/GPa) = 0.01888920
#
# Stress axis : x y z
#
# Youngs Moduli (GPa) = 59.69915 59.69758 56.89879
#
# Poissons Ratio (x) = 0.53419 0.20328
# Poissons Ratio (y) = 0.53420 0.20329
# Poissons Ratio (z) = 0.21329 0.21329
#
# Static dielectric constant tensor:
#      x y z
#    x 3.479570 0.000000 0.000000 
#    y 0.000000 3.479570 0.000000 
#    z 0.000000 0.000000 2.998910 
# 
# 
# High freq. dielectric constant tensor:
#      x y z
#    x 1.702410 0.000000 0.000000 
#    y 0.000000 1.702410 0.000000 
#    z 0.000000 0.000000 1.669360 
# 
# From -- ./inp_files/3408.got.cif
#   From: 2010.03.12/outbox.cif.g09.slc.cpg/sg111_2_cif.got.tgz:3408.got - 2010.04.14 01:59:48.
