data_PCOD8308365
_publ_section_title
;
Structure prediction by ZEFSAII (Michael W. Deem and Ramdas Pophale) SiO2 
 PCOD8308365
Probable space group: P -4 2 C
;
_chemical_formula_sum "Si O2"
_cell_formula_units_Z 48
_cell_length_a 8.426449
_cell_length_b 8.426449
_cell_length_c 32.707271
_cell_angle_alpha 90.000000
_cell_angle_beta 90.000000
_cell_angle_gamma 90.000000
_cell_volume 2322.381176
_symmetry_space_group_name_H-M "P -4 2 C"
_symmetry_group_IT_number 112
_symmetry_cell_setting 'tetragonal'
loop_
_space_group_symop_operation_xyz
x,y,z
y,-x,-z
-x,-y,z
-y,x,-z
x,-y,1/2-z
-x,y,1/2-z
-y,-x,1/2+z
y,x,1/2+z
loop_
_atom_site_type_symbol
_atom_site_label
_atom_site_fract_x
_atom_site_fract_y
_atom_site_fract_z
Si Si1 0.271209 0.820925 0.082161
Si Si2 0.679187 0.054993 0.206432
Si Si3 0.869665 0.734393 0.632446
Si Si4 0.734282 0.609043 0.999782
Si Si5 0.325667 0.571333 0.655120
Si Si6 0.676346 0.944784 0.576406
O O1 0.315184 0.680727 0.115083
O O2 0.092327 0.790305 0.067206
O O3 0.289995 0.997251 0.098613
O O4 0.384125 0.826828 0.042792
O O5 0.666683 0.244834 0.194043
O O6 0.500000 0.000000 0.204890
O O7 0.752427 0.000000 0.250000
O O8 0.788794 0.960670 0.173831
O O9 0.786790 0.569634 0.641345
O O10 0.739721 0.860031 0.617551
O O11 0.829360 0.685016 0.037359
O O12 0.705059 0.426020 0.009189
O O13 0.500000 0.500000 0.665777
O O14 0.500000 0.000000 0.586047
#
# Coordination Sequence:
#
# PCOD8308365 Si02
#       6
#     8   8   8   8   8   8
#     4  11  23  39  60  84 122 161 208 257 313 383
#     4   8  16  35  61  94 128 160 201 252 316 379
#     4  10  22  39  61  87 123 166 201 258 313 383
#     4  11  25  41  60  86 118 159 201 259 321 366
#     4  10  20  36  65  95 121 163 206 257 314 376
#     4  12  24  40  58  88 117 159 213 265 312 369
#
# _framework density 20.66844
#
# number of rings (size 3 to 8) (size 9 to 14) (size 15 to 20)
#    0.000    1.667    1.667    4.000    4.667    1.333 
#    0.000    6.667    0.000    8.000    0.000    4.667 
#    0.000    0.000    0.000    0.000    0.000    0.000 
#
# Total GULP energy -594769.164867 kJ/mol
# GULP energy per Si atom -12391.024268 kJ/mol
# Density = 2.062140 g / cm^3
# Si number density = 20.668440 Si / 1000 Ang^3
#
#
#
# Elastic Constant Matrix: (Units=GPa)
#
#
# Indices 1 2 3 4 5 6 
#
# 1 84.6395 31.2826 50.9146 0.0000 0.0000 0.0000
# 2 31.2826 84.6395 50.9146 0.0000 0.0000 0.0000
# 3 50.9146 50.9146 151.3196 0.0000 0.0000 0.0000
# 4 0.0000 0.0000 0.0000 23.3991 0.0000 0.0000
# 5 0.0000 0.0000 0.0000 0.0000 23.3991 0.0000
# 6 0.0000 0.0000 0.0000 0.0000 0.0000 30.1262
#
#
#
# Elastic Compliance Matrix: (Units=1/GPa)
#
#
# Indices 1 2 3 4 5 6 
#
# 1 0.015494 -0.003248 -0.004120 0.000000 0.000000 0.000000
# 2 -0.003248 0.015494 -0.004120 0.000000 0.000000 0.000000
# 3 -0.004120 -0.004120 0.009381 0.000000 0.000000 0.000000
# 4 0.000000 0.000000 0.000000 0.042737 0.000000 0.000000
# 5 0.000000 0.000000 0.000000 0.000000 0.042737 0.000000
# 6 0.000000 0.000000 0.000000 0.000000 0.000000 0.033194
#
#
# Mechanical properties :
#
#
# Convention : Reuss Voigt Hill
#
# Bulk Modulus (GPa) = 57.49896 65.20245 61.35071
# Shear Modulus (GPa) = 26.62255 27.88400 27.25327
#
# Velocity S-wave (km/s) = 3.59287 3.67701 3.63518
# Velocity P-wave (km/s) = 6.71504 7.04575 6.88238
#
# Compressibility (1/GPa) = 0.01739162
#
# Stress axis : x y z
#
# Youngs Moduli (GPa) = 64.54180 64.54180 106.59492
#
# Poissons Ratio (x) = 0.20962 0.43921
# Poissons Ratio (y) = 0.20962 0.43921
# Poissons Ratio (z) = 0.26594 0.26594
#
# Static dielectric constant tensor:
#      x y z
#    x 3.844730 0.000000 0.000000 
#    y 0.000000 3.844730 0.000000 
#    z 0.000000 0.000000 4.301600 
# 
# 
# High freq. dielectric constant tensor:
#      x y z
#    x 1.801910 0.000000 0.000000 
#    y 0.000000 1.801910 0.000000 
#    z 0.000000 0.000000 1.803530 
# 
# From -- ./inp_files/6316.got.cif
#   From: 2010.03.12/outbox.cif.g09.slc.cpg/sg112_4_cif.got.tgz:6316.got - 2010.04.14 02:02:48.
