data_PCOD8308107
_publ_section_title
;
Structure prediction by ZEFSAII (Michael W. Deem and Ramdas Pophale) SiO2 
 PCOD8308107
Probable space group: P -4 2 M 
;
_chemical_formula_sum "Si O2"
_cell_formula_units_Z 56
_cell_length_a 11.738036
_cell_length_b 11.738036
_cell_length_c 22.365692
_cell_angle_alpha 90.000000
_cell_angle_beta 90.000000
_cell_angle_gamma 90.000000
_cell_volume 3081.578349
_symmetry_space_group_name_H-M "P -4 2 M "
_symmetry_group_IT_number 111
_symmetry_cell_setting 'tetragonal'
loop_
_space_group_symop_operation_xyz
x,y,z
y,-x,-z
-x,-y,z
-y,x,-z
x,-y,-z
-x,y,-z
-y,-x,z
y,x,z
loop_
_atom_site_type_symbol
_atom_site_label
_atom_site_fract_x
_atom_site_fract_y
_atom_site_fract_z
Si Si1 0.185690 0.997664 0.432003
Si Si2 0.651469 0.166264 0.125195
Si Si3 0.778818 0.399708 0.256551
Si Si4 0.171918 0.647492 0.759673
Si Si5 0.953101 0.227600 0.935633
Si Si6 0.786774 0.393901 0.893317
Si Si7 0.627930 0.019557 0.334005
O O1 0.102446 0.102446 0.420057
O O2 0.291919 0.011168 0.388718
O O3 0.230246 0.000000 0.500000
O O4 0.119923 0.880078 0.419041
O O5 0.725197 0.274804 0.107289
O O6 0.634955 0.154428 0.196159
O O7 0.528285 0.195176 0.095141
O O8 0.720630 0.054189 0.104861
O O9 0.654205 0.345796 0.258840
O O10 0.759771 0.534397 0.259690
O O11 0.850534 0.355163 0.313234
O O12 0.244397 0.755604 0.739280
O O13 0.153687 0.643752 0.830886
O O14 0.053251 0.654178 0.725270
O O15 0.886641 0.113360 0.909841
O O16 0.859135 0.327563 0.943659
O O17 0.000000 0.193933 0.000000
O O18 0.654339 0.345662 0.894121
O O19 0.500000 0.000000 0.356787
#
# Coordination Sequence:
#
# PCOD8308107 Si02
#       7
#     8   8   8   8   8   8   8
#     4   9  18  32  48  65  88 121 159 197 236 278
#     4  10  20  34  53  76 102 129 158 198 244 289
#     4   9  18  31  47  70  99 128 156 188 231 282
#     4   9  17  30  49  72  97 125 157 192 231 279
#     4  11  23  38  55  72  94 127 166 205 244 292
#     4   9  19  35  54  76 100 128 162 198 240 291
#     4  10  18  28  46  70  96 124 154 192 234 276
#
# _framework density 18.172507
#
# number of rings (size 3 to 8) (size 9 to 14) (size 15 to 20)
#    0.000    2.429    0.000    3.000    0.000    5.286 
#    0.000    3.571    0.000    1.714    0.000    2.000 
#    0.000    0.000    0.000   26.571    0.000    0.286 
#
# Total GULP energy -693904.413296 kJ/mol
# GULP energy per Si atom -12391.150237 kJ/mol
# Density = 1.813115 g / cm^3
# Si number density = 18.172507 Si / 1000 Ang^3
#
#
#
# Elastic Constant Matrix: (Units=GPa)
#
#
# Indices 1 2 3 4 5 6 
#
# 1 85.1786 43.7039 22.2178 0.0000 0.0000 0.0000
# 2 43.7039 85.1741 22.2171 0.0000 0.0000 0.0000
# 3 22.2178 22.2171 34.5974 0.0000 0.0000 0.0000
# 4 0.0000 0.0000 0.0000 23.6711 0.0000 0.0000
# 5 0.0000 0.0000 0.0000 0.0000 23.6709 0.0000
# 6 0.0000 0.0000 0.0000 0.0000 0.0000 27.6781
#
#
#
# Elastic Compliance Matrix: (Units=1/GPa)
#
#
# Indices 1 2 3 4 5 6 
#
# 1 0.017039 -0.007073 -0.006400 0.000000 0.000000 0.000000
# 2 -0.007073 0.017039 -0.006400 0.000000 0.000000 0.000000
# 3 -0.006400 -0.006400 0.037123 0.000000 0.000000 0.000000
# 4 0.000000 0.000000 0.000000 0.042246 0.000000 0.000000
# 5 0.000000 0.000000 0.000000 0.000000 0.042246 0.000000
# 6 0.000000 0.000000 0.000000 0.000000 0.000000 0.036130
#
#
# Mechanical properties :
#
#
# Convention : Reuss Voigt Hill
#
# Bulk Modulus (GPa) = 31.79052 42.35863 37.07457
# Shear Modulus (GPa) = 20.65663 22.79143 21.72403
#
# Velocity S-wave (km/s) = 3.37515 3.54527 3.46126
# Velocity P-wave (km/s) = 5.72019 6.33391 6.03486
#
# Compressibility (1/GPa) = 0.03145592
#
# Stress axis : x y z
#
# Youngs Moduli (GPa) = 58.69037 58.68747 26.93735
#
# Poissons Ratio (x) = 0.41512 0.17239
# Poissons Ratio (y) = 0.41514 0.17239
# Poissons Ratio (z) = 0.37560 0.37558
#
# Static dielectric constant tensor:
#      x y z
#    x 3.381140 0.000000 0.000000 
#    y 0.000000 3.381150 0.000000 
#    z 0.000000 0.000000 3.133700 
# 
# 
# High freq. dielectric constant tensor:
#      x y z
#    x 1.705900 0.000000 0.000000 
#    y 0.000000 1.705900 0.000000 
#    z 0.000000 0.000000 1.678600 
# 
# From -- ./inp_files/3962.got.cif
#   From: 2010.03.12/outbox.cif.g09.slc.cpg/sg111_2_cif.got.tgz:3962.got - 2010.04.14 01:59:48.
