data_PCOD8308869
_publ_section_title
;
Structure prediction by ZEFSAII (Michael W. Deem and Ramdas Pophale) SiO2 
 PCOD8308869
Probable space group: P -4 21 C
;
_chemical_formula_sum "Si O2"
_cell_formula_units_Z 36
_cell_length_a 11.831587
_cell_length_b 11.831587
_cell_length_c 13.097265
_cell_angle_alpha 90.000000
_cell_angle_beta 90.000000
_cell_angle_gamma 90.000000
_cell_volume 1833.439644
_symmetry_space_group_name_H-M "P -4 21 C"
_symmetry_group_IT_number 114
_symmetry_cell_setting 'tetragonal'
loop_
_space_group_symop_operation_xyz
x,y,z
y,-x,-z
-x,-y,z
-y,x,-z
1/2+x,1/2-y,1/2-z
1/2-x,1/2+y,1/2-z
1/2-y,1/2-x,1/2+z
1/2+y,1/2+x,1/2+z
loop_
_atom_site_type_symbol
_atom_site_label
_atom_site_fract_x
_atom_site_fract_y
_atom_site_fract_z
Si Si1 0.060672 0.704315 0.824808
Si Si2 0.149317 0.927631 0.037871
Si Si3 0.220010 0.222182 0.546604
Si Si4 0.000000 0.500000 0.452338
Si Si5 0.475307 0.215713 0.909028
O O1 0.189824 0.699056 0.863876
O O2 0.988063 0.606662 0.878294
O O3 0.994474 0.819298 0.857508
O O4 0.065060 0.688106 0.704613
O O5 0.248333 0.841692 0.005958
O O6 0.028580 0.863182 0.048071
O O7 0.095928 0.222411 0.596023
O O8 0.212127 0.123302 0.462282
O O9 0.989109 0.395789 0.526443
#
# Coordination Sequence:
#
# PCOD8308869 Si02
#       5
#     8   8   8   4   8
#     4  10  21  37  64  90 118 167 209 244 312 368
#     4   9  18  38  62  87 120 155 203 254 295 357
#     4  10  23  40  59  89 127 158 202 255 305 362
#     4  10  20  40  60  92 124 162 206 266 302 360
#     4  11  23  40  62  89 130 162 204 256 310 371
#
# _framework density 19.635224999999998
#
# number of rings (size 3 to 8) (size 9 to 14) (size 15 to 20)
#    0.000    2.000    2.222    0.667    3.111    0.444 
#    0.000    8.889    0.000    0.000    0.000    0.000 
#    0.000    0.000    0.000    0.000    0.000    0.000 
#
# Total GULP energy -446194.075955 kJ/mol
# GULP energy per Si atom -12394.279888 kJ/mol
# Density = 1.959053 g / cm^3
# Si number density = 19.635225 Si / 1000 Ang^3
#
#
#
# Elastic Constant Matrix: (Units=GPa)
#
#
# Indices 1 2 3 4 5 6 
#
# 1 70.8265 57.9745 47.5008 0.0000 0.0000 0.0000
# 2 57.9745 70.8265 47.5008 0.0000 0.0000 0.0000
# 3 47.5008 47.5008 145.6459 0.0000 0.0000 0.0000
# 4 0.0000 0.0000 0.0000 9.1019 0.0000 0.0000
# 5 0.0000 0.0000 0.0000 0.0000 9.1019 0.0000
# 6 0.0000 0.0000 0.0000 0.0000 0.0000 22.5419
#
#
#
# Elastic Compliance Matrix: (Units=1/GPa)
#
#
# Indices 1 2 3 4 5 6 
#
# 1 0.044016 -0.033793 -0.003334 0.000000 0.000000 0.000000
# 2 -0.033793 0.044016 -0.003334 0.000000 0.000000 0.000000
# 3 -0.003334 -0.003334 0.009041 0.000000 0.000000 0.000000
# 4 0.000000 0.000000 0.000000 0.109867 0.000000 0.000000
# 5 0.000000 0.000000 0.000000 0.000000 0.109867 0.000000
# 6 0.000000 0.000000 0.000000 0.000000 0.000000 0.044362
#
#
# Mechanical properties :
#
#
# Convention : Reuss Voigt Hill
#
# Bulk Modulus (GPa) = 61.91800 65.91680 63.91740
# Shear Modulus (GPa) = 11.17381 17.10399 14.13890
#
# Velocity S-wave (km/s) = 2.38811 2.95462 2.68634
# Velocity P-wave (km/s) = 6.26152 6.72928 6.49961
#
# Compressibility (1/GPa) = 0.01615039
#
# Stress axis : x y z
#
# Youngs Moduli (GPa) = 22.71900 22.71900 110.61004
#
# Poissons Ratio (x) = 0.76774 0.36879
# Poissons Ratio (y) = 0.76774 0.36879
# Poissons Ratio (z) = 0.07575 0.07575
#
# Static dielectric constant tensor:
#      x y z
#    x 3.833810 0.000000 0.000000 
#    y 0.000000 3.833810 0.000000 
#    z 0.000000 0.000000 3.297370 
# 
# 
# High freq. dielectric constant tensor:
#      x y z
#    x 1.772340 0.000000 0.000000 
#    y 0.000000 1.772340 0.000000 
#    z 0.000000 0.000000 1.740220 
# 
# From -- ./inp_files/1471.got.cif
#   From: 2010.03.12/outbox.cif.g09.slc.cpg/sg114_1_cif.got.tgz:1471.got - 2010.04.14 02:08:34.
