data_PCOD8308183
_publ_section_title
;
Structure prediction by ZEFSAII (Michael W. Deem and Ramdas Pophale) SiO2 
 PCOD8308183
Probable space group: P -4 2 M 
;
_chemical_formula_sum "Si O2"
_cell_formula_units_Z 64
_cell_length_a 11.671671
_cell_length_b 11.671671
_cell_length_c 27.454381
_cell_angle_alpha 90.000000
_cell_angle_beta 90.000000
_cell_angle_gamma 90.000000
_cell_volume 3740.052777
_symmetry_space_group_name_H-M "P -4 2 M "
_symmetry_group_IT_number 111
_symmetry_cell_setting 'tetragonal'
loop_
_space_group_symop_operation_xyz
x,y,z
y,-x,-z
-x,-y,z
-y,x,-z
x,-y,-z
-x,y,-z
-y,-x,z
y,x,z
loop_
_atom_site_type_symbol
_atom_site_label
_atom_site_fract_x
_atom_site_fract_y
_atom_site_fract_z
Si Si1 0.863662 0.499652 0.554376
Si Si2 0.682451 0.866410 0.630724
Si Si3 0.548173 0.267568 0.099004
Si Si4 0.103052 0.282826 0.938066
Si Si5 0.335347 0.153518 0.047305
Si Si6 0.500524 0.315075 0.207254
Si Si7 0.500731 0.131252 0.711139
Si Si8 0.132544 0.683559 0.630524
O O1 0.811023 0.500000 0.500000
O O2 0.822520 0.611867 0.583605
O O3 0.823270 0.386813 0.583378
O O4 0.000000 0.500000 0.552994
O O5 0.801901 0.801901 0.633382
O O6 0.611008 0.840204 0.679372
O O7 0.711208 0.999346 0.625944
O O8 0.610619 0.389382 0.082999
O O9 0.647400 0.171834 0.103048
O O10 0.452593 0.217369 0.062353
O O11 0.488126 0.281127 0.150940
O O12 0.148894 0.148894 0.937299
O O13 0.968926 0.303445 0.927964
O O14 0.137711 0.339843 0.989450
O O15 0.232323 0.232323 0.064714
O O16 0.619803 0.380198 0.216058
O O17 0.394839 0.394839 0.222286
O O18 0.498057 0.202865 0.239776
O O19 0.612354 0.158923 0.679191
O O20 0.500000 0.000000 0.727445
O O21 0.196601 0.803400 0.633078
#
# Coordination Sequence:
#
# PCOD8308183 Si02
#       8
#     8   8   8   8   8   8   8   8
#     4   8  15  28  44  62  86 119 156 187 217 258
#     4   9  17  29  46  68  93 120 151 187 227 273
#     4  10  20  33  48  70 100 128 157 193 235 290
#     4   9  19  34  51  72  97 127 163 199 235 280
#     4  10  19  32  52  74  97 127 160 197 240 282
#     4  10  20  33  50  71  94 119 150 194 241 277
#     4   9  18  32  49  69  91 119 156 189 223 274
#     4   9  17  29  46  68  93 120 151 188 227 271
#
# _framework density 17.112058000000001
#
# number of rings (size 3 to 8) (size 9 to 14) (size 15 to 20)
#    0.000    2.750    0.000    3.375    0.000    3.750 
#    0.000    1.875    0.000    7.875    0.000    7.000 
#    0.000    6.000    0.000    0.000    0.000    0.000 
#
# Total GULP energy -793118.371560 kJ/mol
# GULP energy per Si atom -12392.474556 kJ/mol
# Density = 1.707311 g / cm^3
# Si number density = 17.112058 Si / 1000 Ang^3
#
#
#
# Elastic Constant Matrix: (Units=GPa)
#
#
# Indices 1 2 3 4 5 6 
#
# 1 92.4991 58.5780 31.4644 0.0000 0.0000 0.0000
# 2 58.5780 92.4973 31.4649 0.0000 0.0000 0.0000
# 3 31.4644 31.4649 51.4688 0.0000 0.0000 0.0000
# 4 0.0000 0.0000 0.0000 5.5664 0.0000 0.0000
# 5 0.0000 0.0000 0.0000 0.0000 5.5394 0.0000
# 6 0.0000 0.0000 0.0000 0.0000 0.0000 25.8791
#
#
#
# Elastic Compliance Matrix: (Units=1/GPa)
#
#
# Indices 1 2 3 4 5 6 
#
# 1 0.019180 -0.010300 -0.005429 0.000000 0.000000 0.000000
# 2 -0.010300 0.019181 -0.005429 0.000000 0.000000 0.000000
# 3 -0.005429 -0.005429 0.026067 0.000000 0.000000 0.000000
# 4 0.000000 0.000000 0.000000 0.179649 0.000000 0.000000
# 5 0.000000 0.000000 0.000000 0.000000 0.180526 0.000000
# 6 0.000000 0.000000 0.000000 0.000000 0.000000 0.038641
#
#
# Mechanical properties :
#
#
# Convention : Reuss Voigt Hill
#
# Bulk Modulus (GPa) = 45.22380 53.27554 49.24967
# Shear Modulus (GPa) = 9.74788 15.06083 12.40435
#
# Velocity S-wave (km/s) = 2.38932 2.96992 2.69530
# Velocity P-wave (km/s) = 5.83928 6.55450 6.20720
#
# Compressibility (1/GPa) = 0.02211225
#
# Stress axis : x y z
#
# Youngs Moduli (GPa) = 52.13645 52.13477 38.36256
#
# Poissons Ratio (x) = 0.53700 0.20826
# Poissons Ratio (y) = 0.53701 0.20828
# Poissons Ratio (z) = 0.28303 0.28306
#
# Static dielectric constant tensor:
#      x y z
#    x 3.152820 0.000000 0.000000 
#    y 0.000000 3.152820 0.000000 
#    z 0.000000 0.000000 3.148610 
# 
# 
# High freq. dielectric constant tensor:
#      x y z
#    x 1.655720 0.000000 0.000000 
#    y 0.000000 1.655720 0.000000 
#    z 0.000000 0.000000 1.646400 
# 
# From -- ./inp_files/4231.got.cif
#   From: 2010.03.12/outbox.cif.g09.slc.cpg/sg111_3_cif.got.tgz:4231.got - 2010.04.14 01:59:48.
