data_PCOD8308309
_publ_section_title
;
Structure prediction by ZEFSAII (Michael W. Deem and Ramdas Pophale) SiO2 
 PCOD8308309
Probable space group: P -4 2 C
;
_chemical_formula_sum "Si O2"
_cell_formula_units_Z 64
_cell_length_a 12.240583
_cell_length_b 12.240583
_cell_length_c 24.218417
_cell_angle_alpha 90.000000
_cell_angle_beta 90.000000
_cell_angle_gamma 90.000000
_cell_volume 3628.690760
_symmetry_space_group_name_H-M "P -4 2 C"
_symmetry_group_IT_number 112
_symmetry_cell_setting 'tetragonal'
loop_
_space_group_symop_operation_xyz
x,y,z
y,-x,-z
-x,-y,z
-y,x,-z
x,-y,1/2-z
-x,y,1/2-z
-y,-x,1/2+z
y,x,1/2+z
loop_
_atom_site_type_symbol
_atom_site_label
_atom_site_fract_x
_atom_site_fract_y
_atom_site_fract_z
Si Si1 0.500000 0.119459 0.100831
Si Si2 0.273730 0.871930 0.685835
Si Si3 0.121635 0.500000 0.141452
Si Si4 0.733668 0.733668 1.000000
Si Si5 0.273730 0.871930 0.814165
Si Si6 0.263481 0.131448 0.393025
Si Si7 0.131448 0.263481 0.606975
Si Si8 0.184975 0.500000 0.019732
O O1 0.612750 0.175266 0.120785
O O2 0.387250 0.175266 0.120785
O O3 0.500000 0.000000 0.126777
O O4 0.500000 0.108367 0.034004
O O5 0.389427 0.821673 0.664425
O O6 0.260767 0.846662 0.750000
O O7 0.172753 0.815391 0.654999
O O8 0.266958 1.000000 0.672492
O O9 0.178327 0.389427 0.164425
O O10 0.114508 0.500000 0.075368
O O11 0.000000 0.500000 0.166263
O O12 0.816055 0.769322 0.951399
O O13 0.608654 0.741798 0.980456
O O14 0.769322 0.816055 0.048601
O O15 0.741798 0.608654 0.019544
O O16 0.172753 0.815391 0.845001
O O17 0.257957 0.000000 0.397492
#
# Coordination Sequence:
#
# PCOD8308309 Si02
#       8
#     8   8   8   8   8   8   8   8
#     4   8  17  32  51  75 102 134 175 218 255 308
#     4  10  21  36  55  80 108 140 180 224 268 315
#     4  10  18  32  57  80 103 138 183 225 260 309
#     4  10  20  33  52  81 108 138 174 216 268 324
#     4  10  21  36  55  80 108 140 180 224 268 315
#     4  10  20  35  54  77 107 141 178 220 268 320
#     4  10  20  35  54  77 107 141 178 220 268 320
#     4  10  17  30  52  79 107 136 170 213 266 320
#
# _framework density 17.637215999999999
#
# number of rings (size 3 to 8) (size 9 to 14) (size 15 to 20)
#    0.000    2.250    2.500    0.750    0.000    4.750 
#    0.000    1.875    0.000    3.000    0.000    1.750 
#    0.000    0.000    0.000    0.000    0.000    0.000 
#
# Total GULP energy -793106.046130 kJ/mol
# GULP energy per Si atom -12392.281971 kJ/mol
# Density = 1.759707 g / cm^3
# Si number density = 17.637216 Si / 1000 Ang^3
#
#
#
# Elastic Constant Matrix: (Units=GPa)
#
#
# Indices 1 2 3 4 5 6 
#
# 1 98.3266 39.3080 46.3923 0.0000 0.0000 0.0000
# 2 39.3080 98.3266 46.3923 0.0000 0.0000 0.0000
# 3 46.3923 46.3923 99.2753 0.0000 0.0000 0.0000
# 4 0.0000 0.0000 0.0000 28.8310 0.0000 0.0000
# 5 0.0000 0.0000 0.0000 0.0000 28.8310 0.0000
# 6 0.0000 0.0000 0.0000 0.0000 0.0000 17.0626
#
#
#
# Elastic Compliance Matrix: (Units=1/GPa)
#
#
# Indices 1 2 3 4 5 6 
#
# 1 0.013776 -0.003168 -0.004957 0.000000 0.000000 0.000000
# 2 -0.003168 0.013776 -0.004957 0.000000 0.000000 0.000000
# 3 -0.004957 -0.004957 0.014706 0.000000 0.000000 0.000000
# 4 0.000000 0.000000 0.000000 0.034685 0.000000 0.000000
# 5 0.000000 0.000000 0.000000 0.000000 0.034685 0.000000
# 6 0.000000 0.000000 0.000000 0.000000 0.000000 0.058608
#
#
# Mechanical properties :
#
#
# Convention : Reuss Voigt Hill
#
# Bulk Modulus (GPa) = 62.13965 62.23486 62.18725
# Shear Modulus (GPa) = 24.78162 25.86732 25.32447
#
# Velocity S-wave (km/s) = 3.75250 3.83382 3.79338
# Velocity P-wave (km/s) = 7.35416 7.41352 7.38390
#
# Compressibility (1/GPa) = 0.01609278
#
# Stress axis : x y z
#
# Youngs Moduli (GPa) = 72.59256 72.59256 68.00050
#
# Poissons Ratio (x) = 0.22999 0.33707
# Poissons Ratio (y) = 0.22999 0.33707
# Poissons Ratio (z) = 0.35983 0.35983
#
# Static dielectric constant tensor:
#      x y z
#    x 3.289080 0.000000 0.000000 
#    y 0.000000 3.289080 0.000000 
#    z 0.000000 0.000000 3.136470 
# 
# 
# High freq. dielectric constant tensor:
#      x y z
#    x 1.675360 0.000000 0.000000 
#    y 0.000000 1.675360 0.000000 
#    z 0.000000 0.000000 1.674380 
# 
# From -- ./inp_files/5569.got.cif
#   From: 2010.03.12/outbox.cif.g09.slc.cpg/sg112_3_cif.got.tgz:5569.got - 2010.04.14 02:02:48.
