data_PCOD8308446
_publ_section_title
;
Structure prediction by ZEFSAII (Michael W. Deem and Ramdas Pophale) SiO2 
 PCOD8308446
Probable space group: P -4 2 C
;
_chemical_formula_sum "Si O2"
_cell_formula_units_Z 16
_cell_length_a 5.021684
_cell_length_b 5.021684
_cell_length_c 24.783667
_cell_angle_alpha 90.000000
_cell_angle_beta 90.000000
_cell_angle_gamma 90.000000
_cell_volume 624.977419
_symmetry_space_group_name_H-M "P -4 2 C"
_symmetry_group_IT_number 112
_symmetry_cell_setting 'tetragonal'
loop_
_space_group_symop_operation_xyz
x,y,z
y,-x,-z
-x,-y,z
-y,x,-z
x,-y,1/2-z
-x,y,1/2-z
-y,-x,1/2+z
y,x,1/2+z
loop_
_atom_site_type_symbol
_atom_site_label
_atom_site_fract_x
_atom_site_fract_y
_atom_site_fract_z
Si Si1 0.500000 0.000000 0.928950
Si Si2 0.500000 0.500000 0.000000
Si Si3 0.500000 0.000000 0.750000
Si Si4 0.316427 0.744188 0.156694
O O1 0.251486 0.089570 0.890066
O O2 0.596607 0.247417 0.965131
O O3 0.302302 0.180857 0.785365
O O4 0.500000 0.500000 0.140147
O O5 0.500000 0.000000 0.158987
#
# Coordination Sequence:
#
# PCOD8308446 Si02
#       4
#     4   2   2   8
#     4  11  28  51  80 122 158 211 270 333 406 482
#     4  12  28  48  84 114 160 208 268 336 404 478
#     4  10  26  46  80 120 164 216 272 330 404 482
#     4  11  26  49  79 115 163 211 267 333 401 483
#
# _framework density 25.600919999999999
#
# number of rings (size 3 to 8) (size 9 to 14) (size 15 to 20)
#    0.000    1.000    2.500    0.750    3.500   19.000 
#    0.000    0.000    5.500    0.000    0.000    0.000 
#    0.000    0.000    0.000    0.000    0.000    0.000 
#
# Total GULP energy -198381.311311 kJ/mol
# GULP energy per Si atom -12398.831957 kJ/mol
# Density = 2.554265 g / cm^3
# Si number density = 25.600920 Si / 1000 Ang^3
#
#
#
# Elastic Constant Matrix: (Units=GPa)
#
#
# Indices 1 2 3 4 5 6 
#
# 1 192.2385 91.0043 89.6696 0.0000 0.0000 0.0000
# 2 91.0043 192.2385 89.6696 0.0000 0.0000 0.0000
# 3 89.6696 89.6696 195.8255 0.0000 0.0000 0.0000
# 4 0.0000 0.0000 0.0000 11.0518 0.0000 0.0000
# 5 0.0000 0.0000 0.0000 0.0000 11.0518 0.0000
# 6 0.0000 0.0000 0.0000 0.0000 0.0000 61.9671
#
#
#
# Elastic Compliance Matrix: (Units=1/GPa)
#
#
# Indices 1 2 3 4 5 6 
#
# 1 0.007425 -0.002453 -0.002277 0.000000 0.000000 0.000000
# 2 -0.002453 0.007425 -0.002277 0.000000 0.000000 0.000000
# 3 -0.002277 -0.002277 0.007192 0.000000 0.000000 0.000000
# 4 0.000000 0.000000 0.000000 0.090483 0.000000 0.000000
# 5 0.000000 0.000000 0.000000 0.000000 0.090483 0.000000
# 6 0.000000 0.000000 0.000000 0.000000 0.000000 0.016138
#
#
# Mechanical properties :
#
#
# Convention : Reuss Voigt Hill
#
# Bulk Modulus (GPa) = 124.55083 124.55440 124.55261
# Shear Modulus (GPa) = 21.20129 37.47807 29.33968
#
# Velocity S-wave (km/s) = 2.88087 3.83029 3.38899
# Velocity P-wave (km/s) = 7.73450 8.26556 8.00443
#
# Compressibility (1/GPa) = 0.00802885
#
# Stress axis : x y z
#
# Youngs Moduli (GPa) = 134.67849 134.67849 139.04990
#
# Poissons Ratio (x) = 0.33037 0.31658
# Poissons Ratio (y) = 0.33037 0.31658
# Poissons Ratio (z) = 0.30663 0.30663
#
# Static dielectric constant tensor:
#      x y z
#    x 4.720100 0.000000 0.000000 
#    y 0.000000 4.720100 0.000000 
#    z 0.000000 0.000000 4.990450 
# 
# 
# High freq. dielectric constant tensor:
#      x y z
#    x 2.023530 0.000000 0.000000 
#    y 0.000000 2.023530 0.000000 
#    z 0.000000 0.000000 2.044420 
# 
# From -- ./inp_files/5013.got.cif
#   From: 2010.03.12/outbox.cif.g09.slc.cpg/sg112_3_cif.got.tgz:5013.got - 2010.04.14 02:02:48.
