data_PCOD8308353
_publ_section_title
;
Structure prediction by ZEFSAII (Michael W. Deem and Ramdas Pophale) SiO2 
 PCOD8308353
Probable space group: P -4 2 C
;
_chemical_formula_sum "Si O2"
_cell_formula_units_Z 48
_cell_length_a 11.306688
_cell_length_b 11.306688
_cell_length_c 18.846321
_cell_angle_alpha 90.000000
_cell_angle_beta 90.000000
_cell_angle_gamma 90.000000
_cell_volume 2409.336170
_symmetry_space_group_name_H-M "P -4 2 C"
_symmetry_group_IT_number 112
_symmetry_cell_setting 'tetragonal'
loop_
_space_group_symop_operation_xyz
x,y,z
y,-x,-z
-x,-y,z
-y,x,-z
x,-y,1/2-z
-x,y,1/2-z
-y,-x,1/2+z
y,x,1/2+z
loop_
_atom_site_type_symbol
_atom_site_label
_atom_site_fract_x
_atom_site_fract_y
_atom_site_fract_z
Si Si1 0.232298 0.034800 0.323323
Si Si2 0.394280 0.823037 0.341222
Si Si3 0.724188 0.689829 0.035659
Si Si4 0.636117 0.459128 0.087175
Si Si5 0.839934 0.072465 0.025445
Si Si6 0.260183 0.360963 0.809208
O O1 0.166069 0.011745 0.396745
O O2 0.250325 0.175899 0.324784
O O3 0.161921 0.000000 0.250000
O O4 0.353310 0.955125 0.319725
O O5 0.321729 0.790947 0.411598
O O6 0.374577 0.731393 0.275690
O O7 0.534220 0.808731 0.352711
O O8 0.728508 0.568148 0.081371
O O9 0.632029 0.666617 0.973989
O O10 0.849581 0.727573 0.000755
O O11 0.500000 0.500000 0.080850
O O12 0.657165 0.392741 0.161901
O O13 0.959464 0.150471 0.026386
#
# Coordination Sequence:
#
# PCOD8308353 Si02
#       6
#     8   8   8   8   8   8
#     4  10  20  38  63  88 120 158 205 264 320 369
#     4  10  20  34  57  91 120 165 206 254 307 363
#     4  12  21  37  58  87 127 161 207 251 308 378
#     4  12  21  35  56  88 127 171 204 242 307 384
#     4  11  24  43  65  89 119 153 211 273 324 384
#     4  10  20  35  57  86 130 161 207 252 303 371
#
# _framework density 19.922499999999999
#
# number of rings (size 3 to 8) (size 9 to 14) (size 15 to 20)
#    0.000    1.167    6.667    0.500    0.000    2.667 
#    0.000    2.500    0.000    0.000    0.000    0.000 
#    5.000    0.000    0.000    0.000    0.000    0.000 
#
# Total GULP energy -594654.878190 kJ/mol
# GULP energy per Si atom -12388.643296 kJ/mol
# Density = 1.987716 g / cm^3
# Si number density = 19.922500 Si / 1000 Ang^3
#
#
#
# Elastic Constant Matrix: (Units=GPa)
#
#
# Indices 1 2 3 4 5 6 
#
# 1 88.0939 34.1272 35.9230 0.0000 0.0000 0.0000
# 2 34.1272 88.0939 35.9230 0.0000 0.0000 0.0000
# 3 35.9230 35.9230 121.7651 0.0000 0.0000 0.0000
# 4 0.0000 0.0000 0.0000 27.5772 0.0000 0.0000
# 5 0.0000 0.0000 0.0000 0.0000 27.5772 0.0000
# 6 0.0000 0.0000 0.0000 0.0000 0.0000 31.5610
#
#
#
# Elastic Compliance Matrix: (Units=1/GPa)
#
#
# Indices 1 2 3 4 5 6 
#
# 1 0.014214 -0.004316 -0.002920 0.000000 0.000000 0.000000
# 2 -0.004316 0.014214 -0.002920 0.000000 0.000000 0.000000
# 3 -0.002920 -0.002920 0.009936 0.000000 0.000000 0.000000
# 4 0.000000 0.000000 0.000000 0.036262 0.000000 0.000000
# 5 0.000000 0.000000 0.000000 0.000000 0.036262 0.000000
# 6 0.000000 0.000000 0.000000 0.000000 0.000000 0.031685
#
#
# Mechanical properties :
#
#
# Convention : Reuss Voigt Hill
#
# Bulk Modulus (GPa) = 55.39665 56.65548 56.02607
# Shear Modulus (GPa) = 29.60296 30.14173 29.87234
#
# Velocity S-wave (km/s) = 3.85893 3.89388 3.87644
# Velocity P-wave (km/s) = 6.90808 6.97969 6.94398
#
# Compressibility (1/GPa) = 0.01805163
#
# Stress axis : x y z
#
# Youngs Moduli (GPa) = 70.35198 70.35198 100.64821
#
# Poissons Ratio (x) = 0.30362 0.29392
# Poissons Ratio (y) = 0.30362 0.29392
# Poissons Ratio (z) = 0.20545 0.20545
#
# Static dielectric constant tensor:
#      x y z
#    x 3.564180 0.000000 0.000000 
#    y 0.000000 3.564180 0.000000 
#    z 0.000000 0.000000 3.890010 
# 
# 
# High freq. dielectric constant tensor:
#      x y z
#    x 1.753830 0.000000 0.000000 
#    y 0.000000 1.753830 0.000000 
#    z 0.000000 0.000000 1.792550 
# 
# From -- ./inp_files/4137.got.cif
#   From: 2010.03.12/outbox.cif.g09.slc.cpg/sg112_3_cif.got.tgz:4137.got - 2010.04.14 02:02:48.
