data_PCOD8308320
_publ_section_title
;
Structure prediction by ZEFSAII (Michael W. Deem and Ramdas Pophale) SiO2 
 PCOD8308320
Probable space group: P -4 2 C
;
_chemical_formula_sum "Si O2"
_cell_formula_units_Z 48
_cell_length_a 16.768340
_cell_length_b 16.768340
_cell_length_c 8.667609
_cell_angle_alpha 90.000000
_cell_angle_beta 90.000000
_cell_angle_gamma 90.000000
_cell_volume 2437.134258
_symmetry_space_group_name_H-M "P -4 2 C"
_symmetry_group_IT_number 112
_symmetry_cell_setting 'tetragonal'
loop_
_space_group_symop_operation_xyz
x,y,z
y,-x,-z
-x,-y,z
-y,x,-z
x,-y,1/2-z
-x,y,1/2-z
-y,-x,1/2+z
y,x,1/2+z
loop_
_atom_site_type_symbol
_atom_site_label
_atom_site_fract_x
_atom_site_fract_y
_atom_site_fract_z
Si Si1 0.722845 0.313684 0.452326
Si Si2 0.028658 0.673861 0.091342
Si Si3 0.418724 0.895287 0.325267
Si Si4 0.414697 0.280487 0.256074
Si Si5 0.815416 0.752455 0.318195
Si Si6 0.257115 0.073026 0.345750
O O1 0.738049 0.388883 0.566025
O O2 0.649756 0.333159 0.336628
O O3 0.703595 0.238901 0.561609
O O4 0.799662 0.287127 0.350480
O O5 0.094824 0.740705 0.129375
O O6 0.000000 0.633374 0.250000
O O7 0.062530 0.601230 0.988186
O O8 0.957120 0.727548 0.019793
O O9 0.500000 0.930366 0.250000
O O10 0.426429 0.800360 0.341935
O O11 0.345983 0.912509 0.213223
O O12 0.500000 0.325785 0.250000
O O13 0.794573 0.847037 0.326306
O O14 0.216700 0.000000 0.250000
#
# Coordination Sequence:
#
# PCOD8308320 Si02
#       6
#     8   8   8   8   8   8
#     4  10  18  34  65  83 109 159 192 248 283 330
#     4  11  23  34  58  87 116 150 198 243 295 346
#     4  10  20  38  58  78 117 158 187 228 296 360
#     4  10  20  36  61  90 117 150 195 242 296 344
#     4  11  19  37  57  84 114 145 210 249 274 350
#     4  10  20  36  58  82 112 162 189 233 309 351
#
# _framework density 19.695263000000001
#
# number of rings (size 3 to 8) (size 9 to 14) (size 15 to 20)
#    0.000    1.667    5.000    2.000    0.000    3.000 
#    0.000    5.000    0.000    4.500    0.000    0.000 
#    0.000    0.000    0.000    0.000    0.000    0.000 
#
# Total GULP energy -594629.509815 kJ/mol
# GULP energy per Si atom -12388.114788 kJ/mol
# Density = 1.965044 g / cm^3
# Si number density = 19.695263 Si / 1000 Ang^3
#
#
#
# Elastic Constant Matrix: (Units=GPa)
#
#
# Indices 1 2 3 4 5 6 
#
# 1 105.4972 25.6298 40.1964 0.0000 0.0000 0.0000
# 2 25.6298 105.4972 40.1964 0.0000 0.0000 0.0000
# 3 40.1964 40.1964 131.9012 0.0000 0.0000 0.0000
# 4 0.0000 0.0000 0.0000 23.8789 0.0000 0.0000
# 5 0.0000 0.0000 0.0000 0.0000 23.8789 0.0000
# 6 0.0000 0.0000 0.0000 0.0000 0.0000 7.4012
#
#
#
# Elastic Compliance Matrix: (Units=1/GPa)
#
#
# Indices 1 2 3 4 5 6 
#
# 1 0.010950 -0.001571 -0.002858 0.000000 0.000000 0.000000
# 2 -0.001571 0.010950 -0.002858 0.000000 0.000000 0.000000
# 3 -0.002858 -0.002858 0.009323 0.000000 0.000000 0.000000
# 4 0.000000 0.000000 0.000000 0.041878 0.000000 0.000000
# 5 0.000000 0.000000 0.000000 0.000000 0.041878 0.000000
# 6 0.000000 0.000000 0.000000 0.000000 0.000000 0.135114
#
#
# Mechanical properties :
#
#
# Convention : Reuss Voigt Hill
#
# Bulk Modulus (GPa) = 60.06697 61.66009 60.86353
# Shear Modulus (GPa) = 18.50371 26.82333 22.66352
#
# Velocity S-wave (km/s) = 3.06845 3.69442 3.39589
# Velocity P-wave (km/s) = 6.56645 7.04083 6.80778
#
# Compressibility (1/GPa) = 0.01664809
#
# Stress axis : x y z
#
# Youngs Moduli (GPa) = 91.32763 91.32763 107.25711
#
# Poissons Ratio (x) = 0.14349 0.30655
# Poissons Ratio (y) = 0.14349 0.30655
# Poissons Ratio (z) = 0.26102 0.26102
#
# Static dielectric constant tensor:
#      x y z
#    x 3.669680 0.000000 0.000000 
#    y 0.000000 3.669680 0.000000 
#    z 0.000000 0.000000 4.087630 
# 
# 
# High freq. dielectric constant tensor:
#      x y z
#    x 1.744960 0.000000 0.000000 
#    y 0.000000 1.744960 0.000000 
#    z 0.000000 0.000000 1.783160 
# 
# From -- ./inp_files/1419.got.cif
#   From: 2010.03.12/outbox.cif.g09.slc.cpg/sg112_1_cif.got.tgz:1419.got - 2010.04.14 02:02:48.
