data_PCOD8308990
_publ_section_title
;
Structure prediction by ZEFSAII (Michael W. Deem and Ramdas Pophale) SiO2 
 PCOD8308990
Probable space group: P -4 21 C
;
_chemical_formula_sum "Si O2"
_cell_formula_units_Z 38
_cell_length_a 8.659036
_cell_length_b 8.659036
_cell_length_c 23.150718
_cell_angle_alpha 90.000000
_cell_angle_beta 90.000000
_cell_angle_gamma 90.000000
_cell_volume 1735.815473
_symmetry_space_group_name_H-M "P -4 21 C"
_symmetry_group_IT_number 114
_symmetry_cell_setting 'tetragonal'
loop_
_space_group_symop_operation_xyz
x,y,z
y,-x,-z
-x,-y,z
-y,x,-z
1/2+x,1/2-y,1/2-z
1/2-x,1/2+y,1/2-z
1/2-y,1/2-x,1/2+z
1/2+y,1/2+x,1/2+z
loop_
_atom_site_type_symbol
_atom_site_label
_atom_site_fract_x
_atom_site_fract_y
_atom_site_fract_z
Si Si1 0.673997 0.449575 0.923586
Si Si2 0.343101 0.572682 0.792581
Si Si3 0.659947 0.068632 0.807323
Si Si4 0.755801 0.604582 0.570450
Si Si5 0.000000 0.000000 0.000000
Si Si6 0.500000 0.000000 0.011234
O O1 0.500000 0.500000 0.946218
O O2 0.693145 0.494689 0.856251
O O3 0.659352 0.267432 0.930376
O O4 0.834488 0.511929 0.953445
O O5 0.500000 0.500000 0.768416
O O6 0.357331 0.754774 0.790368
O O7 0.210014 0.525707 0.748608
O O8 0.768583 0.046816 0.863637
O O9 0.500000 0.000000 0.828906
O O10 0.587781 0.619622 0.541766
O O11 0.852914 0.485507 0.531103
#
# Coordination Sequence:
#
# PCOD8308990 Si02
#       6
#     8   8   8   8   2   4
#     4  10  25  45  71 103 142 185 242 297 355 434
#     4  10  23  45  67 100 133 178 229 287 356 419
#     4  11  23  44  69  97 137 174 229 286 356 425
#     4  11  25  44  68 100 138 186 229 295 357 432
#     4  12  24  48  64 100 144 176 244 280 358 444
#     4  12  24  44  70 102 136 186 234 284 364 420
#
# _framework density 21.891729999999999
#
# number of rings (size 3 to 8) (size 9 to 14) (size 15 to 20)
#    0.000    1.263    3.158    1.263    5.895    0.000 
#    7.579    0.000    0.000    0.000    0.000    0.000 
#    0.000    0.000    0.000    0.000    0.000    0.000 
#
# Total GULP energy -470798.097146 kJ/mol
# GULP energy per Si atom -12389.423609 kJ/mol
# Density = 2.184190 g / cm^3
# Si number density = 21.891730 Si / 1000 Ang^3
#
#
#
# Elastic Constant Matrix: (Units=GPa)
#
#
# Indices 1 2 3 4 5 6 
#
# 1 102.5836 27.7863 54.6084 0.0000 0.0000 0.0000
# 2 27.7863 102.5836 54.6084 0.0000 0.0000 0.0000
# 3 54.6084 54.6084 138.5680 0.0000 0.0000 0.0000
# 4 0.0000 0.0000 0.0000 32.0357 0.0000 0.0000
# 5 0.0000 0.0000 0.0000 0.0000 32.0357 0.0000
# 6 0.0000 0.0000 0.0000 0.0000 0.0000 38.7402
#
#
#
# Elastic Compliance Matrix: (Units=1/GPa)
#
#
# Indices 1 2 3 4 5 6 
#
# 1 0.012410 -0.000959 -0.004513 0.000000 0.000000 0.000000
# 2 -0.000959 0.012410 -0.004513 0.000000 0.000000 0.000000
# 3 -0.004513 -0.004513 0.010774 0.000000 0.000000 0.000000
# 4 0.000000 0.000000 0.000000 0.031215 0.000000 0.000000
# 5 0.000000 0.000000 0.000000 0.000000 0.031215 0.000000
# 6 0.000000 0.000000 0.000000 0.000000 0.000000 0.025813
#
#
# Mechanical properties :
#
#
# Convention : Reuss Voigt Hill
#
# Bulk Modulus (GPa) = 64.00168 68.63793 66.31981
# Shear Modulus (GPa) = 33.55371 34.34448 33.94910
#
# Velocity S-wave (km/s) = 3.91923 3.96515 3.94226
# Velocity P-wave (km/s) = 7.05546 7.23772 7.14717
#
# Compressibility (1/GPa) = 0.01562459
#
# Stress axis : x y z
#
# Youngs Moduli (GPa) = 80.57869 80.57869 92.82014
#
# Poissons Ratio (x) = 0.07729 0.41887
# Poissons Ratio (y) = 0.07729 0.41887
# Poissons Ratio (z) = 0.36363 0.36363
#
# Static dielectric constant tensor:
#      x y z
#    x 3.933280 0.000000 0.000000 
#    y 0.000000 3.933280 0.000000 
#    z 0.000000 0.000000 4.165870 
# 
# 
# High freq. dielectric constant tensor:
#      x y z
#    x 1.857380 0.000000 0.000000 
#    y 0.000000 1.857380 0.000000 
#    z 0.000000 0.000000 1.878260 
# 
# From -- ./inp_files/3421.got.cif
#   From: 2010.03.12/outbox.cif.g09.slc.cpg/sg114_2_cif.got.tgz:3421.got - 2010.04.14 02:08:34.
