data_PCOD8308026
_publ_section_title
;
Structure prediction by ZEFSAII (Michael W. Deem and Ramdas Pophale) SiO2 
 PCOD8308026
Probable space group: I 41 C D
;
_chemical_formula_sum "Si O2"
_cell_formula_units_Z 88
_cell_length_a 10.815330
_cell_length_b 10.815330
_cell_length_c 31.392156
_cell_angle_alpha 90.000000
_cell_angle_beta 90.000000
_cell_angle_gamma 90.000000
_cell_volume 3671.983275
_symmetry_space_group_name_H-M "I 41 C D"
_symmetry_group_IT_number 110
_symmetry_cell_setting 'tetragonal'
loop_
_space_group_symop_operation_xyz
x,y,z
-y,1/2+x,1/4+z
-x,-y,z
y,1/2-x,1/4+z
-x,y,1/2+z
x,-y,1/2+z
1/2-y,-x,1/4+z
1/2+y,x,1/4+z
1/2+x,1/2+y,1/2+z
1/2-y,x,3/4+z
1/2-x,1/2-y,1/2+z
1/2+y,-x,3/4+z
1/2-x,1/2+y,z
1/2+x,1/2-y,z
-y,1/2-x,3/4+z
y,1/2+x,3/4+z
loop_
_atom_site_type_symbol
_atom_site_label
_atom_site_fract_x
_atom_site_fract_y
_atom_site_fract_z
Si Si1 0.000000 0.000000 0.232031
Si Si2 0.329316 0.866658 0.639159
Si Si3 0.670683 0.366658 0.291435
Si Si4 0.401292 0.341644 0.522612
Si Si5 0.000000 0.000000 0.948563
Si Si6 0.841644 0.098708 0.157982
Si Si7 0.500000 0.500000 0.590297
O O1 0.052945 0.108389 0.261669
O O2 0.896899 0.072481 0.204595
O O3 0.367549 0.867549 0.590297
O O4 0.447055 0.891612 0.668925
O O5 0.273817 0.732606 0.654660
O O6 0.237383 0.979329 0.646482
O O7 0.762617 0.479329 0.284112
O O8 0.726183 0.232606 0.275933
O O9 0.427518 0.396899 0.475999
O O10 0.392827 0.446789 0.559388
O O11 0.946789 0.107173 0.121205
#
# Coordination Sequence:
#
# PCOD8308026 Si02
#       7
#     8  16  16  16   8  16   8
#     4  11  27  45  73 110 154 204 265 331 399 487
#     4  12  26  47  77 111 153 204 265 335 403 488
#     4  12  26  47  77 111 153 204 265 335 403 488
#     4  11  25  47  74 107 150 205 260 321 407 480
#     4  11  27  45  73 110 154 204 265 331 399 487
#     4  11  25  47  74 107 150 205 260 321 407 480
#     4  10  20  44  70 100 142 196 246 316 376 474
#
# _framework density 23.965250000000001
#
# number of rings (size 3 to 8) (size 9 to 14) (size 15 to 20)
#    0.000    0.727    3.636    2.727    0.000   14.545 
#    0.000    0.000    0.000    0.000    0.000    0.000 
#    0.000    0.000    0.000    0.000    0.000    0.000 
#
# Total GULP energy -545336.938137 kJ/mol
# GULP energy per Si atom -12394.021321 kJ/mol
# Density = 2.391070 g / cm^3
# Si number density = 23.965250 Si / 1000 Ang^3
#
#
#
# Elastic Constant Matrix: (Units=GPa)
#
#
# Indices 1 2 3 4 5 6 
#
# 1 153.7655 63.9604 66.6585 0.0000 0.0000 0.0000
# 2 63.9604 153.7655 66.6585 0.0000 0.0000 0.0000
# 3 66.6585 66.6585 192.1757 0.0000 0.0000 0.0000
# 4 0.0000 0.0000 0.0000 26.7575 0.0000 0.0000
# 5 0.0000 0.0000 0.0000 0.0000 26.7575 0.0000
# 6 0.0000 0.0000 0.0000 0.0000 0.0000 43.4749
#
#
#
# Elastic Compliance Matrix: (Units=1/GPa)
#
#
# Indices 1 2 3 4 5 6 
#
# 1 0.008483 -0.002652 -0.002023 0.000000 0.000000 0.000000
# 2 -0.002652 0.008483 -0.002023 0.000000 0.000000 0.000000
# 3 -0.002023 -0.002023 0.006607 0.000000 0.000000 0.000000
# 4 0.000000 0.000000 0.000000 0.037373 0.000000 0.000000
# 5 0.000000 0.000000 0.000000 0.000000 0.037373 0.000000
# 6 0.000000 0.000000 0.000000 0.000000 0.000000 0.023002
#
#
# Mechanical properties :
#
#
# Convention : Reuss Voigt Hill
#
# Bulk Modulus (GPa) = 98.24288 99.36239 98.80264
# Shear Modulus (GPa) = 36.20348 39.55992 37.88170
#
# Velocity S-wave (km/s) = 3.89094 4.06731 3.98011
# Velocity P-wave (km/s) = 7.82744 7.97549 7.90181
#
# Compressibility (1/GPa) = 0.01017885
#
# Stress axis : x y z
#
# Youngs Moduli (GPa) = 117.87795 117.87793 151.35963
#
# Poissons Ratio (x) = 0.31260 0.30616
# Poissons Ratio (y) = 0.31260 0.30616
# Poissons Ratio (z) = 0.23843 0.23843
#
# Static dielectric constant tensor:
#      x y z
#    x 4.506600 0.000000 0.000000 
#    y 0.000000 4.506600 0.000000 
#    z 0.000000 0.000000 4.981660 
# 
# 
# High freq. dielectric constant tensor:
#      x y z
#    x 1.943350 0.000000 0.000000 
#    y 0.000000 1.943350 0.000000 
#    z 0.000000 0.000000 1.985650 
# 
# From -- ./inp_files/3183.got.cif
#   From: 2010.03.12/outbox.cif.g09.slc.cpg/sg110_2_cif.got.tgz:3183.got - 2010.04.14 01:58:01.
