data_PCOD8308032
_publ_section_title
;
Structure prediction by ZEFSAII (Michael W. Deem and Ramdas Pophale) SiO2 
 PCOD8308032
Probable space group: I 41 C D
;
_chemical_formula_sum "Si O2"
_cell_formula_units_Z 104
_cell_length_a 17.183326
_cell_length_b 17.183326
_cell_length_c 17.021978
_cell_angle_alpha 90.000000
_cell_angle_beta 90.000000
_cell_angle_gamma 90.000000
_cell_volume 5026.023143
_symmetry_space_group_name_H-M "I 41 C D"
_symmetry_group_IT_number 110
_symmetry_cell_setting 'tetragonal'
loop_
_space_group_symop_operation_xyz
x,y,z
-y,1/2+x,1/4+z
-x,-y,z
y,1/2-x,1/4+z
-x,y,1/2+z
x,-y,1/2+z
1/2-y,-x,1/4+z
1/2+y,x,1/4+z
1/2+x,1/2+y,1/2+z
1/2-y,x,3/4+z
1/2-x,1/2-y,1/2+z
1/2+y,-x,3/4+z
1/2-x,1/2+y,z
1/2+x,1/2-y,z
-y,1/2-x,3/4+z
y,1/2+x,3/4+z
loop_
_atom_site_type_symbol
_atom_site_label
_atom_site_fract_x
_atom_site_fract_y
_atom_site_fract_z
Si Si1 0.621995 0.249168 0.405120
Si Si2 0.928419 0.588202 0.078612
Si Si3 0.357140 0.481951 0.160488
Si Si4 0.500000 0.000000 0.801450
Si Si5 0.717803 0.242002 0.265517
Si Si6 0.067268 0.080216 0.410011
Si Si7 0.144545 0.239665 0.876572
O O1 0.546086 0.205622 0.435792
O O2 0.636783 0.232265 0.312661
O O3 0.691037 0.208382 0.451799
O O4 0.619334 0.342796 0.416505
O O5 0.912436 0.496213 0.090178
O O6 0.848865 0.629394 0.102242
O O7 0.001598 0.615479 0.134982
O O8 0.944950 0.604181 0.987367
O O9 0.424907 0.517750 0.105608
O O10 0.304291 0.421185 0.111307
O O11 0.571623 0.022639 0.743847
O O12 0.782988 0.269759 0.326561
O O13 0.739348 0.162640 0.220009
#
# Coordination Sequence:
#
# PCOD8308032 Si02
#       7
#    16  16  16   8  16  16  16
#     4  11  23  41  66  95 131 171 220 267 336 382
#     4  10  21  39  65  91 126 168 212 268 321 386
#     4  12  23  39  69  95 130 171 221 264 329 392
#     4  10  24  40  64  98 130 164 220 272 316 396
#     4  10  24  40  61  92 132 167 215 268 317 403
#     4  10  22  42  67  88 132 162 215 277 324 381
#     4  11  21  42  63  90 128 174 208 268 331 382
#
# _framework density 20.692304
#
# number of rings (size 3 to 8) (size 9 to 14) (size 15 to 20)
#    0.000    1.538    3.077    2.769    4.308    0.000 
#    0.000    0.000    3.385    0.000    0.000    0.000 
#    0.000    0.000    0.000    0.000    0.000    0.000 
#
# Total GULP energy -644446.968910 kJ/mol
# GULP energy per Si atom -12393.210941 kJ/mol
# Density = 2.064521 g / cm^3
# Si number density = 20.692304 Si / 1000 Ang^3
#
#
#
# Elastic Constant Matrix: (Units=GPa)
#
#
# Indices 1 2 3 4 5 6 
#
# 1 80.7026 7.9905 31.3391 0.0000 0.0000 0.0000
# 2 7.9905 80.7026 31.3391 0.0000 0.0000 0.0000
# 3 31.3391 31.3391 113.3452 0.0000 0.0000 0.0000
# 4 0.0000 0.0000 0.0000 25.8716 0.0000 0.0000
# 5 0.0000 0.0000 0.0000 0.0000 25.8716 0.0000
# 6 0.0000 0.0000 0.0000 0.0000 0.0000 30.1509
#
#
#
# Elastic Compliance Matrix: (Units=1/GPa)
#
#
# Indices 1 2 3 4 5 6 
#
# 1 0.013883 0.000130 -0.003874 0.000000 0.000000 0.000000
# 2 0.000130 0.013883 -0.003874 0.000000 0.000000 0.000000
# 3 -0.003874 -0.003874 0.010965 0.000000 0.000000 0.000000
# 4 0.000000 0.000000 0.000000 0.038652 0.000000 0.000000
# 5 0.000000 0.000000 0.000000 0.000000 0.038652 0.000000
# 6 0.000000 0.000000 0.000000 0.000000 0.000000 0.033167
#
#
# Mechanical properties :
#
#
# Convention : Reuss Voigt Hill
#
# Bulk Modulus (GPa) = 42.56584 46.23200 44.39892
# Shear Modulus (GPa) = 29.02403 29.98426 29.50414
#
# Velocity S-wave (km/s) = 3.74926 3.81077 3.78014
# Velocity P-wave (km/s) = 6.27360 6.46172 6.36835
#
# Compressibility (1/GPa) = 0.02349302
#
# Stress axis : x y z
#
# Youngs Moduli (GPa) = 72.03126 72.03127 91.19829
#
# Poissons Ratio (x) = -0.00936 0.35334
# Poissons Ratio (y) = -0.00936 0.35334
# Poissons Ratio (z) = 0.27908 0.27908
#
# Static dielectric constant tensor:
#      x y z
#    x 3.705120 0.000000 0.000000 
#    y 0.000000 3.705120 0.000000 
#    z 0.000000 0.000000 3.932880 
# 
# 
# High freq. dielectric constant tensor:
#      x y z
#    x 1.802460 0.000000 0.000000 
#    y 0.000000 1.802460 0.000000 
#    z 0.000000 0.000000 1.816450 
# 
# From -- ./inp_files/1746.got.cif
#   From: 2010.03.12/outbox.cif.g09.slc.cpg/sg110_1_cif.got.tgz:1746.got - 2010.04.14 01:58:01.
