data_PCOD8308572
_publ_section_title
;
Structure prediction by ZEFSAII (Michael W. Deem and Ramdas Pophale) SiO2 
 PCOD8308572
Probable space group: P -4 21 M 
;
_chemical_formula_sum "Si O2"
_cell_formula_units_Z 64
_cell_length_a 12.780514
_cell_length_b 12.780514
_cell_length_c 22.679009
_cell_angle_alpha 90.000000
_cell_angle_beta 90.000000
_cell_angle_gamma 90.000000
_cell_volume 3704.424213
_symmetry_space_group_name_H-M "P -4 21 M "
_symmetry_group_IT_number 113
_symmetry_cell_setting 'tetragonal'
loop_
_space_group_symop_operation_xyz
x,y,z
y,-x,-z
-x,-y,z
-y,x,-z
1/2+x,1/2-y,-z
1/2-x,1/2+y,-z
1/2-y,1/2-x,z
1/2+y,1/2+x,z
loop_
_atom_site_type_symbol
_atom_site_label
_atom_site_fract_x
_atom_site_fract_y
_atom_site_fract_z
Si Si1 0.117851 0.043557 0.081251
Si Si2 0.005296 0.667646 0.111671
Si Si3 0.493519 0.830263 0.365389
Si Si4 0.112100 0.219497 0.428784
Si Si5 0.318131 0.642277 0.688741
Si Si6 0.064675 0.732108 0.512986
Si Si7 0.190098 0.866470 0.816814
Si Si8 0.737139 0.590426 0.001560
O O1 0.153092 0.085760 0.145004
O O2 0.132565 0.134578 0.033682
O O3 0.000000 0.000000 0.081522
O O4 0.201708 0.956135 0.061433
O O5 0.925772 0.574229 0.121751
O O6 0.974447 0.756962 0.159545
O O7 0.995424 0.710006 0.044896
O O8 0.123390 0.623390 0.121691
O O9 0.582403 0.917598 0.364464
O O10 0.528215 0.737084 0.320494
O O11 0.486123 0.785672 0.431901
O O12 0.381643 0.881643 0.347202
O O13 0.168549 0.331452 0.423262
O O14 0.101372 0.165577 0.364420
O O15 0.176376 0.145131 0.472220
O O16 0.997200 0.235259 0.454578
O O17 0.228023 0.728023 0.685693
O O18 0.380589 0.650689 0.749995
O O19 0.125501 0.625501 0.498491
O O20 0.268700 0.768700 0.824285
O O21 0.814993 0.685008 0.988080
#
# Coordination Sequence:
#
# PCOD8308572 Si02
#       8
#     8   8   8   8   8   8   8   8
#     4  11  19  35  51  73  99 130 163 195 238 298
#     4   8  15  27  44  69  96 122 157 197 235 279
#     4   8  13  23  43  68  90 117 156 199 243 292
#     4   9  17  29  47  69  96 127 159 199 245 293
#     4   8  15  29  46  66  93 127 163 198 240 290
#     4   9  17  28  44  69  98 125 157 201 252 302
#     4   9  18  32  51  69  94 133 168 202 243 285
#     4  10  19  32  51  75 102 128 156 198 250 296
#
# _framework density 17.27664
#
# number of rings (size 3 to 8) (size 9 to 14) (size 15 to 20)
#    0.000    3.000    1.250    3.000    0.000    2.000 
#    0.000    1.250    5.500    3.000    0.000    0.000 
#    0.000    0.000    0.000    0.000    0.000    0.000 
#
# Total GULP energy -793090.967709 kJ/mol
# GULP energy per Si atom -12392.046370 kJ/mol
# Density = 1.723732 g / cm^3
# Si number density = 17.276640 Si / 1000 Ang^3
#
#
#
# Elastic Constant Matrix: (Units=GPa)
#
#
# Indices 1 2 3 4 5 6 
#
# 1 67.2659 36.4643 49.7214 0.0000 0.0000 0.0000
# 2 36.4643 67.2655 49.7207 0.0000 0.0000 0.0000
# 3 49.7214 49.7207 119.1329 0.0000 0.0000 0.0000
# 4 0.0000 0.0000 0.0000 20.9576 0.0000 0.0000
# 5 0.0000 0.0000 0.0000 0.0000 20.9574 0.0000
# 6 0.0000 0.0000 0.0000 0.0000 0.0000 26.0931
#
#
#
# Elastic Compliance Matrix: (Units=1/GPa)
#
#
# Indices 1 2 3 4 5 6 
#
# 1 0.024268 -0.008198 -0.006707 0.000000 0.000000 0.000000
# 2 -0.008198 0.024268 -0.006707 0.000000 0.000000 0.000000
# 3 -0.006707 -0.006707 0.013992 0.000000 0.000000 0.000000
# 4 0.000000 0.000000 0.000000 0.047715 0.000000 0.000000
# 5 0.000000 0.000000 0.000000 0.000000 0.047716 0.000000
# 6 0.000000 0.000000 0.000000 0.000000 0.000000 0.038324
#
#
# Mechanical properties :
#
#
# Convention : Reuss Voigt Hill
#
# Bulk Modulus (GPa) = 51.80076 58.38634 55.09355
# Shear Modulus (GPa) = 20.32991 21.45215 20.89103
#
# Velocity S-wave (km/s) = 3.43407 3.52758 3.48114
# Velocity P-wave (km/s) = 6.76550 7.10353 6.93657
#
# Compressibility (1/GPa) = 0.01930473
#
# Stress axis : x y z
#
# Youngs Moduli (GPa) = 41.20623 41.20642 71.46726
#
# Poissons Ratio (x) = 0.33781 0.47934
# Poissons Ratio (y) = 0.33781 0.47932
# Poissons Ratio (z) = 0.27638 0.27637
#
# Static dielectric constant tensor:
#      x y z
#    x 3.202880 0.000000 0.000000 
#    y 0.000000 3.202880 0.000000 
#    z 0.000000 0.000000 3.271500 
# 
# 
# High freq. dielectric constant tensor:
#      x y z
#    x 1.649560 0.000000 0.000000 
#    y 0.000000 1.649560 0.000000 
#    z 0.000000 0.000000 1.649490 
# 
# From -- ./inp_files/2876.got.cif
#   From: 2010.03.12/outbox.cif.g09.slc.cpg/sg113_cif.got.tgz:2876.got - 2010.04.14 02:06:34.
