data_PCOD8308120
_publ_section_title
;
Structure prediction by ZEFSAII (Michael W. Deem and Ramdas Pophale) SiO2 
 PCOD8308120
Probable space group: P -4 2 M 
;
_chemical_formula_sum "Si O2"
_cell_formula_units_Z 52
_cell_length_a 16.712053
_cell_length_b 16.712053
_cell_length_c 10.419667
_cell_angle_alpha 90.000000
_cell_angle_beta 90.000000
_cell_angle_gamma 90.000000
_cell_volume 2910.137091
_symmetry_space_group_name_H-M "P -4 2 M "
_symmetry_group_IT_number 111
_symmetry_cell_setting 'tetragonal'
loop_
_space_group_symop_operation_xyz
x,y,z
y,-x,-z
-x,-y,z
-y,x,-z
x,-y,-z
-x,y,-z
-y,-x,z
y,x,z
loop_
_atom_site_type_symbol
_atom_site_label
_atom_site_fract_x
_atom_site_fract_y
_atom_site_fract_z
Si Si1 0.912843 0.778151 0.554747
Si Si2 0.594555 0.271390 0.770960
Si Si3 0.339731 0.788591 0.020977
Si Si4 0.234530 0.896627 0.160233
Si Si5 0.656704 0.210565 0.513327
Si Si6 0.000000 0.873785 0.000000
Si Si7 0.715079 0.585982 0.725973
O O1 0.859021 0.859021 0.550336
O O2 0.920715 0.740783 0.697150
O O3 0.873370 0.704185 0.478667
O O4 0.000000 0.799406 0.500000
O O5 0.652343 0.347658 0.781463
O O6 0.612130 0.216738 0.648062
O O7 0.506068 0.305982 0.751593
O O8 0.601402 0.213792 0.897174
O O9 0.264058 0.735943 0.977947
O O10 0.308480 0.877923 0.062195
O O11 0.382108 0.753936 0.144951
O O12 0.185939 0.814062 0.168866
O O13 0.181002 0.970432 0.114875
O O14 0.720804 0.279197 0.492596
O O15 0.596368 0.221861 0.392264
O O16 0.928400 0.928400 0.055861
O O17 0.632022 0.632022 0.696893
#
# Coordination Sequence:
#
# PCOD8308120 Si02
#       7
#     8   8   8   8   8   4   8
#     4  10  20  34  54  79 106 137 174 217 267 321
#     4  10  20  31  49  81 109 131 175 230 266 305
#     4   9  17  31  50  72  99 138 182 212 246 305
#     4   9  17  32  51  71 101 141 177 206 252 322
#     4   9  18  34  52  73 103 140 181 216 254 313
#     4   9  18  30  48  78 109 132 162 214 275 324
#     4  10  18  32  54  74 103 144 175 211 270 328
#
# _framework density 17.868573000000001
#
# number of rings (size 3 to 8) (size 9 to 14) (size 15 to 20)
#    0.000    2.538    1.538    0.923    0.000    2.308 
#    0.000    4.615    0.000    7.385    0.000    1.077 
#    0.000    0.000    0.000    0.000    0.000    0.000 
#
# Total GULP energy -644338.061626 kJ/mol
# GULP energy per Si atom -12391.116570 kJ/mol
# Density = 1.782790 g / cm^3
# Si number density = 17.868573 Si / 1000 Ang^3
#
#
#
# Elastic Constant Matrix: (Units=GPa)
#
#
# Indices 1 2 3 4 5 6 
#
# 1 74.3471 52.1012 41.7886 0.0000 0.0000 0.0000
# 2 52.1012 74.3477 41.7887 0.0000 0.0000 0.0000
# 3 41.7886 41.7887 122.0261 0.0000 0.0000 0.0000
# 4 0.0000 0.0000 0.0000 22.4845 0.0000 0.0000
# 5 0.0000 0.0000 0.0000 0.0000 22.4843 0.0000
# 6 0.0000 0.0000 0.0000 0.0000 0.0000 13.5750
#
#
#
# Elastic Compliance Matrix: (Units=1/GPa)
#
#
# Indices 1 2 3 4 5 6 
#
# 1 0.027587 -0.017365 -0.003501 0.000000 0.000000 0.000000
# 2 -0.017365 0.027587 -0.003501 0.000000 0.000000 0.000000
# 3 -0.003501 -0.003501 0.010593 0.000000 0.000000 0.000000
# 4 0.000000 0.000000 0.000000 0.044475 0.000000 0.000000
# 5 0.000000 0.000000 0.000000 0.000000 0.044476 0.000000
# 6 0.000000 0.000000 0.000000 0.000000 0.000000 0.073665
#
#
# Mechanical properties :
#
#
# Convention : Reuss Voigt Hill
#
# Bulk Modulus (GPa) = 58.70504 60.23087 59.46796
# Shear Modulus (GPa) = 17.68083 20.71157 19.19620
#
# Velocity S-wave (km/s) = 3.14903 3.40826 3.28121
# Velocity P-wave (km/s) = 6.79316 7.01920 6.90710
#
# Compressibility (1/GPa) = 0.01703431
#
# Stress axis : x y z
#
# Youngs Moduli (GPa) = 36.24897 36.24929 94.40560
#
# Poissons Ratio (x) = 0.62946 0.33048
# Poissons Ratio (y) = 0.62945 0.33048
# Poissons Ratio (z) = 0.12690 0.12689
#
# Static dielectric constant tensor:
#      x y z
#    x 3.252600 0.000000 0.000000 
#    y 0.000000 3.252600 0.000000 
#    z 0.000000 0.000000 3.579720 
# 
# 
# High freq. dielectric constant tensor:
#      x y z
#    x 1.667180 0.000000 0.000000 
#    y 0.000000 1.667180 0.000000 
#    z 0.000000 0.000000 1.704190 
# 
# From -- ./inp_files/1832.got.cif
#   From: 2010.03.12/outbox.cif.g09.slc.cpg/sg111_1_cif.got.tgz:1832.got - 2010.04.14 01:59:48.
