data_PCOD8308059
_publ_section_title
;
Structure prediction by ZEFSAII (Michael W. Deem and Ramdas Pophale) SiO2 
 PCOD8308059
Probable space group: I 41 C D
;
_chemical_formula_sum "Si O2"
_cell_formula_units_Z 56
_cell_length_a 15.661659
_cell_length_b 15.661659
_cell_length_c 8.422459
_cell_angle_alpha 90.000000
_cell_angle_beta 90.000000
_cell_angle_gamma 90.000000
_cell_volume 2065.924439
_symmetry_space_group_name_H-M "I 41 C D"
_symmetry_group_IT_number 110
_symmetry_cell_setting 'tetragonal'
loop_
_space_group_symop_operation_xyz
x,y,z
-y,1/2+x,1/4+z
-x,-y,z
y,1/2-x,1/4+z
-x,y,1/2+z
x,-y,1/2+z
1/2-y,-x,1/4+z
1/2+y,x,1/4+z
1/2+x,1/2+y,1/2+z
1/2-y,x,3/4+z
1/2-x,1/2-y,1/2+z
1/2+y,-x,3/4+z
1/2-x,1/2+y,z
1/2+x,1/2-y,z
-y,1/2-x,3/4+z
y,1/2+x,3/4+z
loop_
_atom_site_type_symbol
_atom_site_label
_atom_site_fract_x
_atom_site_fract_y
_atom_site_fract_z
Si Si1 0.651925 0.089984 0.486590
Si Si2 0.675842 0.529780 0.518543
Si Si3 0.803603 0.159304 0.039442
Si Si4 0.500000 0.000000 0.587858
O O1 0.742016 0.058504 0.411882
O O2 0.608144 0.168208 0.393567
O O3 0.667403 0.116535 0.669413
O O4 0.583385 0.012351 0.478257
O O5 0.700966 0.439411 0.599262
O O6 0.587309 0.518997 0.428647
O O7 0.717363 0.185958 0.945170
#
# Coordination Sequence:
#
# PCOD8308059 Si02
#       4
#    16  16  16   8
#     4  11  24  47  72 115 161 216 279 346 431 515
#     4  11  26  46  79 111 166 220 278 355 434 523
#     4  11  26  51  77 122 163 216 287 351 435 520
#     4  10  26  42  74 112 162 214 280 348 442 512
#
# _framework density 27.106508000000002
#
# number of rings (size 3 to 8) (size 9 to 14) (size 15 to 20)
#    0.000    1.143    2.857    0.857   12.000    2.286 
#    5.143    0.000    0.000    0.000    0.000    0.000 
#    0.000    0.000    0.000    0.000    0.000    0.000 
#
# Total GULP energy -346877.463640 kJ/mol
# GULP energy per Si atom -12388.480844 kJ/mol
# Density = 2.704481 g / cm^3
# Si number density = 27.106508 Si / 1000 Ang^3
#
#
#
# Elastic Constant Matrix: (Units=GPa)
#
#
# Indices 1 2 3 4 5 6 
#
# 1 234.7635 83.0699 42.3357 0.0000 0.0000 0.0000
# 2 83.0699 234.7635 42.3357 0.0000 0.0000 0.0000
# 3 42.3357 42.3357 45.5935 0.0000 0.0000 0.0000
# 4 0.0000 0.0000 0.0000 27.5461 0.0000 0.0000
# 5 0.0000 0.0000 0.0000 0.0000 27.5461 0.0000
# 6 0.0000 0.0000 0.0000 0.0000 0.0000 41.2904
#
#
#
# Elastic Compliance Matrix: (Units=1/GPa)
#
#
# Indices 1 2 3 4 5 6 
#
# 1 0.005386 -0.001206 -0.003882 0.000000 0.000000 0.000000
# 2 -0.001206 0.005386 -0.003882 0.000000 0.000000 0.000000
# 3 -0.003882 -0.003882 0.029142 0.000000 0.000000 0.000000
# 4 0.000000 0.000000 0.000000 0.036303 0.000000 0.000000
# 5 0.000000 0.000000 0.000000 0.000000 0.036303 0.000000
# 6 0.000000 0.000000 0.000000 0.000000 0.000000 0.024219
#
#
# Mechanical properties :
#
#
# Convention : Reuss Voigt Hill
#
# Bulk Modulus (GPa) = 45.50493 94.51144 70.00819
# Shear Modulus (GPa) = 30.86376 42.43515 36.64945
#
# Velocity S-wave (km/s) = 3.37799 3.96093 3.68102
# Velocity P-wave (km/s) = 5.66024 7.47402 6.62945
#
# Compressibility (1/GPa) = 0.02197564
#
# Stress axis : x y z
#
# Youngs Moduli (GPa) = 185.65579 185.65579 34.31519
#
# Poissons Ratio (x) = 0.22389 0.13320
# Poissons Ratio (y) = 0.22389 0.13320
# Poissons Ratio (z) = 0.72066 0.72066
#
# Static dielectric constant tensor:
#      x y z
#    x 5.435700 0.000000 0.000000 
#    y 0.000000 5.435700 0.000000 
#    z 0.000000 0.000000 4.523050 
# 
# 
# High freq. dielectric constant tensor:
#      x y z
#    x 2.113950 0.000000 0.000000 
#    y 0.000000 2.113950 0.000000 
#    z 0.000000 0.000000 2.046880 
# 
# From -- ./inp_files/273.got.cif
#   From: 2010.03.12/outbox.cif.g09.slc.cpg/sg110_1_cif.got.tgz:273.got - 2010.04.14 01:58:01.
