data_PCOD8308175
_publ_section_title
;
Structure prediction by ZEFSAII (Michael W. Deem and Ramdas Pophale) SiO2 
 PCOD8308175
Probable space group: P -4 2 M 
;
_chemical_formula_sum "Si O2"
_cell_formula_units_Z 48
_cell_length_a 12.194134
_cell_length_b 12.194134
_cell_length_c 19.196563
_cell_angle_alpha 90.000000
_cell_angle_beta 90.000000
_cell_angle_gamma 90.000000
_cell_volume 2854.469486
_symmetry_space_group_name_H-M "P -4 2 M "
_symmetry_group_IT_number 111
_symmetry_cell_setting 'tetragonal'
loop_
_space_group_symop_operation_xyz
x,y,z
y,-x,-z
-x,-y,z
-y,x,-z
x,-y,-z
-x,y,-z
-y,-x,z
y,x,z
loop_
_atom_site_type_symbol
_atom_site_label
_atom_site_fract_x
_atom_site_fract_y
_atom_site_fract_z
Si Si1 0.629371 0.000000 0.393994
Si Si2 0.623731 0.801463 0.853603
Si Si3 0.198540 0.376274 0.146397
Si Si4 0.696102 0.126019 0.999998
Si Si5 0.369230 0.185823 0.500000
Si Si6 0.000002 0.630974 0.761825
O O1 0.664419 0.111739 0.433318
O O2 0.679682 0.000001 0.316376
O O3 0.500000 0.000000 0.390150
O O4 0.664419 0.888261 0.433318
O O5 0.691090 0.691090 0.843904
O O6 0.500003 0.773129 0.832552
O O7 0.674289 0.893055 0.802309
O O8 0.624894 0.844128 0.932641
O O9 0.308916 0.308916 0.156089
O O10 0.155863 0.375113 0.067361
O O11 0.106955 0.325713 0.197696
O O12 0.810656 0.189345 0.999993
O O13 0.727582 0.000000 0.000000
O O14 0.500000 0.214730 0.500000
O O15 0.298234 0.298234 0.500000
O O16 0.000000 0.500000 0.762980
#
# Coordination Sequence:
#
# PCOD8308175 Si02
#       6
#     8   8   8   8   8   8
#     4   8  16  31  49  70  96 130 167 199 233 278
#     4  10  20  32  49  73  99 129 163 201 247 296
#     4  10  20  32  49  73  99 129 163 201 247 296
#     4  10  19  32  50  72  98 129 166 209 254 296
#     4   9  17  30  50  76 103 131 162 196 238 287
#     4   9  17  31  51  70  92 126 169 207 236 278
#
# _framework density 16.815735
#
# number of rings (size 3 to 8) (size 9 to 14) (size 15 to 20)
#    0.000    2.667    1.667    1.500    0.000    2.667 
#    0.000    0.000    0.000    7.500    0.000   14.000 
#    0.000    0.000    0.000    0.000    0.000    0.000 
#
# Total GULP energy -595033.910428 kJ/mol
# GULP energy per Si atom -12396.539801 kJ/mol
# Density = 1.677746 g / cm^3
# Si number density = 16.815735 Si / 1000 Ang^3
#
#
#
# Elastic Constant Matrix: (Units=GPa)
#
#
# Indices 1 2 3 4 5 6 
#
# 1 90.0432 50.4284 36.8113 0.0000 0.0000 0.0000
# 2 50.4284 90.0419 36.8119 0.0000 0.0000 0.0000
# 3 36.8113 36.8119 136.0563 0.0000 0.0000 0.0000
# 4 0.0000 0.0000 0.0000 11.2659 0.0000 0.0000
# 5 0.0000 0.0000 0.0000 0.0000 11.2661 0.0000
# 6 0.0000 0.0000 0.0000 0.0000 0.0000 5.3733
#
#
#
# Elastic Compliance Matrix: (Units=1/GPa)
#
#
# Indices 1 2 3 4 5 6 
#
# 1 0.016769 -0.008474 -0.002244 0.000000 0.000000 0.000000
# 2 -0.008474 0.016770 -0.002244 0.000000 0.000000 0.000000
# 3 -0.002244 -0.002244 0.008564 0.000000 0.000000 0.000000
# 4 0.000000 0.000000 0.000000 0.088763 0.000000 0.000000
# 5 0.000000 0.000000 0.000000 0.000000 0.088762 0.000000
# 6 0.000000 0.000000 0.000000 0.000000 0.000000 0.186104
#
#
# Mechanical properties :
#
#
# Convention : Reuss Voigt Hill
#
# Bulk Modulus (GPa) = 61.81483 62.69385 62.25434
# Shear Modulus (GPa) = 11.44033 18.38706 14.91369
#
# Velocity S-wave (km/s) = 2.61115 3.31031 2.98130
# Velocity P-wave (km/s) = 6.77722 7.20935 6.99662
#
# Compressibility (1/GPa) = 0.01617735
#
# Stress axis : x y z
#
# Youngs Moduli (GPa) = 59.63312 59.63197 116.76268
#
# Poissons Ratio (x) = 0.50533 0.26205
# Poissons Ratio (y) = 0.50534 0.26207
# Poissons Ratio (z) = 0.13383 0.13384
#
# Static dielectric constant tensor:
#      x y z
#    x 2.926330 0.000000 0.000000 
#    y 0.000000 2.926330 0.000000 
#    z 0.000000 0.000000 3.674080 
# 
# 
# High freq. dielectric constant tensor:
#      x y z
#    x 1.630760 0.000000 0.000000 
#    y 0.000000 1.630760 0.000000 
#    z 0.000000 0.000000 1.656690 
# 
# From -- ./inp_files/3617.got.cif
#   From: 2010.03.12/outbox.cif.g09.slc.cpg/sg111_2_cif.got.tgz:3617.got - 2010.04.14 01:59:48.
