data_PCOD8308597
_publ_section_title
;
Structure prediction by ZEFSAII (Michael W. Deem and Ramdas Pophale) SiO2 
 PCOD8308597
Probable space group: P -4 21 M 
;
_chemical_formula_sum "Si O2"
_cell_formula_units_Z 64
_cell_length_a 14.626310
_cell_length_b 14.626310
_cell_length_c 16.162596
_cell_angle_alpha 90.000000
_cell_angle_beta 90.000000
_cell_angle_gamma 90.000000
_cell_volume 3457.647098
_symmetry_space_group_name_H-M "P -4 21 M "
_symmetry_group_IT_number 113
_symmetry_cell_setting 'tetragonal'
loop_
_space_group_symop_operation_xyz
x,y,z
y,-x,-z
-x,-y,z
-y,x,-z
1/2+x,1/2-y,-z
1/2-x,1/2+y,-z
1/2-y,1/2-x,z
1/2+y,1/2+x,z
loop_
_atom_site_type_symbol
_atom_site_label
_atom_site_fract_x
_atom_site_fract_y
_atom_site_fract_z
Si Si1 0.673335 0.322756 0.328421
Si Si2 0.182303 0.538347 0.253657
Si Si3 0.387791 0.747969 0.637410
Si Si4 0.927881 0.716137 0.097148
Si Si5 0.039884 0.132540 0.974034
Si Si6 0.162147 0.803942 0.790536
Si Si7 0.525654 0.391407 0.204738
Si Si8 0.123686 0.927036 0.492850
O O1 0.721251 0.221251 0.322844
O O2 0.743686 0.395391 0.293425
O O3 0.582500 0.340333 0.275420
O O4 0.642874 0.342540 0.422544
O O5 0.082425 0.582425 0.255828
O O6 0.180921 0.449959 0.311496
O O7 0.205816 0.514891 0.158092
O O8 0.305472 0.805472 0.597769
O O9 0.349056 0.673472 0.700541
O O10 0.439537 0.699160 0.563465
O O11 0.882971 0.617030 0.077249
O O12 0.853572 0.777658 0.141492
O O13 0.956091 0.764762 0.010726
O O14 0.081144 0.118601 0.881547
O O15 0.099048 0.065404 0.032142
O O16 0.197364 0.697364 0.788702
O O17 0.057259 0.820695 0.810642
O O18 0.500000 0.500000 0.223374
O O19 0.031060 0.891164 0.537958
#
# Coordination Sequence:
#
# PCOD8308597 Si02
#       8
#     8   8   8   8   8   8   8   8
#     4  11  24  38  56  87 124 151 186 247 305 348
#     4  10  20  37  57  82 116 150 189 233 288 352
#     4  10  19  34  55  78 110 146 182 226 284 343
#     4  10  20  35  55  82 115 147 188 235 287 348
#     4  11  19  34  53  83 112 147 189 238 290 339
#     4   9  18  33  54  82 108 140 186 238 285 340
#     4  12  21  34  62  83 116 155 202 241 294 359
#     4  11  22  36  57  84 113 147 191 233 291 344
#
# _framework density 18.509698
#
# number of rings (size 3 to 8) (size 9 to 14) (size 15 to 20)
#    0.000    1.500    3.750    4.500    1.750    1.500 
#    0.000    1.250    0.000    0.375    0.000    0.000 
#    0.000    0.000    0.000    0.000    0.000    0.000 
#
# Total GULP energy -792841.152954 kJ/mol
# GULP energy per Si atom -12388.143015 kJ/mol
# Density = 1.846757 g / cm^3
# Si number density = 18.509698 Si / 1000 Ang^3
#
#
#
# Elastic Constant Matrix: (Units=GPa)
#
#
# Indices 1 2 3 4 5 6 
#
# 1 65.1661 37.7835 32.4788 0.0000 0.0000 0.0000
# 2 37.7835 65.1669 32.4788 0.0000 0.0000 0.0000
# 3 32.4788 32.4788 65.9285 0.0000 0.0000 0.0000
# 4 0.0000 0.0000 0.0000 18.9790 0.0000 0.0000
# 5 0.0000 0.0000 0.0000 0.0000 18.9779 0.0000
# 6 0.0000 0.0000 0.0000 0.0000 0.0000 27.0365
#
#
#
# Elastic Compliance Matrix: (Units=1/GPa)
#
#
# Indices 1 2 3 4 5 6 
#
# 1 0.025307 -0.011212 -0.006944 0.000000 0.000000 0.000000
# 2 -0.011212 0.025307 -0.006943 0.000000 0.000000 0.000000
# 3 -0.006944 -0.006943 0.022009 0.000000 0.000000 0.000000
# 4 0.000000 0.000000 0.000000 0.052690 0.000000 0.000000
# 5 0.000000 0.000000 0.000000 0.000000 0.052693 0.000000
# 6 0.000000 0.000000 0.000000 0.000000 0.000000 0.036987
#
#
# Mechanical properties :
#
#
# Convention : Reuss Voigt Hill
#
# Bulk Modulus (GPa) = 44.59446 44.63818 44.61632
# Shear Modulus (GPa) = 18.33748 19.23338 18.78543
#
# Velocity S-wave (km/s) = 3.15095 3.22700 3.18920
# Velocity P-wave (km/s) = 6.11414 6.16872 6.14149
#
# Compressibility (1/GPa) = 0.02242431
#
# Stress axis : x y z
#
# Youngs Moduli (GPa) = 39.51482 39.51542 45.43556
#
# Poissons Ratio (x) = 0.44306 0.31549
# Poissons Ratio (y) = 0.44305 0.31548
# Poissons Ratio (z) = 0.27437 0.27437
#
# Static dielectric constant tensor:
#      x y z
#    x 3.585560 0.000000 0.000000 
#    y 0.000000 3.585560 0.000000 
#    z 0.000000 0.000000 3.342520 
# 
# 
# High freq. dielectric constant tensor:
#      x y z
#    x 1.703570 0.000000 0.000000 
#    y 0.000000 1.703570 0.000000 
#    z 0.000000 0.000000 1.716660 
# 
# From -- ./inp_files/2592.got.cif
#   From: 2010.03.12/outbox.cif.g09.slc.cpg/sg113_cif.got.tgz:2592.got - 2010.04.14 02:06:34.
