data_PCOD8308662
_publ_section_title
;
Structure prediction by ZEFSAII (Michael W. Deem and Ramdas Pophale) SiO2 
 PCOD8308662
Probable space group: P -4 21 M 
;
_chemical_formula_sum "Si O2"
_cell_formula_units_Z 40
_cell_length_a 13.314085
_cell_length_b 13.314085
_cell_length_c 12.146157
_cell_angle_alpha 90.000000
_cell_angle_beta 90.000000
_cell_angle_gamma 90.000000
_cell_volume 2153.086813
_symmetry_space_group_name_H-M "P -4 21 M "
_symmetry_group_IT_number 113
_symmetry_cell_setting 'tetragonal'
loop_
_space_group_symop_operation_xyz
x,y,z
y,-x,-z
-x,-y,z
-y,x,-z
1/2+x,1/2-y,-z
1/2-x,1/2+y,-z
1/2-y,1/2-x,z
1/2+y,1/2+x,z
loop_
_atom_site_type_symbol
_atom_site_label
_atom_site_fract_x
_atom_site_fract_y
_atom_site_fract_z
Si Si1 0.739965 0.924421 0.656188
Si Si2 0.108880 0.227541 0.742063
Si Si3 0.336190 0.000529 0.442363
Si Si4 0.834760 0.498645 0.126852
Si Si5 0.976825 0.844483 0.968005
O O1 0.636405 0.863595 0.652942
O O2 0.836496 0.853241 0.663749
O O3 0.743122 0.987684 0.542881
O O4 0.734332 0.994827 0.763985
O O5 0.189482 0.310519 0.783714
O O6 0.059398 0.170235 0.843552
O O7 0.021448 0.277442 0.670158
O O8 0.398088 0.101913 0.420228
O O9 0.408660 0.908660 0.473982
O O10 0.909703 0.590298 0.139631
O O11 0.894448 0.394448 0.107769
O O12 0.764259 0.516992 0.022716
O O13 0.085828 0.896986 0.967596
#
# Coordination Sequence:
#
# PCOD8308662 Si02
#       5
#     8   8   8   8   8
#     4   9  17  34  57  82 113 145 181 230 284 337
#     4  10  20  37  59  81 114 154 188 233 291 340
#     4   9  18  34  57  84 113 146 186 233 284 341
#     4  10  20  35  60  88 109 142 194 242 285 338
#     4  11  23  39  56  79 117 157 192 233 287 341
#
# _framework density 18.57798
#
# number of rings (size 3 to 8) (size 9 to 14) (size 15 to 20)
#    0.000    2.200    2.000    1.200    0.000    4.000 
#    3.600    2.000    0.000    0.000    0.000    0.000 
#    0.000    0.000    0.000    0.000    0.000    0.000 
#
# Total GULP energy -496060.363434 kJ/mol
# GULP energy per Si atom -12401.509086 kJ/mol
# Density = 1.853570 g / cm^3
# Si number density = 18.577980 Si / 1000 Ang^3
#
#
#
# Elastic Constant Matrix: (Units=GPa)
#
#
# Indices 1 2 3 4 5 6 
#
# 1 77.0380 35.3917 48.1841 0.0000 0.0000 0.0000
# 2 35.3917 77.0381 48.1833 0.0000 0.0000 0.0000
# 3 48.1841 48.1833 106.5219 0.0000 0.0000 0.0000
# 4 0.0000 0.0000 0.0000 30.5082 0.0000 0.0000
# 5 0.0000 0.0000 0.0000 0.0000 30.5090 0.0000
# 6 0.0000 0.0000 0.0000 0.0000 0.0000 21.8957
#
#
#
# Elastic Compliance Matrix: (Units=1/GPa)
#
#
# Indices 1 2 3 4 5 6 
#
# 1 0.019269 -0.004743 -0.006571 0.000000 0.000000 0.000000
# 2 -0.004743 0.019269 -0.006571 0.000000 0.000000 0.000000
# 3 -0.006571 -0.006571 0.015332 0.000000 0.000000 0.000000
# 4 0.000000 0.000000 0.000000 0.032778 0.000000 0.000000
# 5 0.000000 0.000000 0.000000 0.000000 0.032777 0.000000
# 6 0.000000 0.000000 0.000000 0.000000 0.000000 0.045671
#
#
# Mechanical properties :
#
#
# Convention : Reuss Voigt Hill
#
# Bulk Modulus (GPa) = 55.24305 58.23514 56.73909
# Shear Modulus (GPa) = 24.16632 25.17184 24.66908
#
# Velocity S-wave (km/s) = 3.61058 3.68493 3.64794
# Velocity P-wave (km/s) = 6.86892 7.03700 6.95346
#
# Compressibility (1/GPa) = 0.01810183
#
# Stress axis : x y z
#
# Youngs Moduli (GPa) = 51.89610 51.89684 65.22198
#
# Poissons Ratio (x) = 0.24612 0.42858
# Poissons Ratio (y) = 0.24612 0.42856
# Poissons Ratio (z) = 0.34101 0.34100
#
# Static dielectric constant tensor:
#      x y z
#    x 3.370530 0.000000 0.000000 
#    y 0.000000 3.370540 0.000000 
#    z 0.000000 0.000000 3.414930 
# 
# 
# High freq. dielectric constant tensor:
#      x y z
#    x 1.713000 0.000000 0.000000 
#    y 0.000000 1.713000 0.000000 
#    z 0.000000 0.000000 1.720950 
# 
# From -- ./inp_files/1024.got.cif
#   From: 2010.03.12/outbox.cif.g09.slc.cpg/sg113_cif.got.tgz:1024.got - 2010.04.14 02:06:34.
