data_PCOD8308632
_publ_section_title
;
Structure prediction by ZEFSAII (Michael W. Deem and Ramdas Pophale) SiO2 
 PCOD8308632
Probable space group: P -4 21 M 
;
_chemical_formula_sum "Si O2"
_cell_formula_units_Z 40
_cell_length_a 13.249891
_cell_length_b 13.249891
_cell_length_c 12.746123
_cell_angle_alpha 90.000000
_cell_angle_beta 90.000000
_cell_angle_gamma 90.000000
_cell_volume 2237.704402
_symmetry_space_group_name_H-M "P -4 21 M "
_symmetry_group_IT_number 113
_symmetry_cell_setting 'tetragonal'
loop_
_space_group_symop_operation_xyz
x,y,z
y,-x,-z
-x,-y,z
-y,x,-z
1/2+x,1/2-y,-z
1/2-x,1/2+y,-z
1/2-y,1/2-x,z
1/2+y,1/2+x,z
loop_
_atom_site_type_symbol
_atom_site_label
_atom_site_fract_x
_atom_site_fract_y
_atom_site_fract_z
Si Si1 0.720573 0.381902 0.785555
Si Si2 0.217370 0.116982 0.597178
Si Si3 0.618099 0.279428 0.214444
Si Si4 0.717368 0.616984 0.402823
Si Si5 0.615644 0.384356 1.000000
O O1 0.826489 0.326489 0.763642
O O2 0.739108 0.500001 0.772031
O O3 0.637147 0.344830 0.703221
O O4 0.683218 0.353239 0.901425
O O5 0.322069 0.177932 0.595724
O O6 0.155173 0.137145 0.703223
O O7 0.147533 0.147532 0.500001
O O8 0.245289 0.999999 0.589933
O O9 0.673513 0.173513 0.236358
O O10 0.646761 0.316782 0.098574
O O11 0.822067 0.677934 0.404277
O O12 0.500000 0.366030 0.968385
#
# Coordination Sequence:
#
# PCOD8308632 Si02
#       5
#     8   8   8   8   8
#     4  10  20  33  50  73 101 133 169 208 249 294
#     4  10  21  36  54  77 103 131 165 204 246 293
#     4  10  20  33  50  73 101 133 169 208 249 294
#     4  10  21  36  54  77 103 131 165 204 246 293
#     4   9  17  30  50  74  97 125 164 208 253 299
#
# _framework density 17.875461999999999
#
# number of rings (size 3 to 8) (size 9 to 14) (size 15 to 20)
#    0.000    2.200    0.000    3.000    0.000    5.200 
#    0.000    0.000    0.000    7.200    0.000    5.600 
#    0.000    0.000    0.000    0.000    0.000    0.000 
#
# Total GULP energy -496128.575039 kJ/mol
# GULP energy per Si atom -12403.214376 kJ/mol
# Density = 1.783478 g / cm^3
# Si number density = 17.875462 Si / 1000 Ang^3
#
#
#
# Elastic Constant Matrix: (Units=GPa)
#
#
# Indices 1 2 3 4 5 6 
#
# 1 113.3025 52.5298 52.1165 0.0000 0.0000 0.0000
# 2 52.5298 113.2988 52.1162 0.0000 0.0000 0.0000
# 3 52.1165 52.1162 101.2512 0.0000 0.0000 0.0000
# 4 0.0000 0.0000 0.0000 24.0071 0.0000 0.0000
# 5 0.0000 0.0000 0.0000 0.0000 24.0073 0.0000
# 6 0.0000 0.0000 0.0000 0.0000 0.0000 16.3587
#
#
#
# Elastic Compliance Matrix: (Units=1/GPa)
#
#
# Indices 1 2 3 4 5 6 
#
# 1 0.012685 -0.003770 -0.004588 0.000000 0.000000 0.000000
# 2 -0.003770 0.012685 -0.004588 0.000000 0.000000 0.000000
# 3 -0.004588 -0.004588 0.014600 0.000000 0.000000 0.000000
# 4 0.000000 0.000000 0.000000 0.041654 0.000000 0.000000
# 5 0.000000 0.000000 0.000000 0.000000 0.041654 0.000000
# 6 0.000000 0.000000 0.000000 0.000000 0.000000 0.061130
#
#
# Mechanical properties :
#
#
# Convention : Reuss Voigt Hill
#
# Bulk Modulus (GPa) = 71.04826 71.26416 71.15621
# Shear Modulus (GPa) = 23.25649 24.28061 23.76855
#
# Velocity S-wave (km/s) = 3.61089 3.68954 3.65043
# Velocity P-wave (km/s) = 7.56421 7.62259 7.59345
#
# Compressibility (1/GPa) = 0.01407494
#
# Stress axis : x y z
#
# Youngs Moduli (GPa) = 78.83626 78.83319 68.49351
#
# Poissons Ratio (x) = 0.29724 0.31427
# Poissons Ratio (y) = 0.29725 0.31428
# Poissons Ratio (z) = 0.36172 0.36173
#
# Static dielectric constant tensor:
#      x y z
#    x 3.155210 0.000000 0.000000 
#    y 0.000000 3.155210 0.000000 
#    z 0.000000 0.000000 3.497780 
# 
# 
# High freq. dielectric constant tensor:
#      x y z
#    x 1.686750 0.000000 0.000000 
#    y 0.000000 1.686750 0.000000 
#    z 0.000000 0.000000 1.711850 
# 
# From -- ./inp_files/2147.got.cif
#   From: 2010.03.12/outbox.cif.g09.slc.cpg/sg113_cif.got.tgz:2147.got - 2010.04.14 02:06:34.
