data_PCOD8308442
_publ_section_title
;
Structure prediction by ZEFSAII (Michael W. Deem and Ramdas Pophale) SiO2 
 PCOD8308442
Probable space group: P -4 2 C
;
_chemical_formula_sum "Si O2"
_cell_formula_units_Z 40
_cell_length_a 8.358426
_cell_length_b 8.358426
_cell_length_c 23.935661
_cell_angle_alpha 90.000000
_cell_angle_beta 90.000000
_cell_angle_gamma 90.000000
_cell_volume 1672.223911
_symmetry_space_group_name_H-M "P -4 2 C"
_symmetry_group_IT_number 112
_symmetry_cell_setting 'tetragonal'
loop_
_space_group_symop_operation_xyz
x,y,z
y,-x,-z
-x,-y,z
-y,x,-z
x,-y,1/2-z
-x,y,1/2-z
-y,-x,1/2+z
y,x,1/2+z
loop_
_atom_site_type_symbol
_atom_site_label
_atom_site_fract_x
_atom_site_fract_y
_atom_site_fract_z
Si Si1 0.339360 0.601986 0.682348
Si Si2 0.820390 0.458525 0.091219
Si Si3 0.898548 0.238387 0.991789
Si Si4 0.173379 0.818079 0.267533
Si Si5 0.218149 0.320318 0.619428
O O1 0.500000 0.500000 0.692327
O O2 0.354943 0.754804 0.642472
O O3 0.280297 0.675854 0.741433
O O4 0.208854 0.489397 0.651745
O O5 0.706957 0.614133 0.086742
O O6 0.000000 0.500000 0.107188
O O7 0.812151 0.362386 0.033048
O O8 0.914404 0.312307 0.929400
O O9 0.076536 0.204895 0.013590
O O10 0.181419 0.806338 0.334589
O O11 0.000000 0.748491 0.250000
O O12 0.191098 0.000000 0.250000
#
# Coordination Sequence:
#
# PCOD8308442 Si02
#       5
#     8   8   8   8   8
#     4  10  25  46  75 104 147 191 240 306 364 444
#     4  11  23  45  69 102 141 190 243 293 367 432
#     4  11  26  44  72 103 147 190 245 302 363 433
#     4  11  26  47  77 110 148 191 248 303 376 445
#     4  11  25  45  70 107 145 191 236 301 370 438
#
# _framework density 23.920244
#
# number of rings (size 3 to 8) (size 9 to 14) (size 15 to 20)
#    0.000    1.200    2.000    1.800    5.600    8.800 
#    0.000    5.000    0.000    0.000    0.000    0.000 
#    0.000    0.000    0.000    0.000    0.000    0.000 
#
# Total GULP energy -496090.633161 kJ/mol
# GULP energy per Si atom -12402.265829 kJ/mol
# Density = 2.386580 g / cm^3
# Si number density = 23.920244 Si / 1000 Ang^3
#
#
#
# Elastic Constant Matrix: (Units=GPa)
#
#
# Indices 1 2 3 4 5 6 
#
# 1 94.1086 21.7129 46.3961 0.0000 0.0000 0.0000
# 2 21.7129 94.1086 46.3961 0.0000 0.0000 0.0000
# 3 46.3961 46.3961 190.6913 0.0000 0.0000 0.0000
# 4 0.0000 0.0000 0.0000 39.2563 0.0000 0.0000
# 5 0.0000 0.0000 0.0000 0.0000 39.2563 0.0000
# 6 0.0000 0.0000 0.0000 0.0000 0.0000 30.3643
#
#
#
# Elastic Compliance Matrix: (Units=1/GPa)
#
#
# Indices 1 2 3 4 5 6 
#
# 1 0.012269 -0.001544 -0.002609 0.000000 0.000000 0.000000
# 2 -0.001544 0.012269 -0.002609 0.000000 0.000000 0.000000
# 3 -0.002609 -0.002609 0.006514 0.000000 0.000000 0.000000
# 4 0.000000 0.000000 0.000000 0.025474 0.000000 0.000000
# 5 0.000000 0.000000 0.000000 0.000000 0.025474 0.000000
# 6 0.000000 0.000000 0.000000 0.000000 0.000000 0.032933
#
#
# Mechanical properties :
#
#
# Convention : Reuss Voigt Hill
#
# Bulk Modulus (GPa) = 57.05980 67.54651 62.30315
# Shear Modulus (GPa) = 37.23025 39.40229 38.31627
#
# Velocity S-wave (km/s) = 3.94944 4.06302 4.00663
# Velocity P-wave (km/s) = 6.68606 7.09298 6.89253
#
# Compressibility (1/GPa) = 0.01752547
#
# Stress axis : x y z
#
# Youngs Moduli (GPa) = 81.50811 81.50811 153.52035
#
# Poissons Ratio (x) = 0.12587 0.40058
# Poissons Ratio (y) = 0.12587 0.40058
# Poissons Ratio (z) = 0.21268 0.21268
#
# Static dielectric constant tensor:
#      x y z
#    x 4.293000 0.000000 0.000000 
#    y 0.000000 4.293000 0.000000 
#    z 0.000000 0.000000 4.391820 
# 
# 
# High freq. dielectric constant tensor:
#      x y z
#    x 1.944750 0.000000 0.000000 
#    y 0.000000 1.944750 0.000000 
#    z 0.000000 0.000000 1.964020 
# 
# From -- ./inp_files/5329.got.cif
#   From: 2010.03.12/outbox.cif.g09.slc.cpg/sg112_3_cif.got.tgz:5329.got - 2010.04.14 02:02:48.
