data_PCOD8308441
_publ_section_title
;
Structure prediction by ZEFSAII (Michael W. Deem and Ramdas Pophale) SiO2 
 PCOD8308441
Probable space group: P -4 2 C
;
_chemical_formula_sum "Si O2"
_cell_formula_units_Z 48
_cell_length_a 8.597267
_cell_length_b 8.597267
_cell_length_c 28.855952
_cell_angle_alpha 90.000000
_cell_angle_beta 90.000000
_cell_angle_gamma 90.000000
_cell_volume 2132.829976
_symmetry_space_group_name_H-M "P -4 2 C"
_symmetry_group_IT_number 112
_symmetry_cell_setting 'tetragonal'
loop_
_space_group_symop_operation_xyz
x,y,z
y,-x,-z
-x,-y,z
-y,x,-z
x,-y,1/2-z
-x,y,1/2-z
-y,-x,1/2+z
y,x,1/2+z
loop_
_atom_site_type_symbol
_atom_site_label
_atom_site_fract_x
_atom_site_fract_y
_atom_site_fract_z
Si Si1 0.310875 0.167143 0.228162
Si Si2 0.668868 0.036828 0.926196
Si Si3 0.662874 0.588677 0.810452
Si Si4 0.195786 0.714626 0.600609
Si Si5 0.844083 0.095780 0.359819
Si Si6 0.260267 0.412854 0.992121
O O1 0.460875 0.202137 0.196058
O O2 0.290269 0.302433 0.267680
O O3 0.167593 0.160426 0.192558
O O4 0.332456 0.000000 0.250000
O O5 0.754985 0.159884 0.893173
O O6 0.500000 0.000000 0.905153
O O7 0.767727 0.877231 0.926056
O O8 0.651062 0.118445 0.976392
O O9 0.500000 0.500000 0.805814
O O10 0.676562 0.675777 0.859671
O O11 0.201722 0.583937 0.560901
O O12 0.025488 0.710749 0.624306
O O13 0.000000 0.000000 0.363199
O O14 0.301550 0.588788 0.005621
#
# Coordination Sequence:
#
# PCOD8308441 Si02
#       6
#     8   8   8   8   8   8
#     4  11  22  44  68 102 141 180 240 290 353 432
#     4  11  25  48  66 103 140 181 237 300 349 437
#     4  11  25  42  69 108 142 182 235 301 359 423
#     4  11  25  45  70 100 142 191 234 286 368 427
#     4  10  25  45  70 100 138 193 237 289 363 432
#     4  11  26  45  70 105 137 183 232 297 361 426
#
# _framework density 22.505312
#
# number of rings (size 3 to 8) (size 9 to 14) (size 15 to 20)
#    0.000    1.167    3.333    2.000    9.333    0.333 
#    0.000    0.000    0.000    1.000    0.000    0.000 
#    0.000    0.000    0.000    0.000    0.000    0.000 
#
# Total GULP energy -594870.211979 kJ/mol
# GULP energy per Si atom -12393.129416 kJ/mol
# Density = 2.245409 g / cm^3
# Si number density = 22.505312 Si / 1000 Ang^3
#
#
#
# Elastic Constant Matrix: (Units=GPa)
#
#
# Indices 1 2 3 4 5 6 
#
# 1 81.0072 19.1502 63.1368 0.0000 0.0000 0.0000
# 2 19.1502 81.0072 63.1368 0.0000 0.0000 0.0000
# 3 63.1368 63.1368 184.8595 0.0000 0.0000 0.0000
# 4 0.0000 0.0000 0.0000 36.2861 0.0000 0.0000
# 5 0.0000 0.0000 0.0000 0.0000 36.2861 0.0000
# 6 0.0000 0.0000 0.0000 0.0000 0.0000 25.7835
#
#
#
# Elastic Compliance Matrix: (Units=1/GPa)
#
#
# Indices 1 2 3 4 5 6 
#
# 1 0.016850 0.000684 -0.005989 0.000000 0.000000 0.000000
# 2 0.000684 0.016850 -0.005989 0.000000 0.000000 0.000000
# 3 -0.005989 -0.005989 0.009500 0.000000 0.000000 0.000000
# 4 0.000000 0.000000 0.000000 0.027559 0.000000 0.000000
# 5 0.000000 0.000000 0.000000 0.000000 0.027559 0.000000
# 6 0.000000 0.000000 0.000000 0.000000 0.000000 0.038785
#
#
# Mechanical properties :
#
#
# Convention : Reuss Voigt Hill
#
# Bulk Modulus (GPa) = 48.50951 70.85795 59.68373
# Shear Modulus (GPa) = 30.01892 33.10114 31.56003
#
# Velocity S-wave (km/s) = 3.65617 3.83928 3.74884
# Velocity P-wave (km/s) = 6.27892 7.15589 6.73170
#
# Compressibility (1/GPa) = 0.02061452
#
# Stress axis : x y z
#
# Youngs Moduli (GPa) = 59.34551 59.34551 105.25959
#
# Poissons Ratio (x) = -0.04060 0.63038
# Poissons Ratio (y) = -0.04060 0.63038
# Poissons Ratio (z) = 0.35541 0.35541
#
# Static dielectric constant tensor:
#      x y z
#    x 4.180640 0.000000 0.000000 
#    y 0.000000 4.180640 0.000000 
#    z 0.000000 0.000000 4.242670 
# 
# 
# High freq. dielectric constant tensor:
#      x y z
#    x 1.879620 0.000000 0.000000 
#    y 0.000000 1.879620 0.000000 
#    z 0.000000 0.000000 1.895970 
# 
# From -- ./inp_files/6306.got.cif
#   From: 2010.03.12/outbox.cif.g09.slc.cpg/sg112_4_cif.got.tgz:6306.got - 2010.04.14 02:02:48.
