data_PCOD8308724
_publ_section_title
;
Structure prediction by ZEFSAII (Michael W. Deem and Ramdas Pophale) SiO2 
 PCOD8308724
Probable space group: P -4 21 M 
;
_chemical_formula_sum "Si O2"
_cell_formula_units_Z 40
_cell_length_a 14.426129
_cell_length_b 14.426129
_cell_length_c 9.483545
_cell_angle_alpha 90.000000
_cell_angle_beta 90.000000
_cell_angle_gamma 90.000000
_cell_volume 1973.650878
_symmetry_space_group_name_H-M "P -4 21 M "
_symmetry_group_IT_number 113
_symmetry_cell_setting 'tetragonal'
loop_
_space_group_symop_operation_xyz
x,y,z
y,-x,-z
-x,-y,z
-y,x,-z
1/2+x,1/2-y,-z
1/2-x,1/2+y,-z
1/2-y,1/2-x,z
1/2+y,1/2+x,z
loop_
_atom_site_type_symbol
_atom_site_label
_atom_site_fract_x
_atom_site_fract_y
_atom_site_fract_z
Si Si1 0.639352 0.295523 0.052576
Si Si2 0.422276 0.077725 0.415005
Si Si3 0.526504 0.361845 0.542300
Si Si4 0.421928 0.078073 0.736377
Si Si5 0.520088 0.722913 0.837329
Si Si6 0.438814 0.784511 0.324748
O O1 0.723981 0.223981 0.045760
O O2 0.678783 0.398873 0.068156
O O3 0.570669 0.273879 0.182584
O O4 0.578994 0.288108 0.911820
O O5 0.395790 0.104211 0.575491
O O6 0.460001 0.166874 0.330259
O O7 0.500000 0.000000 0.422597
O O8 0.443071 0.397718 0.441357
O O9 0.485573 0.332659 0.691838
O O10 0.574990 0.276684 0.463988
O O11 0.459222 0.169127 0.813930
O O12 0.500000 0.000000 0.747144
O O13 0.359761 0.859761 0.334075
#
# Coordination Sequence:
#
# PCOD8308724 Si02
#       6
#     8   4   8   4   8   8
#     4  11  26  45  65 100 139 180 226 275 340 412
#     4   9  18  35  67 101 129 165 215 271 334 381
#     4  11  24  41  65  96 129 174 226 273 331 401
#     4  11  22  41  71 101 129 174 225 283 338 394
#     4  12  25  43  71  95 138 181 224 279 341 407
#     4  10  21  41  66  95 132 168 215 275 330 395
#
# _framework density 20.267009999999999
#
# number of rings (size 3 to 8) (size 9 to 14) (size 15 to 20)
#    0.000    1.200    5.000    0.600    2.800    2.000 
#    1.800    2.000    0.000    0.000    0.000    0.000 
#    0.000    0.000    0.000    0.000    0.000    0.000 
#
# Total GULP energy -496098.291890 kJ/mol
# GULP energy per Si atom -12402.457297 kJ/mol
# Density = 2.022088 g / cm^3
# Si number density = 20.267010 Si / 1000 Ang^3
#
#
#
# Elastic Constant Matrix: (Units=GPa)
#
#
# Indices 1 2 3 4 5 6 
#
# 1 75.1036 24.5292 35.3021 0.0000 0.0000 0.0000
# 2 24.5292 75.1038 35.3019 0.0000 0.0000 0.0000
# 3 35.3021 35.3019 65.4682 0.0000 0.0000 0.0000
# 4 0.0000 0.0000 0.0000 38.3168 0.0000 0.0000
# 5 0.0000 0.0000 0.0000 0.0000 38.3168 0.0000
# 6 0.0000 0.0000 0.0000 0.0000 0.0000 23.5718
#
#
#
# Elastic Compliance Matrix: (Units=1/GPa)
#
#
# Indices 1 2 3 4 5 6 
#
# 1 0.018008 -0.001764 -0.008759 0.000000 0.000000 0.000000
# 2 -0.001764 0.018008 -0.008759 0.000000 0.000000 0.000000
# 3 -0.008759 -0.008759 0.024721 0.000000 0.000000 0.000000
# 4 0.000000 0.000000 0.000000 0.026098 0.000000 0.000000
# 5 0.000000 0.000000 0.000000 0.000000 0.026098 0.000000
# 6 0.000000 0.000000 0.000000 0.000000 0.000000 0.042424
#
#
# Mechanical properties :
#
#
# Convention : Reuss Voigt Hill
#
# Bulk Modulus (GPa) = 45.10145 45.10467 45.10306
# Shear Modulus (GPa) = 24.83690 28.07725 26.45707
#
# Velocity S-wave (km/s) = 3.50449 3.72609 3.61699
# Velocity P-wave (km/s) = 6.21910 6.38868 6.30446
#
# Compressibility (1/GPa) = 0.02217224
#
# Stress axis : x y z
#
# Youngs Moduli (GPa) = 55.52964 55.52997 40.45183
#
# Poissons Ratio (x) = 0.09798 0.35432
# Poissons Ratio (y) = 0.09798 0.35432
# Poissons Ratio (z) = 0.48639 0.48639
#
# Static dielectric constant tensor:
#      x y z
#    x 3.800790 0.000000 0.000000 
#    y 0.000000 3.800780 0.000000 
#    z 0.000000 0.000000 3.617180 
# 
# 
# High freq. dielectric constant tensor:
#      x y z
#    x 1.799570 0.000000 0.000000 
#    y 0.000000 1.799570 0.000000 
#    z 0.000000 0.000000 1.783660 
# 
# From -- ./inp_files/1040.got.cif
#   From: 2010.03.12/outbox.cif.g09.slc.cpg/sg113_cif.got.tgz:1040.got - 2010.04.14 02:06:34.
