data_PCOD8308009
_publ_section_title
;
Structure prediction by ZEFSAII (Michael W. Deem and Ramdas Pophale) SiO2 
 PCOD8308009
Probable space group: I 41 C D
;
_chemical_formula_sum "Si O2"
_cell_formula_units_Z 120
_cell_length_a 24.871129
_cell_length_b 24.871129
_cell_length_c 9.855226
_cell_angle_alpha 90.000000
_cell_angle_beta 90.000000
_cell_angle_gamma 90.000000
_cell_volume 6096.177281
_symmetry_space_group_name_H-M "I 41 C D"
_symmetry_group_IT_number 110
_symmetry_cell_setting 'tetragonal'
loop_
_space_group_symop_operation_xyz
x,y,z
-y,1/2+x,1/4+z
-x,-y,z
y,1/2-x,1/4+z
-x,y,1/2+z
x,-y,1/2+z
1/2-y,-x,1/4+z
1/2+y,x,1/4+z
1/2+x,1/2+y,1/2+z
1/2-y,x,3/4+z
1/2-x,1/2-y,1/2+z
1/2+y,-x,3/4+z
1/2-x,1/2+y,z
1/2+x,1/2-y,z
-y,1/2-x,3/4+z
y,1/2+x,3/4+z
loop_
_atom_site_type_symbol
_atom_site_label
_atom_site_fract_x
_atom_site_fract_y
_atom_site_fract_z
Si Si1 0.000000 0.000000 0.844710
Si Si2 0.215511 0.960920 0.054568
Si Si3 0.825738 0.020983 0.325662
Si Si4 0.301597 0.754646 0.747688
Si Si5 0.404556 0.429522 0.743146
Si Si6 0.599052 0.318509 0.748346
Si Si7 0.086934 0.417981 0.186479
Si Si8 0.139407 0.131374 0.482876
O O1 0.033999 0.042874 0.933649
O O2 0.959602 0.036350 0.756384
O O3 0.221195 0.966409 0.216704
O O4 0.268748 0.940554 0.983536
O O5 0.162900 0.924243 0.036448
O O6 0.201417 0.014929 0.972895
O O7 0.868371 0.068102 0.343229
O O8 0.853660 0.967715 0.265746
O O9 0.264171 0.763593 0.876679
O O10 0.342879 0.706641 0.787636
O O11 0.329445 0.810412 0.700395
O O12 0.402940 0.404005 0.593203
O O13 0.398361 0.380375 0.851325
O O14 0.571473 0.355977 0.863829
O O15 0.600896 0.345652 0.600445
#
# Coordination Sequence:
#
# PCOD8308009 Si02
#       8
#     8  16  16  16  16  16  16  16
#     4  10  24  38  60  86 124 154 200 248 302 354
#     4  10  19  37  59  84 114 150 196 245 291 351
#     4  10  19  36  62  86 110 153 205 238 285 355
#     4   9  19  36  60  86 113 152 195 241 295 351
#     4  10  21  37  62  87 113 154 203 246 286 356
#     4  10  21  37  58  83 120 155 187 243 309 347
#     4  11  21  38  61  88 117 155 201 244 293 353
#     4   9  19  37  60  82 114 155 191 237 301 352
#
# _framework density 19.684467999999999
#
# number of rings (size 3 to 8) (size 9 to 14) (size 15 to 20)
#    0.000    2.133    2.667    0.400    0.000    2.133 
#    4.800    0.000    2.933    0.000    0.000    0.000 
#    0.000    0.000    0.000    0.000    0.000    0.000 
#
# Total GULP energy -743518.164836 kJ/mol
# GULP energy per Si atom -12391.969414 kJ/mol
# Density = 1.963967 g / cm^3
# Si number density = 19.684468 Si / 1000 Ang^3
#
#
#
# Elastic Constant Matrix: (Units=GPa)
#
#
# Indices 1 2 3 4 5 6 
#
# 1 63.7508 24.9538 41.1003 0.0000 0.0000 0.0000
# 2 24.9538 63.7508 41.1003 0.0000 0.0000 0.0000
# 3 41.1003 41.1003 139.6451 0.0000 0.0000 0.0000
# 4 0.0000 0.0000 0.0000 26.8010 0.0000 0.0000
# 5 0.0000 0.0000 0.0000 0.0000 26.8010 0.0000
# 6 0.0000 0.0000 0.0000 0.0000 0.0000 21.9738
#
#
#
# Elastic Compliance Matrix: (Units=1/GPa)
#
#
# Indices 1 2 3 4 5 6 
#
# 1 0.020638 -0.005137 -0.004562 0.000000 0.000000 0.000000
# 2 -0.005137 0.020638 -0.004562 0.000000 0.000000 0.000000
# 3 -0.004562 -0.004562 0.009847 0.000000 0.000000 0.000000
# 4 0.000000 0.000000 0.000000 0.037312 0.000000 0.000000
# 5 0.000000 0.000000 0.000000 0.000000 0.037312 0.000000
# 6 0.000000 0.000000 0.000000 0.000000 0.000000 0.045509
#
#
# Mechanical properties :
#
#
# Convention : Reuss Voigt Hill
#
# Bulk Modulus (GPa) = 44.24841 53.49506 48.87173
# Shear Modulus (GPa) = 24.11823 25.78132 24.94977
#
# Velocity S-wave (km/s) = 3.50414 3.62294 3.56404
# Velocity P-wave (km/s) = 6.23696 6.68852 6.46668
#
# Compressibility (1/GPa) = 0.02259968
#
# Stress axis : x y z
#
# Youngs Moduli (GPa) = 48.45392 48.45392 101.55828
#
# Poissons Ratio (x) = 0.24891 0.46334
# Poissons Ratio (y) = 0.24891 0.46334
# Poissons Ratio (z) = 0.22106 0.22106
#
# Static dielectric constant tensor:
#      x y z
#    x 3.491510 0.000000 0.000000 
#    y 0.000000 3.491510 0.000000 
#    z 0.000000 0.000000 3.582550 
# 
# 
# High freq. dielectric constant tensor:
#      x y z
#    x 1.754420 0.000000 0.000000 
#    y 0.000000 1.754420 0.000000 
#    z 0.000000 0.000000 1.770380 
# 
# From -- ./inp_files/529.got.cif
#   From: 2010.03.12/outbox.cif.g09.slc.cpg/sg110_1_cif.got.tgz:529.got - 2010.04.14 01:58:01.
