data_PCOD8308096
_publ_section_title
;
Structure prediction by ZEFSAII (Michael W. Deem and Ramdas Pophale) SiO2 
 PCOD8308096
Probable space group: P -4 2 M 
;
_chemical_formula_sum "Si O2"
_cell_formula_units_Z 52
_cell_length_a 18.242353
_cell_length_b 18.242353
_cell_length_c 9.725100
_cell_angle_alpha 90.000000
_cell_angle_beta 90.000000
_cell_angle_gamma 90.000000
_cell_volume 3236.352261
_symmetry_space_group_name_H-M "P -4 2 M "
_symmetry_group_IT_number 111
_symmetry_cell_setting 'tetragonal'
loop_
_space_group_symop_operation_xyz
x,y,z
y,-x,-z
-x,-y,z
-y,x,-z
x,-y,-z
-x,y,-z
-y,-x,z
y,x,z
loop_
_atom_site_type_symbol
_atom_site_label
_atom_site_fract_x
_atom_site_fract_y
_atom_site_fract_z
Si Si1 0.000000 0.500000 0.180590
Si Si2 0.019327 0.249202 0.842002
Si Si3 0.424032 0.864124 0.046082
Si Si4 0.701883 0.176617 0.234642
Si Si5 0.946475 0.166785 0.623661
Si Si6 0.173158 0.286766 0.445294
Si Si7 0.628894 0.089651 0.764253
O O1 0.947270 0.445779 0.091261
O O2 0.945837 0.549732 0.272260
O O3 0.106404 0.256336 0.826213
O O4 0.990406 0.176340 0.766590
O O5 0.977434 0.314374 0.762679
O O6 0.000000 0.244788 0.000000
O O7 0.378351 0.818583 0.160801
O O8 0.500000 0.822913 0.000000
O O9 0.371500 0.872451 0.913999
O O10 0.750824 0.249177 0.204735
O O11 0.689379 0.164983 0.396512
O O12 0.915207 0.084794 0.626422
O O13 0.881362 0.223414 0.600234
O O14 0.000000 0.178709 0.500000
O O15 0.255926 0.255926 0.420429
O O16 0.153076 0.355621 0.348336
#
# Coordination Sequence:
#
# PCOD8308096 Si02
#       7
#     4   8   8   8   8   8   8
#     4  10  17  30  51  74 103 132 163 206 263 304
#     4  11  19  32  50  69  95 123 164 208 255 301
#     4  10  19  33  52  74 103 135 166 204 252 307
#     4  11  21  34  51  71  97 133 169 204 253 306
#     4  10  20  33  48  65  87 121 165 216 266 306
#     4   9  20  34  47  67  98 130 168 212 249 297
#     4  10  17  29  51  71  98 127 163 208 249 295
#
# _framework density 16.067471999999999
#
# number of rings (size 3 to 8) (size 9 to 14) (size 15 to 20)
#    0.000    1.846    4.615    2.077    0.000    1.385 
#    0.000    3.846    0.000    0.000    0.000    1.077 
#    0.000    0.308    0.000    0.000    0.000   14.769 
#
# Total GULP energy -644275.968197 kJ/mol
# GULP energy per Si atom -12389.922465 kJ/mol
# Density = 1.603090 g / cm^3
# Si number density = 16.067472 Si / 1000 Ang^3
#
#
#
# Elastic Constant Matrix: (Units=GPa)
#
#
# Indices 1 2 3 4 5 6 
#
# 1 52.8891 20.4866 45.1048 0.0000 0.0000 0.0000
# 2 20.4866 52.8907 45.1050 0.0000 0.0000 0.0000
# 3 45.1048 45.1050 104.2104 0.0000 0.0000 0.0000
# 4 0.0000 0.0000 0.0000 19.2849 0.0000 0.0000
# 5 0.0000 0.0000 0.0000 0.0000 19.2803 0.0000
# 6 0.0000 0.0000 0.0000 0.0000 0.0000 25.8138
#
#
#
# Elastic Compliance Matrix: (Units=1/GPa)
#
#
# Indices 1 2 3 4 5 6 
#
# 1 0.029995 -0.000867 -0.012608 0.000000 0.000000 0.000000
# 2 -0.000867 0.029994 -0.012607 0.000000 0.000000 0.000000
# 3 -0.012608 -0.012607 0.020509 0.000000 0.000000 0.000000
# 4 0.000000 0.000000 0.000000 0.051854 0.000000 0.000000
# 5 0.000000 0.000000 0.000000 0.000000 0.051866 0.000000
# 6 0.000000 0.000000 0.000000 0.000000 0.000000 0.038739
#
#
# Mechanical properties :
#
#
# Convention : Reuss Voigt Hill
#
# Bulk Modulus (GPa) = 35.29076 47.93146 41.61111
# Shear Modulus (GPa) = 17.57065 19.49538 18.53302
#
# Velocity S-wave (km/s) = 3.31048 3.48709 3.39993
# Velocity P-wave (km/s) = 6.05179 6.79037 6.43169
#
# Compressibility (1/GPa) = 0.02833603
#
# Stress axis : x y z
#
# Youngs Moduli (GPa) = 33.33881 33.34027 48.75806
#
# Poissons Ratio (x) = 0.02889 0.61472
# Poissons Ratio (y) = 0.02889 0.61469
# Poissons Ratio (z) = 0.42032 0.42032
#
# Static dielectric constant tensor:
#      x y z
#    x 3.144720 0.000000 0.000000 
#    y 0.000000 3.144720 0.000000 
#    z 0.000000 0.000000 3.114640 
# 
# 
# High freq. dielectric constant tensor:
#      x y z
#    x 1.590230 0.000000 0.000000 
#    y 0.000000 1.590230 0.000000 
#    z 0.000000 0.000000 1.622550 
# 
# From -- ./inp_files/1852.got.cif
#   From: 2010.03.12/outbox.cif.g09.slc.cpg/sg111_1_cif.got.tgz:1852.got - 2010.04.14 01:59:48.
