data_PCOD8308373
_publ_section_title
;
Structure prediction by ZEFSAII (Michael W. Deem and Ramdas Pophale) SiO2 
 PCOD8308373
Probable space group: P -4 2 C
;
_chemical_formula_sum "Si O2"
_cell_formula_units_Z 32
_cell_length_a 11.471473
_cell_length_b 11.471473
_cell_length_c 9.743698
_cell_angle_alpha 90.000000
_cell_angle_beta 90.000000
_cell_angle_gamma 90.000000
_cell_volume 1282.218945
_symmetry_space_group_name_H-M "P -4 2 C"
_symmetry_group_IT_number 112
_symmetry_cell_setting 'tetragonal'
loop_
_space_group_symop_operation_xyz
x,y,z
y,-x,-z
-x,-y,z
-y,x,-z
x,-y,1/2-z
-x,y,1/2-z
-y,-x,1/2+z
y,x,1/2+z
loop_
_atom_site_type_symbol
_atom_site_label
_atom_site_fract_x
_atom_site_fract_y
_atom_site_fract_z
Si Si1 0.124955 0.632589 0.817816
Si Si2 0.134587 0.515103 0.443011
Si Si3 0.928800 0.826783 0.466389
Si Si4 0.201268 0.307396 0.262400
O O1 0.237069 0.676019 0.732294
O O2 0.000000 0.633194 0.750000
O O3 0.149030 0.503634 0.889276
O O4 0.112460 0.718725 0.945111
O O5 0.210802 0.418630 0.362739
O O6 0.172749 0.644083 0.392243
O O7 0.000000 0.500000 0.401105
O O8 0.896782 0.787690 0.310465
O O9 0.064095 0.852847 0.483131
#
# Coordination Sequence:
#
# PCOD8308373 Si02
#       4
#     8   8   8   8
#     4  11  23  39  63  99 139 187 242 310 362 431
#     4  10  24  40  64  92 132 200 246 288 362 440
#     4  10  21  34  55  98 144 192 225 273 363 449
#     4  10  21  40  64  91 141 185 241 290 355 444
#
# _framework density 24.956735999999999
#
# number of rings (size 3 to 8) (size 9 to 14) (size 15 to 20)
#    0.000    1.750    2.500    1.500   10.500    0.500 
#    0.000    0.000    0.000    0.750    0.000    7.000 
#    0.000    0.000    0.000    0.000    0.000    0.000 
#
# Total GULP energy -396481.638697 kJ/mol
# GULP energy per Si atom -12390.051209 kJ/mol
# Density = 2.489993 g / cm^3
# Si number density = 24.956736 Si / 1000 Ang^3
#
#
#
# Elastic Constant Matrix: (Units=GPa)
#
#
# Indices 1 2 3 4 5 6 
#
# 1 130.2143 77.5442 38.1052 0.0000 0.0000 0.0000
# 2 77.5442 130.2143 38.1052 0.0000 0.0000 0.0000
# 3 38.1052 38.1052 45.0837 0.0000 0.0000 0.0000
# 4 0.0000 0.0000 0.0000 44.9348 0.0000 0.0000
# 5 0.0000 0.0000 0.0000 0.0000 44.9348 0.0000
# 6 0.0000 0.0000 0.0000 0.0000 0.0000 27.1255
#
#
#
# Elastic Compliance Matrix: (Units=1/GPa)
#
#
# Indices 1 2 3 4 5 6 
#
# 1 0.012981 -0.006005 -0.005896 0.000000 0.000000 0.000000
# 2 -0.006005 0.012981 -0.005896 0.000000 0.000000 0.000000
# 3 -0.005896 -0.005896 0.032148 0.000000 0.000000 0.000000
# 4 0.000000 0.000000 0.000000 0.022254 0.000000 0.000000
# 5 0.000000 0.000000 0.000000 0.000000 0.022254 0.000000
# 6 0.000000 0.000000 0.000000 0.000000 0.000000 0.036866
#
#
# Mechanical properties :
#
#
# Convention : Reuss Voigt Hill
#
# Bulk Modulus (GPa) = 44.41429 68.11349 56.26389
# Shear Modulus (GPa) = 27.38442 33.51621 30.45032
#
# Velocity S-wave (km/s) = 3.31611 3.66863 3.49682
# Velocity P-wave (km/s) = 5.70064 6.73031 6.23676
#
# Compressibility (1/GPa) = 0.02251528
#
# Stress axis : x y z
#
# Youngs Moduli (GPa) = 77.03487 77.03487 31.10584
#
# Poissons Ratio (x) = 0.46259 0.18341
# Poissons Ratio (y) = 0.46259 0.18341
# Poissons Ratio (z) = 0.45422 0.45422
#
# Static dielectric constant tensor:
#      x y z
#    x 4.984820 0.000000 0.000000 
#    y 0.000000 4.984820 0.000000 
#    z 0.000000 0.000000 5.375960 
# 
# 
# High freq. dielectric constant tensor:
#      x y z
#    x 1.985890 0.000000 0.000000 
#    y 0.000000 1.985890 0.000000 
#    z 0.000000 0.000000 2.015750 
# 
# From -- ./inp_files/2233.got.cif
#   From: 2010.03.12/outbox.cif.g09.slc.cpg/sg112_2_cif.got.tgz:2233.got - 2010.04.14 02:02:48.
