data_PCOD8308803
_publ_section_title
;
Structure prediction by ZEFSAII (Michael W. Deem and Ramdas Pophale) SiO2 
 PCOD8308803
Probable space group: P -4 21 C
;
_chemical_formula_sum "Si O2"
_cell_formula_units_Z 40
_cell_length_a 10.154734
_cell_length_b 10.154734
_cell_length_c 23.016034
_cell_angle_alpha 90.000000
_cell_angle_beta 90.000000
_cell_angle_gamma 90.000000
_cell_volume 2373.381724
_symmetry_space_group_name_H-M "P -4 21 C"
_symmetry_group_IT_number 114
_symmetry_cell_setting 'tetragonal'
loop_
_space_group_symop_operation_xyz
x,y,z
y,-x,-z
-x,-y,z
-y,x,-z
1/2+x,1/2-y,1/2-z
1/2-x,1/2+y,1/2-z
1/2-y,1/2-x,1/2+z
1/2+y,1/2+x,1/2+z
loop_
_atom_site_type_symbol
_atom_site_label
_atom_site_fract_x
_atom_site_fract_y
_atom_site_fract_z
Si Si1 0.849454 0.156702 0.500818
Si Si2 0.653898 0.997722 0.188199
Si Si3 0.342415 0.503461 0.202296
Si Si4 0.766650 0.847361 0.621944
Si Si5 0.345849 0.739559 0.122729
O O1 0.790017 0.229826 0.443751
O O2 0.780615 0.216865 0.558666
O O3 0.003788 0.181834 0.508446
O O4 0.755985 0.009228 0.240198
O O5 0.684103 0.114740 0.143884
O O6 0.500000 0.000000 0.208799
O O7 0.689680 0.868168 0.152642
O O8 0.500000 0.500000 0.216485
O O9 0.294382 0.384872 0.161477
O O10 0.295157 0.637075 0.170996
O O11 0.789899 0.001391 0.615089
#
# Coordination Sequence:
#
# PCOD8308803 Si02
#       5
#     8   8   8   8   8
#     4   9  14  26  50  72  91 114 168 210 223 266
#     4  10  20  32  48  70 106 128 147 195 250 286
#     4  10  18  32  52  74  92 126 169 193 224 284
#     4   9  17  29  49  74  94 126 160 198 240 274
#     4   9  17  29  49  74  94 126 160 198 240 274
#
# _framework density 16.853588999999999
#
# number of rings (size 3 to 8) (size 9 to 14) (size 15 to 20)
#    0.000    2.600    2.000    1.200    0.000    0.000 
#    0.000    0.000    8.800    0.000    0.000    0.000 
#    0.000    0.000    0.000    0.000    0.000    0.000 
#
# Total GULP energy -495751.928236 kJ/mol
# GULP energy per Si atom -12393.798206 kJ/mol
# Density = 1.681523 g / cm^3
# Si number density = 16.853589 Si / 1000 Ang^3
#
#
#
# Elastic Constant Matrix: (Units=GPa)
#
#
# Indices 1 2 3 4 5 6 
#
# 1 48.5675 6.6627 20.5687 0.0000 0.0000 0.0000
# 2 6.6627 48.5675 20.5687 0.0000 0.0000 0.0000
# 3 20.5687 20.5687 115.3552 0.0000 0.0000 0.0000
# 4 0.0000 0.0000 0.0000 17.8849 0.0000 0.0000
# 5 0.0000 0.0000 0.0000 0.0000 17.8849 0.0000
# 6 0.0000 0.0000 0.0000 0.0000 0.0000 6.3145
#
#
#
# Elastic Compliance Matrix: (Units=1/GPa)
#
#
# Indices 1 2 3 4 5 6 
#
# 1 0.022371 -0.001492 -0.003723 0.000000 0.000000 0.000000
# 2 -0.001492 0.022371 -0.003723 0.000000 0.000000 0.000000
# 3 -0.003723 -0.003723 0.009997 0.000000 0.000000 0.000000
# 4 0.000000 0.000000 0.000000 0.055913 0.000000 0.000000
# 5 0.000000 0.000000 0.000000 0.000000 0.055913 0.000000
# 6 0.000000 0.000000 0.000000 0.000000 0.000000 0.158365
#
#
# Mechanical properties :
#
#
# Convention : Reuss Voigt Hill
#
# Bulk Modulus (GPa) = 27.12751 34.23225 30.67988
# Shear Modulus (GPa) = 14.08078 19.39622 16.73850
#
# Velocity S-wave (km/s) = 2.89360 3.39612 3.15488
# Velocity P-wave (km/s) = 5.22444 5.97778 5.61376
#
# Compressibility (1/GPa) = 0.03686294
#
# Stress axis : x y z
#
# Youngs Moduli (GPa) = 44.70018 44.70018 100.03496
#
# Poissons Ratio (x) = 0.06671 0.37242
# Poissons Ratio (y) = 0.06671 0.37242
# Poissons Ratio (z) = 0.16641 0.16641
#
# Static dielectric constant tensor:
#      x y z
#    x 3.015480 0.000000 0.000000 
#    y 0.000000 3.015480 0.000000 
#    z 0.000000 0.000000 3.441450 
# 
# 
# High freq. dielectric constant tensor:
#      x y z
#    x 1.623020 0.000000 0.000000 
#    y 0.000000 1.623020 0.000000 
#    z 0.000000 0.000000 1.667930 
# 
# From -- ./inp_files/3633.got.cif
#   From: 2010.03.12/outbox.cif.g09.slc.cpg/sg114_2_cif.got.tgz:3633.got - 2010.04.14 02:08:34.
