data_PCOD8308314
_publ_section_title
;
Structure prediction by ZEFSAII (Michael W. Deem and Ramdas Pophale) SiO2 
 PCOD8308314
Probable space group: P -4 2 C
;
_chemical_formula_sum "Si O2"
_cell_formula_units_Z 56
_cell_length_a 12.688938
_cell_length_b 12.688938
_cell_length_c 20.638489
_cell_angle_alpha 90.000000
_cell_angle_beta 90.000000
_cell_angle_gamma 90.000000
_cell_volume 3322.985521
_symmetry_space_group_name_H-M "P -4 2 C"
_symmetry_group_IT_number 112
_symmetry_cell_setting 'tetragonal'
loop_
_space_group_symop_operation_xyz
x,y,z
y,-x,-z
-x,-y,z
-y,x,-z
x,-y,1/2-z
-x,y,1/2-z
-y,-x,1/2+z
y,x,1/2+z
loop_
_atom_site_type_symbol
_atom_site_label
_atom_site_fract_x
_atom_site_fract_y
_atom_site_fract_z
Si Si1 0.728158 0.588204 0.074721
Si Si2 0.927821 0.717964 0.553025
Si Si3 0.438583 0.241122 0.034561
Si Si4 0.242655 0.359813 0.882546
Si Si5 0.257938 0.848058 0.993644
Si Si6 0.616615 0.471044 0.175420
Si Si7 0.376782 0.023820 0.323136
O O1 0.649440 0.680928 0.058220
O O2 0.706517 0.549099 0.147098
O O3 0.710642 0.484969 0.031143
O O4 0.840232 0.642628 0.057233
O O5 0.873892 0.613155 0.523105
O O6 0.849420 0.817068 0.543381
O O7 0.031898 0.747607 0.514152
O O8 0.953274 0.694781 0.628494
O O9 0.523438 0.231856 0.090513
O O10 0.229303 0.278784 0.943538
O O11 0.351492 0.349628 0.842139
O O12 0.146307 0.347212 0.832950
O O13 0.500000 0.500000 0.146902
O O14 0.617116 0.500000 0.250000
O O15 0.500000 0.000000 0.335207
O O16 0.342971 0.000000 0.250000
#
# Coordination Sequence:
#
# PCOD8308314 Si02
#       7
#     8   8   8   8   8   8   8
#     4  10  19  30  45  72  94 141 168 197 253 303
#     4  10  19  36  50  82 102 130 170 218 271 316
#     4  10  18  29  51  68 104 129 173 214 245 312
#     4  10  19  34  46  77 103 143 179 212 254 310
#     4   9  21  33  56  74 101 126 173 222 269 311
#     4  11  22  31  44  68 108 147 177 205 242 300
#     4  10  20  32  54  76 107 146 175 214 267 314
#
# _framework density 16.852315000000001
#
# number of rings (size 3 to 8) (size 9 to 14) (size 15 to 20)
#    0.000    2.000    2.857    2.571    0.000    4.857 
#    0.000    0.000    0.000    0.000    0.000   24.000 
#    0.000    0.000    0.000    0.000    0.000    0.000 
#
# Total GULP energy -693803.362304 kJ/mol
# GULP energy per Si atom -12389.345755 kJ/mol
# Density = 1.681396 g / cm^3
# Si number density = 16.852315 Si / 1000 Ang^3
#
#
#
# Elastic Constant Matrix: (Units=GPa)
#
#
# Indices 1 2 3 4 5 6 
#
# 1 84.1720 37.9893 46.2726 0.0000 0.0000 0.0000
# 2 37.9893 84.1720 46.2726 0.0000 0.0000 0.0000
# 3 46.2726 46.2726 97.7893 0.0000 0.0000 0.0000
# 4 0.0000 0.0000 0.0000 21.5721 0.0000 0.0000
# 5 0.0000 0.0000 0.0000 0.0000 21.5721 0.0000
# 6 0.0000 0.0000 0.0000 0.0000 0.0000 11.4333
#
#
#
# Elastic Compliance Matrix: (Units=1/GPa)
#
#
# Indices 1 2 3 4 5 6 
#
# 1 0.017207 -0.004447 -0.006038 0.000000 0.000000 0.000000
# 2 -0.004447 0.017207 -0.006038 0.000000 0.000000 0.000000
# 3 -0.006038 -0.006038 0.015940 0.000000 0.000000 0.000000
# 4 0.000000 0.000000 0.000000 0.046356 0.000000 0.000000
# 5 0.000000 0.000000 0.000000 0.000000 0.046356 0.000000
# 6 0.000000 0.000000 0.000000 0.000000 0.000000 0.087464
#
#
# Mechanical properties :
#
#
# Convention : Reuss Voigt Hill
#
# Bulk Modulus (GPa) = 57.77454 58.57806 58.17630
# Shear Modulus (GPa) = 18.56366 19.95542 19.25954
#
# Velocity S-wave (km/s) = 3.32256 3.44486 3.38426
# Velocity P-wave (km/s) = 7.00546 7.11743 7.06167
#
# Compressibility (1/GPa) = 0.01730866
#
# Stress axis : x y z
#
# Youngs Moduli (GPa) = 58.11736 58.11736 62.73473
#
# Poissons Ratio (x) = 0.25842 0.37878
# Poissons Ratio (y) = 0.25842 0.37878
# Poissons Ratio (z) = 0.35090 0.35090
#
# Static dielectric constant tensor:
#      x y z
#    x 3.432640 0.000000 0.000000 
#    y 0.000000 3.432640 0.000000 
#    z 0.000000 0.000000 3.270130 
# 
# 
# High freq. dielectric constant tensor:
#      x y z
#    x 1.642230 0.000000 0.000000 
#    y 0.000000 1.642230 0.000000 
#    z 0.000000 0.000000 1.636110 
# 
# From -- ./inp_files/4939.got.cif
#   From: 2010.03.12/outbox.cif.g09.slc.cpg/sg112_3_cif.got.tgz:4939.got - 2010.04.14 02:02:48.
