data_PCOD8308393
_publ_section_title
;
Structure prediction by ZEFSAII (Michael W. Deem and Ramdas Pophale) SiO2 
 PCOD8308393
Probable space group: P -4 2 C
;
_chemical_formula_sum "Si O2"
_cell_formula_units_Z 60
_cell_length_a 15.004502
_cell_length_b 15.004502
_cell_length_c 13.187808
_cell_angle_alpha 90.000000
_cell_angle_beta 90.000000
_cell_angle_gamma 90.000000
_cell_volume 2969.038213
_symmetry_space_group_name_H-M "P -4 2 C"
_symmetry_group_IT_number 112
_symmetry_cell_setting 'tetragonal'
loop_
_space_group_symop_operation_xyz
x,y,z
y,-x,-z
-x,-y,z
-y,x,-z
x,-y,1/2-z
-x,y,1/2-z
-y,-x,1/2+z
y,x,1/2+z
loop_
_atom_site_type_symbol
_atom_site_label
_atom_site_fract_x
_atom_site_fract_y
_atom_site_fract_z
Si Si1 0.373148 0.249997 0.872682
Si Si2 0.474709 0.101395 0.135207
Si Si3 0.000000 0.198666 0.250000
Si Si4 0.035331 0.866761 0.034109
Si Si5 0.611689 0.577492 0.981554
Si Si6 0.445619 0.198818 0.549964
Si Si7 0.826457 0.710879 0.180968
Si Si8 0.151510 0.283463 0.553966
O O1 0.389255 0.356020 0.885717
O O2 0.465622 0.195001 0.881056
O O3 0.331360 0.240067 0.762784
O O4 0.307906 0.215918 0.961206
O O5 0.500000 0.127681 0.250000
O O6 0.369806 0.115660 0.114131
O O7 0.500000 0.000000 0.111927
O O8 0.534088 0.163269 0.062417
O O9 0.014743 0.136803 0.346906
O O10 0.084607 0.261672 0.237700
O O11 0.067947 0.772366 0.989573
O O12 0.943274 0.890614 0.978127
O O13 0.603523 0.473768 0.947348
O O14 0.700481 0.591446 0.046201
O O15 0.365237 0.143933 0.600566
O O16 0.779290 0.795580 0.131325
#
# Coordination Sequence:
#
# PCOD8308393 Si02
#       8
#     8   8   4   8   8   8   8   8
#     4  10  21  40  62  97 132 170 227 265 327 400
#     4  10  25  45  63  94 130 171 227 271 329 394
#     4  12  26  45  67 102 128 170 230 266 335 427
#     4  11  25  47  70  96 134 166 211 281 344 399
#     4   9  18  36  62  92 132 177 216 273 326 389
#     4  10  22  39  66  92 134 175 215 278 332 386
#     4  12  24  40  68  97 130 174 222 270 335 398
#     4  11  23  43  66  93 127 175 216 269 330 394
#
# _framework density 20.208565
#
# number of rings (size 3 to 8) (size 9 to 14) (size 15 to 20)
#    0.000    1.467    4.000    0.400    3.733    1.067 
#    4.800    1.333    0.000    3.200    0.000    0.000 
#    0.000    0.000    0.000    0.000    0.000    0.000 
#
# Total GULP energy -744003.983914 kJ/mol
# GULP energy per Si atom -12400.066399 kJ/mol
# Density = 2.016257 g / cm^3
# Si number density = 20.208565 Si / 1000 Ang^3
#
#
#
# Elastic Constant Matrix: (Units=GPa)
#
#
# Indices 1 2 3 4 5 6 
#
# 1 104.1165 34.1072 45.6657 0.0000 0.0000 0.0000
# 2 34.1072 104.1165 45.6657 0.0000 0.0000 0.0000
# 3 45.6657 45.6657 120.0065 0.0000 0.0000 0.0000
# 4 0.0000 0.0000 0.0000 32.5951 0.0000 0.0000
# 5 0.0000 0.0000 0.0000 0.0000 32.5951 0.0000
# 6 0.0000 0.0000 0.0000 0.0000 0.0000 32.0409
#
#
#
# Elastic Compliance Matrix: (Units=1/GPa)
#
#
# Indices 1 2 3 4 5 6 
#
# 1 0.011974 -0.002310 -0.003678 0.000000 0.000000 0.000000
# 2 -0.002310 0.011974 -0.003678 0.000000 0.000000 0.000000
# 3 -0.003678 -0.003678 0.011132 0.000000 0.000000 0.000000
# 4 0.000000 0.000000 0.000000 0.030680 0.000000 0.000000
# 5 0.000000 0.000000 0.000000 0.000000 0.030680 0.000000
# 6 0.000000 0.000000 0.000000 0.000000 0.000000 0.031210
#
#
# Mechanical properties :
#
#
# Convention : Reuss Voigt Hill
#
# Bulk Modulus (GPa) = 63.49021 64.34628 63.91825
# Shear Modulus (GPa) = 32.84517 32.96626 32.90571
#
# Velocity S-wave (km/s) = 4.03589 4.04332 4.03960
# Velocity P-wave (km/s) = 7.29407 7.32858 7.31135
#
# Compressibility (1/GPa) = 0.01575046
#
# Stress axis : x y z
#
# Youngs Moduli (GPa) = 83.51258 83.51258 89.83286
#
# Poissons Ratio (x) = 0.19288 0.33038
# Poissons Ratio (y) = 0.19288 0.33038
# Poissons Ratio (z) = 0.30713 0.30713
#
# Static dielectric constant tensor:
#      x y z
#    x 3.813300 0.000000 0.000000 
#    y 0.000000 3.813300 0.000000 
#    z 0.000000 0.000000 3.541380 
# 
# 
# High freq. dielectric constant tensor:
#      x y z
#    x 1.798790 0.000000 0.000000 
#    y 0.000000 1.798790 0.000000 
#    z 0.000000 0.000000 1.776260 
# 
# From -- ./inp_files/3482.got.cif
#   From: 2010.03.12/outbox.cif.g09.slc.cpg/sg112_2_cif.got.tgz:3482.got - 2010.04.14 02:02:48.
