data_PCOD8308458
_publ_section_title
;
Structure prediction by ZEFSAII (Michael W. Deem and Ramdas Pophale) SiO2 
 PCOD8308458
Probable space group: P -4 2 C
;
_chemical_formula_sum "Si O2"
_cell_formula_units_Z 56
_cell_length_a 11.779643
_cell_length_b 11.779643
_cell_length_c 20.584774
_cell_angle_alpha 90.000000
_cell_angle_beta 90.000000
_cell_angle_gamma 90.000000
_cell_volume 2856.343018
_symmetry_space_group_name_H-M "P -4 2 C"
_symmetry_group_IT_number 112
_symmetry_cell_setting 'tetragonal'
loop_
_space_group_symop_operation_xyz
x,y,z
y,-x,-z
-x,-y,z
-y,x,-z
x,-y,1/2-z
-x,y,1/2-z
-y,-x,1/2+z
y,x,1/2+z
loop_
_atom_site_type_symbol
_atom_site_label
_atom_site_fract_x
_atom_site_fract_y
_atom_site_fract_z
Si Si1 0.741511 0.865671 0.056667
Si Si2 0.721099 0.261335 0.676743
Si Si3 0.258489 0.134329 0.443333
Si Si4 0.866035 0.500000 0.994645
Si Si5 0.278901 0.261335 0.676743
Si Si6 0.624452 0.500000 0.673676
Si Si7 0.500000 0.865069 0.858459
O O1 0.613131 0.823974 0.041729
O O2 0.783496 0.813984 0.125375
O O3 0.749846 1.000000 0.061937
O O4 0.824765 0.824765 0.000000
O O5 0.813984 0.216504 0.625375
O O6 0.771889 0.260532 0.750000
O O7 0.692008 0.388182 0.653004
O O8 0.610698 0.182095 0.677303
O O9 0.386869 0.176026 0.458271
O O10 0.000000 0.500000 0.998287
O O11 0.818816 0.500000 0.067885
O O12 0.307992 0.388182 0.653004
O O13 0.389302 0.182095 0.677303
O O14 0.500000 0.500000 0.640160
O O15 0.606767 0.500000 0.750000
O O16 0.500000 0.000000 0.853427
#
# Coordination Sequence:
#
# PCOD8308458 Si02
#       7
#     8   8   8   8   8   8   8
#     4  11  23  40  62  86 117 157 202 248 295 354
#     4  11  22  37  60  89 123 158 193 241 300 358
#     4  11  23  40  62  86 117 157 202 248 295 354
#     4   9  19  38  61  84 113 150 194 246 294 345
#     4  11  22  37  60  89 123 158 193 241 300 358
#     4   9  17  32  55  86 122 155 184 224 285 352
#     4  11  21  36  60  89 118 152 197 248 301 352
#
# _framework density 19.605488999999999
#
# number of rings (size 3 to 8) (size 9 to 14) (size 15 to 20)
#    0.000    1.571    4.286    1.286    0.000    2.000 
#    0.000    0.000    0.000    5.143    0.000    4.000 
#    0.000    0.000    0.000    0.000    0.000    0.000 
#
# Total GULP energy -694376.086971 kJ/mol
# GULP energy per Si atom -12399.572982 kJ/mol
# Density = 1.956087 g / cm^3
# Si number density = 19.605489 Si / 1000 Ang^3
#
#
#
# Elastic Constant Matrix: (Units=GPa)
#
#
# Indices 1 2 3 4 5 6 
#
# 1 99.2399 31.7522 44.5787 0.0000 0.0000 0.0000
# 2 31.7522 99.2399 44.5787 0.0000 0.0000 0.0000
# 3 44.5787 44.5787 140.7147 0.0000 0.0000 0.0000
# 4 0.0000 0.0000 0.0000 16.4064 0.0000 0.0000
# 5 0.0000 0.0000 0.0000 0.0000 16.4064 0.0000
# 6 0.0000 0.0000 0.0000 0.0000 0.0000 15.5136
#
#
#
# Elastic Compliance Matrix: (Units=1/GPa)
#
#
# Indices 1 2 3 4 5 6 
#
# 1 0.012275 -0.002542 -0.003083 0.000000 0.000000 0.000000
# 2 -0.002542 0.012275 -0.003083 0.000000 0.000000 0.000000
# 3 -0.003083 -0.003083 0.009060 0.000000 0.000000 0.000000
# 4 0.000000 0.000000 0.000000 0.060952 0.000000 0.000000
# 5 0.000000 0.000000 0.000000 0.000000 0.060952 0.000000
# 6 0.000000 0.000000 0.000000 0.000000 0.000000 0.064459
#
#
# Mechanical properties :
#
#
# Convention : Reuss Voigt Hill
#
# Bulk Modulus (GPa) = 61.75816 64.55711 63.15763
# Shear Modulus (GPa) = 20.59403 24.21762 22.40582
#
# Velocity S-wave (km/s) = 3.24454 3.51842 3.38425
# Velocity P-wave (km/s) = 6.75314 7.03600 6.89602
#
# Compressibility (1/GPa) = 0.01619219
#
# Stress axis : x y z
#
# Youngs Moduli (GPa) = 81.46581 81.46581 110.37299
#
# Poissons Ratio (x) = 0.20712 0.34032
# Poissons Ratio (y) = 0.20712 0.34032
# Poissons Ratio (z) = 0.25119 0.25119
#
# Static dielectric constant tensor:
#      x y z
#    x 3.481850 0.000000 0.000000 
#    y 0.000000 3.481850 0.000000 
#    z 0.000000 0.000000 3.568350 
# 
# 
# High freq. dielectric constant tensor:
#      x y z
#    x 1.752510 0.000000 0.000000 
#    y 0.000000 1.752510 0.000000 
#    z 0.000000 0.000000 1.768890 
# 
# From -- ./inp_files/4952.got.cif
#   From: 2010.03.12/outbox.cif.g09.slc.cpg/sg112_3_cif.got.tgz:4952.got - 2010.04.14 02:02:48.
