data_PCOD8308576
_publ_section_title
;
Structure prediction by ZEFSAII (Michael W. Deem and Ramdas Pophale) SiO2 
 PCOD8308576
Probable space group: P -4 21 M 
;
_chemical_formula_sum "Si O2"
_cell_formula_units_Z 64
_cell_length_a 12.716678
_cell_length_b 12.716678
_cell_length_c 19.688410
_cell_angle_alpha 90.000000
_cell_angle_beta 90.000000
_cell_angle_gamma 90.000000
_cell_volume 3183.889553
_symmetry_space_group_name_H-M "P -4 21 M "
_symmetry_group_IT_number 113
_symmetry_cell_setting 'tetragonal'
loop_
_space_group_symop_operation_xyz
x,y,z
y,-x,-z
-x,-y,z
-y,x,-z
1/2+x,1/2-y,-z
1/2-x,1/2+y,-z
1/2-y,1/2-x,z
1/2+y,1/2+x,z
loop_
_atom_site_type_symbol
_atom_site_label
_atom_site_fract_x
_atom_site_fract_y
_atom_site_fract_z
Si Si1 0.598681 0.275532 0.215503
Si Si2 0.997435 0.329313 0.903930
Si Si3 0.496747 0.339808 0.588724
Si Si4 0.329729 0.513709 0.016768
Si Si5 0.328292 0.998846 0.865598
Si Si6 0.013590 0.822405 0.561959
Si Si7 0.743703 0.929300 0.728909
Si Si8 0.832352 0.493078 0.673042
O O1 0.684358 0.184358 0.215341
O O2 0.531215 0.265329 0.146619
O O3 0.653562 0.386736 0.230115
O O4 0.514253 0.261654 0.275185
O O5 0.095393 0.404608 0.919497
O O6 0.899663 0.399663 0.875822
O O7 0.962704 0.273531 0.972757
O O8 0.484959 0.282667 0.515980
O O9 0.616139 0.382451 0.586931
O O10 0.404082 0.424201 0.584248
O O11 0.484665 0.270158 0.656994
O O12 0.282553 0.501588 0.093083
O O13 0.408260 0.612393 0.009658
O O14 0.396500 0.896500 0.886203
O O15 0.394174 0.105827 0.880201
O O16 0.306657 0.991384 0.784045
O O17 0.000178 0.711546 0.597704
O O18 0.666152 0.833849 0.710304
O O19 0.922351 0.577650 0.682763
O O20 0.877858 0.377858 0.687808
#
# Coordination Sequence:
#
# PCOD8308576 Si02
#       8
#     8   8   8   8   8   8   8   8
#     4   9  17  31  53  82 112 142 182 229 278 338
#     4  10  20  35  58  86 113 146 187 231 283 339
#     4   9  18  34  55  78 107 147 197 243 282 336
#     4  11  24  41  59  85 117 152 194 238 281 333
#     4  10  22  41  63  87 118 154 191 236 290 344
#     4   9  18  34  53  77 109 148 192 240 292 339
#     4  10  19  34  59  85 110 152 198 233 280 344
#     4  10  19  32  51  78 113 146 178 226 290 350
#
# _framework density 20.101199999999999
#
# number of rings (size 3 to 8) (size 9 to 14) (size 15 to 20)
#    0.000    2.250    1.250    2.625    0.000    6.000 
#    2.250    4.375    0.000    1.500    0.000    0.000 
#    0.000    0.000    0.000    0.000    0.000    0.000 
#
# Total GULP energy -792838.695432 kJ/mol
# GULP energy per Si atom -12388.104616 kJ/mol
# Density = 2.005545 g / cm^3
# Si number density = 20.101200 Si / 1000 Ang^3
#
#
#
# Elastic Constant Matrix: (Units=GPa)
#
#
# Indices 1 2 3 4 5 6 
#
# 1 38.8794 -6.7494 20.6026 0.0000 0.0000 0.0000
# 2 -6.7494 38.8794 20.6027 0.0000 0.0000 0.0000
# 3 20.6026 20.6027 118.8349 0.0000 0.0000 0.0000
# 4 0.0000 0.0000 0.0000 33.1078 0.0000 0.0000
# 5 0.0000 0.0000 0.0000 0.0000 33.1055 0.0000
# 6 0.0000 0.0000 0.0000 0.0000 0.0000 16.9960
#
#
#
# Elastic Compliance Matrix: (Units=1/GPa)
#
#
# Indices 1 2 3 4 5 6 
#
# 1 0.030969 0.009053 -0.006939 0.000000 0.000000 0.000000
# 2 0.009053 0.030969 -0.006939 0.000000 0.000000 0.000000
# 3 -0.006939 -0.006939 0.010821 0.000000 0.000000 0.000000
# 4 0.000000 0.000000 0.000000 0.030204 0.000000 0.000000
# 5 0.000000 0.000000 0.000000 0.000000 0.030206 0.000000
# 6 0.000000 0.000000 0.000000 0.000000 0.000000 0.058837
#
#
# Mechanical properties :
#
#
# Convention : Reuss Voigt Hill
#
# Bulk Modulus (GPa) = 15.84521 29.50060 22.67291
# Shear Modulus (GPa) = 22.45243 27.45103 24.95173
#
# Velocity S-wave (km/s) = 3.34574 3.69947 3.52704
# Velocity P-wave (km/s) = 4.77756 5.74073 5.28115
#
# Compressibility (1/GPa) = 0.06311055
#
# Stress axis : x y z
#
# Youngs Moduli (GPa) = 32.29023 32.29022 92.41286
#
# Poissons Ratio (x) = -0.29233 0.64123
# Poissons Ratio (y) = -0.29233 0.64123
# Poissons Ratio (z) = 0.22405 0.22405
#
# Static dielectric constant tensor:
#      x y z
#    x 3.550440 0.000000 0.000000 
#    y 0.000000 3.550450 0.000000 
#    z 0.000000 0.000000 4.498000 
# 
# 
# High freq. dielectric constant tensor:
#      x y z
#    x 1.764130 0.000000 0.000000 
#    y 0.000000 1.764130 0.000000 
#    z 0.000000 0.000000 1.795820 
# 
# From -- ./inp_files/2887.got.cif
#   From: 2010.03.12/outbox.cif.g09.slc.cpg/sg113_cif.got.tgz:2887.got - 2010.04.14 02:06:34.
