data_PCOD8308627
_publ_section_title
;
Structure prediction by ZEFSAII (Michael W. Deem and Ramdas Pophale) SiO2 
 PCOD8308627
Probable space group: P -4 21 M 
;
_chemical_formula_sum "Si O2"
_cell_formula_units_Z 48
_cell_length_a 18.830743
_cell_length_b 18.830743
_cell_length_c 7.723990
_cell_angle_alpha 90.000000
_cell_angle_beta 90.000000
_cell_angle_gamma 90.000000
_cell_volume 2738.902770
_symmetry_space_group_name_H-M "P -4 21 M "
_symmetry_group_IT_number 113
_symmetry_cell_setting 'tetragonal'
loop_
_space_group_symop_operation_xyz
x,y,z
y,-x,-z
-x,-y,z
-y,x,-z
1/2+x,1/2-y,-z
1/2-x,1/2+y,-z
1/2-y,1/2-x,z
1/2+y,1/2+x,z
loop_
_atom_site_type_symbol
_atom_site_label
_atom_site_fract_x
_atom_site_fract_y
_atom_site_fract_z
Si Si1 0.786329 0.169906 0.470645
Si Si2 0.056420 0.324095 0.503255
Si Si3 0.614423 0.000819 0.826957
Si Si4 0.770364 0.847617 0.207738
Si Si5 0.232195 0.848070 0.092658
Si Si6 0.711833 0.997608 0.143012
O O1 0.724717 0.224717 0.513966
O O2 0.753548 0.092272 0.507580
O O3 0.848643 0.190343 0.604432
O O4 0.810360 0.173202 0.269195
O O5 0.113086 0.386915 0.516879
O O6 0.007706 0.331848 0.334140
O O7 0.008232 0.327959 0.674667
O O8 0.575644 0.075644 0.860894
O O9 0.559305 0.940696 0.773878
O O10 0.654290 0.978146 0.999317
O O11 0.695478 0.804523 0.208882
O O12 0.762269 0.929350 0.156819
O O13 0.824263 0.812647 0.071368
O O14 0.309140 0.809140 0.095895
O O15 0.244448 0.932555 0.084925
#
# Coordination Sequence:
#
# PCOD8308627 Si02
#       6
#     8   8   8   8   8   8
#     4   8  15  30  50  68  89 121 162 206 245 285
#     4   9  18  33  52  71  94 133 178 208 239 296
#     4  10  20  31  44  68 105 142 168 195 238 295
#     4  10  20  32  49  76 105 129 160 210 264 303
#     4   9  18  34  54  73  97 133 173 207 245 302
#     4  11  20  32  52  76  99 130 172 215 254 298
#
# _framework density 17.525265999999998
#
# number of rings (size 3 to 8) (size 9 to 14) (size 15 to 20)
#    0.000    2.500    0.000    4.000    0.000    5.333 
#    0.000    3.333    0.000    0.500    0.000    0.000 
#    0.000    0.000    0.000    0.000    0.000    0.000 
#
# Total GULP energy -595043.726914 kJ/mol
# GULP energy per Si atom -12396.744311 kJ/mol
# Density = 1.748538 g / cm^3
# Si number density = 17.525266 Si / 1000 Ang^3
#
#
#
# Elastic Constant Matrix: (Units=GPa)
#
#
# Indices 1 2 3 4 5 6 
#
# 1 60.4345 17.8127 20.5418 0.0000 0.0000 0.0000
# 2 17.8127 60.4333 20.5421 0.0000 0.0000 0.0000
# 3 20.5418 20.5421 91.4298 0.0000 0.0000 0.0000
# 4 0.0000 0.0000 0.0000 14.6972 0.0000 0.0000
# 5 0.0000 0.0000 0.0000 0.0000 14.6982 0.0000
# 6 0.0000 0.0000 0.0000 0.0000 0.0000 13.6818
#
#
#
# Elastic Compliance Matrix: (Units=1/GPa)
#
#
# Indices 1 2 3 4 5 6 
#
# 1 0.018976 -0.004487 -0.003255 0.000000 0.000000 0.000000
# 2 -0.004487 0.018976 -0.003255 0.000000 0.000000 0.000000
# 3 -0.003255 -0.003255 0.012400 0.000000 0.000000 0.000000
# 4 0.000000 0.000000 0.000000 0.068040 0.000000 0.000000
# 5 0.000000 0.000000 0.000000 0.000000 0.068036 0.000000
# 6 0.000000 0.000000 0.000000 0.000000 0.000000 0.073090
#
#
# Mechanical properties :
#
#
# Convention : Reuss Voigt Hill
#
# Bulk Modulus (GPa) = 35.26424 36.67674 35.97049
# Shear Modulus (GPa) = 17.18422 18.84218 18.01320
#
# Velocity S-wave (km/s) = 3.13475 3.28250 3.20948
# Velocity P-wave (km/s) = 5.76783 5.94472 5.85694
#
# Compressibility (1/GPa) = 0.02835734
#
# Stress axis : x y z
#
# Youngs Moduli (GPa) = 52.69895 52.69766 80.64410
#
# Poissons Ratio (x) = 0.23643 0.26252
# Poissons Ratio (y) = 0.23644 0.26254
# Poissons Ratio (z) = 0.17155 0.17156
#
# Static dielectric constant tensor:
#      x y z
#    x 3.031790 0.000000 0.000000 
#    y 0.000000 3.031800 0.000000 
#    z 0.000000 0.000000 3.565270 
# 
# 
# High freq. dielectric constant tensor:
#      x y z
#    x 1.645730 0.000000 0.000000 
#    y 0.000000 1.645730 0.000000 
#    z 0.000000 0.000000 1.702520 
# 
# From -- ./inp_files/1166.got.cif
#   From: 2010.03.12/outbox.cif.g09.slc.cpg/sg113_cif.got.tgz:1166.got - 2010.04.14 02:06:34.
