data_PCOD8308570
_publ_section_title
;
Structure prediction by ZEFSAII (Michael W. Deem and Ramdas Pophale) SiO2 
 PCOD8308570
Probable space group: P -4 21 M 
;
_chemical_formula_sum "Si O2"
_cell_formula_units_Z 64
_cell_length_a 12.624307
_cell_length_b 12.624307
_cell_length_c 22.929537
_cell_angle_alpha 90.000000
_cell_angle_beta 90.000000
_cell_angle_gamma 90.000000
_cell_volume 3654.352018
_symmetry_space_group_name_H-M "P -4 21 M "
_symmetry_group_IT_number 113
_symmetry_cell_setting 'tetragonal'
loop_
_space_group_symop_operation_xyz
x,y,z
y,-x,-z
-x,-y,z
-y,x,-z
1/2+x,1/2-y,-z
1/2-x,1/2+y,-z
1/2-y,1/2-x,z
1/2+y,1/2+x,z
loop_
_atom_site_type_symbol
_atom_site_label
_atom_site_fract_x
_atom_site_fract_y
_atom_site_fract_z
Si Si1 0.705030 0.380945 0.941651
Si Si2 0.255030 0.931877 0.554830
Si Si3 0.272803 0.605414 0.361996
Si Si4 0.192894 0.867743 0.066843
Si Si5 0.929330 0.745786 0.577642
Si Si6 0.119223 0.965714 0.732392
Si Si7 0.199401 0.129457 0.361790
Si Si8 0.989625 0.875128 0.137788
O O1 0.813285 0.313285 0.929834
O O2 0.724752 0.507148 0.931656
O O3 0.611208 0.338161 0.900034
O O4 0.662609 0.360864 0.006135
O O5 0.347743 0.847743 0.555183
O O6 0.229403 0.963615 0.488587
O O7 0.149642 0.888158 0.587533
O O8 0.292134 0.033378 0.592003
O O9 0.197976 0.697976 0.338854
O O10 0.371473 0.651109 0.397820
O O11 0.309768 0.544582 0.305057
O O12 0.299250 0.799250 0.078606
O O13 0.103599 0.834075 0.114432
O O14 0.859326 0.640675 0.582141
O O15 0.031554 0.728033 0.618191
O O16 0.114141 0.851213 0.701877
O O17 0.168459 0.965365 0.797163
O O18 0.000000 0.000000 0.737215
O O19 0.267339 0.232662 0.355039
O O20 0.000000 0.000000 0.135435
#
# Coordination Sequence:
#
# PCOD8308570 Si02
#       8
#     8   8   8   8   8   8   8   8
#     4  10  19  33  55  82 116 152 185 226 272 319
#     4   9  19  32  49  73  98 130 170 213 265 321
#     4  10  20  33  51  74 102 132 169 215 264 314
#     4  10  19  33  55  84 116 149 185 229 274 320
#     4  10  19  32  50  73 102 133 166 212 270 326
#     4  10  19  36  55  76  98 136 177 217 259 303
#     4  10  20  34  51  73 102 133 173 216 257 316
#     4   9  19  33  56  80 105 139 187 226 262 319
#
# _framework density 17.513365
#
# number of rings (size 3 to 8) (size 9 to 14) (size 15 to 20)
#    0.000    2.250    2.500    0.750    0.000    3.250 
#    0.000    2.500    0.000    0.375    0.000    3.500 
#    0.000    0.000    0.000    0.000    0.000    0.000 
#
# Total GULP energy -793239.637420 kJ/mol
# GULP energy per Si atom -12394.369335 kJ/mol
# Density = 1.747350 g / cm^3
# Si number density = 17.513365 Si / 1000 Ang^3
#
#
#
# Elastic Constant Matrix: (Units=GPa)
#
#
# Indices 1 2 3 4 5 6 
#
# 1 74.4426 30.0380 40.9420 0.0000 0.0000 0.0000
# 2 30.0380 74.4391 40.9408 0.0000 0.0000 0.0000
# 3 40.9420 40.9408 135.9636 0.0000 0.0000 0.0000
# 4 0.0000 0.0000 0.0000 21.7275 0.0000 0.0000
# 5 0.0000 0.0000 0.0000 0.0000 21.7279 0.0000
# 6 0.0000 0.0000 0.0000 0.0000 0.0000 12.4813
#
#
#
# Elastic Compliance Matrix: (Units=1/GPa)
#
#
# Indices 1 2 3 4 5 6 
#
# 1 0.017524 -0.004997 -0.003772 0.000000 0.000000 0.000000
# 2 -0.004997 0.017525 -0.003772 0.000000 0.000000 0.000000
# 3 -0.003772 -0.003772 0.009627 0.000000 0.000000 0.000000
# 4 0.000000 0.000000 0.000000 0.046025 0.000000 0.000000
# 5 0.000000 0.000000 0.000000 0.000000 0.046024 0.000000
# 6 0.000000 0.000000 0.000000 0.000000 0.000000 0.080120
#
#
# Mechanical properties :
#
#
# Convention : Reuss Voigt Hill
#
# Bulk Modulus (GPa) = 51.03887 56.52077 53.77982
# Shear Modulus (GPa) = 20.12418 22.71566 21.41992
#
# Velocity S-wave (km/s) = 3.39348 3.60536 3.50102
# Velocity P-wave (km/s) = 6.67535 7.04801 6.86421
#
# Compressibility (1/GPa) = 0.01959291
#
# Stress axis : x y z
#
# Youngs Moduli (GPa) = 57.06443 57.06182 103.87681
#
# Poissons Ratio (x) = 0.28512 0.39186
# Poissons Ratio (y) = 0.28513 0.39186
# Poissons Ratio (z) = 0.21527 0.21526
#
# Static dielectric constant tensor:
#      x y z
#    x 3.172060 0.000000 0.000000 
#    y 0.000000 3.172060 0.000000 
#    z 0.000000 0.000000 3.581390 
# 
# 
# High freq. dielectric constant tensor:
#      x y z
#    x 1.669610 0.000000 0.000000 
#    y 0.000000 1.669610 0.000000 
#    z 0.000000 0.000000 1.677440 
# 
# From -- ./inp_files/2885.got.cif
#   From: 2010.03.12/outbox.cif.g09.slc.cpg/sg113_cif.got.tgz:2885.got - 2010.04.14 02:06:34.
