data_PCOD8308699
_publ_section_title
;
Structure prediction by ZEFSAII (Michael W. Deem and Ramdas Pophale) SiO2 
 PCOD8308699
Probable space group: P -4 21 M 
;
_chemical_formula_sum "Si O2"
_cell_formula_units_Z 40
_cell_length_a 11.151018
_cell_length_b 11.151018
_cell_length_c 15.519706
_cell_angle_alpha 90.000000
_cell_angle_beta 90.000000
_cell_angle_gamma 90.000000
_cell_volume 1929.800984
_symmetry_space_group_name_H-M "P -4 21 M "
_symmetry_group_IT_number 113
_symmetry_cell_setting 'tetragonal'
loop_
_space_group_symop_operation_xyz
x,y,z
y,-x,-z
-x,-y,z
-y,x,-z
1/2+x,1/2-y,-z
1/2-x,1/2+y,-z
1/2-y,1/2-x,z
1/2+y,1/2+x,z
loop_
_atom_site_type_symbol
_atom_site_label
_atom_site_fract_x
_atom_site_fract_y
_atom_site_fract_z
Si Si1 0.500151 0.807705 0.019694
Si Si2 0.813953 0.493701 0.630207
Si Si3 0.393115 0.588062 0.109130
Si Si4 0.636068 0.663316 0.702497
Si Si5 0.009738 0.816230 0.470291
O O1 0.609630 0.890371 0.056784
O O2 0.553835 0.724367 0.944994
O O3 0.395696 0.895696 0.983282
O O4 0.440012 0.724145 0.093383
O O5 0.860506 0.360506 0.657817
O O6 0.689095 0.533081 0.674518
O O7 0.805250 0.501320 0.525551
O O8 0.912676 0.587325 0.661128
O O9 0.500000 0.500000 0.082806
O O10 0.355515 0.568541 0.207877
O O11 0.738071 0.761930 0.713412
O O12 0.543055 0.707088 0.629245
O O13 0.885849 0.887258 0.475981
#
# Coordination Sequence:
#
# PCOD8308699 Si02
#       5
#     8   8   8   8   8
#     4  11  23  43  69  92 120 159 201 248 304 366
#     4   9  18  33  53  78 110 149 193 237 282 335
#     4  12  24  40  65  93 125 161 198 249 300 363
#     4  10  21  35  56  83 116 150 190 239 292 340
#     4   9  18  32  54  76 106 149 190 238 278 340
#
# _framework density 20.727528
#
# number of rings (size 3 to 8) (size 9 to 14) (size 15 to 20)
#    0.000    1.800    2.000    2.400    5.600    1.600 
#    0.000    3.000    0.000    3.600    0.000    0.000 
#    0.000    0.000    0.000    0.000    0.000    0.000 
#
# Total GULP energy -495643.024300 kJ/mol
# GULP energy per Si atom -12391.075607 kJ/mol
# Density = 2.068035 g / cm^3
# Si number density = 20.727528 Si / 1000 Ang^3
#
#
#
# Elastic Constant Matrix: (Units=GPa)
#
#
# Indices 1 2 3 4 5 6 
#
# 1 72.1661 23.0776 13.2709 0.0000 0.0000 0.0000
# 2 23.0776 72.1665 13.2709 0.0000 0.0000 0.0000
# 3 13.2709 13.2709 100.9199 0.0000 0.0000 0.0000
# 4 0.0000 0.0000 0.0000 20.0354 0.0000 0.0000
# 5 0.0000 0.0000 0.0000 0.0000 20.0347 0.0000
# 6 0.0000 0.0000 0.0000 0.0000 0.0000 33.7062
#
#
#
# Elastic Compliance Matrix: (Units=1/GPa)
#
#
# Indices 1 2 3 4 5 6 
#
# 1 0.015635 -0.004736 -0.001433 0.000000 0.000000 0.000000
# 2 -0.004736 0.015635 -0.001433 0.000000 0.000000 0.000000
# 3 -0.001433 -0.001433 0.010286 0.000000 0.000000 0.000000
# 4 0.000000 0.000000 0.000000 0.049912 0.000000 0.000000
# 5 0.000000 0.000000 0.000000 0.000000 0.049913 0.000000
# 6 0.000000 0.000000 0.000000 0.000000 0.000000 0.029668
#
#
# Mechanical properties :
#
#
# Convention : Reuss Voigt Hill
#
# Bulk Modulus (GPa) = 37.94989 38.27683 38.11336
# Shear Modulus (GPa) = 25.63606 27.79746 26.71676
#
# Velocity S-wave (km/s) = 3.52065 3.66606 3.59409
# Velocity P-wave (km/s) = 5.90553 6.03546 5.97085
#
# Compressibility (1/GPa) = 0.02635054
#
# Stress axis : x y z
#
# Youngs Moduli (GPa) = 63.95885 63.95920 97.22168
#
# Poissons Ratio (x) = 0.30293 0.13934
# Poissons Ratio (y) = 0.30293 0.13934
# Poissons Ratio (z) = 0.09166 0.09166
#
# Static dielectric constant tensor:
#      x y z
#    x 3.896710 0.000000 0.000000 
#    y 0.000000 3.896720 0.000000 
#    z 0.000000 0.000000 3.607100 
# 
# 
# High freq. dielectric constant tensor:
#      x y z
#    x 1.809300 0.000000 0.000000 
#    y 0.000000 1.809300 0.000000 
#    z 0.000000 0.000000 1.792370 
# 
# From -- ./inp_files/2142.got.cif
#   From: 2010.03.12/outbox.cif.g09.slc.cpg/sg113_cif.got.tgz:2142.got - 2010.04.14 02:06:34.
