data_PCOD8308532
_publ_section_title
;
Structure prediction by ZEFSAII (Michael W. Deem and Ramdas Pophale) SiO2 
 PCOD8308532
Probable space group: P -4 21 M 
;
_chemical_formula_sum "Si O2"
_cell_formula_units_Z 40
_cell_length_a 21.405974
_cell_length_b 21.405974
_cell_length_c 5.261497
_cell_angle_alpha 90.000000
_cell_angle_beta 90.000000
_cell_angle_gamma 90.000000
_cell_volume 2410.900651
_symmetry_space_group_name_H-M "P -4 21 M "
_symmetry_group_IT_number 113
_symmetry_cell_setting 'tetragonal'
loop_
_space_group_symop_operation_xyz
x,y,z
y,-x,-z
-x,-y,z
-y,x,-z
1/2+x,1/2-y,-z
1/2-x,1/2+y,-z
1/2-y,1/2-x,z
1/2+y,1/2+x,z
loop_
_atom_site_type_symbol
_atom_site_label
_atom_site_fract_x
_atom_site_fract_y
_atom_site_fract_z
Si Si1 0.206736 0.393147 0.175265
Si Si2 0.325485 0.015929 0.608517
Si Si3 0.753242 0.358247 0.394753
Si Si4 0.193002 0.797592 0.897804
Si Si5 0.877678 0.522952 0.896617
O O1 0.161434 0.338566 0.285701
O O2 0.211267 0.449269 0.381838
O O3 0.275297 0.366066 0.113970
O O4 0.175259 0.422521 0.920494
O O5 0.366294 0.018959 0.351846
O O6 0.275708 0.070918 0.611837
O O7 0.372199 0.021057 0.852028
O O8 0.812665 0.312665 0.388809
O O9 0.712778 0.349080 0.649087
O O10 0.708303 0.348138 0.152235
O O11 0.247165 0.747165 0.910866
O O12 0.946402 0.553599 0.882840
#
# Coordination Sequence:
#
# PCOD8308532 Si02
#       5
#     8   8   8   8   8
#     4   8  17  29  48  69  89 115 150 195 232 259
#     4  10  18  29  46  66  93 122 151 187 228 271
#     4  10  20  32  45  65  96 131 152 175 223 285
#     4   9  18  30  46  66  90 118 152 185 226 275
#     4   9  17  28  46  66  86 114 150 193 231 257
#
# _framework density 16.591308999999999
#
# number of rings (size 3 to 8) (size 9 to 14) (size 15 to 20)
#    1.200    1.600    0.000    2.400    2.800    0.000 
#    0.000    0.000    0.000    6.600    0.000    0.000 
#    0.000    4.800    0.000    0.000    0.000    0.000 
#
# Total GULP energy -495582.923919 kJ/mol
# GULP energy per Si atom -12389.573098 kJ/mol
# Density = 1.655355 g / cm^3
# Si number density = 16.591309 Si / 1000 Ang^3
#
#
#
# Elastic Constant Matrix: (Units=GPa)
#
#
# Indices 1 2 3 4 5 6 
#
# 1 51.7734 15.6983 15.8960 0.0000 0.0000 0.0000
# 2 15.6983 51.7775 15.8982 0.0000 0.0000 0.0000
# 3 15.8960 15.8982 125.4647 0.0000 0.0000 0.0000
# 4 0.0000 0.0000 0.0000 11.4629 0.0000 0.0000
# 5 0.0000 0.0000 0.0000 0.0000 11.4632 0.0000
# 6 0.0000 0.0000 0.0000 0.0000 0.0000 23.5678
#
#
#
# Elastic Compliance Matrix: (Units=1/GPa)
#
#
# Indices 1 2 3 4 5 6 
#
# 1 0.021741 -0.005978 -0.001997 0.000000 0.000000 0.000000
# 2 -0.005978 0.021739 -0.001997 0.000000 0.000000 0.000000
# 3 -0.001997 -0.001997 0.008476 0.000000 0.000000 0.000000
# 4 0.000000 0.000000 0.000000 0.087238 0.000000 0.000000
# 5 0.000000 0.000000 0.000000 0.000000 0.087235 0.000000
# 6 0.000000 0.000000 0.000000 0.000000 0.000000 0.042431
#
#
# Mechanical properties :
#
#
# Convention : Reuss Voigt Hill
#
# Bulk Modulus (GPa) = 31.23892 36.00007 33.61949
# Shear Modulus (GPa) = 16.69584 21.40033 19.04809
#
# Velocity S-wave (km/s) = 3.17567 3.59535 3.39200
# Velocity P-wave (km/s) = 5.68470 6.24345 5.97061
#
# Compressibility (1/GPa) = 0.03201135
#
# Stress axis : x y z
#
# Youngs Moduli (GPa) = 45.99658 45.99984 117.97379
#
# Poissons Ratio (x) = 0.27500 0.23559
# Poissons Ratio (y) = 0.27498 0.23562
# Poissons Ratio (z) = 0.09185 0.09187
#
# Static dielectric constant tensor:
#      x y z
#    x 2.856720 0.000000 0.000000 
#    y 0.000000 2.856720 0.000000 
#    z 0.000000 0.000000 3.236640 
# 
# 
# High freq. dielectric constant tensor:
#      x y z
#    x 1.606210 0.000000 0.000000 
#    y 0.000000 1.606210 0.000000 
#    z 0.000000 0.000000 1.649830 
# 
# From -- ./inp_files/394.got.cif
#   From: 2010.03.12/outbox.cif.g09.slc.cpg/sg113_cif.got.tgz:394.got - 2010.04.14 02:06:34.
