data_PCOD8308582
_publ_section_title
;
Structure prediction by ZEFSAII (Michael W. Deem and Ramdas Pophale) SiO2 
 PCOD8308582
Probable space group: P -4 21 M 
;
_chemical_formula_sum "Si O2"
_cell_formula_units_Z 56
_cell_length_a 13.618886
_cell_length_b 13.618886
_cell_length_c 16.502758
_cell_angle_alpha 90.000000
_cell_angle_beta 90.000000
_cell_angle_gamma 90.000000
_cell_volume 3060.833459
_symmetry_space_group_name_H-M "P -4 21 M "
_symmetry_group_IT_number 113
_symmetry_cell_setting 'tetragonal'
loop_
_space_group_symop_operation_xyz
x,y,z
y,-x,-z
-x,-y,z
-y,x,-z
1/2+x,1/2-y,-z
1/2-x,1/2+y,-z
1/2-y,1/2-x,z
1/2+y,1/2+x,z
loop_
_atom_site_type_symbol
_atom_site_label
_atom_site_fract_x
_atom_site_fract_y
_atom_site_fract_z
Si Si1 0.667735 0.322597 0.346423
Si Si2 0.411746 0.631525 0.509162
Si Si3 0.252706 0.084652 0.895801
Si Si4 0.247528 0.590684 0.918208
Si Si5 0.382327 0.724503 0.822124
Si Si6 0.766667 0.107342 0.178338
Si Si7 0.384980 0.464758 0.323849
O O1 0.775343 0.275343 0.338452
O O2 0.626034 0.296707 0.437323
O O3 0.597382 0.277008 0.276327
O O4 0.681192 0.437553 0.328855
O O5 0.528222 0.633387 0.514062
O O6 0.388125 0.648695 0.604260
O O7 0.346376 0.153625 0.882571
O O8 0.155745 0.134426 0.857772
O O9 0.275049 0.982372 0.851558
O O10 0.233811 0.060205 0.989569
O O11 0.141196 0.641196 0.907847
O O12 0.332506 0.668035 0.896588
O O13 0.250261 0.498686 0.858825
O O14 0.309950 0.809950 0.788627
O O15 0.404578 0.639944 0.756193
O O16 0.673730 0.173730 0.154282
O O17 0.500000 0.500000 0.330215
#
# Coordination Sequence:
#
# PCOD8308582 Si02
#       7
#     8   8   8   8   8   8   8
#     4  10  19  32  54  83 109 138 183 231 266 322
#     4   9  16  30  52  80 104 137 174 219 263 320
#     4  10  21  38  57  77 107 149 192 230 278 341
#     4  10  22  37  54  81 113 142 183 240 291 336
#     4  11  24  37  54  85 119 146 184 236 286 338
#     4  10  20  36  58  80 104 144 192 232 273 338
#     4  11  19  35  59  80 112 148 186 225 277 338
#
# _framework density 18.295670000000001
#
# number of rings (size 3 to 8) (size 9 to 14) (size 15 to 20)
#    0.000    1.857    4.286    1.714    0.000    2.857 
#    0.000    2.857    0.000    0.000    0.000    0.000 
#    0.000    0.000    0.000    0.000    0.000    0.000 
#
# Total GULP energy -693857.405716 kJ/mol
# GULP energy per Si atom -12390.310816 kJ/mol
# Density = 1.825403 g / cm^3
# Si number density = 18.295670 Si / 1000 Ang^3
#
#
#
# Elastic Constant Matrix: (Units=GPa)
#
#
# Indices 1 2 3 4 5 6 
#
# 1 76.9728 27.4246 34.1669 0.0000 0.0000 0.0000
# 2 27.4246 76.9726 34.1667 0.0000 0.0000 0.0000
# 3 34.1669 34.1667 124.3108 0.0000 0.0000 0.0000
# 4 0.0000 0.0000 0.0000 27.9461 0.0000 0.0000
# 5 0.0000 0.0000 0.0000 0.0000 27.9460 0.0000
# 6 0.0000 0.0000 0.0000 0.0000 0.0000 24.1139
#
#
#
# Elastic Compliance Matrix: (Units=1/GPa)
#
#
# Indices 1 2 3 4 5 6 
#
# 1 0.015931 -0.004251 -0.003210 0.000000 0.000000 0.000000
# 2 -0.004251 0.015931 -0.003210 0.000000 0.000000 0.000000
# 3 -0.003210 -0.003210 0.009809 0.000000 0.000000 0.000000
# 4 0.000000 0.000000 0.000000 0.035783 0.000000 0.000000
# 5 0.000000 0.000000 0.000000 0.000000 0.035783 0.000000
# 6 0.000000 0.000000 0.000000 0.000000 0.000000 0.041470
#
#
# Mechanical properties :
#
#
# Convention : Reuss Voigt Hill
#
# Bulk Modulus (GPa) = 49.19293 52.19696 50.69495
# Shear Modulus (GPa) = 27.34822 28.16774 27.75798
#
# Velocity S-wave (km/s) = 3.87045 3.92801 3.89934
# Velocity P-wave (km/s) = 6.84981 7.01170 6.93123
#
# Compressibility (1/GPa) = 0.02032812
#
# Stress axis : x y z
#
# Youngs Moduli (GPa) = 62.76980 62.76968 101.94677
#
# Poissons Ratio (x) = 0.26684 0.32728
# Poissons Ratio (y) = 0.26684 0.32728
# Poissons Ratio (z) = 0.20151 0.20151
#
# Static dielectric constant tensor:
#      x y z
#    x 3.204810 0.000000 0.000000 
#    y 0.000000 3.204810 0.000000 
#    z 0.000000 0.000000 3.693120 
# 
# 
# High freq. dielectric constant tensor:
#      x y z
#    x 1.687250 0.000000 0.000000 
#    y 0.000000 1.687250 0.000000 
#    z 0.000000 0.000000 1.734360 
# 
# From -- ./inp_files/2322.got.cif
#   From: 2010.03.12/outbox.cif.g09.slc.cpg/sg113_cif.got.tgz:2322.got - 2010.04.14 02:06:34.
