data_PCOD8308933
_publ_section_title
;
Structure prediction by ZEFSAII (Michael W. Deem and Ramdas Pophale) SiO2 
 PCOD8308933
Probable space group: P -4 21 C
;
_chemical_formula_sum "Si O2"
_cell_formula_units_Z 48
_cell_length_a 9.087714
_cell_length_b 9.087714
_cell_length_c 28.870990
_cell_angle_alpha 90.000000
_cell_angle_beta 90.000000
_cell_angle_gamma 90.000000
_cell_volume 2384.355336
_symmetry_space_group_name_H-M "P -4 21 C"
_symmetry_group_IT_number 114
_symmetry_cell_setting 'tetragonal'
loop_
_space_group_symop_operation_xyz
x,y,z
y,-x,-z
-x,-y,z
-y,x,-z
1/2+x,1/2-y,1/2-z
1/2-x,1/2+y,1/2-z
1/2-y,1/2-x,1/2+z
1/2+y,1/2+x,1/2+z
loop_
_atom_site_type_symbol
_atom_site_label
_atom_site_fract_x
_atom_site_fract_y
_atom_site_fract_z
Si Si1 0.866555 0.897802 0.168268
Si Si2 0.979095 0.333381 0.232418
Si Si3 0.331172 0.163492 0.086844
Si Si4 0.315734 0.844323 0.592390
Si Si5 0.323133 0.665540 0.503877
Si Si6 0.822634 0.710339 0.804552
O O1 0.782128 0.806932 0.128468
O O2 0.925937 0.771760 0.200492
O O3 0.759264 0.005690 0.197688
O O4 0.000000 0.000000 0.147740
O O5 0.810506 0.280443 0.228512
O O6 0.000000 0.500000 0.214952
O O7 0.043488 0.316710 0.284842
O O8 0.488478 0.244369 0.092019
O O9 0.349973 0.989283 0.086311
O O10 0.267186 0.228447 0.039353
O O11 0.257736 0.742590 0.550293
O O12 0.268350 0.777981 0.642167
O O13 0.491778 0.702691 0.492960
#
# Coordination Sequence:
#
# PCOD8308933 Si02
#       6
#     8   8   8   8   8   8
#     4   9  20  36  59  86 113 150 197 239 284 341
#     4  11  23  37  57  86 116 154 190 243 292 337
#     4   9  18  32  59  82 110 150 186 230 284 344
#     4   9  19  34  54  85 113 146 191 230 282 346
#     4   9  18  30  55  84 109 136 183 243 285 330
#     4  10  22  37  61  83 117 154 196 240 284 349
#
# _framework density 20.131228
#
# number of rings (size 3 to 8) (size 9 to 14) (size 15 to 20)
#    0.000    2.500    0.000    1.000   16.333    0.000 
#    0.000    1.667    0.000    2.500    0.000    0.000 
#    0.000    0.000    0.000    0.000    0.000    0.000 
#
# Total GULP energy -594844.062283 kJ/mol
# GULP energy per Si atom -12392.584631 kJ/mol
# Density = 2.008541 g / cm^3
# Si number density = 20.131228 Si / 1000 Ang^3
#
#
#
# Elastic Constant Matrix: (Units=GPa)
#
#
# Indices 1 2 3 4 5 6 
#
# 1 72.2600 18.8098 43.4581 0.0000 0.0000 0.0000
# 2 18.8098 72.2600 43.4581 0.0000 0.0000 0.0000
# 3 43.4581 43.4581 122.0854 0.0000 0.0000 0.0000
# 4 0.0000 0.0000 0.0000 20.5415 0.0000 0.0000
# 5 0.0000 0.0000 0.0000 0.0000 20.5415 0.0000
# 6 0.0000 0.0000 0.0000 0.0000 0.0000 14.5147
#
#
#
# Elastic Compliance Matrix: (Units=1/GPa)
#
#
# Indices 1 2 3 4 5 6 
#
# 1 0.017670 -0.001039 -0.005920 0.000000 0.000000 0.000000
# 2 -0.001039 0.017670 -0.005920 0.000000 0.000000 0.000000
# 3 -0.005920 -0.005920 0.012406 0.000000 0.000000 0.000000
# 4 0.000000 0.000000 0.000000 0.048682 0.000000 0.000000
# 5 0.000000 0.000000 0.000000 0.000000 0.048682 0.000000
# 6 0.000000 0.000000 0.000000 0.000000 0.000000 0.068896
#
#
# Mechanical properties :
#
#
# Convention : Reuss Voigt Hill
#
# Bulk Modulus (GPa) = 45.48144 53.11750 49.29947
# Shear Modulus (GPa) = 20.23538 21.84480 21.04009
#
# Velocity S-wave (km/s) = 3.17389 3.29769 3.23638
# Velocity P-wave (km/s) = 6.00608 6.39864 6.20546
#
# Compressibility (1/GPa) = 0.02198699
#
# Stress axis : x y z
#
# Youngs Moduli (GPa) = 56.59391 56.59391 80.60925
#
# Poissons Ratio (x) = 0.05882 0.47720
# Poissons Ratio (y) = 0.05882 0.47720
# Poissons Ratio (z) = 0.33503 0.33503
#
# Static dielectric constant tensor:
#      x y z
#    x 3.687800 0.000000 0.000000 
#    y 0.000000 3.687800 0.000000 
#    z 0.000000 0.000000 3.771890 
# 
# 
# High freq. dielectric constant tensor:
#      x y z
#    x 1.766070 0.000000 0.000000 
#    y 0.000000 1.766070 0.000000 
#    z 0.000000 0.000000 1.789410 
# 
# From -- ./inp_files/3987.got.cif
#   From: 2010.03.12/outbox.cif.g09.slc.cpg/sg114_2_cif.got.tgz:3987.got - 2010.04.14 02:08:34.
