data_PCOD8308920
_publ_section_title
;
Structure prediction by ZEFSAII (Michael W. Deem and Ramdas Pophale) SiO2 
 PCOD8308920
Probable space group: P -4 21 C
;
_chemical_formula_sum "Si O2"
_cell_formula_units_Z 32
_cell_length_a 9.104051
_cell_length_b 9.104051
_cell_length_c 18.687598
_cell_angle_alpha 90.000000
_cell_angle_beta 90.000000
_cell_angle_gamma 90.000000
_cell_volume 1548.898100
_symmetry_space_group_name_H-M "P -4 21 C"
_symmetry_group_IT_number 114
_symmetry_cell_setting 'tetragonal'
loop_
_space_group_symop_operation_xyz
x,y,z
y,-x,-z
-x,-y,z
-y,x,-z
1/2+x,1/2-y,1/2-z
1/2-x,1/2+y,1/2-z
1/2-y,1/2-x,1/2+z
1/2+y,1/2+x,1/2+z
loop_
_atom_site_type_symbol
_atom_site_label
_atom_site_fract_x
_atom_site_fract_y
_atom_site_fract_z
Si Si1 0.652303 0.921501 0.397077
Si Si2 0.699309 0.367508 0.485700
Si Si3 0.512818 0.831974 0.259546
Si Si4 0.270536 0.290230 0.155078
O O1 0.707176 0.817842 0.461124
O O2 0.625285 0.822961 0.326594
O O3 0.500000 0.000000 0.418703
O O4 0.771911 0.048341 0.380897
O O5 0.541788 0.298666 0.503192
O O6 0.744752 0.333725 0.404722
O O7 0.573449 0.734958 0.193968
O O8 0.355630 0.771277 0.284821
O O9 0.500000 0.000000 0.233624
#
# Coordination Sequence:
#
# PCOD8308920 Si02
#       4
#     8   8   8   8
#     4   9  19  41  59  85 134 163 206 269 319 371
#     4  11  21  37  65  93 126 172 225 265 316 391
#     4   9  20  41  63  92 128 170 211 270 324 379
#     4  10  21  42  67  92 128 173 214 273 322 390
#
# _framework density 20.659849000000001
#
# number of rings (size 3 to 8) (size 9 to 14) (size 15 to 20)
#    0.000    2.750    5.000    0.000    0.000    5.000 
#    4.500    0.000    0.000    0.000    0.000    0.000 
#    0.000    0.000    0.000    0.000    0.000    0.000 
#
# Total GULP energy -396724.566771 kJ/mol
# GULP energy per Si atom -12397.642712 kJ/mol
# Density = 2.061283 g / cm^3
# Si number density = 20.659849 Si / 1000 Ang^3
#
#
#
# Elastic Constant Matrix: (Units=GPa)
#
#
# Indices 1 2 3 4 5 6 
#
# 1 73.7130 29.3839 58.9132 0.0000 0.0000 0.0000
# 2 29.3839 73.7130 58.9132 0.0000 0.0000 0.0000
# 3 58.9132 58.9132 99.9572 0.0000 0.0000 0.0000
# 4 0.0000 0.0000 0.0000 32.1068 0.0000 0.0000
# 5 0.0000 0.0000 0.0000 0.0000 32.1068 0.0000
# 6 0.0000 0.0000 0.0000 0.0000 0.0000 24.9245
#
#
#
# Elastic Compliance Matrix: (Units=1/GPa)
#
#
# Indices 1 2 3 4 5 6 
#
# 1 0.026137 0.003579 -0.017514 0.000000 0.000000 0.000000
# 2 0.003579 0.026137 -0.017514 0.000000 0.000000 0.000000
# 3 -0.017514 -0.017514 0.030649 0.000000 0.000000 0.000000
# 4 0.000000 0.000000 0.000000 0.031146 0.000000 0.000000
# 5 0.000000 0.000000 0.000000 0.000000 0.031146 0.000000
# 6 0.000000 0.000000 0.000000 0.000000 0.000000 0.040121
#
#
# Mechanical properties :
#
#
# Convention : Reuss Voigt Hill
#
# Bulk Modulus (GPa) = 49.93795 60.20039 55.06917
# Shear Modulus (GPa) = 19.61468 24.50581 22.06024
#
# Velocity S-wave (km/s) = 3.08459 3.44780 3.27124
# Velocity P-wave (km/s) = 6.07538 6.71207 6.40164
#
# Compressibility (1/GPa) = 0.02002485
#
# Stress axis : x y z
#
# Youngs Moduli (GPa) = 38.25956 38.25956 32.62715
#
# Poissons Ratio (x) = -0.13692 0.57144
# Poissons Ratio (y) = -0.13692 0.57144
# Poissons Ratio (z) = 0.67008 0.67008
#
# Static dielectric constant tensor:
#      x y z
#    x 3.527940 0.000000 0.000000 
#    y 0.000000 3.527940 0.000000 
#    z 0.000000 0.000000 3.701930 
# 
# 
# High freq. dielectric constant tensor:
#      x y z
#    x 1.789630 0.000000 0.000000 
#    y 0.000000 1.789630 0.000000 
#    z 0.000000 0.000000 1.807580 
# 
# From -- ./inp_files/2822.got.cif
#   From: 2010.03.12/outbox.cif.g09.slc.cpg/sg114_2_cif.got.tgz:2822.got - 2010.04.14 02:08:34.
