data_PCOD8308949
_publ_section_title
;
Structure prediction by ZEFSAII (Michael W. Deem and Ramdas Pophale) SiO2 
 PCOD8308949
Probable space group: P -4 21 C
;
_chemical_formula_sum "Si O2"
_cell_formula_units_Z 36
_cell_length_a 13.235674
_cell_length_b 13.235674
_cell_length_c 7.739488
_cell_angle_alpha 90.000000
_cell_angle_beta 90.000000
_cell_angle_gamma 90.000000
_cell_volume 1355.827239
_symmetry_space_group_name_H-M "P -4 21 C"
_symmetry_group_IT_number 114
_symmetry_cell_setting 'tetragonal'
loop_
_space_group_symop_operation_xyz
x,y,z
y,-x,-z
-x,-y,z
-y,x,-z
1/2+x,1/2-y,1/2-z
1/2-x,1/2+y,1/2-z
1/2-y,1/2-x,1/2+z
1/2+y,1/2+x,1/2+z
loop_
_atom_site_type_symbol
_atom_site_label
_atom_site_fract_x
_atom_site_fract_y
_atom_site_fract_z
Si Si1 0.794551 0.875096 0.944985
Si Si2 0.045814 0.333470 0.120027
Si Si3 0.770536 0.104304 0.358448
Si Si4 0.000000 0.500000 0.862414
Si Si5 0.276919 0.627411 0.155538
O O1 0.883182 0.828876 0.824845
O O2 0.691269 0.821896 0.885346
O O3 0.005622 0.777445 0.101404
O O4 0.817187 0.858917 0.147886
O O5 0.167302 0.328371 0.147157
O O6 0.983925 0.396671 0.260395
O O7 0.019730 0.392469 0.946495
O O8 0.837621 0.135069 0.523693
O O9 0.744302 0.987502 0.382498
#
# Coordination Sequence:
#
# PCOD8308949 Si02
#       5
#     8   8   8   4   8
#     4  12  27  50  79 121 159 208 277 329 392 481
#     4  11  24  45  75 118 153 203 263 338 401 454
#     4  12  31  51  82 116 163 213 261 339 399 481
#     4  10  22  40  78 116 150 198 258 348 400 444
#     4  12  29  54  77 124 160 210 274 322 404 477
#
# _framework density 26.552056
#
# number of rings (size 3 to 8) (size 9 to 14) (size 15 to 20)
#    0.000    0.444    2.222    5.333    9.333    2.222 
#    4.000    0.000    0.000    0.000    0.000    0.000 
#    0.000    0.000    0.000    0.000    0.000    0.000 
#
# Total GULP energy -446186.806254 kJ/mol
# GULP energy per Si atom -12394.077952 kJ/mol
# Density = 2.649162 g / cm^3
# Si number density = 26.552056 Si / 1000 Ang^3
#
#
#
# Elastic Constant Matrix: (Units=GPa)
#
#
# Indices 1 2 3 4 5 6 
#
# 1 102.2161 15.6301 17.4485 0.0000 0.0000 0.0000
# 2 15.6301 102.2161 17.4485 0.0000 0.0000 0.0000
# 3 17.4485 17.4485 178.0440 0.0000 0.0000 0.0000
# 4 0.0000 0.0000 0.0000 51.1562 0.0000 0.0000
# 5 0.0000 0.0000 0.0000 0.0000 51.1562 0.0000
# 6 0.0000 0.0000 0.0000 0.0000 0.0000 42.1338
#
#
#
# Elastic Compliance Matrix: (Units=1/GPa)
#
#
# Indices 1 2 3 4 5 6 
#
# 1 0.010144 -0.001405 -0.000856 0.000000 0.000000 0.000000
# 2 -0.001405 0.010144 -0.000856 0.000000 0.000000 0.000000
# 3 -0.000856 -0.000856 0.005784 0.000000 0.000000 0.000000
# 4 0.000000 0.000000 0.000000 0.019548 0.000000 0.000000
# 5 0.000000 0.000000 0.000000 0.000000 0.019548 0.000000
# 6 0.000000 0.000000 0.000000 0.000000 0.000000 0.023734
#
#
# Mechanical properties :
#
#
# Convention : Reuss Voigt Hill
#
# Bulk Modulus (GPa) = 50.41050 53.72560 52.06805
# Shear Modulus (GPa) = 49.13957 51.01916 50.07936
#
# Velocity S-wave (km/s) = 4.30663 4.38822 4.34762
# Velocity P-wave (km/s) = 6.61484 6.77889 6.69737
#
# Compressibility (1/GPa) = 0.01983714
#
# Stress axis : x y z
#
# Youngs Moduli (GPa) = 98.57818 98.57818 172.87708
#
# Poissons Ratio (x) = 0.13850 0.14806
# Poissons Ratio (y) = 0.13850 0.14806
# Poissons Ratio (z) = 0.08443 0.08443
#
# Static dielectric constant tensor:
#      x y z
#    x 4.646790 0.000000 0.000000 
#    y 0.000000 4.646790 0.000000 
#    z 0.000000 0.000000 5.678110 
# 
# 
# High freq. dielectric constant tensor:
#      x y z
#    x 2.059700 0.000000 0.000000 
#    y 0.000000 2.059700 0.000000 
#    z 0.000000 0.000000 2.089330 
# 
# From -- ./inp_files/728.got.cif
#   From: 2010.03.12/outbox.cif.g09.slc.cpg/sg114_1_cif.got.tgz:728.got - 2010.04.14 02:08:34.
