data_PCOD8308953
_publ_section_title
;
Structure prediction by ZEFSAII (Michael W. Deem and Ramdas Pophale) SiO2 
 PCOD8308953
Probable space group: P -4 21 C
;
_chemical_formula_sum "Si O2"
_cell_formula_units_Z 48
_cell_length_a 8.853708
_cell_length_b 8.853708
_cell_length_c 28.226496
_cell_angle_alpha 90.000000
_cell_angle_beta 90.000000
_cell_angle_gamma 90.000000
_cell_volume 2212.622671
_symmetry_space_group_name_H-M "P -4 21 C"
_symmetry_group_IT_number 114
_symmetry_cell_setting 'tetragonal'
loop_
_space_group_symop_operation_xyz
x,y,z
y,-x,-z
-x,-y,z
-y,x,-z
1/2+x,1/2-y,1/2-z
1/2-x,1/2+y,1/2-z
1/2-y,1/2-x,1/2+z
1/2+y,1/2+x,1/2+z
loop_
_atom_site_type_symbol
_atom_site_label
_atom_site_fract_x
_atom_site_fract_y
_atom_site_fract_z
Si Si1 0.633887 0.755746 0.066634
Si Si2 0.008686 0.331674 0.528341
Si Si3 0.155644 0.156963 0.394788
Si Si4 0.582059 0.345117 0.726006
Si Si5 0.671652 0.011968 0.136165
Si Si6 0.339710 0.069902 0.305015
O O1 0.769416 0.674267 0.039903
O O2 0.528990 0.643210 0.099307
O O3 0.710886 0.881091 0.099171
O O4 0.523175 0.829375 0.027660
O O5 0.890633 0.228581 0.555923
O O6 0.000000 0.500000 0.548093
O O7 0.196226 0.331984 0.390389
O O8 0.224768 0.069736 0.349619
O O9 0.500000 0.500000 0.740294
O O10 0.497175 0.286085 0.679411
O O11 0.762687 0.359037 0.717881
O O12 0.549743 0.227160 0.767815
O O13 0.500000 0.000000 0.155302
O O14 0.500000 0.000000 0.321374
#
# Coordination Sequence:
#
# PCOD8308953 Si02
#       6
#     8   8   8   8   8   8
#     4  11  23  41  66  92 129 170 219 271 333 394
#     4  12  24  39  63  92 126 167 215 274 324 389
#     4  10  22  41  66  95 128 164 219 266 329 391
#     4  11  24  41  68  97 136 176 223 277 337 400
#     4   9  21  42  66  91 127 176 212 268 326 397
#     4  11  24  44  67  99 136 175 224 278 334 407
#
# _framework density 21.693714
#
# number of rings (size 3 to 8) (size 9 to 14) (size 15 to 20)
#    0.000    1.333    1.667    4.000    0.000    9.333 
#    0.000    0.000    0.000    0.000    0.000    0.000 
#    0.000    0.000    0.000    0.000    0.000    0.000 
#
# Total GULP energy -595202.740912 kJ/mol
# GULP energy per Si atom -12400.057102 kJ/mol
# Density = 2.164434 g / cm^3
# Si number density = 21.693714 Si / 1000 Ang^3
#
#
#
# Elastic Constant Matrix: (Units=GPa)
#
#
# Indices 1 2 3 4 5 6 
#
# 1 82.5010 22.3191 25.4178 0.0000 0.0000 0.0000
# 2 22.3191 82.5010 25.4178 0.0000 0.0000 0.0000
# 3 25.4178 25.4178 97.3223 0.0000 0.0000 0.0000
# 4 0.0000 0.0000 0.0000 35.3367 0.0000 0.0000
# 5 0.0000 0.0000 0.0000 0.0000 35.3367 0.0000
# 6 0.0000 0.0000 0.0000 0.0000 0.0000 30.8073
#
#
#
# Elastic Compliance Matrix: (Units=1/GPa)
#
#
# Indices 1 2 3 4 5 6 
#
# 1 0.013770 -0.002846 -0.002853 0.000000 0.000000 0.000000
# 2 -0.002846 0.013770 -0.002853 0.000000 0.000000 0.000000
# 3 -0.002853 -0.002853 0.011765 0.000000 0.000000 0.000000
# 4 0.000000 0.000000 0.000000 0.028299 0.000000 0.000000
# 5 0.000000 0.000000 0.000000 0.000000 0.028299 0.000000
# 6 0.000000 0.000000 0.000000 0.000000 0.000000 0.032460
#
#
# Mechanical properties :
#
#
# Convention : Reuss Voigt Hill
#
# Bulk Modulus (GPa) = 45.04295 45.40374 45.22335
# Shear Modulus (GPa) = 32.70786 32.90744 32.80765
#
# Velocity S-wave (km/s) = 3.88714 3.89898 3.89306
# Velocity P-wave (km/s) = 6.39958 6.42217 6.41089
#
# Compressibility (1/GPa) = 0.02220103
#
# Stress axis : x y z
#
# Youngs Moduli (GPa) = 72.62139 72.62139 84.99520
#
# Poissons Ratio (x) = 0.20670 0.24249
# Poissons Ratio (y) = 0.20670 0.24249
# Poissons Ratio (z) = 0.20719 0.20719
#
# Static dielectric constant tensor:
#      x y z
#    x 3.956430 0.000000 0.000000 
#    y 0.000000 3.956430 0.000000 
#    z 0.000000 0.000000 3.973160 
# 
# 
# High freq. dielectric constant tensor:
#      x y z
#    x 1.853910 0.000000 0.000000 
#    y 0.000000 1.853910 0.000000 
#    z 0.000000 0.000000 1.860470 
# 
# From -- ./inp_files/3975.got.cif
#   From: 2010.03.12/outbox.cif.g09.slc.cpg/sg114_2_cif.got.tgz:3975.got - 2010.04.14 02:08:34.
