data_PCOD8308786
_publ_section_title
;
Structure prediction by ZEFSAII (Michael W. Deem and Ramdas Pophale) SiO2 
 PCOD8308786
Probable space group: P -4 21 M 
;
_chemical_formula_sum "Si O2"
_cell_formula_units_Z 56
_cell_length_a 12.831881
_cell_length_b 12.831881
_cell_length_c 20.185950
_cell_angle_alpha 90.000000
_cell_angle_beta 90.000000
_cell_angle_gamma 90.000000
_cell_volume 3323.761401
_symmetry_space_group_name_H-M "P -4 21 M "
_symmetry_group_IT_number 113
_symmetry_cell_setting 'tetragonal'
loop_
_space_group_symop_operation_xyz
x,y,z
y,-x,-z
-x,-y,z
-y,x,-z
1/2+x,1/2-y,-z
1/2-x,1/2+y,-z
1/2-y,1/2-x,z
1/2+y,1/2+x,z
loop_
_atom_site_type_symbol
_atom_site_label
_atom_site_fract_x
_atom_site_fract_y
_atom_site_fract_z
Si Si1 0.387403 0.281304 0.580623
Si Si2 0.138569 0.185972 0.711835
Si Si3 0.040864 0.152916 0.977735
Si Si4 0.357608 0.314917 0.855209
Si Si5 0.166736 0.498314 0.070913
Si Si6 0.331207 0.006691 0.353697
Si Si7 0.765680 0.566694 0.511079
O O1 0.329660 0.170341 0.585479
O O2 0.395006 0.334623 0.653149
O O3 0.503821 0.265648 0.554439
O O4 0.326874 0.355913 0.530110
O O5 0.225792 0.274209 0.710859
O O6 0.137923 0.126615 0.781946
O O7 0.025909 0.240078 0.697945
O O8 0.087717 0.154545 0.904332
O O9 0.042274 0.268783 0.007693
O O10 0.922529 0.110148 0.975071
O O11 0.253366 0.246635 0.860022
O O12 0.459170 0.245353 0.872690
O O13 0.097163 0.402838 0.099389
O O14 0.091965 0.591965 0.046666
O O15 0.417731 0.917731 0.352651
O O16 0.286208 0.012972 0.428154
O O17 0.381820 0.118181 0.333861
O O18 0.869746 0.630255 0.494116
#
# Coordination Sequence:
#
# PCOD8308786 Si02
#       7
#     8   8   8   8   8   8   8
#     4   9  17  29  45  66  91 116 147 188 225 265
#     4   8  15  27  42  64  93 121 148 179 219 268
#     4   9  17  29  47  69  90 115 147 184 225 269
#     4   9  16  28  47  68  93 124 151 179 221 267
#     4   9  17  29  46  68  91 116 151 190 221 256
#     4   8  13  23  41  63  85 111 146 186 225 264
#     4   9  17  28  44  65  87 115 150 189 232 269
#
# _framework density 16.848382000000001
#
# number of rings (size 3 to 8) (size 9 to 14) (size 15 to 20)
#    0.000    3.286    0.000    2.571    0.000    1.714 
#    0.000    1.429    0.000   18.857    0.000    0.000 
#    0.000    0.000    0.000    0.000    0.000    0.000 
#
# Total GULP energy -694086.756684 kJ/mol
# GULP energy per Si atom -12394.406369 kJ/mol
# Density = 1.681003 g / cm^3
# Si number density = 16.848382 Si / 1000 Ang^3
#
#
#
# Elastic Constant Matrix: (Units=GPa)
#
#
# Indices 1 2 3 4 5 6 
#
# 1 73.9128 32.8838 54.7797 0.0000 0.0000 0.0000
# 2 32.8838 73.9135 54.7797 0.0000 0.0000 0.0000
# 3 54.7797 54.7797 132.4099 0.0000 0.0000 0.0000
# 4 0.0000 0.0000 0.0000 20.5200 0.0000 0.0000
# 5 0.0000 0.0000 0.0000 0.0000 20.5200 0.0000
# 6 0.0000 0.0000 0.0000 0.0000 0.0000 19.5141
#
#
#
# Elastic Compliance Matrix: (Units=1/GPa)
#
#
# Indices 1 2 3 4 5 6 
#
# 1 0.020320 -0.004052 -0.006730 0.000000 0.000000 0.000000
# 2 -0.004052 0.020320 -0.006730 0.000000 0.000000 0.000000
# 3 -0.006730 -0.006730 0.013121 0.000000 0.000000 0.000000
# 4 0.000000 0.000000 0.000000 0.048733 0.000000 0.000000
# 5 0.000000 0.000000 0.000000 0.000000 0.048733 0.000000
# 6 0.000000 0.000000 0.000000 0.000000 0.000000 0.051245
#
#
# Mechanical properties :
#
#
# Convention : Reuss Voigt Hill
#
# Bulk Modulus (GPa) = 53.37341 62.79137 58.08239
# Shear Modulus (GPa) = 20.51334 21.29702 20.90518
#
# Velocity S-wave (km/s) = 3.49309 3.55919 3.52630
# Velocity P-wave (km/s) = 6.92938 7.36477 7.15039
#
# Compressibility (1/GPa) = 0.01873592
#
# Stress axis : x y z
#
# Youngs Moduli (GPa) = 49.21142 49.21210 76.21323
#
# Poissons Ratio (x) = 0.19943 0.51294
# Poissons Ratio (y) = 0.19943 0.51293
# Poissons Ratio (z) = 0.33121 0.33121
#
# Static dielectric constant tensor:
#      x y z
#    x 3.111000 0.000000 0.000000 
#    y 0.000000 3.111000 0.000000 
#    z 0.000000 0.000000 3.112300 
# 
# 
# High freq. dielectric constant tensor:
#      x y z
#    x 1.637590 0.000000 0.000000 
#    y 0.000000 1.637590 0.000000 
#    z 0.000000 0.000000 1.626790 
# 
# From -- ./inp_files/2665.got.cif
#   From: 2010.03.12/outbox.cif.g09.slc.cpg/sg113_cif.got.tgz:2665.got - 2010.04.14 02:06:34.
