data_PCOD8308188
_publ_section_title
;
Structure prediction by ZEFSAII (Michael W. Deem and Ramdas Pophale) SiO2 
 PCOD8308188
Probable space group: P -4 2 M 
;
_chemical_formula_sum "Si O2"
_cell_formula_units_Z 48
_cell_length_a 13.749877
_cell_length_b 13.749877
_cell_length_c 14.378555
_cell_angle_alpha 90.000000
_cell_angle_beta 90.000000
_cell_angle_gamma 90.000000
_cell_volume 2718.396919
_symmetry_space_group_name_H-M "P -4 2 M "
_symmetry_group_IT_number 111
_symmetry_cell_setting 'tetragonal'
loop_
_space_group_symop_operation_xyz
x,y,z
y,-x,-z
-x,-y,z
-y,x,-z
x,-y,-z
-x,y,-z
-y,-x,z
y,x,z
loop_
_atom_site_type_symbol
_atom_site_label
_atom_site_fract_x
_atom_site_fract_y
_atom_site_fract_z
Si Si1 0.788129 0.631728 0.588886
Si Si2 0.906061 0.250165 0.067563
Si Si3 0.634350 0.075112 0.246474
Si Si4 0.428130 0.139880 0.220221
Si Si5 0.234057 0.390539 0.030646
Si Si6 0.742194 0.588111 0.393257
O O1 0.712030 0.712030 0.620895
O O2 0.884760 0.655538 0.649162
O O3 0.808934 0.632057 0.477633
O O4 0.737042 0.528051 0.606768
O O5 0.855472 0.144529 0.057626
O O6 0.926688 0.272927 0.176422
O O7 0.831379 0.335848 0.044077
O O8 0.000000 0.252366 0.000000
O O9 0.545453 0.142338 0.209289
O O10 0.601731 0.965299 0.255613
O O11 0.382681 0.169655 0.122951
O O12 0.381774 0.211814 0.295581
O O13 0.337567 0.337567 0.044127
O O14 0.256225 0.500000 0.000000
O O15 0.634023 0.634023 0.400828
#
# Coordination Sequence:
#
# PCOD8308188 Si02
#       6
#     8   8   8   8   8   8
#     4   9  18  32  50  73 104 138 173 214 262 317
#     4  11  22  36  56  79 104 138 179 226 274 320
#     4  10  19  32  53  77 100 133 174 222 270 319
#     4  10  19  32  53  76 101 135 175 219 267 317
#     4  11  22  36  55  79 109 143 180 220 263 317
#     4   9  18  32  49  73 105 138 172 214 260 317
#
# _framework density 17.657464999999998
#
# number of rings (size 3 to 8) (size 9 to 14) (size 15 to 20)
#    0.000    2.000    3.333    1.000    0.000    1.667 
#    0.000    5.000    0.000    2.000    0.000    0.000 
#    0.000    0.000    0.000    7.667    0.000    0.333 
#
# Total GULP energy -594723.766806 kJ/mol
# GULP energy per Si atom -12390.078475 kJ/mol
# Density = 1.761728 g / cm^3
# Si number density = 17.657465 Si / 1000 Ang^3
#
#
#
# Elastic Constant Matrix: (Units=GPa)
#
#
# Indices 1 2 3 4 5 6 
#
# 1 70.3201 29.8179 19.8520 0.0000 0.0000 0.0000
# 2 29.8179 70.3212 19.8522 0.0000 0.0000 0.0000
# 3 19.8520 19.8522 79.8455 0.0000 0.0000 0.0000
# 4 0.0000 0.0000 0.0000 22.3022 0.0000 0.0000
# 5 0.0000 0.0000 0.0000 0.0000 22.3024 0.0000
# 6 0.0000 0.0000 0.0000 0.0000 0.0000 17.1897
#
#
#
# Elastic Compliance Matrix: (Units=1/GPa)
#
#
# Indices 1 2 3 4 5 6 
#
# 1 0.017884 -0.006806 -0.002754 0.000000 0.000000 0.000000
# 2 -0.006806 0.017884 -0.002754 0.000000 0.000000 0.000000
# 3 -0.002754 -0.002754 0.013894 0.000000 0.000000 0.000000
# 4 0.000000 0.000000 0.000000 0.044839 0.000000 0.000000
# 5 0.000000 0.000000 0.000000 0.000000 0.044838 0.000000
# 6 0.000000 0.000000 0.000000 0.000000 0.000000 0.058174
#
#
# Mechanical properties :
#
#
# Convention : Reuss Voigt Hill
#
# Bulk Modulus (GPa) = 39.94764 39.94788 39.94776
# Shear Modulus (GPa) = 21.69324 22.42315 22.05820
#
# Velocity S-wave (km/s) = 3.50888 3.56743 3.53828
# Velocity P-wave (km/s) = 6.25213 6.29616 6.27418
#
# Compressibility (1/GPa) = 0.02503277
#
# Stress axis : x y z
#
# Youngs Moduli (GPa) = 55.91549 55.91634 71.97428
#
# Poissons Ratio (x) = 0.38055 0.19825
# Poissons Ratio (y) = 0.38055 0.19825
# Poissons Ratio (z) = 0.15401 0.15402
#
# Static dielectric constant tensor:
#      x y z
#    x 3.138560 0.000000 0.000000 
#    y 0.000000 3.138560 0.000000 
#    z 0.000000 0.000000 3.445100 
# 
# 
# High freq. dielectric constant tensor:
#      x y z
#    x 1.665590 0.000000 0.000000 
#    y 0.000000 1.665590 0.000000 
#    z 0.000000 0.000000 1.695710 
# 
# From -- ./inp_files/2701.got.cif
#   From: 2010.03.12/outbox.cif.g09.slc.cpg/sg111_2_cif.got.tgz:2701.got - 2010.04.14 01:59:48.
