data_PCOD8308137
_publ_section_title
;
Structure prediction by ZEFSAII (Michael W. Deem and Ramdas Pophale) SiO2 
 PCOD8308137
Probable space group: P -4 2 M 
;
_chemical_formula_sum "Si O2"
_cell_formula_units_Z 40
_cell_length_a 14.350823
_cell_length_b 14.350823
_cell_length_c 12.627411
_cell_angle_alpha 90.000000
_cell_angle_beta 90.000000
_cell_angle_gamma 90.000000
_cell_volume 2600.566311
_symmetry_space_group_name_H-M "P -4 2 M "
_symmetry_group_IT_number 111
_symmetry_cell_setting 'tetragonal'
loop_
_space_group_symop_operation_xyz
x,y,z
y,-x,-z
-x,-y,z
-y,x,-z
x,-y,-z
-x,y,-z
-y,-x,z
y,x,z
loop_
_atom_site_type_symbol
_atom_site_label
_atom_site_fract_x
_atom_site_fract_y
_atom_site_fract_z
Si Si1 0.393381 0.756920 0.619450
Si Si2 0.892278 0.606415 0.805244
Si Si3 0.606612 0.243089 0.380541
Si Si4 0.109728 0.736516 0.999997
Si Si5 0.393579 0.892285 0.805235
O O1 0.334315 0.665686 0.645940
O O2 0.374815 0.792932 0.499993
O O3 0.499995 0.727369 0.635147
O O4 0.364580 0.838863 0.698864
O O5 0.838845 0.635420 0.698882
O O6 0.861965 0.675250 0.898690
O O7 0.870131 0.499995 0.839671
O O8 0.999995 0.618305 0.778399
O O9 0.665668 0.334333 0.354060
O O10 0.167492 0.832509 0.000004
O O11 0.138032 0.675265 0.898671
O O12 0.000000 0.761137 0.000000
#
# Coordination Sequence:
#
# PCOD8308137 Si02
#       5
#     8   8   8   8   8
#     4   9  17  28  42  61  85 112 140 169 201 239
#     4   9  17  29  45  64  84 106 135 171 209 246
#     4   9  17  28  42  61  85 112 140 169 201 239
#     4  10  19  30  45  63  84 110 137 167 204 245
#     4   9  17  29  45  64  84 106 135 171 209 246
#
# _framework density 15.381264
#
# number of rings (size 3 to 8) (size 9 to 14) (size 15 to 20)
#    0.000    2.800    0.000    1.800    0.000    3.800 
#    0.000    6.000    0.000    0.000    0.000    0.000 
#    0.000   14.400    0.000   37.200    0.000    0.800 
#
# Total GULP energy -495957.220200 kJ/mol
# GULP energy per Si atom -12398.930505 kJ/mol
# Density = 1.534626 g / cm^3
# Si number density = 15.381264 Si / 1000 Ang^3
#
#
#
# Elastic Constant Matrix: (Units=GPa)
#
#
# Indices 1 2 3 4 5 6 
#
# 1 75.0910 54.1920 64.2433 0.0000 0.0000 0.0000
# 2 54.1920 75.0877 64.2424 0.0000 0.0000 0.0000
# 3 64.2433 64.2424 118.5932 0.0000 0.0000 0.0000
# 4 0.0000 0.0000 0.0000 24.8951 0.0000 0.0000
# 5 0.0000 0.0000 0.0000 0.0000 24.8948 0.0000
# 6 0.0000 0.0000 0.0000 0.0000 0.0000 28.0478
#
#
#
# Elastic Compliance Matrix: (Units=1/GPa)
#
#
# Indices 1 2 3 4 5 6 
#
# 1 0.032304 -0.015548 -0.009077 0.000000 0.000000 0.000000
# 2 -0.015548 0.032305 -0.009077 0.000000 0.000000 0.000000
# 3 -0.009077 -0.009077 0.018266 0.000000 0.000000 0.000000
# 4 0.000000 0.000000 0.000000 0.040169 0.000000 0.000000
# 5 0.000000 0.000000 0.000000 0.000000 0.040169 0.000000
# 6 0.000000 0.000000 0.000000 0.000000 0.000000 0.035653
#
#
# Mechanical properties :
#
#
# Convention : Reuss Voigt Hill
#
# Bulk Modulus (GPa) = 64.63777 70.45857 67.54817
# Shear Modulus (GPa) = 18.42112 21.30717 19.86415
#
# Velocity S-wave (km/s) = 3.46444 3.72596 3.59757
# Velocity P-wave (km/s) = 7.62352 8.02607 7.82738
#
# Compressibility (1/GPa) = 0.01547083
#
# Stress axis : x y z
#
# Youngs Moduli (GPa) = 30.95631 30.95459 54.74573
#
# Poissons Ratio (x) = 0.48129 0.49691
# Poissons Ratio (y) = 0.48132 0.49694
# Poissons Ratio (z) = 0.28098 0.28098
#
# Static dielectric constant tensor:
#      x y z
#    x 2.871590 0.000000 0.000000 
#    y 0.000000 2.871590 0.000000 
#    z 0.000000 0.000000 3.099760 
# 
# 
# High freq. dielectric constant tensor:
#      x y z
#    x 1.581440 0.000000 0.000000 
#    y 0.000000 1.581440 0.000000 
#    z 0.000000 0.000000 1.599550 
# 
# From -- ./inp_files/1523.got.cif
#   From: 2010.03.12/outbox.cif.g09.slc.cpg/sg111_1_cif.got.tgz:1523.got - 2010.04.14 01:59:48.
