data_PCOD8308934
_publ_section_title
;
Structure prediction by ZEFSAII (Michael W. Deem and Ramdas Pophale) SiO2 
 PCOD8308934
Probable space group: P -4 21 C
;
_chemical_formula_sum "Si O2"
_cell_formula_units_Z 54
_cell_length_a 12.196007
_cell_length_b 12.196007
_cell_length_c 18.231038
_cell_angle_alpha 90.000000
_cell_angle_beta 90.000000
_cell_angle_gamma 90.000000
_cell_volume 2711.731751
_symmetry_space_group_name_H-M "P -4 21 C"
_symmetry_group_IT_number 114
_symmetry_cell_setting 'tetragonal'
loop_
_space_group_symop_operation_xyz
x,y,z
y,-x,-z
-x,-y,z
-y,x,-z
1/2+x,1/2-y,1/2-z
1/2-x,1/2+y,1/2-z
1/2-y,1/2-x,1/2+z
1/2+y,1/2+x,1/2+z
loop_
_atom_site_type_symbol
_atom_site_label
_atom_site_fract_x
_atom_site_fract_y
_atom_site_fract_z
Si Si1 0.854095 0.307616 0.215379
Si Si2 0.905989 0.575847 0.538595
Si Si3 0.693937 0.295716 0.998921
Si Si4 0.500000 0.000000 0.320614
Si Si5 0.152574 0.101578 0.654193
Si Si6 0.401507 0.356980 0.851438
Si Si7 0.916532 0.216354 0.060991
Si Si8 0.500000 0.500000 0.500000
O O1 0.935411 0.411611 0.228952
O O2 0.845329 0.232044 0.286128
O O3 0.731123 0.347329 0.201676
O O4 0.895471 0.238059 0.146330
O O5 0.895994 0.696958 0.504061
O O6 0.940871 0.588485 0.624778
O O7 0.789714 0.516209 0.531503
O O8 0.000000 0.500000 0.498979
O O9 0.667111 0.381247 0.062940
O O10 0.812204 0.242889 0.011160
O O11 0.697537 0.365913 0.925178
O O12 0.030048 0.145057 0.664048
O O13 0.155257 0.971800 0.666762
O O14 0.947126 0.089635 0.053510
#
# Coordination Sequence:
#
# PCOD8308934 Si02
#       8
#     8   8   8   4   8   8   8   2
#     4  10  22  43  63  89 130 165 215 266 318 384
#     4   9  19  35  63  88 118 159 209 252 313 369
#     4  11  21  39  64  91 126 164 208 260 317 378
#     4   8  18  36  64  86 118 168 202 252 318 360
#     4  11  24  40  65  92 122 170 211 256 328 385
#     4  10  24  42  61  93 128 161 208 268 319 379
#     4  10  22  38  60  92 125 167 204 266 314 376
#     4  12  20  40  60  92 132 160 218 248 328 392
#
# _framework density 19.913473
#
# number of rings (size 3 to 8) (size 9 to 14) (size 15 to 20)
#    0.444    1.481    1.481    1.778    4.148    5.926 
#    2.667    1.481    0.000    0.000    0.000    0.000 
#    0.000    0.000    0.000    0.000    0.000    0.000 
#
# Total GULP energy -669539.375618 kJ/mol
# GULP energy per Si atom -12398.877326 kJ/mol
# Density = 1.986815 g / cm^3
# Si number density = 19.913473 Si / 1000 Ang^3
#
#
#
# Elastic Constant Matrix: (Units=GPa)
#
#
# Indices 1 2 3 4 5 6 
#
# 1 122.2192 65.1005 61.4902 0.0000 0.0000 0.0000
# 2 65.1005 122.2192 61.4902 0.0000 0.0000 0.0000
# 3 61.4902 61.4902 99.7308 0.0000 0.0000 0.0000
# 4 0.0000 0.0000 0.0000 23.8805 0.0000 0.0000
# 5 0.0000 0.0000 0.0000 0.0000 23.8805 0.0000
# 6 0.0000 0.0000 0.0000 0.0000 0.0000 30.6336
#
#
#
# Elastic Compliance Matrix: (Units=1/GPa)
#
#
# Indices 1 2 3 4 5 6 
#
# 1 0.013238 -0.004269 -0.005530 0.000000 0.000000 0.000000
# 2 -0.004269 0.013238 -0.005530 0.000000 0.000000 0.000000
# 3 -0.005530 -0.005530 0.016846 0.000000 0.000000 0.000000
# 4 0.000000 0.000000 0.000000 0.041875 0.000000 0.000000
# 5 0.000000 0.000000 0.000000 0.000000 0.041875 0.000000
# 6 0.000000 0.000000 0.000000 0.000000 0.000000 0.032644
#
#
# Mechanical properties :
#
#
# Convention : Reuss Voigt Hill
#
# Bulk Modulus (GPa) = 78.96189 80.03676 79.49933
# Shear Modulus (GPa) = 25.69421 26.08482 25.88952
#
# Velocity S-wave (km/s) = 3.59596 3.62319 3.60960
# Velocity P-wave (km/s) = 7.54850 7.60151 7.57505
#
# Compressibility (1/GPa) = 0.01266434
#
# Stress axis : x y z
#
# Youngs Moduli (GPa) = 75.53889 75.53889 59.36087
#
# Poissons Ratio (x) = 0.32249 0.32826
# Poissons Ratio (y) = 0.32249 0.32826
# Poissons Ratio (z) = 0.41773 0.41773
#
# Static dielectric constant tensor:
#      x y z
#    x 3.729870 0.000000 0.000000 
#    y 0.000000 3.729870 0.000000 
#    z 0.000000 0.000000 3.234940 
# 
# 
# High freq. dielectric constant tensor:
#      x y z
#    x 1.789290 0.000000 0.000000 
#    y 0.000000 1.789290 0.000000 
#    z 0.000000 0.000000 1.742760 
# 
# From -- ./inp_files/3199.got.cif
#   From: 2010.03.12/outbox.cif.g09.slc.cpg/sg114_2_cif.got.tgz:3199.got - 2010.04.14 02:08:34.
