data_PCOD8308830
_publ_section_title
;
Structure prediction by ZEFSAII (Michael W. Deem and Ramdas Pophale) SiO2 
 PCOD8308830
Probable space group: P -4 21 C
;
_chemical_formula_sum "Si O2"
_cell_formula_units_Z 48
_cell_length_a 9.022023
_cell_length_b 9.022023
_cell_length_c 29.053984
_cell_angle_alpha 90.000000
_cell_angle_beta 90.000000
_cell_angle_gamma 90.000000
_cell_volume 2364.904202
_symmetry_space_group_name_H-M "P -4 21 C"
_symmetry_group_IT_number 114
_symmetry_cell_setting 'tetragonal'
loop_
_space_group_symop_operation_xyz
x,y,z
y,-x,-z
-x,-y,z
-y,x,-z
1/2+x,1/2-y,1/2-z
1/2-x,1/2+y,1/2-z
1/2-y,1/2-x,1/2+z
1/2+y,1/2+x,1/2+z
loop_
_atom_site_type_symbol
_atom_site_label
_atom_site_fract_x
_atom_site_fract_y
_atom_site_fract_z
Si Si1 0.072930 0.342596 0.891570
Si Si2 0.212346 0.053837 0.019858
Si Si3 0.344520 0.923542 0.211551
Si Si4 0.559978 0.724255 0.985768
Si Si5 0.418460 0.344371 0.889103
Si Si6 0.656268 0.423374 0.211130
O O1 0.041537 0.283364 0.839729
O O2 0.245647 0.369042 0.897450
O O3 0.000000 0.500000 0.900164
O O4 0.008946 0.223064 0.928085
O O5 0.369982 0.126857 0.006780
O O6 0.080461 0.175146 0.015634
O O7 0.360008 0.749820 0.222009
O O8 0.500000 0.000000 0.218771
O O9 0.238176 0.995072 0.248419
O O10 0.521994 0.754232 0.931775
O O11 0.680069 0.589287 0.987550
O O12 0.500000 0.500000 0.891964
O O13 0.445816 0.266461 0.839331
O O14 0.500000 0.500000 0.206902
#
# Coordination Sequence:
#
# PCOD8308830 Si02
#       6
#     8   8   8   8   8   8
#     4  10  21  39  63  88 119 164 208 252 312 376
#     4  11  24  40  57  85 128 168 200 251 309 378
#     4  10  21  40  64  91 123 160 209 258 312 377
#     4  11  21  36  63  91 117 161 213 265 299 361
#     4  10  19  37  61  89 120 152 207 258 307 357
#     4  10  21  38  64  92 122 161 199 259 313 376
#
# _framework density 20.296804000000002
#
# number of rings (size 3 to 8) (size 9 to 14) (size 15 to 20)
#    0.000    1.667    3.333    2.000    0.000    1.333 
#    3.000    1.667    0.000    0.000    0.000    0.000 
#    0.000    0.000    0.000    0.000    0.000    0.000 
#
# Total GULP energy -594912.439303 kJ/mol
# GULP energy per Si atom -12394.009152 kJ/mol
# Density = 2.025061 g / cm^3
# Si number density = 20.296804 Si / 1000 Ang^3
#
#
#
# Elastic Constant Matrix: (Units=GPa)
#
#
# Indices 1 2 3 4 5 6 
#
# 1 65.4637 33.1896 51.2030 0.0000 0.0000 0.0000
# 2 33.1896 65.4637 51.2030 0.0000 0.0000 0.0000
# 3 51.2030 51.2030 165.5900 0.0000 0.0000 0.0000
# 4 0.0000 0.0000 0.0000 50.6358 0.0000 0.0000
# 5 0.0000 0.0000 0.0000 0.0000 50.6358 0.0000
# 6 0.0000 0.0000 0.0000 0.0000 0.0000 40.7322
#
#
#
# Elastic Compliance Matrix: (Units=1/GPa)
#
#
# Indices 1 2 3 4 5 6 
#
# 1 0.022956 -0.008028 -0.004616 0.000000 0.000000 0.000000
# 2 -0.008028 0.022956 -0.004616 0.000000 0.000000 0.000000
# 3 -0.004616 -0.004616 0.008894 0.000000 0.000000 0.000000
# 4 0.000000 0.000000 0.000000 0.019749 0.000000 0.000000
# 5 0.000000 0.000000 0.000000 0.000000 0.019749 0.000000
# 6 0.000000 0.000000 0.000000 0.000000 0.000000 0.024551
#
#
# Mechanical properties :
#
#
# Convention : Reuss Voigt Hill
#
# Bulk Modulus (GPa) = 49.29537 63.07873 56.18705
# Shear Modulus (GPa) = 31.22324 39.12888 35.17606
#
# Velocity S-wave (km/s) = 3.92641 4.39547 4.16755
# Velocity P-wave (km/s) = 6.70042 7.54360 7.13448
#
# Compressibility (1/GPa) = 0.02028588
#
# Stress axis : x y z
#
# Youngs Moduli (GPa) = 43.56098 43.56098 112.43930
#
# Poissons Ratio (x) = 0.34972 0.51902
# Poissons Ratio (y) = 0.34972 0.51902
# Poissons Ratio (z) = 0.20108 0.20108
#
# Static dielectric constant tensor:
#      x y z
#    x 3.515360 0.000000 0.000000 
#    y 0.000000 3.515360 0.000000 
#    z 0.000000 0.000000 4.387370 
# 
# 
# High freq. dielectric constant tensor:
#      x y z
#    x 1.780970 0.000000 0.000000 
#    y 0.000000 1.780970 0.000000 
#    z 0.000000 0.000000 1.814570 
# 
# From -- ./inp_files/3925.got.cif
#   From: 2010.03.12/outbox.cif.g09.slc.cpg/sg114_2_cif.got.tgz:3925.got - 2010.04.14 02:08:34.
