data_PCOD8308181
_publ_section_title
;
Structure prediction by ZEFSAII (Michael W. Deem and Ramdas Pophale) SiO2 
 PCOD8308181
Probable space group: P -4 2 M 
;
_chemical_formula_sum "Si O2"
_cell_formula_units_Z 32
_cell_length_a 14.301902
_cell_length_b 14.301902
_cell_length_c 7.811579
_cell_angle_alpha 90.000000
_cell_angle_beta 90.000000
_cell_angle_gamma 90.000000
_cell_volume 1597.814746
_symmetry_space_group_name_H-M "P -4 2 M "
_symmetry_group_IT_number 111
_symmetry_cell_setting 'tetragonal'
loop_
_space_group_symop_operation_xyz
x,y,z
y,-x,-z
-x,-y,z
-y,x,-z
x,-y,-z
-x,y,-z
-y,-x,z
y,x,z
loop_
_atom_site_type_symbol
_atom_site_label
_atom_site_fract_x
_atom_site_fract_y
_atom_site_fract_z
Si Si1 0.396731 0.014629 0.798601
Si Si2 0.684425 0.461768 0.681577
Si Si3 0.320408 0.824925 0.765980
Si Si4 0.634379 0.781320 0.846788
O O1 0.363786 0.118821 0.748520
O O2 0.500000 0.000000 0.720546
O O3 0.325215 0.935824 0.724286
O O4 0.400153 0.000000 0.000000
O O5 0.650849 0.500000 0.500000
O O6 0.596888 0.403113 0.763271
O O7 0.769153 0.389467 0.639424
O O8 0.718702 0.543491 0.807657
O O9 0.213525 0.786476 0.751048
O O10 0.364130 0.800576 0.951360
O O11 0.726599 0.726599 0.785772
#
# Coordination Sequence:
#
# PCOD8308181 Si02
#       4
#     8   8   8   8
#     4   9  15  28  51  73  96 122 155 202 245 272
#     4  11  22  34  47  66  98 134 161 192 239 284
#     4   9  18  33  53  73  93 124 166 201 233 281
#     4  10  19  32  52  74  95 125 165 200 232 282
#
# _framework density 20.027352
#
# number of rings (size 3 to 8) (size 9 to 14) (size 15 to 20)
#    0.000    2.250    2.500    1.500    0.000    1.750 
#    0.000    3.750    0.000    9.750    0.000    5.250 
#    0.000    0.000    0.000    6.250    0.000    8.000 
#
# Total GULP energy -396516.734501 kJ/mol
# GULP energy per Si atom -12391.147953 kJ/mol
# Density = 1.998177 g / cm^3
# Si number density = 20.027352 Si / 1000 Ang^3
#
#
#
# Elastic Constant Matrix: (Units=GPa)
#
#
# Indices 1 2 3 4 5 6 
#
# 1 159.6666 98.4073 9.9441 0.0000 0.0000 0.0000
# 2 98.4073 159.6663 9.9446 0.0000 0.0000 0.0000
# 3 9.9441 9.9446 8.0665 0.0000 0.0000 0.0000
# 4 0.0000 0.0000 0.0000 15.1425 0.0000 0.0000
# 5 0.0000 0.0000 0.0000 0.0000 15.1427 0.0000
# 6 0.0000 0.0000 0.0000 0.0000 0.0000 31.3219
#
#
#
# Elastic Compliance Matrix: (Units=1/GPa)
#
#
# Indices 1 2 3 4 5 6 
#
# 1 0.010303 -0.006021 -0.005278 0.000000 0.000000 0.000000
# 2 -0.006021 0.010303 -0.005279 0.000000 0.000000 0.000000
# 3 -0.005278 -0.005279 0.136985 0.000000 0.000000 0.000000
# 4 0.000000 0.000000 0.000000 0.066039 0.000000 0.000000
# 5 0.000000 0.000000 0.000000 0.000000 0.066038 0.000000
# 6 0.000000 0.000000 0.000000 0.000000 0.000000 0.031926
#
#
# Mechanical properties :
#
#
# Convention : Reuss Voigt Hill
#
# Bulk Modulus (GPa) = 8.03637 62.66571 35.35104
# Shear Modulus (GPa) = 12.61896 26.26165 19.44030
#
# Velocity S-wave (km/s) = 2.51288 3.62510 3.11897
# Velocity P-wave (km/s) = 3.52715 6.99141 5.53717
#
# Compressibility (1/GPa) = 0.12443434
#
# Stress axis : x y z
#
# Youngs Moduli (GPa) = 97.06084 97.05979 7.30008
#
# Poissons Ratio (x) = 0.58442 0.03853
# Poissons Ratio (y) = 0.58443 0.03854
# Poissons Ratio (z) = 0.51227 0.51238
#
# Static dielectric constant tensor:
#      x y z
#    x 3.858230 0.000000 0.000000 
#    y 0.000000 3.858230 0.000000 
#    z 0.000000 0.000000 3.219660 
# 
# 
# High freq. dielectric constant tensor:
#      x y z
#    x 1.771270 0.000000 0.000000 
#    y 0.000000 1.771270 0.000000 
#    z 0.000000 0.000000 1.747480 
# 
# From -- ./inp_files/1260.got.cif
#   From: 2010.03.12/outbox.cif.g09.slc.cpg/sg111_1_cif.got.tgz:1260.got - 2010.04.14 01:59:48.
