data_PCOD8308123
_publ_section_title
;
Structure prediction by ZEFSAII (Michael W. Deem and Ramdas Pophale) SiO2 
 PCOD8308123
Probable space group: P -4 2 M 
;
_chemical_formula_sum "Si O2"
_cell_formula_units_Z 48
_cell_length_a 14.569889
_cell_length_b 14.569889
_cell_length_c 11.760475
_cell_angle_alpha 90.000000
_cell_angle_beta 90.000000
_cell_angle_gamma 90.000000
_cell_volume 2496.533220
_symmetry_space_group_name_H-M "P -4 2 M "
_symmetry_group_IT_number 111
_symmetry_cell_setting 'tetragonal'
loop_
_space_group_symop_operation_xyz
x,y,z
y,-x,-z
-x,-y,z
-y,x,-z
x,-y,-z
-x,y,-z
-y,-x,z
y,x,z
loop_
_atom_site_type_symbol
_atom_site_label
_atom_site_fract_x
_atom_site_fract_y
_atom_site_fract_z
Si Si1 0.350984 0.202029 0.126675
Si Si2 0.330656 0.180713 0.878456
Si Si3 0.852066 0.000317 0.367429
Si Si4 0.653224 0.500000 0.500000
Si Si5 0.692144 0.011025 0.804744
Si Si6 0.500000 0.000000 0.693106
Si Si7 0.485051 0.802033 0.304176
O O1 0.287209 0.287209 0.157202
O O2 0.290020 0.109157 0.137482
O O3 0.433974 0.207734 0.213813
O O4 0.384774 0.206026 0.995081
O O5 0.240486 0.240486 0.866952
O O6 0.391338 0.200020 0.767022
O O7 0.293906 0.075830 0.887098
O O8 0.911108 0.911108 0.333578
O O9 0.755267 0.999445 0.305740
O O10 0.829977 0.000000 0.500000
O O11 0.908590 0.091411 0.334098
O O12 0.590088 0.409913 0.515090
O O13 0.717498 0.512577 0.609543
O O14 0.585863 0.008547 0.774523
O O15 0.507452 0.901096 0.627379
#
# Coordination Sequence:
#
# PCOD8308123 Si02
#       7
#     8   8   8   4   8   4   8
#     4  10  20  34  55  82 111 145 185 228 274 327
#     4  10  20  34  55  82 111 145 185 228 274 327
#     4   9  18  33  52  74 103 144 192 237 277 321
#     4  11  24  41  62  84 110 145 182 225 276 334
#     4  10  18  34  52  77 109 145 181 228 273 325
#     4   8  20  35  53  76 104 140 173 221 256 316
#     4  10  20  39  58  81 111 144 183 225 275 324
#
# _framework density 19.226662000000001
#
# number of rings (size 3 to 8) (size 9 to 14) (size 15 to 20)
#    0.000    2.250    0.000    3.500    0.000    0.333 
#   12.000    5.000    0.000    0.000    0.000   14.000 
#    0.000    0.000    0.000    0.000    0.000    0.000 
#
# Total GULP energy -594695.054786 kJ/mol
# GULP energy per Si atom -12389.480308 kJ/mol
# Density = 1.918290 g / cm^3
# Si number density = 19.226662 Si / 1000 Ang^3
#
#
#
# Elastic Constant Matrix: (Units=GPa)
#
#
# Indices 1 2 3 4 5 6 
#
# 1 83.6040 6.4303 19.1586 0.0000 0.0000 0.0000
# 2 6.4303 83.6036 19.1584 0.0000 0.0000 0.0000
# 3 19.1586 19.1584 61.7964 0.0000 0.0000 0.0000
# 4 0.0000 0.0000 0.0000 26.0606 0.0000 0.0000
# 5 0.0000 0.0000 0.0000 0.0000 26.0607 0.0000
# 6 0.0000 0.0000 0.0000 0.0000 0.0000 23.5633
#
#
#
# Elastic Compliance Matrix: (Units=1/GPa)
#
#
# Indices 1 2 3 4 5 6 
#
# 1 0.012876 -0.000081 -0.003967 0.000000 0.000000 0.000000
# 2 -0.000081 0.012876 -0.003967 0.000000 0.000000 0.000000
# 3 -0.003967 -0.003967 0.018642 0.000000 0.000000 0.000000
# 4 0.000000 0.000000 0.000000 0.038372 0.000000 0.000000
# 5 0.000000 0.000000 0.000000 0.000000 0.038372 0.000000
# 6 0.000000 0.000000 0.000000 0.000000 0.000000 0.042439
#
#
# Mechanical properties :
#
#
# Convention : Reuss Voigt Hill
#
# Bulk Modulus (GPa) = 35.25501 35.38872 35.32186
# Shear Modulus (GPa) = 26.44629 27.42072 26.93350
#
# Velocity S-wave (km/s) = 3.71280 3.78058 3.74684
# Velocity P-wave (km/s) = 6.06269 6.12397 6.09341
#
# Compressibility (1/GPa) = 0.02836477
#
# Stress axis : x y z
#
# Youngs Moduli (GPa) = 77.66119 77.66099 53.64292
#
# Poissons Ratio (x) = 0.00632 0.21279
# Poissons Ratio (y) = 0.00632 0.21279
# Poissons Ratio (z) = 0.30807 0.30806
#
# Static dielectric constant tensor:
#      x y z
#    x 3.722130 0.000000 0.000000 
#    y 0.000000 3.722130 0.000000 
#    z 0.000000 0.000000 3.308890 
# 
# 
# High freq. dielectric constant tensor:
#      x y z
#    x 1.756970 0.000000 0.000000 
#    y 0.000000 1.756970 0.000000 
#    z 0.000000 0.000000 1.732000 
# 
# From -- ./inp_files/2740.got.cif
#   From: 2010.03.12/outbox.cif.g09.slc.cpg/sg111_2_cif.got.tgz:2740.got - 2010.04.14 01:59:48.
