data_PCOD8308452
_publ_section_title
;
Structure prediction by ZEFSAII (Michael W. Deem and Ramdas Pophale) SiO2 
 PCOD8308452
Probable space group: P -4 2 C
;
_chemical_formula_sum "Si O2"
_cell_formula_units_Z 48
_cell_length_a 9.156430
_cell_length_b 9.156430
_cell_length_c 27.842243
_cell_angle_alpha 90.000000
_cell_angle_beta 90.000000
_cell_angle_gamma 90.000000
_cell_volume 2334.299510
_symmetry_space_group_name_H-M "P -4 2 C"
_symmetry_group_IT_number 112
_symmetry_cell_setting 'tetragonal'
loop_
_space_group_symop_operation_xyz
x,y,z
y,-x,-z
-x,-y,z
-y,x,-z
x,-y,1/2-z
-x,y,1/2-z
-y,-x,1/2+z
y,x,1/2+z
loop_
_atom_site_type_symbol
_atom_site_label
_atom_site_fract_x
_atom_site_fract_y
_atom_site_fract_z
Si Si1 0.160692 0.442807 0.196558
Si Si2 0.740957 0.843733 0.549507
Si Si3 0.148472 0.765879 0.103764
Si Si4 0.007603 0.833679 0.306724
Si Si5 0.508245 0.328039 0.893250
Si Si6 0.024568 0.335688 0.952999
O O1 0.194627 0.500000 0.250000
O O2 0.293660 0.495454 0.163555
O O3 0.000000 0.500000 0.180529
O O4 0.153451 0.265882 0.187354
O O5 0.652553 0.732529 0.582410
O O6 0.653249 0.878003 0.500944
O O7 0.882702 0.756216 0.532666
O O8 0.777211 0.990014 0.579064
O O9 0.123999 0.760626 0.161959
O O10 0.238866 0.627139 0.084368
O O11 0.246968 0.904161 0.090710
O O12 0.000000 0.827791 0.250000
O O13 0.000000 0.000000 0.325466
O O14 0.500000 0.500000 0.902629
O O15 0.000000 0.500000 0.934410
#
# Coordination Sequence:
#
# PCOD8308452 Si02
#       6
#     8   8   8   8   8   8
#     4  11  19  39  66  95 130 175 228 282 329 408
#     4  12  24  44  68  94 129 179 230 278 337 412
#     4  12  23  43  67  95 130 176 224 282 333 405
#     4  11  21  36  65 100 125 165 224 279 325 392
#     4  12  25  42  64  97 136 178 221 282 357 412
#     4  12  26  43  64  99 134 174 227 286 344 407
#
# _framework density 20.562915
#
# number of rings (size 3 to 8) (size 9 to 14) (size 15 to 20)
#    0.000    0.333    6.667    4.000    0.000    0.333 
#    0.000    0.000    0.000    0.000    0.000    0.000 
#    0.000    0.000    0.000    0.000    0.000    0.000 
#
# Total GULP energy -594680.032919 kJ/mol
# GULP energy per Si atom -12389.167352 kJ/mol
# Density = 2.051611 g / cm^3
# Si number density = 20.562915 Si / 1000 Ang^3
#
#
#
# Elastic Constant Matrix: (Units=GPa)
#
#
# Indices 1 2 3 4 5 6 
#
# 1 120.3639 34.9001 36.3792 0.0000 0.0000 0.0000
# 2 34.9001 120.3639 36.3792 0.0000 0.0000 0.0000
# 3 36.3792 36.3792 103.8422 0.0000 0.0000 0.0000
# 4 0.0000 0.0000 0.0000 23.6448 0.0000 0.0000
# 5 0.0000 0.0000 0.0000 0.0000 23.6448 0.0000
# 6 0.0000 0.0000 0.0000 0.0000 0.0000 29.2500
#
#
#
# Elastic Compliance Matrix: (Units=1/GPa)
#
#
# Indices 1 2 3 4 5 6 
#
# 1 0.009703 -0.001998 -0.002700 0.000000 0.000000 0.000000
# 2 -0.001998 0.009703 -0.002700 0.000000 0.000000 0.000000
# 3 -0.002700 -0.002700 0.011521 0.000000 0.000000 0.000000
# 4 0.000000 0.000000 0.000000 0.042293 0.000000 0.000000
# 5 0.000000 0.000000 0.000000 0.000000 0.042293 0.000000
# 6 0.000000 0.000000 0.000000 0.000000 0.000000 0.034188
#
#
# Mechanical properties :
#
#
# Convention : Reuss Voigt Hill
#
# Bulk Modulus (GPa) = 61.97839 62.20965 62.09402
# Shear Modulus (GPa) = 29.43379 31.10203 30.26791
#
# Velocity S-wave (km/s) = 3.78749 3.89335 3.84078
# Velocity P-wave (km/s) = 7.02375 7.10844 7.06622
#
# Compressibility (1/GPa) = 0.01613466
#
# Stress axis : x y z
#
# Youngs Moduli (GPa) = 103.05813 103.05813 86.79454
#
# Poissons Ratio (x) = 0.20587 0.23431
# Poissons Ratio (y) = 0.20587 0.23431
# Poissons Ratio (z) = 0.27821 0.27821
#
# Static dielectric constant tensor:
#      x y z
#    x 4.052030 0.000000 0.000000 
#    y 0.000000 4.052030 0.000000 
#    z 0.000000 0.000000 3.783040 
# 
# 
# High freq. dielectric constant tensor:
#      x y z
#    x 1.799050 0.000000 0.000000 
#    y 0.000000 1.799050 0.000000 
#    z 0.000000 0.000000 1.813470 
# 
# From -- ./inp_files/6331.got.cif
#   From: 2010.03.12/outbox.cif.g09.slc.cpg/sg112_4_cif.got.tgz:6331.got - 2010.04.14 02:02:48.
