data_PCOD8308455
_publ_section_title
;
Structure prediction by ZEFSAII (Michael W. Deem and Ramdas Pophale) SiO2 
 PCOD8308455
Probable space group: P -4 2 C
;
_chemical_formula_sum "Si O2"
_cell_formula_units_Z 40
_cell_length_a 14.445513
_cell_length_b 14.445513
_cell_length_c 8.619989
_cell_angle_alpha 90.000000
_cell_angle_beta 90.000000
_cell_angle_gamma 90.000000
_cell_volume 1798.757636
_symmetry_space_group_name_H-M "P -4 2 C"
_symmetry_group_IT_number 112
_symmetry_cell_setting 'tetragonal'
loop_
_space_group_symop_operation_xyz
x,y,z
y,-x,-z
-x,-y,z
-y,x,-z
x,-y,1/2-z
-x,y,1/2-z
-y,-x,1/2+z
y,x,1/2+z
loop_
_atom_site_type_symbol
_atom_site_label
_atom_site_fract_x
_atom_site_fract_y
_atom_site_fract_z
Si Si1 0.337569 0.791566 0.099296
Si Si2 0.007877 0.604554 0.565340
Si Si3 0.058438 0.101356 0.599326
Si Si4 0.163210 0.281968 0.570317
Si Si5 0.371865 0.466414 0.923849
O O1 0.350105 0.892827 0.020955
O O2 0.339781 0.795108 0.286341
O O3 0.425028 0.730042 0.047813
O O4 0.242091 0.741601 0.053001
O O5 0.000000 0.500000 0.503176
O O6 0.000000 0.608688 0.750000
O O7 0.921711 0.661270 0.491230
O O8 0.122373 0.187458 0.639363
O O9 0.986669 0.120524 0.455598
O O10 0.000000 0.076631 0.750000
O O11 0.386670 0.500000 0.750000
O O12 0.386643 0.551981 0.041305
#
# Coordination Sequence:
#
# PCOD8308455 Si02
#       5
#     8   8   8   8   8
#     4  11  24  39  68  96 126 171 215 266 322 389
#     4   9  20  37  63  88 122 166 212 257 308 378
#     4  11  21  35  58  88 125 170 219 270 320 373
#     4  11  22  40  60  94 125 168 214 269 312 386
#     4  11  24  42  68  98 130 162 211 274 332 394
#
# _framework density 22.237573000000001
#
# number of rings (size 3 to 8) (size 9 to 14) (size 15 to 20)
#    0.000    1.400    0.000    7.800    8.400    0.000 
#    0.000    3.000    0.000    1.200    0.000    0.000 
#    0.000    0.000    0.000    0.000    0.000    0.000 
#
# Total GULP energy -495833.719160 kJ/mol
# GULP energy per Si atom -12395.842979 kJ/mol
# Density = 2.218696 g / cm^3
# Si number density = 22.237573 Si / 1000 Ang^3
#
#
#
# Elastic Constant Matrix: (Units=GPa)
#
#
# Indices 1 2 3 4 5 6 
#
# 1 130.7178 62.4436 25.5810 0.0000 0.0000 0.0000
# 2 62.4436 130.7178 25.5810 0.0000 0.0000 0.0000
# 3 25.5810 25.5810 65.7937 0.0000 0.0000 0.0000
# 4 0.0000 0.0000 0.0000 22.6381 0.0000 0.0000
# 5 0.0000 0.0000 0.0000 0.0000 22.6381 0.0000
# 6 0.0000 0.0000 0.0000 0.0000 0.0000 55.5268
#
#
#
# Elastic Compliance Matrix: (Units=1/GPa)
#
#
# Indices 1 2 3 4 5 6 
#
# 1 0.010209 -0.004438 -0.002244 0.000000 0.000000 0.000000
# 2 -0.004438 0.010209 -0.002244 0.000000 0.000000 0.000000
# 3 -0.002244 -0.002244 0.016944 0.000000 0.000000 0.000000
# 4 0.000000 0.000000 0.000000 0.044173 0.000000 0.000000
# 5 0.000000 0.000000 0.000000 0.000000 0.044173 0.000000
# 6 0.000000 0.000000 0.000000 0.000000 0.000000 0.018009
#
#
# Mechanical properties :
#
#
# Convention : Reuss Voigt Hill
#
# Bulk Modulus (GPa) = 51.25343 61.60451 56.42897
# Shear Modulus (GPa) = 29.74900 34.40218 32.07559
#
# Velocity S-wave (km/s) = 3.66154 3.93750 3.80202
# Velocity P-wave (km/s) = 6.40109 6.95952 6.68614
#
# Compressibility (1/GPa) = 0.01951089
#
# Stress axis : x y z
#
# Youngs Moduli (GPa) = 97.95185 97.95185 59.01815
#
# Poissons Ratio (x) = 0.43468 0.13243
# Poissons Ratio (y) = 0.43468 0.13243
# Poissons Ratio (z) = 0.21980 0.21980
#
# Static dielectric constant tensor:
#      x y z
#    x 4.241830 0.000000 0.000000 
#    y 0.000000 4.241830 0.000000 
#    z 0.000000 0.000000 3.706580 
# 
# 
# High freq. dielectric constant tensor:
#      x y z
#    x 1.884880 0.000000 0.000000 
#    y 0.000000 1.884880 0.000000 
#    z 0.000000 0.000000 1.834450 
# 
# From -- ./inp_files/1238.got.cif
#   From: 2010.03.12/outbox.cif.g09.slc.cpg/sg112_1_cif.got.tgz:1238.got - 2010.04.14 02:02:48.
