data_PCOD8308089
_publ_section_title
;
Structure prediction by ZEFSAII (Michael W. Deem and Ramdas Pophale) SiO2 
 PCOD8308089
Probable space group: I 41 C D
;
_chemical_formula_sum "Si O2"
_cell_formula_units_Z 88
_cell_length_a 16.288282
_cell_length_b 16.288282
_cell_length_c 14.032433
_cell_angle_alpha 90.000000
_cell_angle_beta 90.000000
_cell_angle_gamma 90.000000
_cell_volume 3722.918566
_symmetry_space_group_name_H-M "I 41 C D"
_symmetry_group_IT_number 110
_symmetry_cell_setting 'tetragonal'
loop_
_space_group_symop_operation_xyz
x,y,z
-y,1/2+x,1/4+z
-x,-y,z
y,1/2-x,1/4+z
-x,y,1/2+z
x,-y,1/2+z
1/2-y,-x,1/4+z
1/2+y,x,1/4+z
1/2+x,1/2+y,1/2+z
1/2-y,x,3/4+z
1/2-x,1/2-y,1/2+z
1/2+y,-x,3/4+z
1/2-x,1/2+y,z
1/2+x,1/2-y,z
-y,1/2-x,3/4+z
y,1/2+x,3/4+z
loop_
_atom_site_type_symbol
_atom_site_label
_atom_site_fract_x
_atom_site_fract_y
_atom_site_fract_z
Si Si1 0.591603 0.703181 0.646300
Si Si2 0.735057 0.079094 0.908759
Si Si3 0.000000 0.500000 0.613480
Si Si4 0.094843 0.696594 0.350880
Si Si5 0.638473 0.111995 0.189242
Si Si6 0.550417 0.849155 0.988799
O O1 0.500076 0.678835 0.683639
O O2 0.603776 0.797032 0.676842
O O3 0.602850 0.691155 0.534309
O O4 0.654954 0.641977 0.696405
O O5 0.678038 0.158389 0.894023
O O6 0.773004 0.046507 0.809470
O O7 0.809915 0.092916 0.984972
O O8 0.067065 0.543657 0.682057
O O9 0.039182 0.432978 0.544925
O O10 0.096993 0.795333 0.356693
O O11 0.015388 0.658193 0.402529
#
# Coordination Sequence:
#
# PCOD8308089 Si02
#       6
#    16  16   8  16  16  16
#     4  12  27  47  75 113 152 204 263 327 397 474
#     4  12  28  48  78 116 155 210 263 329 402 477
#     4  12  26  50  78 108 158 200 264 326 390 484
#     4  12  27  51  76 113 162 204 269 329 398 479
#     4  12  26  50  75 110 157 202 259 327 398 468
#     4  12  27  48  77 116 151 210 264 322 405 479
#
# _framework density 23.637370000000001
#
# number of rings (size 3 to 8) (size 9 to 14) (size 15 to 20)
#    0.000    0.000    3.636    5.455    7.636    2.182 
#    0.000    0.000    0.000    0.000    0.000    0.000 
#    0.000    0.000    0.000    0.000    0.000    0.000 
#
# Total GULP energy -545505.467696 kJ/mol
# GULP energy per Si atom -12397.851539 kJ/mol
# Density = 2.358357 g / cm^3
# Si number density = 23.637370 Si / 1000 Ang^3
#
#
#
# Elastic Constant Matrix: (Units=GPa)
#
#
# Indices 1 2 3 4 5 6 
#
# 1 136.5323 51.3142 41.1568 0.0000 0.0000 0.0000
# 2 51.3142 136.5323 41.1568 0.0000 0.0000 0.0000
# 3 41.1568 41.1568 115.2473 0.0000 0.0000 0.0000
# 4 0.0000 0.0000 0.0000 32.2355 0.0000 0.0000
# 5 0.0000 0.0000 0.0000 0.0000 32.2355 0.0000
# 6 0.0000 0.0000 0.0000 0.0000 0.0000 37.7465
#
#
#
# Elastic Compliance Matrix: (Units=1/GPa)
#
#
# Indices 1 2 3 4 5 6 
#
# 1 0.009023 -0.002712 -0.002254 0.000000 0.000000 0.000000
# 2 -0.002712 0.009023 -0.002254 0.000000 0.000000 0.000000
# 3 -0.002254 -0.002254 0.010287 0.000000 0.000000 0.000000
# 4 0.000000 0.000000 0.000000 0.031022 0.000000 0.000000
# 5 0.000000 0.000000 0.000000 0.000000 0.031022 0.000000
# 6 0.000000 0.000000 0.000000 0.000000 0.000000 0.026492
#
#
# Mechanical properties :
#
#
# Convention : Reuss Voigt Hill
#
# Bulk Modulus (GPa) = 71.97494 72.84085 72.40789
# Shear Modulus (GPa) = 36.78143 37.42247 37.10195
#
# Velocity S-wave (km/s) = 3.94899 3.98325 3.96615
# Velocity P-wave (km/s) = 7.16299 7.21373 7.18840
#
# Compressibility (1/GPa) = 0.01389373
#
# Stress axis : x y z
#
# Youngs Moduli (GPa) = 110.82975 110.82975 97.21256
#
# Poissons Ratio (x) = 0.30054 0.21910
# Poissons Ratio (y) = 0.30054 0.21910
# Poissons Ratio (z) = 0.24979 0.24979
#
# Static dielectric constant tensor:
#      x y z
#    x 4.290820 0.000000 0.000000 
#    y 0.000000 4.290820 0.000000 
#    z 0.000000 0.000000 4.409840 
# 
# 
# High freq. dielectric constant tensor:
#      x y z
#    x 1.942240 0.000000 0.000000 
#    y 0.000000 1.942240 0.000000 
#    z 0.000000 0.000000 1.950420 
# 
# From -- ./inp_files/1303.got.cif
#   From: 2010.03.12/outbox.cif.g09.slc.cpg/sg110_1_cif.got.tgz:1303.got - 2010.04.14 01:58:01.
