data_PCOD8308074
_publ_section_title
;
Structure prediction by ZEFSAII (Michael W. Deem and Ramdas Pophale) SiO2 
 PCOD8308074
Probable space group: I 41 C D
;
_chemical_formula_sum "Si O2"
_cell_formula_units_Z 96
_cell_length_a 14.615214
_cell_length_b 14.615214
_cell_length_c 18.443898
_cell_angle_alpha 90.000000
_cell_angle_beta 90.000000
_cell_angle_gamma 90.000000
_cell_volume 3939.699246
_symmetry_space_group_name_H-M "I 41 C D"
_symmetry_group_IT_number 110
_symmetry_cell_setting 'tetragonal'
loop_
_space_group_symop_operation_xyz
x,y,z
-y,1/2+x,1/4+z
-x,-y,z
y,1/2-x,1/4+z
-x,y,1/2+z
x,-y,1/2+z
1/2-y,-x,1/4+z
1/2+y,x,1/4+z
1/2+x,1/2+y,1/2+z
1/2-y,x,3/4+z
1/2-x,1/2-y,1/2+z
1/2+y,-x,3/4+z
1/2-x,1/2+y,z
1/2+x,1/2-y,z
-y,1/2-x,3/4+z
y,1/2+x,3/4+z
loop_
_atom_site_type_symbol
_atom_site_label
_atom_site_fract_x
_atom_site_fract_y
_atom_site_fract_z
Si Si1 0.810850 0.026899 0.754200
Si Si2 0.374204 0.324115 0.503791
Si Si3 0.395682 0.515428 0.898902
Si Si4 0.095826 0.544782 0.896553
Si Si5 0.206371 0.225968 0.565251
Si Si6 0.737008 0.898770 0.450348
O O1 0.881979 0.983618 0.812393
O O2 0.862720 0.079943 0.690866
O O3 0.742478 0.102114 0.788319
O O4 0.760056 0.936015 0.723980
O O5 0.358369 0.392468 0.436743
O O6 0.436038 0.362104 0.568823
O O7 0.275333 0.305407 0.539869
O O8 0.500000 0.500000 0.919960
O O9 0.337659 0.431160 0.928419
O O10 0.160573 0.476477 0.942564
O O11 0.000000 0.500000 0.880547
O O12 0.194368 0.216459 0.652540
O O13 0.251205 0.132604 0.533709
#
# Coordination Sequence:
#
# PCOD8308074 Si02
#       6
#    16  16  16  16  16  16
#     4  11  25  49  69 112 152 191 254 312 373 454
#     4  12  25  45  74 106 151 200 255 305 390 451
#     4  11  24  43  73 106 146 195 248 311 373 458
#     4  12  25  47  71 106 151 195 248 319 370 452
#     4  11  24  43  74 103 144 197 241 311 365 452
#     4  11  25  47  73 107 150 196 254 304 387 449
#
# _framework density 24.367341
#
# number of rings (size 3 to 8) (size 9 to 14) (size 15 to 20)
#    0.000    0.667    3.333    5.000    4.667    1.333 
#    0.000    0.000    0.000    0.000    0.000    0.000 
#    0.000    0.000    0.000    0.000    0.000    0.000 
#
# Total GULP energy -595156.665337 kJ/mol
# GULP energy per Si atom -12399.097195 kJ/mol
# Density = 2.431188 g / cm^3
# Si number density = 24.367341 Si / 1000 Ang^3
#
#
#
# Elastic Constant Matrix: (Units=GPa)
#
#
# Indices 1 2 3 4 5 6 
#
# 1 102.0514 35.7585 25.6852 0.0000 0.0000 0.0000
# 2 35.7585 102.0514 25.6852 0.0000 0.0000 0.0000
# 3 25.6852 25.6852 72.9865 0.0000 0.0000 0.0000
# 4 0.0000 0.0000 0.0000 6.1422 0.0000 0.0000
# 5 0.0000 0.0000 0.0000 0.0000 6.1422 0.0000
# 6 0.0000 0.0000 0.0000 0.0000 0.0000 49.0895
#
#
#
# Elastic Compliance Matrix: (Units=1/GPa)
#
#
# Indices 1 2 3 4 5 6 
#
# 1 0.011718 -0.003366 -0.002939 0.000000 0.000000 0.000000
# 2 -0.003366 0.011718 -0.002939 0.000000 0.000000 0.000000
# 3 -0.002939 -0.002939 0.015770 0.000000 0.000000 0.000000
# 4 0.000000 0.000000 0.000000 0.162808 0.000000 0.000000
# 5 0.000000 0.000000 0.000000 0.000000 0.162808 0.000000
# 6 0.000000 0.000000 0.000000 0.000000 0.000000 0.020371
#
#
# Mechanical properties :
#
#
# Convention : Reuss Voigt Hill
#
# Bulk Modulus (GPa) = 48.26945 50.14967 49.20956
# Shear Modulus (GPa) = 12.17766 24.93881 18.55823
#
# Velocity S-wave (km/s) = 2.23794 3.20261 2.76271
# Velocity P-wave (km/s) = 5.15072 5.85671 5.51502
#
# Compressibility (1/GPa) = 0.02071704
#
# Stress axis : x y z
#
# Youngs Moduli (GPa) = 85.33668 85.33668 63.41204
#
# Poissons Ratio (x) = 0.28727 0.18638
# Poissons Ratio (y) = 0.28727 0.18638
# Poissons Ratio (z) = 0.25082 0.25082
#
# Static dielectric constant tensor:
#      x y z
#    x 4.384690 0.000000 0.000000 
#    y 0.000000 4.384690 0.000000 
#    z 0.000000 0.000000 4.494320 
# 
# 
# High freq. dielectric constant tensor:
#      x y z
#    x 1.975700 0.000000 0.000000 
#    y 0.000000 1.975700 0.000000 
#    z 0.000000 0.000000 1.967890 
# 
# From -- ./inp_files/2220.got.cif
#   From: 2010.03.12/outbox.cif.g09.slc.cpg/sg110_2_cif.got.tgz:2220.got - 2010.04.14 01:58:01.
