data_PCOD8308304
_publ_section_title
;
Structure prediction by ZEFSAII (Michael W. Deem and Ramdas Pophale) SiO2 
 PCOD8308304
Probable space group: P -4 2 C
;
_chemical_formula_sum "Si O2"
_cell_formula_units_Z 34
_cell_length_a 8.701249
_cell_length_b 8.701249
_cell_length_c 23.965855
_cell_angle_alpha 90.000000
_cell_angle_beta 90.000000
_cell_angle_gamma 90.000000
_cell_volume 1814.496443
_symmetry_space_group_name_H-M "P -4 2 C"
_symmetry_group_IT_number 112
_symmetry_cell_setting 'tetragonal'
loop_
_space_group_symop_operation_xyz
x,y,z
y,-x,-z
-x,-y,z
-y,x,-z
x,-y,1/2-z
-x,y,1/2-z
-y,-x,1/2+z
y,x,1/2+z
loop_
_atom_site_type_symbol
_atom_site_label
_atom_site_fract_x
_atom_site_fract_y
_atom_site_fract_z
Si Si1 0.500000 0.000000 0.599828
Si Si2 0.249704 0.467532 0.670161
Si Si3 0.000000 0.500000 0.750000
Si Si4 0.000000 0.500000 0.917418
Si Si5 0.249594 0.989368 0.993855
Si Si6 0.741132 0.473212 0.187272
O O1 0.645836 0.953705 0.561003
O O2 0.435568 0.868911 0.641310
O O3 0.115901 0.401211 0.711402
O O4 0.161140 0.516495 0.614765
O O5 0.373891 0.335759 0.661582
O O6 0.334535 0.619569 0.693887
O O7 0.976849 0.350579 0.953170
O O8 0.144077 0.847895 0.012533
O O9 0.807371 0.500000 0.250000
#
# Coordination Sequence:
#
# PCOD8308304 Si02
#       6
#     4   8   2   4   8   8
#     4  11  23  35  59  81 109 143 181 220 274 326
#     4  10  19  33  57  79 108 140 183 221 263 314
#     4  10  16  32  52  78  98 146 182 206 250 306
#     4  10  20  33  57  83 101 134 186 228 258 322
#     4  10  21  39  56  77 107 143 177 223 275 325
#     4  11  20  36  53  82 112 147 171 222 273 318
#
# _framework density 18.73798
#
# number of rings (size 3 to 8) (size 9 to 14) (size 15 to 20)
#    0.000    1.647    2.353    3.882    0.000    0.000 
#    0.000    0.000    0.000   12.706    0.000    0.000 
#    0.000    0.000    0.000    0.000    0.000    0.000 
#
# Total GULP energy -421197.500231 kJ/mol
# GULP energy per Si atom -12388.161771 kJ/mol
# Density = 1.869533 g / cm^3
# Si number density = 18.737980 Si / 1000 Ang^3
#
#
#
# Elastic Constant Matrix: (Units=GPa)
#
#
# Indices 1 2 3 4 5 6 
#
# 1 84.7167 21.1123 26.7789 0.0000 0.0000 0.0000
# 2 21.1123 84.7167 26.7789 0.0000 0.0000 0.0000
# 3 26.7789 26.7789 98.4873 0.0000 0.0000 0.0000
# 4 0.0000 0.0000 0.0000 27.1677 0.0000 0.0000
# 5 0.0000 0.0000 0.0000 0.0000 27.1677 0.0000
# 6 0.0000 0.0000 0.0000 0.0000 0.0000 16.0590
#
#
#
# Elastic Compliance Matrix: (Units=1/GPa)
#
#
# Indices 1 2 3 4 5 6 
#
# 1 0.013340 -0.002383 -0.002979 0.000000 0.000000 0.000000
# 2 -0.002383 0.013340 -0.002979 0.000000 0.000000 0.000000
# 3 -0.002979 -0.002979 0.011774 0.000000 0.000000 0.000000
# 4 0.000000 0.000000 0.000000 0.036808 0.000000 0.000000
# 5 0.000000 0.000000 0.000000 0.000000 0.036808 0.000000
# 6 0.000000 0.000000 0.000000 0.000000 0.000000 0.062270
#
#
# Mechanical properties :
#
#
# Convention : Reuss Voigt Hill
#
# Bulk Modulus (GPa) = 45.93331 46.36234 46.14782
# Shear Modulus (GPa) = 25.21701 26.96226 26.08963
#
# Velocity S-wave (km/s) = 3.67245 3.79741 3.73545
# Velocity P-wave (km/s) = 6.52298 6.63500 6.57923
#
# Compressibility (1/GPa) = 0.02177069
#
# Stress axis : x y z
#
# Youngs Moduli (GPa) = 74.96506 74.96506 84.93504
#
# Poissons Ratio (x) = 0.17861 0.25304
# Poissons Ratio (y) = 0.17861 0.25304
# Poissons Ratio (z) = 0.22334 0.22334
#
# Static dielectric constant tensor:
#      x y z
#    x 3.578550 0.000000 0.000000 
#    y 0.000000 3.578550 0.000000 
#    z 0.000000 0.000000 3.576140 
# 
# 
# High freq. dielectric constant tensor:
#      x y z
#    x 1.721570 0.000000 0.000000 
#    y 0.000000 1.721570 0.000000 
#    z 0.000000 0.000000 1.742630 
# 
# From -- ./inp_files/5242.got.cif
#   From: 2010.03.12/outbox.cif.g09.slc.cpg/sg112_3_cif.got.tgz:5242.got - 2010.04.14 02:02:48.
