data_PCOD8308339
_publ_section_title
;
Structure prediction by ZEFSAII (Michael W. Deem and Ramdas Pophale) SiO2 
 PCOD8308339
Probable space group: P -4 2 C
;
_chemical_formula_sum "Si O2"
_cell_formula_units_Z 36
_cell_length_a 9.437130
_cell_length_b 9.437130
_cell_length_c 19.664621
_cell_angle_alpha 90.000000
_cell_angle_beta 90.000000
_cell_angle_gamma 90.000000
_cell_volume 1751.319793
_symmetry_space_group_name_H-M "P -4 2 C"
_symmetry_group_IT_number 112
_symmetry_cell_setting 'tetragonal'
loop_
_space_group_symop_operation_xyz
x,y,z
y,-x,-z
-x,-y,z
-y,x,-z
x,-y,1/2-z
-x,y,1/2-z
-y,-x,1/2+z
y,x,1/2+z
loop_
_atom_site_type_symbol
_atom_site_label
_atom_site_fract_x
_atom_site_fract_y
_atom_site_fract_z
Si Si1 0.624049 0.162920 0.891996
Si Si2 0.122812 0.813108 0.514770
Si Si3 0.000000 0.000000 0.250000
Si Si4 0.500000 0.000000 0.250000
Si Si5 0.313806 0.155695 0.860212
Si Si6 0.752551 0.188434 0.282999
O O1 0.461686 0.213602 0.890163
O O2 0.704190 0.273597 0.844298
O O3 0.659933 0.012416 0.856140
O O4 0.677088 0.165663 0.969700
O O5 0.187890 0.799410 0.589441
O O6 0.953350 0.819447 0.523229
O O7 0.893839 0.092550 0.296908
O O8 0.391826 0.900571 0.291161
O O9 0.272011 0.224449 0.788129
#
# Coordination Sequence:
#
# PCOD8308339 Si02
#       6
#     8   8   2   2   8   8
#     4  10  20  37  62  93 119 154 199 248 295 349
#     4   9  20  34  56  87 124 156 198 245 294 345
#     4  10  20  30  66  92 116 146 198 244 300 346
#     4  10  28  38  54  98 124 150 198 244 328 330
#     4  10  20  37  62  93 119 154 199 248 295 349
#     4  11  21  39  60  91 119 156 195 253 294 359
#
# _framework density 20.555925999999999
#
# number of rings (size 3 to 8) (size 9 to 14) (size 15 to 20)
#    0.000    2.000    2.222    0.667    6.222    1.778 
#    4.000    2.222    0.000    0.000    0.000    0.000 
#    0.000    0.000    0.000    0.000    0.000    0.000 
#
# Total GULP energy -446046.669424 kJ/mol
# GULP energy per Si atom -12390.185262 kJ/mol
# Density = 2.050914 g / cm^3
# Si number density = 20.555926 Si / 1000 Ang^3
#
#
#
# Elastic Constant Matrix: (Units=GPa)
#
#
# Indices 1 2 3 4 5 6 
#
# 1 95.0675 16.6701 10.5671 0.0000 0.0000 0.0000
# 2 16.6701 95.0675 10.5671 0.0000 0.0000 0.0000
# 3 10.5671 10.5671 46.9272 0.0000 0.0000 0.0000
# 4 0.0000 0.0000 0.0000 7.8618 0.0000 0.0000
# 5 0.0000 0.0000 0.0000 0.0000 7.8618 0.0000
# 6 0.0000 0.0000 0.0000 0.0000 0.0000 20.9214
#
#
#
# Elastic Compliance Matrix: (Units=1/GPa)
#
#
# Indices 1 2 3 4 5 6 
#
# 1 0.011052 -0.001704 -0.002105 0.000000 0.000000 0.000000
# 2 -0.001704 0.011052 -0.002105 0.000000 0.000000 0.000000
# 3 -0.002105 -0.002105 0.022258 0.000000 0.000000 0.000000
# 4 0.000000 0.000000 0.000000 0.127198 0.000000 0.000000
# 5 0.000000 0.000000 0.000000 0.000000 0.127198 0.000000
# 6 0.000000 0.000000 0.000000 0.000000 0.000000 0.047798
#
#
# Mechanical properties :
#
#
# Convention : Reuss Voigt Hill
#
# Bulk Modulus (GPa) = 30.73779 34.74120 32.73949
# Shear Modulus (GPa) = 13.54185 20.61286 17.07736
#
# Velocity S-wave (km/s) = 2.56946 3.17009 2.88544
# Velocity P-wave (km/s) = 4.87735 5.50788 5.20218
#
# Compressibility (1/GPa) = 0.03253324
#
# Stress axis : x y z
#
# Youngs Moduli (GPa) = 90.48468 90.48468 44.92857
#
# Poissons Ratio (x) = 0.15418 0.09457
# Poissons Ratio (y) = 0.15418 0.09457
# Poissons Ratio (z) = 0.19046 0.19046
#
# Static dielectric constant tensor:
#      x y z
#    x 3.815110 0.000000 0.000000 
#    y 0.000000 3.815110 0.000000 
#    z 0.000000 0.000000 3.354810 
# 
# 
# High freq. dielectric constant tensor:
#      x y z
#    x 1.793100 0.000000 0.000000 
#    y 0.000000 1.793100 0.000000 
#    z 0.000000 0.000000 1.788570 
# 
# From -- ./inp_files/4702.got.cif
#   From: 2010.03.12/outbox.cif.g09.slc.cpg/sg112_3_cif.got.tgz:4702.got - 2010.04.14 02:02:48.
