data_PCOD8308578
_publ_section_title
;
Structure prediction by ZEFSAII (Michael W. Deem and Ramdas Pophale) SiO2 
 PCOD8308578
Probable space group: P -4 21 M 
;
_chemical_formula_sum "Si O2"
_cell_formula_units_Z 64
_cell_length_a 12.384849
_cell_length_b 12.384849
_cell_length_c 24.060043
_cell_angle_alpha 90.000000
_cell_angle_beta 90.000000
_cell_angle_gamma 90.000000
_cell_volume 3690.437299
_symmetry_space_group_name_H-M "P -4 21 M "
_symmetry_group_IT_number 113
_symmetry_cell_setting 'tetragonal'
loop_
_space_group_symop_operation_xyz
x,y,z
y,-x,-z
-x,-y,z
-y,x,-z
1/2+x,1/2-y,-z
1/2-x,1/2+y,-z
1/2-y,1/2-x,z
1/2+y,1/2+x,z
loop_
_atom_site_type_symbol
_atom_site_label
_atom_site_fract_x
_atom_site_fract_y
_atom_site_fract_z
Si Si1 0.376589 0.297914 0.056421
Si Si2 0.000000 0.128557 0.760136
Si Si3 0.873800 0.803187 0.439991
Si Si4 0.303186 0.626201 0.439990
Si Si5 0.702954 0.376695 0.170697
Si Si6 0.628083 0.500000 0.635012
Si Si7 0.623410 0.297913 0.056422
Si Si8 0.797046 0.123305 0.829303
O O1 0.316080 0.183921 0.050909
O O2 0.499999 0.271541 0.068988
O O3 0.327405 0.368840 0.105989
O O4 0.365989 0.365989 0.999999
O O5 0.999998 0.174371 0.697537
O O6 0.894113 0.170818 0.791994
O O7 0.105889 0.170818 0.791992
O O8 0.000000 0.000000 0.761266
O O9 0.806634 0.693367 0.431259
O O10 0.854431 0.854430 0.500001
O O11 0.831894 0.891679 0.395705
O O12 0.000000 0.775477 0.432120
O O13 0.193366 0.693366 0.431258
O O14 0.391678 0.668106 0.395704
O O15 0.809343 0.309343 0.185003
O O16 0.672593 0.368838 0.105990
O O17 0.728498 0.500000 0.185727
O O18 0.500000 0.500000 0.634669
O O19 0.683919 0.183919 0.050910
O O20 0.690659 0.190659 0.814997
#
# Coordination Sequence:
#
# PCOD8308578 Si02
#       8
#     8   8   8   8   8   8   8   8
#     4  10  20  33  51  76 103 135 175 219 269 321
#     4   9  18  34  54  75 101 137 177 218 255 300
#     4  10  19  32  52  78 108 140 175 217 262 311
#     4  10  19  32  52  78 108 140 175 217 262 311
#     4  10  20  34  53  77 106 139 176 220 267 315
#     4   9  18  32  54  77 101 137 177 216 255 302
#     4  10  20  33  51  76 103 135 175 219 269 321
#     4  10  20  34  53  77 106 139 176 220 267 315
#
# _framework density 17.342116999999998
#
# number of rings (size 3 to 8) (size 9 to 14) (size 15 to 20)
#    0.000    2.250    2.500    0.750    0.000    3.000 
#    0.000    0.000    0.000    5.250    0.000    8.750 
#    0.000    0.000    0.000    0.000    0.000    0.000 
#
# Total GULP energy -793683.610996 kJ/mol
# GULP energy per Si atom -12401.306422 kJ/mol
# Density = 1.730265 g / cm^3
# Si number density = 17.342117 Si / 1000 Ang^3
#
#
#
# Elastic Constant Matrix: (Units=GPa)
#
#
# Indices 1 2 3 4 5 6 
#
# 1 99.7404 58.5237 33.2017 0.0000 0.0000 0.0000
# 2 58.5237 99.7409 33.2026 0.0000 0.0000 0.0000
# 3 33.2017 33.2026 118.1034 0.0000 0.0000 0.0000
# 4 0.0000 0.0000 0.0000 16.1290 0.0000 0.0000
# 5 0.0000 0.0000 0.0000 0.0000 16.1295 0.0000
# 6 0.0000 0.0000 0.0000 0.0000 0.0000 14.2677
#
#
#
# Elastic Compliance Matrix: (Units=1/GPa)
#
#
# Indices 1 2 3 4 5 6 
#
# 1 0.015713 -0.008549 -0.002014 0.000000 0.000000 0.000000
# 2 -0.008549 0.015713 -0.002014 0.000000 0.000000 0.000000
# 3 -0.002014 -0.002014 0.009599 0.000000 0.000000 0.000000
# 4 0.000000 0.000000 0.000000 0.062000 0.000000 0.000000
# 5 0.000000 0.000000 0.000000 0.000000 0.061998 0.000000
# 6 0.000000 0.000000 0.000000 0.000000 0.000000 0.070088
#
#
# Mechanical properties :
#
#
# Convention : Reuss Voigt Hill
#
# Bulk Modulus (GPa) = 63.00782 63.04895 63.02839
# Shear Modulus (GPa) = 18.82844 22.14902 20.48873
#
# Velocity S-wave (km/s) = 3.29858 3.57764 3.44094
# Velocity P-wave (km/s) = 7.13573 7.31443 7.22563
#
# Compressibility (1/GPa) = 0.01587104
#
# Stress axis : x y z
#
# Youngs Moduli (GPa) = 63.64278 63.64278 104.17247
#
# Poissons Ratio (x) = 0.54409 0.20978
# Poissons Ratio (y) = 0.54409 0.20980
# Poissons Ratio (z) = 0.12816 0.12817
#
# Static dielectric constant tensor:
#      x y z
#    x 3.085820 0.000000 0.000000 
#    y 0.000000 3.085820 0.000000 
#    z 0.000000 0.000000 3.434960 
# 
# 
# High freq. dielectric constant tensor:
#      x y z
#    x 1.657830 0.000000 0.000000 
#    y 0.000000 1.657830 0.000000 
#    z 0.000000 0.000000 1.677570 
# 
# From -- ./inp_files/2874.got.cif
#   From: 2010.03.12/outbox.cif.g09.slc.cpg/sg113_cif.got.tgz:2874.got - 2010.04.14 02:06:34.
