data_PCOD8308298
_publ_section_title
;
Structure prediction by ZEFSAII (Michael W. Deem and Ramdas Pophale) SiO2 
 PCOD8308298
Probable space group: P -4 2 M 
;
_chemical_formula_sum "Si O2"
_cell_formula_units_Z 40
_cell_length_a 17.758073
_cell_length_b 17.758073
_cell_length_c 9.179238
_cell_angle_alpha 90.000000
_cell_angle_beta 90.000000
_cell_angle_gamma 90.000000
_cell_volume 2894.664962
_symmetry_space_group_name_H-M "P -4 2 M "
_symmetry_group_IT_number 111
_symmetry_cell_setting 'tetragonal'
loop_
_space_group_symop_operation_xyz
x,y,z
y,-x,-z
-x,-y,z
-y,x,-z
x,-y,-z
-x,y,-z
-y,-x,z
y,x,z
loop_
_atom_site_type_symbol
_atom_site_label
_atom_site_fract_x
_atom_site_fract_y
_atom_site_fract_z
Si Si1 0.910386 0.645076 0.335595
Si Si2 0.913949 0.207728 0.169169
Si Si3 0.499999 0.089869 0.164837
Si Si4 0.792274 0.086050 0.830827
Si Si5 0.354925 0.910385 0.335594
O O1 0.878518 0.573585 0.247277
O O2 0.882375 0.721538 0.259482
O O3 0.879119 0.642168 0.500000
O O4 0.000000 0.642622 0.334324
O O5 0.865308 0.134693 0.209826
O O6 0.882375 0.278466 0.259475
O O7 0.999999 0.188880 0.211106
O O8 0.907094 0.228888 0.999998
O O9 0.573582 0.121482 0.247281
O O10 0.500000 0.000000 0.165496
O O11 0.500000 0.120617 0.000000
O O12 0.865312 0.134689 0.790171
#
# Coordination Sequence:
#
# PCOD8308298 Si02
#       5
#     8   8   8   8   8
#     4   9  16  25  37  53  72  92 115 145 182 224
#     4   9  17  28  40  53  70  94 126 163 199 231
#     4   9  15  23  37  55  73  91 111 138 175 220
#     4   9  17  28  40  53  70  94 126 163 199 231
#     4   9  16  25  37  53  72  92 115 145 182 224
#
# _framework density 13.818526
#
# number of rings (size 3 to 8) (size 9 to 14) (size 15 to 20)
#    0.000    3.000    0.000    1.800    0.000    8.400 
#    0.000    2.000    0.000    0.000    0.000    5.600 
#    0.000    0.000    0.000    0.000    0.000    1.000 
#
# Total GULP energy -495940.389646 kJ/mol
# GULP energy per Si atom -12398.509741 kJ/mol
# Density = 1.378707 g / cm^3
# Si number density = 13.818526 Si / 1000 Ang^3
#
#
#
# Elastic Constant Matrix: (Units=GPa)
#
#
# Indices 1 2 3 4 5 6 
#
# 1 71.6978 38.0032 46.1144 0.0000 0.0000 0.0000
# 2 38.0032 71.7031 46.1151 0.0000 0.0000 0.0000
# 3 46.1144 46.1151 104.3054 0.0000 0.0000 0.0000
# 4 0.0000 0.0000 0.0000 16.3444 0.0000 0.0000
# 5 0.0000 0.0000 0.0000 0.0000 16.3447 0.0000
# 6 0.0000 0.0000 0.0000 0.0000 0.0000 0.8541
#
#
#
# Elastic Compliance Matrix: (Units=1/GPa)
#
#
# Indices 1 2 3 4 5 6 
#
# 1 0.022093 -0.007584 -0.006414 0.000000 0.000000 0.000000
# 2 -0.007584 0.022091 -0.006414 0.000000 0.000000 0.000000
# 3 -0.006414 -0.006414 0.015259 0.000000 0.000000 0.000000
# 4 0.000000 0.000000 0.000000 0.061183 0.000000 0.000000
# 5 0.000000 0.000000 0.000000 0.000000 0.061182 0.000000
# 6 0.000000 0.000000 0.000000 0.000000 0.000000 1.170833
#
#
# Mechanical properties :
#
#
# Convention : Reuss Voigt Hill
#
# Bulk Modulus (GPa) = 53.71122 56.46351 55.08737
# Shear Modulus (GPa) = 3.57227 14.54021 9.05624
#
# Velocity S-wave (km/s) = 1.60958 3.24732 2.56280
# Velocity P-wave (km/s) = 6.51212 7.41684 6.97916
#
# Compressibility (1/GPa) = 0.01861808
#
# Stress axis : x y z
#
# Youngs Moduli (GPa) = 45.26324 45.26742 65.53602
#
# Poissons Ratio (x) = 0.34331 0.42038
# Poissons Ratio (y) = 0.34328 0.42033
# Poissons Ratio (z) = 0.29034 0.29034
#
# Static dielectric constant tensor:
#      x y z
#    x 2.529360 0.000000 0.000000 
#    y 0.000000 2.529360 0.000000 
#    z 0.000000 0.000000 2.925330 
# 
# 
# High freq. dielectric constant tensor:
#      x y z
#    x 1.490290 0.000000 0.000000 
#    y 0.000000 1.490290 0.000000 
#    z 0.000000 0.000000 1.542670 
# 
# From -- ./inp_files/1661.got.cif
#   From: 2010.03.12/outbox.cif.g09.slc.cpg/sg111_1_cif.got.tgz:1661.got - 2010.04.14 01:59:48.
