data_PCOD8308283
_publ_section_title
;
Structure prediction by ZEFSAII (Michael W. Deem and Ramdas Pophale) SiO2 
 PCOD8308283
Probable space group: P -4 2 M 
;
_chemical_formula_sum "Si O2"
_cell_formula_units_Z 64
_cell_length_a 20.677519
_cell_length_b 20.677519
_cell_length_c 8.915096
_cell_angle_alpha 90.000000
_cell_angle_beta 90.000000
_cell_angle_gamma 90.000000
_cell_volume 3811.736591
_symmetry_space_group_name_H-M "P -4 2 M "
_symmetry_group_IT_number 111
_symmetry_cell_setting 'tetragonal'
loop_
_space_group_symop_operation_xyz
x,y,z
y,-x,-z
-x,-y,z
-y,x,-z
x,-y,-z
-x,y,-z
-y,-x,z
y,x,z
loop_
_atom_site_type_symbol
_atom_site_label
_atom_site_fract_x
_atom_site_fract_y
_atom_site_fract_z
Si Si1 0.822195 0.720210 0.328390
Si Si2 0.387377 0.285753 0.335284
Si Si3 0.714249 0.387376 0.335282
Si Si4 0.635203 0.073586 0.171503
Si Si5 0.822196 0.720211 0.671609
Si Si6 0.364797 0.073587 0.171501
Si Si7 0.499999 0.893143 0.323646
Si Si8 0.238858 0.500000 0.168903
O O1 0.788081 0.788081 0.272134
O O2 0.769503 0.664976 0.314211
O O3 0.844400 0.729400 0.499999
O O4 0.883760 0.694980 0.234662
O O5 0.355650 0.355650 0.321833
O O6 0.419853 0.278394 0.500001
O O7 0.437633 0.282238 0.199685
O O8 0.644353 0.355648 0.321832
O O9 0.769507 0.335025 0.314207
O O10 0.717762 0.437633 0.199683
O O11 0.694982 0.116237 0.234664
O O12 0.566342 0.078342 0.256235
O O13 0.659238 0.999999 0.183324
O O14 0.622867 0.094575 0.000001
O O15 0.788081 0.788081 0.727864
O O16 0.433660 0.078343 0.256232
O O17 0.500000 0.907109 0.500000
O O18 0.499999 0.817552 0.291049
O O19 0.212286 0.500000 0.000000
#
# Coordination Sequence:
#
# PCOD8308283 Si02
#       8
#     8   8   8   8   8   8   8   8
#     4   9  18  33  53  75  98 128 168 209 245 287
#     4   9  18  33  52  72  94 123 160 202 247 296
#     4   9  18  33  52  72  94 123 160 202 247 296
#     4  11  23  36  50  73 105 137 170 208 250 296
#     4   9  18  33  53  75  98 128 168 209 245 287
#     4  11  23  36  50  73 105 137 170 208 250 296
#     4  12  23  35  50  69  97 137 179 210 241 287
#     4  12  22  31  49  75 101 125 157 202 252 298
#
# _framework density 16.790248999999999
#
# number of rings (size 3 to 8) (size 9 to 14) (size 15 to 20)
#    0.000    1.750    2.500    4.875    0.000    4.500 
#    0.000    2.500    0.000    0.375    0.000    2.625 
#    0.000    0.500    0.000    5.500    0.000    4.000 
#
# Total GULP energy -793032.266779 kJ/mol
# GULP energy per Si atom -12391.129168 kJ/mol
# Density = 1.675203 g / cm^3
# Si number density = 16.790249 Si / 1000 Ang^3
#
#
#
# Elastic Constant Matrix: (Units=GPa)
#
#
# Indices 1 2 3 4 5 6 
#
# 1 72.9907 51.5610 45.8582 0.0000 0.0000 0.0000
# 2 51.5610 72.9896 45.8579 0.0000 0.0000 0.0000
# 3 45.8582 45.8579 112.9395 0.0000 0.0000 0.0000
# 4 0.0000 0.0000 0.0000 25.1413 0.0000 0.0000
# 5 0.0000 0.0000 0.0000 0.0000 25.1413 0.0000
# 6 0.0000 0.0000 0.0000 0.0000 0.0000-5664.9211
#
#
#
# Elastic Compliance Matrix: (Units=1/GPa)
#
#
# Indices 1 2 3 4 5 6 
#
# 1 0.029059 -0.017606 -0.004650 0.000000 0.000000 0.000000
# 2 -0.017606 0.029060 -0.004651 0.000000 0.000000 0.000000
# 3 -0.004650 -0.004651 0.012631 0.000000 0.000000 0.000000
# 4 0.000000 0.000000 0.000000 0.039775 0.000000 0.000000
# 5 0.000000 0.000000 0.000000 0.000000 0.039775 0.000000
# 6 0.000000 0.000000 0.000000 0.000000 0.000000 -0.000177
#
#
# Mechanical properties :
#
#
# Convention : Reuss Voigt Hill
#
# Bulk Modulus (GPa) = 59.04755 60.60821 59.82788
# Shear Modulus (GPa) = 23.85692 -1115.21817 -545.68063
#
# Velocity S-wave (km/s) = 3.77354 -25.80015 -18.04727
# Velocity P-wave (km/s) = 7.36412 29.17798 19.96402
#
# Compressibility (1/GPa) = 0.01693550
#
# Stress axis : x y z
#
# Youngs Moduli (GPa) = 34.41257 34.41204 79.17087
#
# Poissons Ratio (x) = 0.60586 0.36818
# Poissons Ratio (y) = 0.60587 0.36819
# Poissons Ratio (z) = 0.16004 0.16004
#
# Static dielectric constant tensor:
#      x y z
#    x 2.991110 0.000000 0.000000 
#    y 0.000000 2.991180 0.000000 
#    z 0.000000 0.000000 3.222780 
# 
# 
# High freq. dielectric constant tensor:
#      x y z
#    x 1.627240 0.000000 0.000000 
#    y 0.000000 1.627240 0.000000 
#    z 0.000000 0.000000 1.652720 
# 
# From -- ./inp_files/2019.got.cif
#   From: 2010.03.12/outbox.cif.g09.slc.cpg/sg111_2_cif.got.tgz:2019.got - 2010.04.14 01:59:48.
