data_PCOD8308521
_publ_section_title
;
Structure prediction by ZEFSAII (Michael W. Deem and Ramdas Pophale) SiO2 
 PCOD8308521
Probable space group: P -4 21 M 
;
_chemical_formula_sum "Si O2"
_cell_formula_units_Z 64
_cell_length_a 17.106881
_cell_length_b 17.106881
_cell_length_c 12.481855
_cell_angle_alpha 90.000000
_cell_angle_beta 90.000000
_cell_angle_gamma 90.000000
_cell_volume 3652.757169
_symmetry_space_group_name_H-M "P -4 21 M "
_symmetry_group_IT_number 113
_symmetry_cell_setting 'tetragonal'
loop_
_space_group_symop_operation_xyz
x,y,z
y,-x,-z
-x,-y,z
-y,x,-z
1/2+x,1/2-y,-z
1/2-x,1/2+y,-z
1/2-y,1/2-x,z
1/2+y,1/2+x,z
loop_
_atom_site_type_symbol
_atom_site_label
_atom_site_fract_x
_atom_site_fract_y
_atom_site_fract_z
Si Si1 0.869078 0.755818 0.319315
Si Si2 0.702904 0.665770 0.885299
Si Si3 0.894241 0.734682 0.678844
Si Si4 0.175252 0.801042 0.488912
Si Si5 0.903457 0.724771 0.086755
Si Si6 0.706905 0.918891 0.853593
Si Si7 0.539057 0.776163 0.613504
Si Si8 0.124109 0.503849 0.580406
O O1 0.828269 0.671732 0.342220
O O2 0.820183 0.822398 0.383356
O O3 0.872657 0.770639 0.192176
O O4 0.954598 0.758728 0.367119
O O5 0.767412 0.732589 0.878238
O O6 0.709145 0.607515 0.782907
O O7 0.619109 0.709412 0.886194
O O8 0.715259 0.612540 0.990166
O O9 0.834682 0.665319 0.702693
O O10 0.871628 0.782330 0.572794
O O11 0.980254 0.697159 0.657052
O O12 0.219614 0.719614 0.464626
O O13 0.087836 0.792035 0.446035
O O14 0.856268 0.643733 0.070630
O O15 0.994954 0.702585 0.094359
O O16 0.634264 0.865737 0.895764
O O17 0.699619 0.921582 0.725191
O O18 0.534579 0.850185 0.535666
O O19 0.072981 0.572981 0.635619
O O20 0.072456 0.427545 0.559303
#
# Coordination Sequence:
#
# PCOD8308521 Si02
#       8
#     8   8   8   8   8   8   8   8
#     4   9  18  32  49  72 106 139 163 202 263 313
#     4   9  17  33  54  72  95 134 181 214 240 290
#     4   9  16  29  48  68  94 134 174 207 240 286
#     4  10  17  28  47  71  97 130 171 209 241 287
#     4   9  19  34  52  75 104 136 166 205 261 311
#     4  10  19  31  51  79 104 129 169 215 252 297
#     4  11  18  28  49  77 104 132 173 209 247 302
#     4  10  19  29  43  71 111 142 163 200 261 320
#
# _framework density 17.521011000000001
#
# number of rings (size 3 to 8) (size 9 to 14) (size 15 to 20)
#    0.000    2.375    2.500    1.500    0.000    0.750 
#    0.000    1.875    0.000    4.500    0.000    3.500 
#    0.000    0.000    0.000    0.000    0.000    0.000 
#
# Total GULP energy -793156.740230 kJ/mol
# GULP energy per Si atom -12393.074066 kJ/mol
# Density = 1.748113 g / cm^3
# Si number density = 17.521011 Si / 1000 Ang^3
#
#
#
# Elastic Constant Matrix: (Units=GPa)
#
#
# Indices 1 2 3 4 5 6 
#
# 1 66.4065 43.3765 40.2025 0.0000 0.0000 0.0000
# 2 43.3765 66.4072 40.2026 0.0000 0.0000 0.0000
# 3 40.2025 40.2026 100.4051 0.0000 0.0000 0.0000
# 4 0.0000 0.0000 0.0000 24.1690 0.0000 0.0000
# 5 0.0000 0.0000 0.0000 0.0000 24.1687 0.0000
# 6 0.0000 0.0000 0.0000 0.0000 0.0000 25.3522
#
#
#
# Elastic Compliance Matrix: (Units=1/GPa)
#
#
# Indices 1 2 3 4 5 6 
#
# 1 0.028155 -0.015266 -0.005161 0.000000 0.000000 0.000000
# 2 -0.015266 0.028155 -0.005161 0.000000 0.000000 0.000000
# 3 -0.005161 -0.005161 0.014092 0.000000 0.000000 0.000000
# 4 0.000000 0.000000 0.000000 0.041375 0.000000 0.000000
# 5 0.000000 0.000000 0.000000 0.000000 0.041376 0.000000
# 6 0.000000 0.000000 0.000000 0.000000 0.000000 0.039444
#
#
# Mechanical properties :
#
#
# Convention : Reuss Voigt Hill
#
# Bulk Modulus (GPa) = 52.01057 53.42021 52.71539
# Shear Modulus (GPa) = 19.98555 22.03382 21.00968
#
# Velocity S-wave (km/s) = 3.38103 3.55006 3.46658
# Velocity P-wave (km/s) = 6.70753 6.88181 6.79523
#
# Compressibility (1/GPa) = 0.01922686
#
# Stress axis : x y z
#
# Youngs Moduli (GPa) = 35.51782 35.51822 70.96090
#
# Poissons Ratio (x) = 0.54223 0.36620
# Poissons Ratio (y) = 0.54223 0.36620
# Poissons Ratio (z) = 0.18329 0.18329
#
# Static dielectric constant tensor:
#      x y z
#    x 3.143090 0.000000 0.000000 
#    y 0.000000 3.143090 0.000000 
#    z 0.000000 0.000000 3.409200 
# 
# 
# High freq. dielectric constant tensor:
#      x y z
#    x 1.655840 0.000000 0.000000 
#    y 0.000000 1.655840 0.000000 
#    z 0.000000 0.000000 1.673780 
# 
# From -- ./inp_files/2025.got.cif
#   From: 2010.03.12/outbox.cif.g09.slc.cpg/sg113_cif.got.tgz:2025.got - 2010.04.14 02:06:34.
