data_PCOD8308537
_publ_section_title
;
Structure prediction by ZEFSAII (Michael W. Deem and Ramdas Pophale) SiO2 
 PCOD8308537
Probable space group: P -4 21 M 
;
_chemical_formula_sum "Si O2"
_cell_formula_units_Z 64
_cell_length_a 12.403241
_cell_length_b 12.403241
_cell_length_c 22.879374
_cell_angle_alpha 90.000000
_cell_angle_beta 90.000000
_cell_angle_gamma 90.000000
_cell_volume 3519.771757
_symmetry_space_group_name_H-M "P -4 21 M "
_symmetry_group_IT_number 113
_symmetry_cell_setting 'tetragonal'
loop_
_space_group_symop_operation_xyz
x,y,z
y,-x,-z
-x,-y,z
-y,x,-z
1/2+x,1/2-y,-z
1/2-x,1/2+y,-z
1/2-y,1/2-x,z
1/2+y,1/2+x,z
loop_
_atom_site_type_symbol
_atom_site_label
_atom_site_fract_x
_atom_site_fract_y
_atom_site_fract_z
Si Si1 0.620963 0.454457 0.368226
Si Si2 0.210775 0.880557 0.554140
Si Si3 0.460890 0.660549 0.019118
Si Si4 0.890002 0.064875 0.253083
Si Si5 0.671910 0.003982 0.927475
Si Si6 0.517248 0.281222 0.437202
Si Si7 0.851586 0.173067 0.131462
Si Si8 0.175767 0.500788 0.683908
O O1 0.500000 0.500000 0.360148
O O2 0.710159 0.537552 0.391173
O O3 0.654485 0.415582 0.303218
O O4 0.613608 0.356765 0.413626
O O5 0.277587 0.777587 0.574529
O O6 0.087208 0.848564 0.542590
O O7 0.267114 0.934514 0.497243
O O8 0.423829 0.666854 0.086048
O O9 0.582627 0.616707 0.018491
O O10 0.456067 0.776469 0.988287
O O11 0.852747 0.125127 0.195622
O O12 0.788209 0.995162 0.279285
O O13 0.000000 0.000000 0.238503
O O14 0.594737 0.905264 0.943852
O O15 0.763785 0.963612 0.882231
O O16 0.602868 0.102868 0.899868
O O17 0.490609 0.195635 0.386384
O O18 0.751677 0.251677 0.125381
O O19 0.109008 0.390993 0.697091
O O20 0.104560 0.604560 0.702104
#
# Coordination Sequence:
#
# PCOD8308537 Si02
#       8
#     8   8   8   8   8   8   8   8
#     4   8  17  32  48  71  99 135 172 218 259 314
#     4  11  19  29  51  79 105 135 175 226 277 328
#     4   9  18  31  54  81 109 141 175 226 281 330
#     4  10  21  36  58  79 110 148 189 229 272 326
#     4   9  18  33  52  77 111 148 185 227 276 331
#     4  10  18  31  51  77 105 136 175 221 275 336
#     4  10  20  34  56  82 108 145 188 230 269 325
#     4  10  21  39  60  82 112 147 187 238 295 345
#
# _framework density 18.182998000000001
#
# number of rings (size 3 to 8) (size 9 to 14) (size 15 to 20)
#    0.000    2.375    1.250    2.250    3.500    0.500 
#    0.000    1.875    0.000    2.250    0.000    0.000 
#    0.000    0.000    0.000    0.000    0.000    0.000 
#
# Total GULP energy -793051.987676 kJ/mol
# GULP energy per Si atom -12391.437307 kJ/mol
# Density = 1.814161 g / cm^3
# Si number density = 18.182998 Si / 1000 Ang^3
#
#
#
# Elastic Constant Matrix: (Units=GPa)
#
#
# Indices 1 2 3 4 5 6 
#
# 1 69.4597 26.8385 35.0015 0.0000 0.0000 0.0000
# 2 26.8385 69.4607 35.0016 0.0000 0.0000 0.0000
# 3 35.0015 35.0016 127.5310 0.0000 0.0000 0.0000
# 4 0.0000 0.0000 0.0000 19.7452 0.0000 0.0000
# 5 0.0000 0.0000 0.0000 0.0000 19.7451 0.0000
# 6 0.0000 0.0000 0.0000 0.0000 0.0000 21.1564
#
#
#
# Elastic Compliance Matrix: (Units=1/GPa)
#
#
# Indices 1 2 3 4 5 6 
#
# 1 0.018218 -0.005245 -0.003560 0.000000 0.000000 0.000000
# 2 -0.005245 0.018217 -0.003560 0.000000 0.000000 0.000000
# 3 -0.003560 -0.003560 0.009796 0.000000 0.000000 0.000000
# 4 0.000000 0.000000 0.000000 0.050645 0.000000 0.000000
# 5 0.000000 0.000000 0.000000 0.000000 0.050645 0.000000
# 6 0.000000 0.000000 0.000000 0.000000 0.000000 0.047267
#
#
# Mechanical properties :
#
#
# Convention : Reuss Voigt Hill
#
# Bulk Modulus (GPa) = 46.51357 51.12607 48.81982
# Shear Modulus (GPa) = 22.05697 23.43665 22.74681
#
# Velocity S-wave (km/s) = 3.48667 3.59406 3.54078
# Velocity P-wave (km/s) = 6.46881 6.73807 6.60481
#
# Compressibility (1/GPa) = 0.02149910
#
# Stress axis : x y z
#
# Youngs Moduli (GPa) = 54.89220 54.89307 102.08708
#
# Poissons Ratio (x) = 0.28791 0.36347
# Poissons Ratio (y) = 0.28790 0.36347
# Poissons Ratio (z) = 0.19544 0.19544
#
# Static dielectric constant tensor:
#      x y z
#    x 3.332770 0.000000 0.000000 
#    y 0.000000 3.332770 0.000000 
#    z 0.000000 0.000000 3.329200 
# 
# 
# High freq. dielectric constant tensor:
#      x y z
#    x 1.693300 0.000000 0.000000 
#    y 0.000000 1.693300 0.000000 
#    z 0.000000 0.000000 1.695110 
# 
# From -- ./inp_files/2879.got.cif
#   From: 2010.03.12/outbox.cif.g09.slc.cpg/sg113_cif.got.tgz:2879.got - 2010.04.14 02:06:34.
