data_PCOD8308613
_publ_section_title
;
Structure prediction by ZEFSAII (Michael W. Deem and Ramdas Pophale) SiO2 
 PCOD8308613
Probable space group: P -4 21 M 
;
_chemical_formula_sum "Si O2"
_cell_formula_units_Z 64
_cell_length_a 12.567383
_cell_length_b 12.567383
_cell_length_c 21.797786
_cell_angle_alpha 90.000000
_cell_angle_beta 90.000000
_cell_angle_gamma 90.000000
_cell_volume 3442.723040
_symmetry_space_group_name_H-M "P -4 21 M "
_symmetry_group_IT_number 113
_symmetry_cell_setting 'tetragonal'
loop_
_space_group_symop_operation_xyz
x,y,z
y,-x,-z
-x,-y,z
-y,x,-z
1/2+x,1/2-y,-z
1/2-x,1/2+y,-z
1/2-y,1/2-x,z
1/2+y,1/2+x,z
loop_
_atom_site_type_symbol
_atom_site_label
_atom_site_fract_x
_atom_site_fract_y
_atom_site_fract_z
Si Si1 0.703381 0.379450 0.936767
Si Si2 0.212771 0.886995 0.535417
Si Si3 0.214740 0.543354 0.372853
Si Si4 0.196489 0.871110 0.068331
Si Si5 0.882402 0.790332 0.600247
Si Si6 0.233090 0.900539 0.737613
Si Si7 0.219763 0.106267 0.357000
Si Si8 0.994755 0.876757 0.150128
O O1 0.808281 0.308281 0.921581
O O2 0.731282 0.504860 0.931376
O O3 0.607962 0.350394 0.891038
O O4 0.659999 0.354064 0.003773
O O5 0.281977 0.781977 0.529459
O O6 0.167190 0.915283 0.468018
O O7 0.123667 0.862996 0.586840
O O8 0.281269 0.985650 0.561074
O O9 0.105744 0.605744 0.372823
O O10 0.316547 0.619607 0.364455
O O11 0.208865 0.462146 0.316993
O O12 0.300699 0.800699 0.083230
O O13 0.105054 0.844509 0.117789
O O14 0.816996 0.683005 0.592048
O O15 0.981281 0.757897 0.642855
O O16 0.319171 0.819171 0.766626
O O17 0.136026 0.833622 0.708031
O O18 0.191753 0.982841 0.788237
O O19 0.328623 0.171378 0.366272
O O20 0.000000 0.000000 0.167302
#
# Coordination Sequence:
#
# PCOD8308613 Si02
#       8
#     8   8   8   8   8   8   8   8
#     4  10  19  35  59  85 121 159 193 235 282 336
#     4   9  18  32  50  74  99 132 172 215 267 325
#     4  10  21  35  52  75 107 142 176 219 275 335
#     4  10  20  35  57  88 122 154 193 238 284 334
#     4  10  20  32  50  75 103 132 171 220 273 328
#     4  10  22  38  57  81 107 143 185 226 271 325
#     4   9  19  35  52  70 101 133 173 221 264 321
#     4  10  21  35  61  86 112 149 195 237 278 332
#
# _framework density 18.589935000000001
#
# number of rings (size 3 to 8) (size 9 to 14) (size 15 to 20)
#    0.000    2.250    1.250    2.250    1.750    5.000 
#    0.000    3.750    0.000    1.125    0.000    1.750 
#    0.000    0.000    0.000    0.000    0.000    0.000 
#
# Total GULP energy -793416.022351 kJ/mol
# GULP energy per Si atom -12397.125349 kJ/mol
# Density = 1.854762 g / cm^3
# Si number density = 18.589935 Si / 1000 Ang^3
#
#
#
# Elastic Constant Matrix: (Units=GPa)
#
#
# Indices 1 2 3 4 5 6 
#
# 1 87.9293 32.8655 28.4440 0.0000 0.0000 0.0000
# 2 32.8655 87.9292 28.4461 0.0000 0.0000 0.0000
# 3 28.4440 28.4461 62.4401 0.0000 0.0000 0.0000
# 4 0.0000 0.0000 0.0000 21.7101 0.0000 0.0000
# 5 0.0000 0.0000 0.0000 0.0000 21.7099 0.0000
# 6 0.0000 0.0000 0.0000 0.0000 0.0000 21.8002
#
#
#
# Elastic Compliance Matrix: (Units=1/GPa)
#
#
# Indices 1 2 3 4 5 6 
#
# 1 0.014350 -0.003810 -0.004801 0.000000 0.000000 0.000000
# 2 -0.003810 0.014350 -0.004802 0.000000 0.000000 0.000000
# 3 -0.004801 -0.004802 0.020390 0.000000 0.000000 0.000000
# 4 0.000000 0.000000 0.000000 0.046061 0.000000 0.000000
# 5 0.000000 0.000000 0.000000 0.000000 0.046062 0.000000
# 6 0.000000 0.000000 0.000000 0.000000 0.000000 0.045871
#
#
# Mechanical properties :
#
#
# Convention : Reuss Voigt Hill
#
# Bulk Modulus (GPa) = 44.91605 46.42329 45.66967
# Shear Modulus (GPa) = 22.59036 22.94692 22.76864
#
# Velocity S-wave (km/s) = 3.48974 3.51718 3.50349
# Velocity P-wave (km/s) = 6.36016 6.44364 6.40204
#
# Compressibility (1/GPa) = 0.02226375
#
# Stress axis : x y z
#
# Youngs Moduli (GPa) = 69.68585 69.68402 49.04349
#
# Poissons Ratio (x) = 0.26553 0.23546
# Poissons Ratio (y) = 0.26554 0.23550
# Poissons Ratio (z) = 0.33457 0.33462
#
# Static dielectric constant tensor:
#      x y z
#    x 3.372810 0.000000 0.000000 
#    y 0.000000 3.372800 0.000000 
#    z 0.000000 0.000000 3.326750 
# 
# 
# High freq. dielectric constant tensor:
#      x y z
#    x 1.718600 0.000000 0.000000 
#    y 0.000000 1.718600 0.000000 
#    z 0.000000 0.000000 1.710540 
# 
# From -- ./inp_files/2886.got.cif
#   From: 2010.03.12/outbox.cif.g09.slc.cpg/sg113_cif.got.tgz:2886.got - 2010.04.14 02:06:34.
