data_PCOD8308558
_publ_section_title
;
Structure prediction by ZEFSAII (Michael W. Deem and Ramdas Pophale) SiO2 
 PCOD8308558
Probable space group: P -4 21 M 
;
_chemical_formula_sum "Si O2"
_cell_formula_units_Z 64
_cell_length_a 11.639766
_cell_length_b 11.639766
_cell_length_c 27.018973
_cell_angle_alpha 90.000000
_cell_angle_beta 90.000000
_cell_angle_gamma 90.000000
_cell_volume 3660.642659
_symmetry_space_group_name_H-M "P -4 21 M "
_symmetry_group_IT_number 113
_symmetry_cell_setting 'tetragonal'
loop_
_space_group_symop_operation_xyz
x,y,z
y,-x,-z
-x,-y,z
-y,x,-z
1/2+x,1/2-y,-z
1/2-x,1/2+y,-z
1/2-y,1/2-x,z
1/2+y,1/2+x,z
loop_
_atom_site_type_symbol
_atom_site_label
_atom_site_fract_x
_atom_site_fract_y
_atom_site_fract_z
Si Si1 0.854672 0.173042 0.613343
Si Si2 0.506175 0.814757 0.584935
Si Si3 0.501858 0.814698 0.208643
Si Si4 0.844255 0.838222 0.047318
Si Si5 0.006123 0.312628 0.678807
Si Si6 0.592729 0.726134 0.941228
Si Si7 0.626918 0.528072 0.873044
Si Si8 0.172867 0.054019 0.493269
O O1 0.755762 0.255762 0.633813
O O2 0.968335 0.198948 0.647007
O O3 0.885507 0.208503 0.557541
O O4 0.800137 0.041704 0.614408
O O5 0.613377 0.886624 0.610206
O O6 0.549448 0.779537 0.530544
O O7 0.398416 0.898416 0.577896
O O8 0.626611 0.873390 0.203347
O O9 0.482460 0.771806 0.264611
O O10 0.495029 0.707060 0.173114
O O11 0.404961 0.904961 0.193008
O O12 0.733516 0.766485 0.062866
O O13 0.955917 0.761419 0.058876
O O14 0.841156 0.952055 0.079679
O O15 0.844546 0.868916 0.989570
O O16 0.910337 0.410337 0.673817
O O17 0.128269 0.371732 0.661778
O O18 0.647079 0.852922 0.940439
O O19 0.635597 0.658615 0.892385
O O20 0.500000 0.500000 0.853902
O O21 0.073022 0.127487 0.519844
#
# Coordination Sequence:
#
# PCOD8308558 Si02
#       8
#     8   8   8   8   8   8   8   8
#     4   9  16  27  45  68  91 122 156 190 231 282
#     4   9  17  28  42  62  89 122 157 193 229 273
#     4   9  17  31  51  75 100 121 151 201 250 291
#     4  10  19  31  46  65  93 125 159 195 228 274
#     4   8  15  28  47  71  97 121 148 191 247 295
#     4  10  19  31  46  65  93 127 158 191 230 273
#     4  10  19  30  50  69  94 127 161 190 230 282
#     4   9  17  28  42  61  90 120 154 189 231 278
#
# _framework density 17.483269
#
# number of rings (size 3 to 8) (size 9 to 14) (size 15 to 20)
#    0.000    2.750    1.250    1.875    0.000    1.250 
#    0.000    1.250    5.500    0.000    0.000    3.500 
#    0.000    8.000    0.000    0.000    0.000    0.000 
#
# Total GULP energy -792916.030978 kJ/mol
# GULP energy per Si atom -12389.312984 kJ/mol
# Density = 1.744348 g / cm^3
# Si number density = 17.483269 Si / 1000 Ang^3
#
#
#
# Elastic Constant Matrix: (Units=GPa)
#
#
# Indices 1 2 3 4 5 6 
#
# 1 58.0222 29.9879 30.8767 0.0000 0.0000 0.0000
# 2 29.9879 58.0203 30.8762 0.0000 0.0000 0.0000
# 3 30.8767 30.8762 66.0599 0.0000 0.0000 0.0000
# 4 0.0000 0.0000 0.0000 18.5296 0.0000 0.0000
# 5 0.0000 0.0000 0.0000 0.0000 18.5294 0.0000
# 6 0.0000 0.0000 0.0000 0.0000 0.0000 24.8571
#
#
#
# Elastic Compliance Matrix: (Units=1/GPa)
#
#
# Indices 1 2 3 4 5 6 
#
# 1 0.026289 -0.009382 -0.007902 0.000000 0.000000 0.000000
# 2 -0.009382 0.026290 -0.007903 0.000000 0.000000 0.000000
# 3 -0.007902 -0.007903 0.022525 0.000000 0.000000 0.000000
# 4 0.000000 0.000000 0.000000 0.053968 0.000000 0.000000
# 5 0.000000 0.000000 0.000000 0.000000 0.053968 0.000000
# 6 0.000000 0.000000 0.000000 0.000000 0.000000 0.040230
#
#
# Mechanical properties :
#
#
# Convention : Reuss Voigt Hill
#
# Bulk Modulus (GPa) = 40.43715 40.62044 40.52880
# Shear Modulus (GPa) = 17.73755 18.40733 18.07244
#
# Velocity S-wave (km/s) = 3.18865 3.24829 3.21861
# Velocity P-wave (km/s) = 6.06101 6.11170 6.08641
#
# Compressibility (1/GPa) = 0.02472973
#
# Stress axis : x y z
#
# Youngs Moduli (GPa) = 38.03854 38.03723 44.39494
#
# Poissons Ratio (x) = 0.35687 0.35083
# Poissons Ratio (y) = 0.35688 0.35084
# Poissons Ratio (z) = 0.30060 0.30059
#
# Static dielectric constant tensor:
#      x y z
#    x 3.298580 0.000000 0.000000 
#    y 0.000000 3.298580 0.000000 
#    z 0.000000 0.000000 3.033820 
# 
# 
# High freq. dielectric constant tensor:
#      x y z
#    x 1.670040 0.000000 0.000000 
#    y 0.000000 1.670040 0.000000 
#    z 0.000000 0.000000 1.645650 
# 
# From -- ./inp_files/2925.got.cif
#   From: 2010.03.12/outbox.cif.g09.slc.cpg/sg113_cif.got.tgz:2925.got - 2010.04.14 02:06:34.
