data_PCOD8308051
_publ_section_title
;
Structure prediction by ZEFSAII (Michael W. Deem and Ramdas Pophale) SiO2 
 PCOD8308051
Probable space group: I 41 C D
;
_chemical_formula_sum "Si O2"
_cell_formula_units_Z 120
_cell_length_a 14.927177
_cell_length_b 14.927177
_cell_length_c 26.847261
_cell_angle_alpha 90.000000
_cell_angle_beta 90.000000
_cell_angle_gamma 90.000000
_cell_volume 5982.123158
_symmetry_space_group_name_H-M "I 41 C D"
_symmetry_group_IT_number 110
_symmetry_cell_setting 'tetragonal'
loop_
_space_group_symop_operation_xyz
x,y,z
-y,1/2+x,1/4+z
-x,-y,z
y,1/2-x,1/4+z
-x,y,1/2+z
x,-y,1/2+z
1/2-y,-x,1/4+z
1/2+y,x,1/4+z
1/2+x,1/2+y,1/2+z
1/2-y,x,3/4+z
1/2-x,1/2-y,1/2+z
1/2+y,-x,3/4+z
1/2-x,1/2+y,z
1/2+x,1/2-y,z
-y,1/2-x,3/4+z
y,1/2+x,3/4+z
loop_
_atom_site_type_symbol
_atom_site_label
_atom_site_fract_x
_atom_site_fract_y
_atom_site_fract_z
Si Si1 0.500000 0.500000 0.244350
Si Si2 0.104223 0.513629 0.153175
Si Si3 0.383029 0.364745 0.807098
Si Si4 0.685102 0.146840 0.831817
Si Si5 0.565004 0.763273 0.724178
Si Si6 0.712757 0.168431 0.158889
Si Si7 0.084102 0.951110 0.004176
Si Si8 0.094240 0.145970 0.685395
O O1 0.562594 0.441661 0.279361
O O2 0.567559 0.550961 0.207814
O O3 0.147635 0.581847 0.113315
O O4 0.162539 0.424504 0.150457
O O5 0.112322 0.555746 0.208103
O O6 0.000000 0.500000 0.139162
O O7 0.277951 0.388757 0.809120
O O8 0.395731 0.274528 0.775568
O O9 0.697889 0.247965 0.854476
O O10 0.607592 0.145285 0.790517
O O11 0.651259 0.080329 0.875683
O O12 0.642193 0.759530 0.681413
O O13 0.538511 0.865428 0.733031
O O14 0.471412 0.718293 0.709365
O O15 0.799123 0.161762 0.196454
O O16 0.000000 0.000000 0.030869
#
# Coordination Sequence:
#
# PCOD8308051 Si02
#       8
#     8  16  16  16  16  16  16  16
#     4  10  22  44  68  90 130 180 224 276 350 410
#     4  11  21  41  68  92 135 177 231 276 344 415
#     4  11  24  40  65 100 127 180 222 282 339 418
#     4  10  25  40  63 102 134 172 227 281 346 408
#     4  11  22  44  66  98 134 179 224 277 353 409
#     4  10  23  44  64  99 132 184 219 286 350 404
#     4  11  23  41  67  95 132 179 224 280 336 412
#     4   9  24  43  66  94 138 172 221 288 340 415
#
# _framework density 20.059766
#
# number of rings (size 3 to 8) (size 9 to 14) (size 15 to 20)
#    0.800    0.800    3.333    1.600    4.667    0.000 
#    4.800    0.000    0.000    0.000    0.000    0.000 
#    0.000    0.000    0.000    0.000    0.000    0.000 
#
# Total GULP energy -743476.198559 kJ/mol
# GULP energy per Si atom -12391.269976 kJ/mol
# Density = 2.001411 g / cm^3
# Si number density = 20.059766 Si / 1000 Ang^3
#
#
#
# Elastic Constant Matrix: (Units=GPa)
#
#
# Indices 1 2 3 4 5 6 
#
# 1 101.7483 33.5970 32.4915 0.0000 0.0000 0.0000
# 2 33.5970 101.7483 32.4915 0.0000 0.0000 0.0000
# 3 32.4915 32.4915 95.4992 0.0000 0.0000 0.0000
# 4 0.0000 0.0000 0.0000 25.8244 0.0000 0.0000
# 5 0.0000 0.0000 0.0000 0.0000 25.8244 0.0000
# 6 0.0000 0.0000 0.0000 0.0000 0.0000 29.2832
#
#
#
# Elastic Compliance Matrix: (Units=1/GPa)
#
#
# Indices 1 2 3 4 5 6 
#
# 1 0.011752 -0.002921 -0.003005 0.000000 0.000000 0.000000
# 2 -0.002921 0.011752 -0.003005 0.000000 0.000000 0.000000
# 3 -0.003005 -0.003005 0.012516 0.000000 0.000000 0.000000
# 4 0.000000 0.000000 0.000000 0.038723 0.000000 0.000000
# 5 0.000000 0.000000 0.000000 0.000000 0.038723 0.000000
# 6 0.000000 0.000000 0.000000 0.000000 0.000000 0.034149
#
#
# Mechanical properties :
#
#
# Convention : Reuss Voigt Hill
#
# Bulk Modulus (GPa) = 55.06723 55.12844 55.09783
# Shear Modulus (GPa) = 29.14957 29.54747 29.34852
#
# Velocity S-wave (km/s) = 3.81614 3.84210 3.82914
# Velocity P-wave (km/s) = 6.85043 6.87197 6.86121
#
# Compressibility (1/GPa) = 0.01815962
#
# Stress axis : x y z
#
# Youngs Moduli (GPa) = 85.09074 85.09074 79.89918
#
# Poissons Ratio (x) = 0.24856 0.24006
# Poissons Ratio (y) = 0.24856 0.24006
# Poissons Ratio (z) = 0.25566 0.25566
#
# Static dielectric constant tensor:
#      x y z
#    x 3.596330 0.000000 0.000000 
#    y 0.000000 3.596330 0.000000 
#    z 0.000000 0.000000 3.710850 
# 
# 
# High freq. dielectric constant tensor:
#      x y z
#    x 1.781080 0.000000 0.000000 
#    y 0.000000 1.781080 0.000000 
#    z 0.000000 0.000000 1.781880 
# 
# From -- ./inp_files/3292.got.cif
#   From: 2010.03.12/outbox.cif.g09.slc.cpg/sg110_2_cif.got.tgz:3292.got - 2010.04.14 01:58:01.
