data_PCOD8308759
_publ_section_title
;
Structure prediction by ZEFSAII (Michael W. Deem and Ramdas Pophale) SiO2 
 PCOD8308759
Probable space group: P -4 21 M 
;
_chemical_formula_sum "Si O2"
_cell_formula_units_Z 40
_cell_length_a 20.605331
_cell_length_b 20.605331
_cell_length_c 4.998967
_cell_angle_alpha 90.000000
_cell_angle_beta 90.000000
_cell_angle_gamma 90.000000
_cell_volume 2122.459737
_symmetry_space_group_name_H-M "P -4 21 M "
_symmetry_group_IT_number 113
_symmetry_cell_setting 'tetragonal'
loop_
_space_group_symop_operation_xyz
x,y,z
y,-x,-z
-x,-y,z
-y,x,-z
1/2+x,1/2-y,-z
1/2-x,1/2+y,-z
1/2-y,1/2-x,z
1/2+y,1/2+x,z
loop_
_atom_site_type_symbol
_atom_site_label
_atom_site_fract_x
_atom_site_fract_y
_atom_site_fract_z
Si Si1 0.071008 0.928992 0.500000
Si Si2 0.750726 0.147359 0.884749
Si Si3 0.852641 0.249274 0.115251
Si Si4 0.572382 0.710501 0.363014
Si Si5 0.927618 0.789499 0.636986
O O1 0.076000 0.867384 0.700568
O O2 0.132616 0.924000 0.299432
O O3 1.000000 0.924720 0.351301
O O4 0.679905 0.179905 0.860419
O O5 0.771600 0.122870 0.594641
O O6 0.801437 0.198563 1.000000
O O7 0.749404 0.088319 0.095116
O O8 0.820095 0.320095 0.139581
O O9 0.877130 0.228400 0.405359
O O10 0.911681 0.250596 0.904883
O O11 0.500000 0.730257 0.452957
#
# Coordination Sequence:
#
# PCOD8308759 Si02
#       5
#     8   8   8   8   8
#     4   9  18  32  49  70 104 148 187 220 252 291
#     4  11  21  36  54  76 106 142 179 215 270 317
#     4  11  21  36  54  76 106 142 179 215 270 317
#     4  11  21  36  54  78 107 139 185 223 257 303
#     4  11  21  36  54  78 107 139 185 223 257 303
#
# _framework density 18.846056999999998
#
# number of rings (size 3 to 8) (size 9 to 14) (size 15 to 20)
#    0.000    1.400    4.000    2.400    0.000    3.200 
#    0.000    2.000    0.000    9.600    0.000    0.000 
#    0.000   56.000    0.000    0.000    0.000    0.000 
#
# Total GULP energy -495585.754398 kJ/mol
# GULP energy per Si atom -12389.643860 kJ/mol
# Density = 1.880316 g / cm^3
# Si number density = 18.846057 Si / 1000 Ang^3
#
#
#
# Elastic Constant Matrix: (Units=GPa)
#
#
# Indices 1 2 3 4 5 6 
#
# 1 89.4614 65.6640 30.3795 0.0000 0.0000 0.0000
# 2 65.6640 89.4614 30.3795 0.0000 0.0000 0.0000
# 3 30.3795 30.3795 85.8302 0.0000 0.0000 0.0000
# 4 0.0000 0.0000 0.0000 21.0056 0.0000 0.0000
# 5 0.0000 0.0000 0.0000 0.0000 21.0056 0.0000
# 6 0.0000 0.0000 0.0000 0.0000 0.0000 28.9675
#
#
#
# Elastic Compliance Matrix: (Units=1/GPa)
#
#
# Indices 1 2 3 4 5 6 
#
# 1 0.024753 -0.017269 -0.002649 0.000000 0.000000 0.000000
# 2 -0.017269 0.024753 -0.002649 0.000000 0.000000 0.000000
# 3 -0.002649 -0.002649 0.013526 0.000000 0.000000 0.000000
# 4 0.000000 0.000000 0.000000 0.047606 0.000000 0.000000
# 5 0.000000 0.000000 0.000000 0.000000 0.047606 0.000000
# 6 0.000000 0.000000 0.000000 0.000000 0.000000 0.034521
#
#
# Mechanical properties :
#
#
# Convention : Reuss Voigt Hill
#
# Bulk Modulus (GPa) = 55.87147 57.51099 56.69123
# Shear Modulus (GPa) = 20.50320 23.41777 21.96048
#
# Velocity S-wave (km/s) = 3.30196 3.52885 3.41729
# Velocity P-wave (km/s) = 6.65190 6.86922 6.76143
#
# Compressibility (1/GPa) = 0.01789822
#
# Stress axis : x y z
#
# Youngs Moduli (GPa) = 40.39976 40.39976 73.93126
#
# Poissons Ratio (x) = 0.69765 0.19584
# Poissons Ratio (y) = 0.69765 0.19584
# Poissons Ratio (z) = 0.10702 0.10702
#
# Static dielectric constant tensor:
#      x y z
#    x 3.643100 0.000000 0.000000 
#    y 0.000000 3.643100 0.000000 
#    z 0.000000 0.000000 3.314210 
# 
# 
# High freq. dielectric constant tensor:
#      x y z
#    x 1.719990 0.000000 0.000000 
#    y 0.000000 1.719990 0.000000 
#    z 0.000000 0.000000 1.712080 
# 
# From -- ./inp_files/338.got.cif
#   From: 2010.03.12/outbox.cif.g09.slc.cpg/sg113_cif.got.tgz:338.got - 2010.04.14 02:06:34.
