data_PCOD8309844
_publ_section_title
;
Structure prediction by ZEFSAII (Michael W. Deem and Ramdas Pophale) SiO2 
 PCOD8309844
Probable space group: P -4 M 2
;
_chemical_formula_sum "Si O2"
_cell_formula_units_Z 48
_cell_length_a 9.114077
_cell_length_b 9.114077
_cell_length_c 30.855302
_cell_angle_alpha 90.000000
_cell_angle_beta 90.000000
_cell_angle_gamma 90.000000
_cell_volume 2563.038845
_symmetry_space_group_name_H-M "P -4 M 2"
_symmetry_group_IT_number 115
_symmetry_cell_setting 'tetragonal'
loop_
_space_group_symop_operation_xyz
x,y,z
y,-x,-z
-x,-y,z
-y,x,-z
y,x,-z
-y,-x,-z
-x,y,z
x,-y,z
loop_
_atom_site_type_symbol
_atom_site_label
_atom_site_fract_x
_atom_site_fract_y
_atom_site_fract_z
Si Si1 0.327469 0.831242 0.961541
Si Si2 0.332888 0.328876 0.295536
Si Si3 0.828193 0.672196 0.539636
Si Si4 0.828375 0.168590 0.124791
Si Si5 0.670390 0.172095 0.617280
Si Si6 0.329514 0.829771 0.210054
O O1 0.500000 0.811105 0.958853
O O2 0.259408 0.773523 0.916618
O O3 0.282313 0.000000 0.969707
O O4 0.266467 0.733534 0.000000
O O5 0.500000 0.278840 0.305569
O O6 0.325657 0.500000 0.286244
O O7 0.230238 0.284494 0.335520
O O8 0.269679 0.249570 0.252991
O O9 0.741870 0.741870 0.500000
O O10 0.795033 0.500000 0.541105
O O11 0.772392 0.744653 0.583578
O O12 0.000000 0.704048 0.533830
O O13 0.751014 0.232947 0.167594
O O14 0.000000 0.187497 0.131879
O O15 0.783256 0.000000 0.117101
O O16 0.500000 0.206794 0.607223
O O17 0.702191 0.000000 0.614723
O O18 0.500000 0.797027 0.203932
O O19 0.294073 0.000000 0.215725
#
# Coordination Sequence:
#
# PCOD8309844 Si02
#       6
#     8   8   8   8   8   8
#     4  10  21  36  54  77 104 135 172 214 261 313
#     4   9  18  33  52  74 103 140 178 215 260 314
#     4  11  24  40  59  84 112 143 180 221 266 317
#     4   9  18  33  52  73  99 133 171 210 256 312
#     4  10  21  37  57  82 111 143 181 223 267 316
#     4   9  18  32  50  73 101 133 171 215 260 307
#
# _framework density 18.727768999999999
#
# number of rings (size 3 to 8) (size 9 to 14) (size 15 to 20)
#    0.000    2.333    0.000    2.000    0.000    8.000 
#    0.000    3.333    0.000    0.000    0.000    0.000 
#    0.000    0.000    0.000    0.000    0.000    0.000 
#
# Total GULP energy -595358.690458 kJ/mol
# GULP energy per Si atom -12403.306051 kJ/mol
# Density = 1.868514 g / cm^3
# Si number density = 18.727769 Si / 1000 Ang^3
#
#
#
# Elastic Constant Matrix: (Units=GPa)
#
#
# Indices 1 2 3 4 5 6 
#
# 1 74.3117 48.1005 69.0076 0.0000 0.0000 0.0000
# 2 48.1005 74.3130 69.0091 0.0000 0.0000 0.0000
# 3 69.0076 69.0091 171.1404 0.0000 0.0000 0.0000
# 4 0.0000 0.0000 0.0000 40.2176 0.0000 0.0000
# 5 0.0000 0.0000 0.0000 0.0000 40.2176 0.0000
# 6 0.0000 0.0000 0.0000 0.0000 0.0000 24.9421
#
#
#
# Elastic Compliance Matrix: (Units=1/GPa)
#
#
# Indices 1 2 3 4 5 6 
#
# 1 0.026565 -0.011586 -0.006040 0.000000 0.000000 0.000000
# 2 -0.011586 0.026565 -0.006040 0.000000 0.000000 0.000000
# 3 -0.006040 -0.006040 0.010714 0.000000 0.000000 0.000000
# 4 0.000000 0.000000 0.000000 0.024865 0.000000 0.000000
# 5 0.000000 0.000000 0.000000 0.000000 0.024865 0.000000
# 6 0.000000 0.000000 0.000000 0.000000 0.000000 0.040093
#
#
# Mechanical properties :
#
#
# Convention : Reuss Voigt Hill
#
# Bulk Modulus (GPa) = 60.56115 76.88884 68.72500
# Shear Modulus (GPa) = 24.21291 29.98532 27.09912
#
# Velocity S-wave (km/s) = 3.59958 4.00574 3.80807
# Velocity P-wave (km/s) = 7.04867 7.90821 7.49078
#
# Compressibility (1/GPa) = 0.01651224
#
# Stress axis : x y z
#
# Youngs Moduli (GPa) = 37.64373 37.64390 93.33563
#
# Poissons Ratio (x) = 0.43614 0.56372
# Poissons Ratio (y) = 0.43614 0.56375
# Poissons Ratio (z) = 0.22736 0.22737
#
# Static dielectric constant tensor:
#      x y z
#    x 3.411560 0.000000 0.000000 
#    y 0.000000 3.411560 0.000000 
#    z 0.000000 0.000000 3.694630 
# 
# 
# High freq. dielectric constant tensor:
#      x y z
#    x 1.722870 0.000000 0.000000 
#    y 0.000000 1.722870 0.000000 
#    z 0.000000 0.000000 1.742210 
# 
# From -- ./inp_files/5939.got.cif
#   From: 2010.03.12/outbox.cif.g09.slc.cpg/sg115_3_cif.got.tgz:5939.got - 2010.04.14 02:11:21.
