data_PCOD8309244
_publ_section_title
;
Structure prediction by ZEFSAII (Michael W. Deem and Ramdas Pophale) SiO2 
 PCOD8309244
Probable space group: P -4 M 2
;
_chemical_formula_sum "Si O2"
_cell_formula_units_Z 48
_cell_length_a 14.902189
_cell_length_b 14.902189
_cell_length_c 12.784728
_cell_angle_alpha 90.000000
_cell_angle_beta 90.000000
_cell_angle_gamma 90.000000
_cell_volume 2839.171500
_symmetry_space_group_name_H-M "P -4 M 2"
_symmetry_group_IT_number 115
_symmetry_cell_setting 'tetragonal'
loop_
_space_group_symop_operation_xyz
x,y,z
y,-x,-z
-x,-y,z
-y,x,-z
y,x,-z
-y,-x,-z
-x,y,z
x,-y,z
loop_
_atom_site_type_symbol
_atom_site_label
_atom_site_fract_x
_atom_site_fract_y
_atom_site_fract_z
Si Si1 0.777326 0.198362 0.171772
Si Si2 0.812549 0.187451 0.500000
Si Si3 0.396390 0.603611 0.500000
Si Si4 0.105871 0.689547 0.025320
Si Si5 0.108927 0.500000 0.718360
Si Si6 0.770534 0.656065 0.638695
Si Si7 0.900418 0.899338 0.318139
Si Si8 0.896605 0.500000 0.953855
O O1 0.724622 0.149934 0.080353
O O2 0.712605 0.248192 0.255040
O O3 0.832052 0.118114 0.224768
O O4 0.847165 0.271202 0.127811
O O5 0.714348 0.179241 0.449747
O O6 0.827326 0.113040 0.589297
O O7 0.500000 0.616512 0.539054
O O8 0.379828 0.674345 0.404657
O O9 0.128544 0.584402 0.025150
O O10 0.000000 0.710682 0.027626
O O11 0.153205 0.416112 0.661055
O O12 0.146132 0.500000 0.837797
O O13 0.000000 0.500000 0.706765
O O14 0.000000 0.888270 0.273115
O O15 0.883981 0.000000 0.361174
O O16 0.000000 0.500000 0.925736
#
# Coordination Sequence:
#
# PCOD8309244 Si02
#       8
#     8   4   4   8   4   8   8   4
#     4  10  20  32  50  74 104 137 169 220 265 303
#     4   9  20  32  50  72 102 137 168 214 256 303
#     4  10  20  37  62  81 102 138 174 224 274 322
#     4  10  19  33  51  73 101 136 178 214 258 313
#     4  11  20  32  55  82 109 136 171 222 266 312
#     4  10  20  36  53  81 108 132 176 217 267 324
#     4  10  19  31  47  69  99 137 179 214 249 301
#     4   9  18  32  52  74  97 132 174 212 255 312
#
# _framework density 16.906341999999999
#
# number of rings (size 3 to 8) (size 9 to 14) (size 15 to 20)
#    0.000    2.083    2.500    1.500    0.000    4.000 
#    1.500    0.000    0.000    4.000    0.000    0.000 
#    0.000    0.000    0.000    0.000    0.000    0.000 
#
# Total GULP energy -594812.849583 kJ/mol
# GULP energy per Si atom -12391.934366 kJ/mol
# Density = 1.686786 g / cm^3
# Si number density = 16.906342 Si / 1000 Ang^3
#
#
#
# Elastic Constant Matrix: (Units=GPa)
#
#
# Indices 1 2 3 4 5 6 
#
# 1 105.6614 55.0036 43.1100 0.0000 0.0000 0.0000
# 2 55.0036 105.6611 43.1104 0.0000 0.0000 0.0000
# 3 43.1100 43.1104 78.2060 0.0000 0.0000 0.0000
# 4 0.0000 0.0000 0.0000 28.2534 0.0000 0.0000
# 5 0.0000 0.0000 0.0000 0.0000 28.2533 0.0000
# 6 0.0000 0.0000 0.0000 0.0000 0.0000 26.5145
#
#
#
# Elastic Compliance Matrix: (Units=1/GPa)
#
#
# Indices 1 2 3 4 5 6 
#
# 1 0.014290 -0.005451 -0.004872 0.000000 0.000000 0.000000
# 2 -0.005451 0.014290 -0.004872 0.000000 0.000000 0.000000
# 3 -0.004872 -0.004872 0.018158 0.000000 0.000000 0.000000
# 4 0.000000 0.000000 0.000000 0.035394 0.000000 0.000000
# 5 0.000000 0.000000 0.000000 0.000000 0.035394 0.000000
# 6 0.000000 0.000000 0.000000 0.000000 0.000000 0.037715
#
#
# Mechanical properties :
#
#
# Convention : Reuss Voigt Hill
#
# Bulk Modulus (GPa) = 61.17408 63.55294 62.36351
# Shear Modulus (GPa) = 26.16698 26.49122 26.32910
#
# Velocity S-wave (km/s) = 3.93843 3.96275 3.95061
# Velocity P-wave (km/s) = 7.54614 7.65576 7.60115
#
# Compressibility (1/GPa) = 0.01634679
#
# Stress axis : x y z
#
# Youngs Moduli (GPa) = 69.98129 69.98061 55.07100
#
# Poissons Ratio (x) = 0.38145 0.26832
# Poissons Ratio (y) = 0.38145 0.26833
# Poissons Ratio (z) = 0.34097 0.34097
#
# Static dielectric constant tensor:
#      x y z
#    x 3.149550 0.000000 0.000000 
#    y 0.000000 3.149560 0.000000 
#    z 0.000000 0.000000 3.203450 
# 
# 
# High freq. dielectric constant tensor:
#      x y z
#    x 1.652170 0.000000 0.000000 
#    y 0.000000 1.652170 0.000000 
#    z 0.000000 0.000000 1.648420 
# 
# From -- ./inp_files/3038.got.cif
#   From: 2010.03.12/outbox.cif.g09.slc.cpg/sg115_2_cif.got.tgz:3038.got - 2010.04.14 02:11:21.
