data_PCOD8309847
_publ_section_title
;
Structure prediction by ZEFSAII (Michael W. Deem and Ramdas Pophale) SiO2 
 PCOD8309847
Probable space group: P -4 M 2
;
_chemical_formula_sum "Si O2"
_cell_formula_units_Z 40
_cell_length_a 9.212899
_cell_length_b 9.212899
_cell_length_c 25.682516
_cell_angle_alpha 90.000000
_cell_angle_beta 90.000000
_cell_angle_gamma 90.000000
_cell_volume 2179.867957
_symmetry_space_group_name_H-M "P -4 M 2"
_symmetry_group_IT_number 115
_symmetry_cell_setting 'tetragonal'
loop_
_space_group_symop_operation_xyz
x,y,z
y,-x,-z
-x,-y,z
-y,x,-z
y,x,-z
-y,-x,-z
-x,y,z
x,-y,z
loop_
_atom_site_type_symbol
_atom_site_label
_atom_site_fract_x
_atom_site_fract_y
_atom_site_fract_z
Si Si1 0.669220 0.669220 0.000000
Si Si2 0.332004 0.331403 0.797913
Si Si3 0.327341 0.836187 0.898833
Si Si4 0.170634 0.667034 0.396282
Si Si5 0.332615 0.170338 0.306119
Si Si6 0.332685 0.667315 0.500000
O O1 0.753510 0.730722 0.050177
O O2 0.699521 0.500000 0.990760
O O3 0.500000 0.295277 0.787103
O O4 0.309415 0.500000 0.810513
O O5 0.269787 0.242831 0.847015
O O6 0.241893 0.281752 0.747780
O O7 0.500000 0.830928 0.898887
O O8 0.268133 0.000000 0.899445
O O9 0.211785 0.500000 0.384670
O O10 0.234812 0.767353 0.351727
O O11 0.237327 0.717021 0.451107
O O12 0.000000 0.690650 0.398919
O O13 0.500000 0.208971 0.317645
O O14 0.307048 0.000000 0.301917
O O15 0.500000 0.695623 0.485719
#
# Coordination Sequence:
#
# PCOD8309847 Si02
#       6
#     4   8   8   8   8   4
#     4   9  16  28  48  71  94 122 158 199 242 290
#     4   9  17  31  52  75  98 127 165 208 252 298
#     4   9  17  29  47  72  98 124 159 203 247 291
#     4  10  21  36  55  80 108 138 173 212 255 304
#     4  10  21  36  54  77 105 137 173 213 257 305
#     4   9  18  34  56  79 104 136 174 215 256 299
#
# _framework density 18.349734999999999
#
# number of rings (size 3 to 8) (size 9 to 14) (size 15 to 20)
#    0.000    2.600    0.000    1.800    0.000    6.400 
#    0.000    5.000    0.000    6.300    0.000    0.000 
#    0.000    0.000    0.000    0.000    0.000    0.000 
#
# Total GULP energy -496110.394240 kJ/mol
# GULP energy per Si atom -12402.759856 kJ/mol
# Density = 1.830797 g / cm^3
# Si number density = 18.349735 Si / 1000 Ang^3
#
#
#
# Elastic Constant Matrix: (Units=GPa)
#
#
# Indices 1 2 3 4 5 6 
#
# 1 75.8076 41.5216 75.8228 0.0000 0.0000 0.0000
# 2 41.5216 75.8073 75.8230 0.0000 0.0000 0.0000
# 3 75.8228 75.8230 185.2605 0.0000 0.0000 0.0000
# 4 0.0000 0.0000 0.0000 1.8125 0.0000 0.0000
# 5 0.0000 0.0000 0.0000 0.0000 1.8122 0.0000
# 6 0.0000 0.0000 0.0000 0.0000 0.0000 18.1661
#
#
#
# Elastic Compliance Matrix: (Units=1/GPa)
#
#
# Indices 1 2 3 4 5 6 
#
# 1 0.023631 -0.005536 -0.007406 0.000000 0.000000 0.000000
# 2 -0.005536 0.023631 -0.007406 0.000000 0.000000 0.000000
# 3 -0.007406 -0.007406 0.011460 0.000000 0.000000 0.000000
# 4 0.000000 0.000000 0.000000 0.551732 0.000000 0.000000
# 5 0.000000 0.000000 0.000000 0.000000 0.551820 0.000000
# 6 0.000000 0.000000 0.000000 0.000000 0.000000 0.055047
#
#
# Mechanical properties :
#
#
# Convention : Reuss Voigt Hill
#
# Bulk Modulus (GPa) = 55.47406 80.35668 67.91537
# Shear Modulus (GPa) = 3.95562 13.93869 8.94716
#
# Velocity S-wave (km/s) = 1.46982 2.75910 2.21054
# Velocity P-wave (km/s) = 5.76000 7.35098 6.60358
#
# Compressibility (1/GPa) = 0.01802644
#
# Stress axis : x y z
#
# Youngs Moduli (GPa) = 42.31790 42.31751 87.26062
#
# Poissons Ratio (x) = 0.23426 0.64624
# Poissons Ratio (y) = 0.23426 0.64625
# Poissons Ratio (z) = 0.31340 0.31340
#
# Static dielectric constant tensor:
#      x y z
#    x 3.259860 0.000000 0.000000 
#    y 0.000000 3.259870 0.000000 
#    z 0.000000 0.000000 3.547570 
# 
# 
# High freq. dielectric constant tensor:
#      x y z
#    x 1.695910 0.000000 0.000000 
#    y 0.000000 1.695910 0.000000 
#    z 0.000000 0.000000 1.725640 
# 
# From -- ./inp_files/5567.got.cif
#   From: 2010.03.12/outbox.cif.g09.slc.cpg/sg115_3_cif.got.tgz:5567.got - 2010.04.14 02:11:21.
