data_PCOD8309473
_publ_section_title
;
Structure prediction by ZEFSAII (Michael W. Deem and Ramdas Pophale) SiO2 
 PCOD8309473
Probable space group: P -4 M 2
;
_chemical_formula_sum "Si O2"
_cell_formula_units_Z 44
_cell_length_a 9.064237
_cell_length_b 9.064237
_cell_length_c 28.831125
_cell_angle_alpha 90.000000
_cell_angle_beta 90.000000
_cell_angle_gamma 90.000000
_cell_volume 2368.776543
_symmetry_space_group_name_H-M "P -4 M 2"
_symmetry_group_IT_number 115
_symmetry_cell_setting 'tetragonal'
loop_
_space_group_symop_operation_xyz
x,y,z
y,-x,-z
-x,-y,z
-y,x,-z
y,x,-z
-y,-x,-z
-x,y,z
x,-y,z
loop_
_atom_site_type_symbol
_atom_site_label
_atom_site_fract_x
_atom_site_fract_y
_atom_site_fract_z
Si Si1 0.825222 0.668781 0.859326
Si Si2 0.835752 0.824601 0.050605
Si Si3 0.827937 0.672382 0.690477
Si Si4 0.171540 0.171540 0.500000
Si Si5 0.827800 0.327894 0.224954
Si Si6 0.166449 0.175911 0.400863
O O1 0.775851 0.500000 0.853787
O O2 0.768698 0.726452 0.909266
O O3 0.750426 0.765569 0.820222
O O4 0.000000 0.686050 0.854452
O O5 0.000000 0.760087 0.059847
O O6 0.844392 0.000000 0.050235
O O7 0.774239 0.774239 0.000000
O O8 0.797624 0.500000 0.693461
O O9 0.735458 0.751539 0.729709
O O10 0.769612 0.729924 0.640781
O O11 0.000000 0.709601 0.697534
O O12 0.235422 0.232878 0.450675
O O13 0.000000 0.204165 0.495636
O O14 0.793380 0.500000 0.221498
O O15 0.000000 0.293980 0.228241
O O16 0.000000 0.235722 0.392576
O O17 0.162085 0.000000 0.402949
#
# Coordination Sequence:
#
# PCOD8309473 Si02
#       6
#     8   8   8   4   8   8
#     4  10  20  34  54  80 107 135 168 205 248 298
#     4   8  14  27  49  75 102 134 171 208 244 282
#     4  10  20  33  51  76 103 131 165 204 248 300
#     4   7  10  18  36  64  94 123 158 200 244 285
#     4  11  24  39  54  73  97 128 168 211 255 303
#     4   8  13  23  42  68  96 126 162 204 246 286
#
# _framework density 18.574991000000001
#
# number of rings (size 3 to 8) (size 9 to 14) (size 15 to 20)
#    0.000    2.818    0.000    3.818    0.000    5.818 
#    0.000    0.909    0.000    4.364    0.000    5.091 
#    0.000    0.000    0.000    0.000    0.000    0.000 
#
# Total GULP energy -545258.306853 kJ/mol
# GULP energy per Si atom -12392.234247 kJ/mol
# Density = 1.853271 g / cm^3
# Si number density = 18.574991 Si / 1000 Ang^3
#
#
#
# Elastic Constant Matrix: (Units=GPa)
#
#
# Indices 1 2 3 4 5 6 
#
# 1 44.1298 20.5344 31.3390 0.0000 0.0000 0.0000
# 2 20.5344 44.1298 31.3390 0.0000 0.0000 0.0000
# 3 31.3390 31.3390 159.1746 0.0000 0.0000 0.0000
# 4 0.0000 0.0000 0.0000 -12.6960 0.0000 0.0000
# 5 0.0000 0.0000 0.0000 0.0000 -12.6960 0.0000
# 6 0.0000 0.0000 0.0000 0.0000 0.0000 17.6430
#
#
#
# Elastic Compliance Matrix: (Units=1/GPa)
#
#
# Indices 1 2 3 4 5 6 
#
# 1 0.030746 -0.011635 -0.003763 0.000000 0.000000 0.000000
# 2 -0.011635 0.030746 -0.003763 0.000000 0.000000 0.000000
# 3 -0.003763 -0.003763 0.007764 0.000000 0.000000 0.000000
# 4 0.000000 0.000000 0.000000 -0.078765 0.000000 0.000000
# 5 0.000000 0.000000 0.000000 0.000000 -0.078765 0.000000
# 6 0.000000 0.000000 0.000000 0.000000 0.000000 0.056680
#
#
# Mechanical properties :
#
#
# Convention : Reuss Voigt Hill
#
# Bulk Modulus (GPa) = 32.32442 45.98432 39.15437
# Shear Modulus (GPa) = 293.42833 9.39831 151.41332
#
# Velocity S-wave (km/s) = 12.58223 2.25181 9.03834
# Velocity P-wave (km/s) = 15.11699 5.61878 11.40381
#
# Compressibility (1/GPa) = 0.03093636
#
# Stress axis : x y z
#
# Youngs Moduli (GPa) = 32.52408 32.52408 128.79822
#
# Poissons Ratio (x) = 0.37841 0.48464
# Poissons Ratio (y) = 0.37841 0.48464
# Poissons Ratio (z) = 0.12238 0.12238
#
# Static dielectric constant tensor:
#      x y z
#    x 3.178700 0.000000 0.000000 
#    y 0.000000 3.178700 0.000000 
#    z 0.000000 0.000000 4.077950 
# 
# 
# High freq. dielectric constant tensor:
#      x y z
#    x 1.686920 0.000000 0.000000 
#    y 0.000000 1.686920 0.000000 
#    z 0.000000 0.000000 1.750850 
# 
# From -- ./inp_files/5796.got.cif
#   From: 2010.03.12/outbox.cif.g09.slc.cpg/sg115_3_cif.got.tgz:5796.got - 2010.04.14 02:11:21.
