data_PCOD8309049
_publ_section_title
;
Structure prediction by ZEFSAII (Michael W. Deem and Ramdas Pophale) SiO2 
 PCOD8309049
Probable space group: P -4 21 C
;
_chemical_formula_sum "Si O2"
_cell_formula_units_Z 48
_cell_length_a 9.230772
_cell_length_b 9.230772
_cell_length_c 26.988418
_cell_angle_alpha 90.000000
_cell_angle_beta 90.000000
_cell_angle_gamma 90.000000
_cell_volume 2299.606227
_symmetry_space_group_name_H-M "P -4 21 C"
_symmetry_group_IT_number 114
_symmetry_cell_setting 'tetragonal'
loop_
_space_group_symop_operation_xyz
x,y,z
y,-x,-z
-x,-y,z
-y,x,-z
1/2+x,1/2-y,1/2-z
1/2-x,1/2+y,1/2-z
1/2-y,1/2-x,1/2+z
1/2+y,1/2+x,1/2+z
loop_
_atom_site_type_symbol
_atom_site_label
_atom_site_fract_x
_atom_site_fract_y
_atom_site_fract_z
Si Si1 0.282471 0.667799 0.045716
Si Si2 0.920463 0.347297 0.214169
Si Si3 0.169836 0.512729 0.604742
Si Si4 0.828489 0.522205 0.884825
Si Si5 0.835471 0.789547 0.566465
Si Si6 0.083048 0.150142 0.291790
O O1 0.130669 0.723932 0.065875
O O2 0.396463 0.787756 0.063984
O O3 0.314657 0.508671 0.068875
O O4 0.279055 0.658606 0.986815
O O5 0.951088 0.276262 0.160137
O O6 0.749518 0.375952 0.225108
O O7 0.000000 0.500000 0.221761
O O8 0.985317 0.229159 0.251144
O O9 0.224921 0.368051 0.578937
O O10 0.000000 0.500000 0.608959
O O11 0.743775 0.371858 0.889015
O O12 0.758976 0.602748 0.838112
O O13 0.000000 0.500000 0.879063
O O14 0.000000 0.000000 0.305085
#
# Coordination Sequence:
#
# PCOD8309049 Si02
#       6
#     8   8   8   8   8   8
#     4  11  21  41  65  99 132 178 228 278 333 404
#     4  11  24  46  72 105 137 177 227 284 346 417
#     4   9  22  41  67  96 137 171 220 276 342 397
#     4  12  27  42  65 100 138 178 233 285 335 404
#     4  11  23  38  70  97 133 181 228 280 333 409
#     4  12  26  46  75 101 137 179 228 285 349 417
#
# _framework density 20.873139999999999
#
# number of rings (size 3 to 8) (size 9 to 14) (size 15 to 20)
#    0.000    1.000    3.333    3.000    9.333    0.000 
#    0.000    0.833    0.000    0.000    0.000    0.000 
#    0.000    0.000    0.000    0.000    0.000    0.000 
#
# Total GULP energy -594915.292473 kJ/mol
# GULP energy per Si atom -12394.068593 kJ/mol
# Density = 2.082563 g / cm^3
# Si number density = 20.873140 Si / 1000 Ang^3
#
#
#
# Elastic Constant Matrix: (Units=GPa)
#
#
# Indices 1 2 3 4 5 6 
#
# 1 126.5916 45.1865 30.5227 0.0000 0.0000 0.0000
# 2 45.1865 126.5916 30.5227 0.0000 0.0000 0.0000
# 3 30.5227 30.5227 57.3256 0.0000 0.0000 0.0000
# 4 0.0000 0.0000 0.0000 34.2318 0.0000 0.0000
# 5 0.0000 0.0000 0.0000 0.0000 34.2318 0.0000
# 6 0.0000 0.0000 0.0000 0.0000 0.0000 13.1226
#
#
#
# Elastic Compliance Matrix: (Units=1/GPa)
#
#
# Indices 1 2 3 4 5 6 
#
# 1 0.009732 -0.002552 -0.003823 0.000000 0.000000 0.000000
# 2 -0.002552 0.009732 -0.003823 0.000000 0.000000 0.000000
# 3 -0.003823 -0.003823 0.021515 0.000000 0.000000 0.000000
# 4 0.000000 0.000000 0.000000 0.029213 0.000000 0.000000
# 5 0.000000 0.000000 0.000000 0.000000 0.029213 0.000000
# 6 0.000000 0.000000 0.000000 0.000000 0.000000 0.076204
#
#
# Mechanical properties :
#
#
# Convention : Reuss Voigt Hill
#
# Bulk Modulus (GPa) = 48.58274 58.10808 53.34541
# Shear Modulus (GPa) = 24.64680 29.93573 27.29126
#
# Velocity S-wave (km/s) = 3.43999 3.79116 3.61984
# Velocity P-wave (km/s) = 6.25330 6.86025 6.56379
#
# Compressibility (1/GPa) = 0.02058344
#
# Stress axis : x y z
#
# Youngs Moduli (GPa) = 102.75232 102.75232 46.47867
#
# Poissons Ratio (x) = 0.26223 0.17769
# Poissons Ratio (y) = 0.26223 0.17769
# Poissons Ratio (z) = 0.39282 0.39282
#
# Static dielectric constant tensor:
#      x y z
#    x 3.087610 0.000000 0.000000 
#    y 0.000000 3.087610 0.000000 
#    z 0.000000 0.000000 3.947890 
# 
# 
# High freq. dielectric constant tensor:
#      x y z
#    x 1.814510 0.000000 0.000000 
#    y 0.000000 1.814510 0.000000 
#    z 0.000000 0.000000 1.825010 
# 
# From -- ./inp_files/3903.got.cif
#   From: 2010.03.12/outbox.cif.g09.slc.cpg/sg114_2_cif.got.tgz:3903.got - 2010.04.14 02:08:34.
