data_PCOD8309677
_publ_section_title
;
Structure prediction by ZEFSAII (Michael W. Deem and Ramdas Pophale) SiO2 
 PCOD8309677
Probable space group: P -4 M 2
;
_chemical_formula_sum "Si O2"
_cell_formula_units_Z 48
_cell_length_a 14.290645
_cell_length_b 14.290645
_cell_length_c 12.385728
_cell_angle_alpha 90.000000
_cell_angle_beta 90.000000
_cell_angle_gamma 90.000000
_cell_volume 2529.444764
_symmetry_space_group_name_H-M "P -4 M 2"
_symmetry_group_IT_number 115
_symmetry_cell_setting 'tetragonal'
loop_
_space_group_symop_operation_xyz
x,y,z
y,-x,-z
-x,-y,z
-y,x,-z
y,x,-z
-y,-x,-z
-x,y,z
x,-y,z
loop_
_atom_site_type_symbol
_atom_site_label
_atom_site_fract_x
_atom_site_fract_y
_atom_site_fract_z
Si Si1 0.393776 0.393678 0.125881
Si Si2 0.726609 0.894551 0.830563
Si Si3 0.224984 0.698583 0.777777
Si Si4 0.108638 0.605342 0.961157
Si Si5 0.612211 0.747598 0.451509
Si Si6 0.102714 0.606057 0.378687
O O1 0.500000 0.365423 0.156768
O O2 0.375145 0.500000 0.158756
O O3 0.319755 0.333045 0.191601
O O4 0.377071 0.377071 0.000000
O O5 0.798093 0.809679 0.799371
O O6 0.650814 0.894592 0.737844
O O7 0.773093 0.000000 0.837976
O O8 0.676143 0.867696 0.942294
O O9 0.158791 0.636321 0.851908
O O10 0.216001 0.665429 0.655009
O O11 0.141831 0.500000 0.991528
O O12 0.000000 0.606257 0.935054
O O13 0.648279 0.648279 0.500000
O O14 0.500000 0.743170 0.433526
O O15 0.647826 0.823029 0.538569
O O16 0.129029 0.500000 0.357622
O O17 0.000000 0.618007 0.431026
#
# Coordination Sequence:
#
# PCOD8309677 Si02
#       6
#     8   8   8   8   8   8
#     4   9  18  31  47  72 106 144 185 221 258 318
#     4  10  20  35  57  82 110 144 187 239 287 337
#     4  12  22  35  56  80 112 148 187 229 283 344
#     4  10  21  36  56  86 119 148 182 230 289 346
#     4  11  23  38  53  76 111 151 194 236 280 332
#     4   9  18  35  58  80 103 138 187 239 286 330
#
# _framework density 18.976496999999998
#
# number of rings (size 3 to 8) (size 9 to 14) (size 15 to 20)
#    0.000    1.833    1.667    4.000    0.000    6.167 
#    0.000    1.667    0.000    0.500    0.000    2.333 
#    0.000    0.333    0.000    0.000    0.000    0.000 
#
# Total GULP energy -594888.640180 kJ/mol
# GULP energy per Si atom -12393.513337 kJ/mol
# Density = 1.893331 g / cm^3
# Si number density = 18.976497 Si / 1000 Ang^3
#
#
#
# Elastic Constant Matrix: (Units=GPa)
#
#
# Indices 1 2 3 4 5 6 
#
# 1 59.8833 9.7951 18.9194 0.0000 0.0000 0.0000
# 2 9.7951 59.8833 18.9194 0.0000 0.0000 0.0000
# 3 18.9194 18.9194 93.6040 0.0000 0.0000 0.0000
# 4 0.0000 0.0000 0.0000 23.3310 0.0000 0.0000
# 5 0.0000 0.0000 0.0000 0.0000 23.3310 0.0000
# 6 0.0000 0.0000 0.0000 0.0000 0.0000 18.4231
#
#
#
# Elastic Compliance Matrix: (Units=1/GPa)
#
#
# Indices 1 2 3 4 5 6 
#
# 1 0.018043 -0.001922 -0.003258 0.000000 0.000000 0.000000
# 2 -0.001922 0.018043 -0.003258 0.000000 0.000000 0.000000
# 3 -0.003258 -0.003258 0.012001 0.000000 0.000000 0.000000
# 4 0.000000 0.000000 0.000000 0.042861 0.000000 0.000000
# 5 0.000000 0.000000 0.000000 0.000000 0.042861 0.000000
# 6 0.000000 0.000000 0.000000 0.000000 0.000000 0.054280
#
#
# Mechanical properties :
#
#
# Convention : Reuss Voigt Hill
#
# Bulk Modulus (GPa) = 32.04200 34.29318 33.16759
# Shear Modulus (GPa) = 23.21592 24.06612 23.64102
#
# Velocity S-wave (km/s) = 3.50151 3.56505 3.53343
# Velocity P-wave (km/s) = 5.76795 5.92087 5.84491
#
# Compressibility (1/GPa) = 0.03120903
#
# Stress axis : x y z
#
# Youngs Moduli (GPa) = 55.42326 55.42326 83.32982
#
# Poissons Ratio (x) = 0.10651 0.27153
# Poissons Ratio (y) = 0.10651 0.27153
# Poissons Ratio (z) = 0.18059 0.18059
#
# Static dielectric constant tensor:
#      x y z
#    x 3.645410 0.000000 0.000000 
#    y 0.000000 3.645410 0.000000 
#    z 0.000000 0.000000 3.508620 
# 
# 
# High freq. dielectric constant tensor:
#      x y z
#    x 1.724680 0.000000 0.000000 
#    y 0.000000 1.724680 0.000000 
#    z 0.000000 0.000000 1.743530 
# 
# From -- ./inp_files/2925.got.cif
#   From: 2010.03.12/outbox.cif.g09.slc.cpg/sg115_2_cif.got.tgz:2925.got - 2010.04.14 02:11:21.
