data_PCOD8309553
_publ_section_title
;
Structure prediction by ZEFSAII (Michael W. Deem and Ramdas Pophale) SiO2 
 PCOD8309553
Probable space group: P -4 M 2
;
_chemical_formula_sum "Si O2"
_cell_formula_units_Z 32
_cell_length_a 9.195564
_cell_length_b 9.195564
_cell_length_c 20.835678
_cell_angle_alpha 90.000000
_cell_angle_beta 90.000000
_cell_angle_gamma 90.000000
_cell_volume 1761.831538
_symmetry_space_group_name_H-M "P -4 M 2"
_symmetry_group_IT_number 115
_symmetry_cell_setting 'tetragonal'
loop_
_space_group_symop_operation_xyz
x,y,z
y,-x,-z
-x,-y,z
-y,x,-z
y,x,-z
-y,-x,-z
-x,y,z
x,-y,z
loop_
_atom_site_type_symbol
_atom_site_label
_atom_site_fract_x
_atom_site_fract_y
_atom_site_fract_z
Si Si1 0.832816 0.328786 0.806943
Si Si2 0.331140 0.171130 0.443492
Si Si3 0.837991 0.826640 0.069700
Si Si4 0.672756 0.336138 0.316609
O O1 0.816367 0.500000 0.812497
O O2 0.768700 0.262353 0.872682
O O3 0.740800 0.265900 0.747349
O O4 0.000000 0.283078 0.796119
O O5 0.233825 0.233825 0.500000
O O6 0.500000 0.208066 0.456816
O O7 0.275164 0.245596 0.378211
O O8 0.306063 0.000000 0.437166
O O9 0.000000 0.764907 0.081024
O O10 0.841143 0.000000 0.068702
O O11 0.775671 0.775671 0.000000
O O12 0.500000 0.336874 0.313886
O O13 0.734499 0.500000 0.320887
#
# Coordination Sequence:
#
# PCOD8309553 Si02
#       4
#     8   8   8   8
#     4   9  16  27  45  68  91 116 151 194 234 273
#     4  10  20  34  53  76 100 127 161 200 241 287
#     4   8  14  26  44  64  87 118 154 188 226 277
#     4   9  17  30  49  71  95 125 159 193 232 281
#
# _framework density 18.162918000000001
#
# number of rings (size 3 to 8) (size 9 to 14) (size 15 to 20)
#    0.000    3.000    0.000    2.250    0.000    4.500 
#    0.000    2.500    0.000    6.750    0.000    0.000 
#    0.000    0.000    0.000    0.000    0.000    0.000 
#
# Total GULP energy -396693.799138 kJ/mol
# GULP energy per Si atom -12396.681223 kJ/mol
# Density = 1.812158 g / cm^3
# Si number density = 18.162918 Si / 1000 Ang^3
#
#
#
# Elastic Constant Matrix: (Units=GPa)
#
#
# Indices 1 2 3 4 5 6 
#
# 1 61.6099 31.2078 60.1803 0.0000 0.0000 0.0000
# 2 31.2078 61.6099 60.1803 0.0000 0.0000 0.0000
# 3 60.1803 60.1803 197.8004 0.0000 0.0000 0.0000
# 4 0.0000 0.0000 0.0000 32.9770 0.0000 0.0000
# 5 0.0000 0.0000 0.0000 0.0000 32.9770 0.0000
# 6 0.0000 0.0000 0.0000 0.0000 0.0000 15.0124
#
#
#
# Elastic Compliance Matrix: (Units=1/GPa)
#
#
# Indices 1 2 3 4 5 6 
#
# 1 0.025343 -0.007549 -0.005414 0.000000 0.000000 0.000000
# 2 -0.007549 0.025343 -0.005414 0.000000 0.000000 0.000000
# 3 -0.005414 -0.005414 0.008350 0.000000 0.000000 0.000000
# 4 0.000000 0.000000 0.000000 0.030324 0.000000 0.000000
# 5 0.000000 0.000000 0.000000 0.000000 0.030324 0.000000
# 6 0.000000 0.000000 0.000000 0.000000 0.000000 0.066612
#
#
# Mechanical properties :
#
#
# Convention : Reuss Voigt Hill
#
# Bulk Modulus (GPa) = 44.87751 69.35077 57.11414
# Shear Modulus (GPa) = 21.69406 27.49007 24.59207
#
# Velocity S-wave (km/s) = 3.45978 3.89463 3.68363
# Velocity P-wave (km/s) = 6.38138 7.64785 7.04314
#
# Compressibility (1/GPa) = 0.02228287
#
# Stress axis : x y z
#
# Youngs Moduli (GPa) = 39.45814 39.45814 119.76211
#
# Poissons Ratio (x) = 0.29788 0.64837
# Poissons Ratio (y) = 0.29788 0.64837
# Poissons Ratio (z) = 0.21362 0.21362
#
# Static dielectric constant tensor:
#      x y z
#    x 3.170540 0.000000 0.000000 
#    y 0.000000 3.170540 0.000000 
#    z 0.000000 0.000000 3.758360 
# 
# 
# High freq. dielectric constant tensor:
#      x y z
#    x 1.672900 0.000000 0.000000 
#    y 0.000000 1.672900 0.000000 
#    z 0.000000 0.000000 1.724410 
# 
# From -- ./inp_files/4590.got.cif
#   From: 2010.03.12/outbox.cif.g09.slc.cpg/sg115_3_cif.got.tgz:4590.got - 2010.04.14 02:11:21.
