data_PCOD8309186
_publ_section_title
;
Structure prediction by ZEFSAII (Michael W. Deem and Ramdas Pophale) SiO2 
 PCOD8309186
Probable space group: P -4 M 2
;
_chemical_formula_sum "Si O2"
_cell_formula_units_Z 48
_cell_length_a 18.127001
_cell_length_b 18.127001
_cell_length_c 10.330691
_cell_angle_alpha 90.000000
_cell_angle_beta 90.000000
_cell_angle_gamma 90.000000
_cell_volume 3394.542801
_symmetry_space_group_name_H-M "P -4 M 2"
_symmetry_group_IT_number 115
_symmetry_cell_setting 'tetragonal'
loop_
_space_group_symop_operation_xyz
x,y,z
y,-x,-z
-x,-y,z
-y,x,-z
y,x,-z
-y,-x,-z
-x,y,z
x,-y,z
loop_
_atom_site_type_symbol
_atom_site_label
_atom_site_fract_x
_atom_site_fract_y
_atom_site_fract_z
Si Si1 0.656377 0.225845 0.010130
Si Si2 0.585591 0.315912 0.783461
Si Si3 0.415020 0.084346 0.916426
Si Si4 0.769348 0.587680 0.470489
Si Si5 0.287387 0.586236 0.745809
Si Si6 0.921286 0.585505 0.386733
O O1 0.628852 0.233868 0.156707
O O2 0.740492 0.259509 0.000000
O O3 0.603379 0.270650 0.912806
O O4 0.646006 0.138744 0.980754
O O5 0.500000 0.334407 0.777920
O O6 0.615010 0.272629 0.657383
O O7 0.628384 0.393810 0.782020
O O8 0.500000 0.104865 0.954779
O O9 0.405037 0.094034 0.764394
O O10 0.398149 0.000000 0.959179
O O11 0.772387 0.500000 0.464750
O O12 0.730403 0.614723 0.600999
O O13 0.852986 0.620436 0.465953
O O14 0.274811 0.500000 0.759784
O O15 0.927259 0.500000 0.420791
O O16 0.000000 0.623315 0.424518
#
# Coordination Sequence:
#
# PCOD8309186 Si02
#       6
#     8   8   8   8   8   8
#     4  10  19  30  43  60  83 108 134 167 209 256
#     4  10  18  29  44  54  68 102 143 178 208 239
#     4   9  15  25  44  65  81 102 138 176 203 239
#     4   9  16  27  40  54  74  96 124 164 207 251
#     4  10  20  29  38  55  78 103 132 172 216 251
#     4   8  13  22  40  62  77  94 125 165 203 243
#
# _framework density 14.140344000000001
#
# number of rings (size 3 to 8) (size 9 to 14) (size 15 to 20)
#    0.000    2.667    1.667    3.000    0.000    0.333 
#    0.000    0.833    0.000    9.000    0.000    0.000 
#    0.000    0.333    0.000    0.000    0.000    0.000 
#
# Total GULP energy -594669.646579 kJ/mol
# GULP energy per Si atom -12388.950970 kJ/mol
# Density = 1.410816 g / cm^3
# Si number density = 14.140344 Si / 1000 Ang^3
#
#
#
# Elastic Constant Matrix: (Units=GPa)
#
#
# Indices 1 2 3 4 5 6 
#
# 1 59.9338 22.1165 3.5659 0.0000 0.0000 0.0000
# 2 22.1165 59.9339 3.5659 0.0000 0.0000 0.0000
# 3 3.5659 3.5659 46.7229 0.0000 0.0000 0.0000
# 4 0.0000 0.0000 0.0000 7.1951 0.0000 0.0000
# 5 0.0000 0.0000 0.0000 0.0000 7.1952 0.0000
# 6 0.0000 0.0000 0.0000 0.0000 0.0000 12.7018
#
#
#
# Elastic Compliance Matrix: (Units=1/GPa)
#
#
# Indices 1 2 3 4 5 6 
#
# 1 0.019356 -0.007087 -0.000936 0.000000 0.000000 0.000000
# 2 -0.007087 0.019356 -0.000936 0.000000 0.000000 0.000000
# 3 -0.000936 -0.000936 0.021546 0.000000 0.000000 0.000000
# 4 0.000000 0.000000 0.000000 0.138983 0.000000 0.000000
# 5 0.000000 0.000000 0.000000 0.000000 0.138982 0.000000
# 6 0.000000 0.000000 0.000000 0.000000 0.000000 0.078729
#
#
# Mechanical properties :
#
#
# Convention : Reuss Voigt Hill
#
# Bulk Modulus (GPa) = 23.61929 25.00969 24.31449
# Shear Modulus (GPa) = 11.13625 14.57456 12.85540
#
# Velocity S-wave (km/s) = 2.80938 3.21395 3.01845
# Velocity P-wave (km/s) = 5.22142 5.61229 5.42038
#
# Compressibility (1/GPa) = 0.04233828
#
# Stress axis : x y z
#
# Youngs Moduli (GPa) = 51.66356 51.66368 46.41292
#
# Poissons Ratio (x) = 0.36614 0.04346
# Poissons Ratio (y) = 0.36614 0.04346
# Poissons Ratio (z) = 0.04838 0.04838
#
# Static dielectric constant tensor:
#      x y z
#    x 2.774540 0.000000 0.000000 
#    y 0.000000 2.774540 0.000000 
#    z 0.000000 0.000000 2.859440 
# 
# 
# High freq. dielectric constant tensor:
#      x y z
#    x 1.510130 0.000000 0.000000 
#    y 0.000000 1.510130 0.000000 
#    z 0.000000 0.000000 1.543670 
# 
# From -- ./inp_files/1823.got.cif
#   From: 2010.03.12/outbox.cif.g09.slc.cpg/sg115_1_cif.got.tgz:1823.got - 2010.04.14 02:11:21.
