data_PCOD8309711
_publ_section_title
;
Structure prediction by ZEFSAII (Michael W. Deem and Ramdas Pophale) SiO2 
 PCOD8309711
Probable space group: P -4 M 2
;
_chemical_formula_sum "Si O2"
_cell_formula_units_Z 48
_cell_length_a 8.165674
_cell_length_b 8.165674
_cell_length_c 34.276782
_cell_angle_alpha 90.000000
_cell_angle_beta 90.000000
_cell_angle_gamma 90.000000
_cell_volume 2285.515218
_symmetry_space_group_name_H-M "P -4 M 2"
_symmetry_group_IT_number 115
_symmetry_cell_setting 'tetragonal'
loop_
_space_group_symop_operation_xyz
x,y,z
y,-x,-z
-x,-y,z
-y,x,-z
y,x,-z
-y,-x,-z
-x,y,z
x,-y,z
loop_
_atom_site_type_symbol
_atom_site_label
_atom_site_fract_x
_atom_site_fract_y
_atom_site_fract_z
Si Si1 0.500000 0.692226 0.090405
Si Si2 0.190271 0.500000 0.823373
Si Si3 0.807425 0.320289 0.301629
Si Si4 0.188239 0.183643 0.779904
Si Si5 0.321284 0.809461 0.461491
Si Si6 0.185869 0.192810 0.618506
Si Si7 0.690383 0.814103 0.960750
O O1 0.500000 0.500000 0.098551
O O2 0.500000 0.788142 0.130606
O O3 0.331370 0.744638 0.068574
O O4 0.268886 0.330856 0.805726
O O5 0.000000 0.500000 0.812083
O O6 0.741832 0.500000 0.290873
O O7 0.763222 0.203420 0.265407
O O8 0.727089 0.266281 0.342774
O O9 0.000000 0.319538 0.308146
O O10 0.000000 0.168360 0.791160
O O11 0.268533 0.000000 0.787054
O O12 0.214610 0.785391 0.500000
O O13 0.500000 0.735280 0.469586
O O14 0.250987 0.727068 0.421820
O O15 0.327306 0.000000 0.453190
O O16 0.000000 0.251659 0.619499
O O17 0.201440 0.000000 0.619474
O O18 0.500000 0.790170 0.971169
O O19 0.721604 0.000000 0.944052
O O20 0.794958 0.794958 0.000000
#
# Coordination Sequence:
#
# PCOD8309711 Si02
#       7
#     4   4   8   8   8   8   8
#     4  10  22  38  58  84 124 162 196 248 304 356
#     4  10  22  38  56  82 112 150 198 240 288 346
#     4   9  17  30  51  79 106 133 169 216 268 321
#     4   9  18  35  57  78 105 144 188 235 287 340
#     4  10  21  36  53  74 100 133 172 212 258 313
#     4   9  17  31  52  75 100 132 170 212 258 313
#     4  10  20  36  61  89 119 160 206 251 305 364
#
# _framework density 21.001830000000002
#
# number of rings (size 3 to 8) (size 9 to 14) (size 15 to 20)
#    0.000    2.500    0.833    1.000    0.000    5.833 
#    1.500    1.667    0.000    0.000    0.000    0.000 
#    0.000    0.000    0.000    0.000    0.000    0.000 
#
# Total GULP energy -594669.907674 kJ/mol
# GULP energy per Si atom -12388.956410 kJ/mol
# Density = 2.095403 g / cm^3
# Si number density = 21.001830 Si / 1000 Ang^3
#
#
#
# Elastic Constant Matrix: (Units=GPa)
#
#
# Indices 1 2 3 4 5 6 
#
# 1 67.3643 32.5034 43.1562 0.0000 0.0000 0.0000
# 2 32.5034 67.3639 43.1559 0.0000 0.0000 0.0000
# 3 43.1562 43.1559 149.2245 0.0000 0.0000 0.0000
# 4 0.0000 0.0000 0.0000 18.4853 0.0000 0.0000
# 5 0.0000 0.0000 0.0000 0.0000 18.4854 0.0000
# 6 0.0000 0.0000 0.0000 0.0000 0.0000 10.3262
#
#
#
# Elastic Compliance Matrix: (Units=1/GPa)
#
#
# Indices 1 2 3 4 5 6 
#
# 1 0.021018 -0.007668 -0.003861 0.000000 0.000000 0.000000
# 2 -0.007668 0.021018 -0.003861 0.000000 0.000000 0.000000
# 3 -0.003861 -0.003861 0.008934 0.000000 0.000000 0.000000
# 4 0.000000 0.000000 0.000000 0.054097 0.000000 0.000000
# 5 0.000000 0.000000 0.000000 0.000000 0.054097 0.000000
# 6 0.000000 0.000000 0.000000 0.000000 0.000000 0.096841
#
#
# Mechanical properties :
#
#
# Convention : Reuss Voigt Hill
#
# Bulk Modulus (GPa) = 49.52667 57.95374 53.74021
# Shear Modulus (GPa) = 17.03497 20.46854 18.75176
#
# Velocity S-wave (km/s) = 2.85110 3.12526 2.99132
# Velocity P-wave (km/s) = 5.87126 6.37789 6.12981
#
# Compressibility (1/GPa) = 0.02019114
#
# Stress axis : x y z
#
# Youngs Moduli (GPa) = 47.57874 47.57853 111.92622
#
# Poissons Ratio (x) = 0.36482 0.43213
# Poissons Ratio (y) = 0.36482 0.43213
# Poissons Ratio (z) = 0.18370 0.18369
#
# Static dielectric constant tensor:
#      x y z
#    x 3.796890 0.000000 0.000000 
#    y 0.000000 3.796890 0.000000 
#    z 0.000000 0.000000 3.777090 
# 
# 
# High freq. dielectric constant tensor:
#      x y z
#    x 1.803680 0.000000 0.000000 
#    y 0.000000 1.803680 0.000000 
#    z 0.000000 0.000000 1.822570 
# 
# From -- ./inp_files/6172.got.cif
#   From: 2010.03.12/outbox.cif.g09.slc.cpg/sg115_4_cif.got.tgz:6172.got - 2010.04.14 02:11:21.
