data_PCOD8309768
_publ_section_title
;
Structure prediction by ZEFSAII (Michael W. Deem and Ramdas Pophale) SiO2 
 PCOD8309768
Probable space group: P -4 M 2
;
_chemical_formula_sum "Si O2"
_cell_formula_units_Z 44
_cell_length_a 9.465900
_cell_length_b 9.465900
_cell_length_c 27.789576
_cell_angle_alpha 90.000000
_cell_angle_beta 90.000000
_cell_angle_gamma 90.000000
_cell_volume 2490.036682
_symmetry_space_group_name_H-M "P -4 M 2"
_symmetry_group_IT_number 115
_symmetry_cell_setting 'tetragonal'
loop_
_space_group_symop_operation_xyz
x,y,z
y,-x,-z
-x,-y,z
-y,x,-z
y,x,-z
-y,-x,-z
-x,y,z
x,-y,z
loop_
_atom_site_type_symbol
_atom_site_label
_atom_site_fract_x
_atom_site_fract_y
_atom_site_fract_z
Si Si1 0.337031 0.835780 0.276997
Si Si2 0.834447 0.163570 0.630314
Si Si3 0.336825 0.660284 0.555941
Si Si4 0.836250 0.836250 0.000000
Si Si5 0.663516 0.663600 0.815655
Si Si6 0.663687 0.836220 0.907807
O O1 0.500000 0.802031 0.289016
O O2 0.243406 0.784047 0.321653
O O3 0.284910 0.750662 0.230484
O O4 0.313426 0.000000 0.266131
O O5 0.756272 0.228709 0.584751
O O6 0.000000 0.185250 0.622061
O O7 0.793639 0.000000 0.635272
O O8 0.310390 0.689611 0.500000
O O9 0.500000 0.683480 0.569176
O O10 0.291611 0.500000 0.568831
O O11 0.750090 0.782409 0.953878
O O12 0.000000 0.806298 0.989722
O O13 0.500000 0.694527 0.805061
O O14 0.691857 0.500000 0.826565
O O15 0.717510 0.750592 0.861571
O O16 0.500000 0.805863 0.918105
O O17 0.693361 0.000000 0.897602
#
# Coordination Sequence:
#
# PCOD8309768 Si02
#       6
#     8   8   8   4   8   8
#     4   9  18  33  51  70  95 129 166 201 240 288
#     4  10  21  35  51  75 106 136 167 205 249 297
#     4   9  19  36  56  77 101 131 169 210 250 295
#     4   9  18  32  48  67  92 122 156 191 228 274
#     4   9  18  32  49  70  95 122 155 196 240 285
#     4   9  18  32  48  67  93 123 153 188 233 282
#
# _framework density 17.670424000000001
#
# number of rings (size 3 to 8) (size 9 to 14) (size 15 to 20)
#    0.000    2.818    0.000    1.091    0.000    5.091 
#    0.000    4.545    0.000    0.000    0.000    0.000 
#    0.000    0.000    0.000    0.000    0.000    0.000 
#
# Total GULP energy -545729.626814 kJ/mol
# GULP energy per Si atom -12402.946064 kJ/mol
# Density = 1.763021 g / cm^3
# Si number density = 17.670424 Si / 1000 Ang^3
#
#
#
# Elastic Constant Matrix: (Units=GPa)
#
#
# Indices 1 2 3 4 5 6 
#
# 1 72.2568 45.2385 72.2793 0.0000 0.0000 0.0000
# 2 45.2385 72.2566 72.2793 0.0000 0.0000 0.0000
# 3 72.2793 72.2793 146.2275 0.0000 0.0000 0.0000
# 4 0.0000 0.0000 0.0000 33.6198 0.0000 0.0000
# 5 0.0000 0.0000 0.0000 0.0000 33.6198 0.0000
# 6 0.0000 0.0000 0.0000 0.0000 0.0000 25.2174
#
#
#
# Elastic Compliance Matrix: (Units=1/GPa)
#
#
# Indices 1 2 3 4 5 6 
#
# 1 0.029366 -0.007646 -0.010736 0.000000 0.000000 0.000000
# 2 -0.007646 0.029366 -0.010736 0.000000 0.000000 0.000000
# 3 -0.010736 -0.010736 0.017452 0.000000 0.000000 0.000000
# 4 0.000000 0.000000 0.000000 0.029744 0.000000 0.000000
# 5 0.000000 0.000000 0.000000 0.000000 0.029744 0.000000
# 6 0.000000 0.000000 0.000000 0.000000 0.000000 0.039655
#
#
# Mechanical properties :
#
#
# Convention : Reuss Voigt Hill
#
# Bulk Modulus (GPa) = 55.71689 74.48168 65.09929
# Shear Modulus (GPa) = 20.87274 25.22097 23.04685
#
# Velocity S-wave (km/s) = 3.44062 3.78206 3.61537
# Velocity P-wave (km/s) = 6.88356 7.83032 7.37216
#
# Compressibility (1/GPa) = 0.01794788
#
# Stress axis : x y z
#
# Youngs Moduli (GPa) = 34.05302 34.05297 57.29969
#
# Poissons Ratio (x) = 0.26037 0.61517
# Poissons Ratio (y) = 0.26037 0.61517
# Poissons Ratio (z) = 0.36559 0.36559
#
# Static dielectric constant tensor:
#      x y z
#    x 3.232700 0.000000 0.000000 
#    y 0.000000 3.232700 0.000000 
#    z 0.000000 0.000000 3.329340 
# 
# 
# High freq. dielectric constant tensor:
#      x y z
#    x 1.679030 0.000000 0.000000 
#    y 0.000000 1.679030 0.000000 
#    z 0.000000 0.000000 1.689060 
# 
# From -- ./inp_files/5752.got.cif
#   From: 2010.03.12/outbox.cif.g09.slc.cpg/sg115_3_cif.got.tgz:5752.got - 2010.04.14 02:11:21.
