data_PCOD8309390
_publ_section_title
;
Structure prediction by ZEFSAII (Michael W. Deem and Ramdas Pophale) SiO2 
 PCOD8309390
Probable space group: P -4 M 2
;
_chemical_formula_sum "Si O2"
_cell_formula_units_Z 44
_cell_length_a 9.374489
_cell_length_b 9.374489
_cell_length_c 27.978318
_cell_angle_alpha 90.000000
_cell_angle_beta 90.000000
_cell_angle_gamma 90.000000
_cell_volume 2458.763796
_symmetry_space_group_name_H-M "P -4 M 2"
_symmetry_group_IT_number 115
_symmetry_cell_setting 'tetragonal'
loop_
_space_group_symop_operation_xyz
x,y,z
y,-x,-z
-x,-y,z
-y,x,-z
y,x,-z
-y,-x,-z
-x,y,z
x,-y,z
loop_
_atom_site_type_symbol
_atom_site_label
_atom_site_fract_x
_atom_site_fract_y
_atom_site_fract_z
Si Si1 0.163627 0.668685 0.275804
Si Si2 0.833659 0.335842 0.645772
Si Si3 0.159020 0.667689 0.537517
Si Si4 0.832395 0.832395 0.000000
Si Si5 0.669066 0.342718 0.812880
Si Si6 0.665416 0.667229 0.920133
O O1 0.183029 0.500000 0.280467
O O2 0.236404 0.739897 0.321036
O O3 0.233590 0.727529 0.226773
O O4 0.000000 0.714581 0.274629
O O5 0.793875 0.500000 0.655716
O O6 0.795030 0.293581 0.591439
O O7 0.000000 0.309687 0.655777
O O8 0.265706 0.734294 0.500000
O O9 0.162771 0.500000 0.530510
O O10 0.000000 0.725791 0.527698
O O11 0.764866 0.761596 0.953349
O O12 0.000000 0.800177 0.000754
O O13 0.500000 0.350432 0.810947
O O14 0.731940 0.500000 0.801735
O O15 0.713373 0.294395 0.866089
O O16 0.500000 0.706672 0.929030
O O17 0.689195 0.500000 0.930656
#
# Coordination Sequence:
#
# PCOD8309390 Si02
#       6
#     8   8   8   4   8   8
#     4  10  20  32  49  77 108 134 164 204 249 297
#     4   9  19  36  54  71  96 133 173 208 245 293
#     4   9  19  35  53  74 100 129 164 207 251 297
#     4  11  24  37  48  70 106 141 170 203 246 296
#     4   8  15  30  52  76 101 129 163 205 250 295
#     4   9  18  34  57  81 100 124 166 213 251 295
#
# _framework density 17.895171999999999
#
# number of rings (size 3 to 8) (size 9 to 14) (size 15 to 20)
#    0.000    2.818    0.000    3.273    0.000    6.182 
#    0.000    8.182    0.000    1.091    0.000    0.000 
#    0.000    0.000    0.000    0.000    0.000    0.000 
#
# Total GULP energy -545515.383672 kJ/mol
# GULP energy per Si atom -12398.076902 kJ/mol
# Density = 1.785444 g / cm^3
# Si number density = 17.895172 Si / 1000 Ang^3
#
#
#
# Elastic Constant Matrix: (Units=GPa)
#
#
# Indices 1 2 3 4 5 6 
#
# 1 77.3579 51.4851 70.9653 0.0000 0.0000 0.0000
# 2 51.4851 77.3579 70.9653 0.0000 0.0000 0.0000
# 3 70.9653 70.9653 152.7470 0.0000 0.0000 0.0000
# 4 0.0000 0.0000 0.0000 -17.4089 0.0000 0.0000
# 5 0.0000 0.0000 0.0000 0.0000 -17.4089 0.0000
# 6 0.0000 0.0000 0.0000 0.0000 0.0000 27.4455
#
#
#
# Elastic Compliance Matrix: (Units=1/GPa)
#
#
# Indices 1 2 3 4 5 6 
#
# 1 0.027274 -0.011377 -0.007386 0.000000 0.000000 0.000000
# 2 -0.011377 0.027274 -0.007386 0.000000 0.000000 0.000000
# 3 -0.007386 -0.007386 0.013410 0.000000 0.000000 0.000000
# 4 0.000000 0.000000 0.000000 -0.057442 0.000000 0.000000
# 5 0.000000 0.000000 0.000000 0.000000 -0.057442 0.000000
# 6 0.000000 0.000000 0.000000 0.000000 0.000000 0.036436
#
#
# Mechanical properties :
#
#
# Convention : Reuss Voigt Hill
#
# Bulk Modulus (GPa) = 63.85236 77.14382 70.49809
# Shear Modulus (GPa) = 106.32254 6.12870 56.22562
#
# Velocity S-wave (km/s) = 7.71642 1.85262 5.61138
# Velocity P-wave (km/s) = 10.73078 6.91221 9.02575
#
# Compressibility (1/GPa) = 0.01566113
#
# Stress axis : x y z
#
# Youngs Moduli (GPa) = 36.66486 36.66486 74.57320
#
# Poissons Ratio (x) = 0.41712 0.55079
# Poissons Ratio (y) = 0.41712 0.55079
# Poissons Ratio (z) = 0.27080 0.27080
#
# Static dielectric constant tensor:
#      x y z
#    x 3.219170 0.000000 0.000000 
#    y 0.000000 3.219170 0.000000 
#    z 0.000000 0.000000 3.504510 
# 
# 
# High freq. dielectric constant tensor:
#      x y z
#    x 1.679180 0.000000 0.000000 
#    y 0.000000 1.679180 0.000000 
#    z 0.000000 0.000000 1.707480 
# 
# From -- ./inp_files/5756.got.cif
#   From: 2010.03.12/outbox.cif.g09.slc.cpg/sg115_3_cif.got.tgz:5756.got - 2010.04.14 02:11:21.
