data_PCOD8309665
_publ_section_title
;
Structure prediction by ZEFSAII (Michael W. Deem and Ramdas Pophale) SiO2 
 PCOD8309665
Probable space group: P -4 M 2
;
_chemical_formula_sum "Si O2"
_cell_formula_units_Z 56
_cell_length_a 14.127369
_cell_length_b 14.127369
_cell_length_c 15.291767
_cell_angle_alpha 90.000000
_cell_angle_beta 90.000000
_cell_angle_gamma 90.000000
_cell_volume 3051.969926
_symmetry_space_group_name_H-M "P -4 M 2"
_symmetry_group_IT_number 115
_symmetry_cell_setting 'tetragonal'
loop_
_space_group_symop_operation_xyz
x,y,z
y,-x,-z
-x,-y,z
-y,x,-z
y,x,-z
-y,-x,-z
-x,y,z
x,-y,z
loop_
_atom_site_type_symbol
_atom_site_label
_atom_site_fract_x
_atom_site_fract_y
_atom_site_fract_z
Si Si1 0.302681 0.212367 0.823219
Si Si2 0.259921 0.892935 0.987695
Si Si3 0.608707 0.108572 0.662984
Si Si4 0.279965 0.105504 0.180740
Si Si5 0.607766 0.389862 0.101065
Si Si6 0.397291 0.109165 0.345983
Si Si7 0.111224 0.735763 0.502966
O O1 0.324127 0.154000 0.912074
O O2 0.364841 0.172383 0.745331
O O3 0.189929 0.204481 0.801146
O O4 0.328982 0.322234 0.838294
O O5 0.237085 0.000000 0.960626
O O6 0.160152 0.839849 0.000000
O O7 0.316287 0.887476 0.080165
O O8 0.500000 0.127367 0.637027
O O9 0.673142 0.136284 0.581195
O O10 0.624993 0.000000 0.689761
O O11 0.367742 0.121198 0.245238
O O12 0.234660 0.000000 0.196808
O O13 0.500000 0.360527 0.123122
O O14 0.623314 0.500000 0.121424
O O15 0.630999 0.369002 0.000000
O O16 0.500000 0.158372 0.358015
O O17 0.320249 0.152040 0.412484
O O18 0.406946 0.000000 0.371828
O O19 0.164183 0.835818 0.500000
O O20 0.000000 0.757888 0.509887
#
# Coordination Sequence:
#
# PCOD8309665 Si02
#       7
#     8   8   8   8   8   8   8
#     4  11  19  32  52  73 102 141 179 215 256 308
#     4   9  18  31  47  69 100 139 178 215 254 301
#     4  10  21  36  54  78 107 138 173 212 254 304
#     4   9  18  31  47  71 102 132 167 214 262 304
#     4   9  18  32  49  70  96 129 175 228 277 323
#     4   9  17  31  51  72  95 125 160 200 248 298
#     4  10  20  35  55  78 104 133 165 204 250 300
#
# _framework density 18.348804000000001
#
# number of rings (size 3 to 8) (size 9 to 14) (size 15 to 20)
#    0.000    2.429    0.000    3.857    0.000    2.571 
#    0.000    1.429    0.000    5.571    0.000    4.000 
#    0.000    3.714    0.000    0.000    0.000    0.000 
#
# Total GULP energy -694138.006360 kJ/mol
# GULP energy per Si atom -12395.321542 kJ/mol
# Density = 1.830704 g / cm^3
# Si number density = 18.348804 Si / 1000 Ang^3
#
#
#
# Elastic Constant Matrix: (Units=GPa)
#
#
# Indices 1 2 3 4 5 6 
#
# 1 89.3504 46.1888 52.7132 0.0000 0.0000 0.0000
# 2 46.1888 89.3470 52.7126 0.0000 0.0000 0.0000
# 3 52.7132 52.7126 110.3739 0.0000 0.0000 0.0000
# 4 0.0000 0.0000 0.0000 25.7541 0.0000 0.0000
# 5 0.0000 0.0000 0.0000 0.0000 25.7544 0.0000
# 6 0.0000 0.0000 0.0000 0.0000 0.0000 20.9140
#
#
#
# Elastic Compliance Matrix: (Units=1/GPa)
#
#
# Indices 1 2 3 4 5 6 
#
# 1 0.017454 -0.005715 -0.005606 0.000000 0.000000 0.000000
# 2 -0.005715 0.017455 -0.005606 0.000000 0.000000 0.000000
# 3 -0.005606 -0.005606 0.014415 0.000000 0.000000 0.000000
# 4 0.000000 0.000000 0.000000 0.038829 0.000000 0.000000
# 5 0.000000 0.000000 0.000000 0.000000 0.038828 0.000000
# 6 0.000000 0.000000 0.000000 0.000000 0.000000 0.047815
#
#
# Mechanical properties :
#
#
# Convention : Reuss Voigt Hill
#
# Bulk Modulus (GPa) = 64.65148 65.81117 65.23133
# Shear Modulus (GPa) = 23.38556 23.64829 23.51693
#
# Velocity S-wave (km/s) = 3.57389 3.59391 3.58391
# Velocity P-wave (km/s) = 7.23474 7.29151 7.26318
#
# Compressibility (1/GPa) = 0.01546755
#
# Stress axis : x y z
#
# Youngs Moduli (GPa) = 57.29400 57.29144 69.37195
#
# Poissons Ratio (x) = 0.32745 0.38891
# Poissons Ratio (y) = 0.32746 0.38893
# Poissons Ratio (z) = 0.32120 0.32120
#
# Static dielectric constant tensor:
#      x y z
#    x 3.304490 0.000000 0.000000 
#    y 0.000000 3.304500 0.000000 
#    z 0.000000 0.000000 3.469740 
# 
# 
# High freq. dielectric constant tensor:
#      x y z
#    x 1.696200 0.000000 0.000000 
#    y 0.000000 1.696200 0.000000 
#    z 0.000000 0.000000 1.717050 
# 
# From -- ./inp_files/3845.got.cif
#   From: 2010.03.12/outbox.cif.g09.slc.cpg/sg115_2_cif.got.tgz:3845.got - 2010.04.14 02:11:21.
