data_PCOD8309750
_publ_section_title
;
Structure prediction by ZEFSAII (Michael W. Deem and Ramdas Pophale) SiO2 
 PCOD8309750
Probable space group: P -4 M 2
;
_chemical_formula_sum "Si O2"
_cell_formula_units_Z 48
_cell_length_a 9.430113
_cell_length_b 9.430113
_cell_length_c 30.603178
_cell_angle_alpha 90.000000
_cell_angle_beta 90.000000
_cell_angle_gamma 90.000000
_cell_volume 2721.449765
_symmetry_space_group_name_H-M "P -4 M 2"
_symmetry_group_IT_number 115
_symmetry_cell_setting 'tetragonal'
loop_
_space_group_symop_operation_xyz
x,y,z
y,-x,-z
-x,-y,z
-y,x,-z
y,x,-z
-y,-x,-z
-x,y,z
x,-y,z
loop_
_atom_site_type_symbol
_atom_site_label
_atom_site_fract_x
_atom_site_fract_y
_atom_site_fract_z
Si Si1 0.168782 0.340387 0.371894
Si Si2 0.831077 0.158255 0.451865
Si Si3 0.164510 0.835670 0.711551
Si Si4 0.834239 0.335733 0.796786
Si Si5 0.333766 0.841497 0.966297
Si Si6 0.162773 0.665548 0.133100
O O1 0.228985 0.500000 0.370043
O O2 0.230533 0.263586 0.415089
O O3 0.219932 0.255465 0.329298
O O4 0.000000 0.340846 0.373785
O O5 0.785700 0.214301 0.500000
O O6 0.000000 0.152292 0.449769
O O7 0.770613 0.000000 0.443315
O O8 0.213278 0.744207 0.752901
O O9 0.000000 0.811865 0.700116
O O10 0.195699 0.000000 0.722003
O O11 0.793456 0.500000 0.792158
O O12 0.753003 0.269704 0.837411
O O13 0.000000 0.314213 0.805233
O O14 0.500000 0.833689 0.973601
O O15 0.296265 0.798375 0.916759
O O16 0.278316 0.000000 0.975560
O O17 0.264058 0.735942 0.000000
O O18 0.185300 0.500000 0.142203
O O19 0.000000 0.707788 0.143179
#
# Coordination Sequence:
#
# PCOD8309750 Si02
#       6
#     8   8   8   8   8   8
#     4   9  16  25  40  65  93 117 147 191 235 272
#     4   8  13  22  38  60  85 114 148 184 223 270
#     4   9  17  30  48  68  92 124 158 191 233 285
#     4  10  21  35  51  74 102 129 160 201 247 293
#     4   9  19  35  53  75 103 133 166 204 244 287
#     4   9  19  36  55  74  99 132 168 204 242 287
#
# _framework density 17.637657999999998
#
# number of rings (size 3 to 8) (size 9 to 14) (size 15 to 20)
#    0.000    3.000    0.000    2.500    0.000    5.667 
#    0.000    6.667    0.000    1.000    0.000    4.667 
#    0.000    0.000    0.000    0.000    0.000    0.000 
#
# Total GULP energy -595121.575474 kJ/mol
# GULP energy per Si atom -12398.366156 kJ/mol
# Density = 1.759751 g / cm^3
# Si number density = 17.637658 Si / 1000 Ang^3
#
#
#
# Elastic Constant Matrix: (Units=GPa)
#
#
# Indices 1 2 3 4 5 6 
#
# 1 69.5793 35.6404 67.9976 0.0000 0.0000 0.0000
# 2 35.6404 69.5815 67.9987 0.0000 0.0000 0.0000
# 3 67.9976 67.9987 157.4150 0.0000 0.0000 0.0000
# 4 0.0000 0.0000 0.0000 1.0556 0.0000 0.0000
# 5 0.0000 0.0000 0.0000 0.0000 1.0551 0.0000
# 6 0.0000 0.0000 0.0000 0.0000 0.0000 20.9331
#
#
#
# Elastic Compliance Matrix: (Units=1/GPa)
#
#
# Indices 1 2 3 4 5 6 
#
# 1 0.025491 -0.003973 -0.009295 0.000000 0.000000 0.000000
# 2 -0.003973 0.025490 -0.009295 0.000000 0.000000 0.000000
# 3 -0.009295 -0.009295 0.014383 0.000000 0.000000 0.000000
# 4 0.000000 0.000000 0.000000 0.947365 0.000000 0.000000
# 5 0.000000 0.000000 0.000000 0.000000 0.947784 0.000000
# 6 0.000000 0.000000 0.000000 0.000000 0.000000 0.047771
#
#
# Mechanical properties :
#
#
# Convention : Reuss Voigt Hill
#
# Bulk Modulus (GPa) = 49.41188 71.09436 60.25312
# Shear Modulus (GPa) = 2.42700 12.93802 7.68251
#
# Velocity S-wave (km/s) = 1.17432 2.71134 2.08931
# Velocity P-wave (km/s) = 5.46942 7.08503 6.32899
#
# Compressibility (1/GPa) = 0.02023805
#
# Stress axis : x y z
#
# Youngs Moduli (GPa) = 39.22987 39.23102 69.52844
#
# Poissons Ratio (x) = 0.15588 0.64625
# Poissons Ratio (y) = 0.15588 0.64624
# Poissons Ratio (z) = 0.36463 0.36464
#
# Static dielectric constant tensor:
#      x y z
#    x 3.121780 0.000000 0.000000 
#    y 0.000000 3.121780 0.000000 
#    z 0.000000 0.000000 3.430020 
# 
# 
# High freq. dielectric constant tensor:
#      x y z
#    x 1.659600 0.000000 0.000000 
#    y 0.000000 1.659600 0.000000 
#    z 0.000000 0.000000 1.695330 
# 
# From -- ./inp_files/5949.got.cif
#   From: 2010.03.12/outbox.cif.g09.slc.cpg/sg115_3_cif.got.tgz:5949.got - 2010.04.14 02:11:21.
