data_PCOD8309034
_publ_section_title
;
Structure prediction by ZEFSAII (Michael W. Deem and Ramdas Pophale) SiO2 
 PCOD8309034
Probable space group: P -4 21 C
;
_chemical_formula_sum "Si O2"
_cell_formula_units_Z 40
_cell_length_a 8.432825
_cell_length_b 8.432825
_cell_length_c 24.480182
_cell_angle_alpha 90.000000
_cell_angle_beta 90.000000
_cell_angle_gamma 90.000000
_cell_volume 1740.847860
_symmetry_space_group_name_H-M "P -4 21 C"
_symmetry_group_IT_number 114
_symmetry_cell_setting 'tetragonal'
loop_
_space_group_symop_operation_xyz
x,y,z
y,-x,-z
-x,-y,z
-y,x,-z
1/2+x,1/2-y,1/2-z
1/2-x,1/2+y,1/2-z
1/2-y,1/2-x,1/2+z
1/2+y,1/2+x,1/2+z
loop_
_atom_site_type_symbol
_atom_site_label
_atom_site_fract_x
_atom_site_fract_y
_atom_site_fract_z
Si Si1 0.739603 0.103168 0.695795
Si Si2 0.660591 0.096312 0.481203
Si Si3 0.674158 0.546556 0.601324
Si Si4 0.104467 0.742351 0.795749
Si Si5 0.214825 0.175958 0.416025
O O1 0.866680 0.164474 0.739604
O O2 0.582738 0.214763 0.695179
O O3 0.828202 0.105871 0.637526
O O4 0.695505 0.922985 0.707991
O O5 0.654433 0.259424 0.447539
O O6 0.694961 0.140261 0.543480
O O7 0.500000 0.000000 0.482202
O O8 0.790255 0.988596 0.449685
O O9 0.500000 0.500000 0.583088
O O10 0.675697 0.646572 0.656983
O O11 0.783292 0.390798 0.606279
#
# Coordination Sequence:
#
# PCOD8309034 Si02
#       5
#     8   8   8   8   8
#     4  11  26  46  73 102 146 186 238 301 358 434
#     4  10  27  44  70 107 144 188 243 294 362 435
#     4  11  24  44  74  99 137 186 239 293 361 432
#     4  11  26  46  73 107 139 187 240 295 366 433
#     4  11  25  46  70 101 148 186 235 297 358 431
#
# _framework density 22.977312000000001
#
# number of rings (size 3 to 8) (size 9 to 14) (size 15 to 20)
#    0.000    1.200    2.000    1.200   14.000    0.400 
#    0.000    0.000    0.000    0.000    0.000    0.000 
#    0.000    0.000    0.000    0.000    0.000    0.000 
#
# Total GULP energy -496099.012631 kJ/mol
# GULP energy per Si atom -12402.475316 kJ/mol
# Density = 2.292501 g / cm^3
# Si number density = 22.977312 Si / 1000 Ang^3
#
#
#
# Elastic Constant Matrix: (Units=GPa)
#
#
# Indices 1 2 3 4 5 6 
#
# 1 82.1801 19.1733 48.0366 0.0000 0.0000 0.0000
# 2 19.1733 82.1801 48.0366 0.0000 0.0000 0.0000
# 3 48.0366 48.0366 195.2024 0.0000 0.0000 0.0000
# 4 0.0000 0.0000 0.0000 37.0208 0.0000 0.0000
# 5 0.0000 0.0000 0.0000 0.0000 37.0208 0.0000
# 6 0.0000 0.0000 0.0000 0.0000 0.0000 23.4219
#
#
#
# Elastic Compliance Matrix: (Units=1/GPa)
#
#
# Indices 1 2 3 4 5 6 
#
# 1 0.014370 -0.001502 -0.003167 0.000000 0.000000 0.000000
# 2 -0.001502 0.014370 -0.003167 0.000000 0.000000 0.000000
# 3 -0.003167 -0.003167 0.006681 0.000000 0.000000 0.000000
# 4 0.000000 0.000000 0.000000 0.027012 0.000000 0.000000
# 5 0.000000 0.000000 0.000000 0.000000 0.027012 0.000000
# 6 0.000000 0.000000 0.000000 0.000000 0.000000 0.042695
#
#
# Mechanical properties :
#
#
# Convention : Reuss Voigt Hill
#
# Bulk Modulus (GPa) = 50.63016 65.56174 58.09595
# Shear Modulus (GPa) = 32.38485 35.78044 34.08264
#
# Velocity S-wave (km/s) = 3.75831 3.95043 3.85556
# Velocity P-wave (km/s) = 6.39655 7.02873 6.72008
#
# Compressibility (1/GPa) = 0.01975107
#
# Stress axis : x y z
#
# Youngs Moduli (GPa) = 69.59067 69.59067 149.66828
#
# Poissons Ratio (x) = 0.10449 0.47395
# Poissons Ratio (y) = 0.10449 0.47395
# Poissons Ratio (z) = 0.22037 0.22037
#
# Static dielectric constant tensor:
#      x y z
#    x 4.243370 0.000000 0.000000 
#    y 0.000000 4.243370 0.000000 
#    z 0.000000 0.000000 4.159250 
# 
# 
# High freq. dielectric constant tensor:
#      x y z
#    x 1.910180 0.000000 0.000000 
#    y 0.000000 1.910180 0.000000 
#    z 0.000000 0.000000 1.918410 
# 
# From -- ./inp_files/3334.got.cif
#   From: 2010.03.12/outbox.cif.g09.slc.cpg/sg114_2_cif.got.tgz:3334.got - 2010.04.14 02:08:34.
