data_PCOD8309045
_publ_section_title
;
Structure prediction by ZEFSAII (Michael W. Deem and Ramdas Pophale) SiO2 
 PCOD8309045
Probable space group: P -4 21 C
;
_chemical_formula_sum "Si O2"
_cell_formula_units_Z 42
_cell_length_a 14.939546
_cell_length_b 14.939546
_cell_length_c 9.178660
_cell_angle_alpha 90.000000
_cell_angle_beta 90.000000
_cell_angle_gamma 90.000000
_cell_volume 2048.585444
_symmetry_space_group_name_H-M "P -4 21 C"
_symmetry_group_IT_number 114
_symmetry_cell_setting 'tetragonal'
loop_
_space_group_symop_operation_xyz
x,y,z
y,-x,-z
-x,-y,z
-y,x,-z
1/2+x,1/2-y,1/2-z
1/2-x,1/2+y,1/2-z
1/2-y,1/2-x,1/2+z
1/2+y,1/2+x,1/2+z
loop_
_atom_site_type_symbol
_atom_site_label
_atom_site_fract_x
_atom_site_fract_y
_atom_site_fract_z
Si Si1 0.234824 0.543803 0.574758
Si Si2 0.036453 0.403644 0.284424
Si Si3 0.000000 0.000000 0.500000
Si Si4 0.087911 0.684515 0.517713
Si Si5 0.463266 0.769322 0.724431
Si Si6 0.644992 0.397396 0.824687
O O1 0.168418 0.476483 0.657594
O O2 0.180591 0.633661 0.540261
O O3 0.271140 0.499650 0.426654
O O4 0.322279 0.565609 0.669388
O O5 0.141994 0.407174 0.314992
O O6 0.000000 0.500000 0.231652
O O7 0.984498 0.374759 0.430498
O O8 0.970052 0.079664 0.394890
O O9 0.116044 0.772527 0.432016
O O10 0.047928 0.707320 0.674967
O O11 0.402002 0.698081 0.806697
#
# Coordination Sequence:
#
# PCOD8309045 Si02
#       6
#     8   8   2   8   8   8
#     4  11  24  42  67 107 140 171 224 290 341 401
#     4  11  21  38  69 104 139 179 215 264 350 419
#     4  12  24  56  74  80 128 196 254 272 348 412
#     4  11  22  43  68 100 141 178 218 282 351 415
#     4  12  23  40  69 102 135 178 228 281 345 411
#     4  11  27  46  69  95 133 188 233 283 338 411
#
# _framework density 20.501951999999999
#
# number of rings (size 3 to 8) (size 9 to 14) (size 15 to 20)
#    0.000    0.762    5.714    2.286    0.000    4.571 
#    0.000    0.000    0.000    0.000    0.000    0.000 
#    0.000    0.000    0.000    0.000    0.000    0.000 
#
# Total GULP energy -521071.543968 kJ/mol
# GULP energy per Si atom -12406.465333 kJ/mol
# Density = 2.045529 g / cm^3
# Si number density = 20.501952 Si / 1000 Ang^3
#
#
#
# Elastic Constant Matrix: (Units=GPa)
#
#
# Indices 1 2 3 4 5 6 
#
# 1 83.5190 46.8639 33.7374 0.0000 0.0000 0.0000
# 2 46.8639 83.5190 33.7374 0.0000 0.0000 0.0000
# 3 33.7374 33.7374 122.4342 0.0000 0.0000 0.0000
# 4 0.0000 0.0000 0.0000 33.2103 0.0000 0.0000
# 5 0.0000 0.0000 0.0000 0.0000 33.2103 0.0000
# 6 0.0000 0.0000 0.0000 0.0000 0.0000 37.7334
#
#
#
# Elastic Compliance Matrix: (Units=1/GPa)
#
#
# Indices 1 2 3 4 5 6 
#
# 1 0.018113 -0.009168 -0.002465 0.000000 0.000000 0.000000
# 2 -0.009168 0.018113 -0.002465 0.000000 0.000000 0.000000
# 3 -0.002465 -0.002465 0.009526 0.000000 0.000000 0.000000
# 4 0.000000 0.000000 0.000000 0.030111 0.000000 0.000000
# 5 0.000000 0.000000 0.000000 0.000000 0.030111 0.000000
# 6 0.000000 0.000000 0.000000 0.000000 0.000000 0.026502
#
#
# Mechanical properties :
#
#
# Convention : Reuss Voigt Hill
#
# Bulk Modulus (GPa) = 56.95714 57.57216 57.26465
# Shear Modulus (GPa) = 30.02553 32.50636 31.26595
#
# Velocity S-wave (km/s) = 3.83106 3.98619 3.90939
# Velocity P-wave (km/s) = 6.88556 7.02342 6.95484
#
# Compressibility (1/GPa) = 0.01755706
#
# Stress axis : x y z
#
# Youngs Moduli (GPa) = 55.20791 55.20791 104.97469
#
# Poissons Ratio (x) = 0.50615 0.25876
# Poissons Ratio (y) = 0.50615 0.25876
# Poissons Ratio (z) = 0.13608 0.13608
#
# Static dielectric constant tensor:
#      x y z
#    x 3.672910 0.000000 0.000000 
#    y 0.000000 3.672910 0.000000 
#    z 0.000000 0.000000 3.942430 
# 
# 
# High freq. dielectric constant tensor:
#      x y z
#    x 1.795920 0.000000 0.000000 
#    y 0.000000 1.795920 0.000000 
#    z 0.000000 0.000000 1.821080 
# 
# From -- ./inp_files/800.got.cif
#   From: 2010.03.12/outbox.cif.g09.slc.cpg/sg114_1_cif.got.tgz:800.got - 2010.04.14 02:08:34.
