data_PCOD8309597
_publ_section_title
;
Structure prediction by ZEFSAII (Michael W. Deem and Ramdas Pophale) SiO2 
 PCOD8309597
Probable space group: P -4 M 2
;
_chemical_formula_sum "Si O2"
_cell_formula_units_Z 44
_cell_length_a 9.184650
_cell_length_b 9.184650
_cell_length_c 28.430198
_cell_angle_alpha 90.000000
_cell_angle_beta 90.000000
_cell_angle_gamma 90.000000
_cell_volume 2398.308832
_symmetry_space_group_name_H-M "P -4 M 2"
_symmetry_group_IT_number 115
_symmetry_cell_setting 'tetragonal'
loop_
_space_group_symop_operation_xyz
x,y,z
y,-x,-z
-x,-y,z
-y,x,-z
y,x,-z
-y,-x,-z
-x,y,z
x,-y,z
loop_
_atom_site_type_symbol
_atom_site_label
_atom_site_fract_x
_atom_site_fract_y
_atom_site_fract_z
Si Si1 0.671227 0.330187 0.583974
Si Si2 0.829103 0.829103 0.500000
Si Si3 0.837541 0.172323 0.947991
Si Si4 0.837271 0.327327 0.677278
Si Si5 0.673451 0.662301 0.234485
Si Si6 0.327437 0.337371 0.869052
O O1 0.500000 0.298988 0.584296
O O2 0.703260 0.500000 0.573588
O O3 0.747494 0.232238 0.545200
O O4 0.736946 0.280300 0.633758
O O5 0.000000 0.796906 0.504784
O O6 0.730644 0.231915 0.908823
O O7 0.000000 0.233630 0.939140
O O8 0.839123 0.000000 0.944992
O O9 0.781423 0.218578 0.000000
O O10 0.843544 0.500000 0.680612
O O11 0.768246 0.263002 0.725279
O O12 0.000000 0.263397 0.671002
O O13 0.500000 0.655477 0.236977
O O14 0.736133 0.500000 0.243049
O O15 0.719109 0.721443 0.182784
O O16 0.500000 0.338049 0.871024
O O17 0.266953 0.500000 0.877991
#
# Coordination Sequence:
#
# PCOD8309597 Si02
#       6
#     8   4   8   8   8   8
#     4  10  20  34  54  79 104 132 168 207 247 294
#     4  11  24  39  54  74 102 135 168 205 252 300
#     4   9  19  35  51  67  91 125 164 204 247 298
#     4   9  16  26  44  72 103 133 166 205 247 290
#     4   8  14  26  43  65  97 132 162 197 244 294
#     4   9  18  31  48  73 102 129 160 202 250 297
#
# _framework density 18.346261999999999
#
# number of rings (size 3 to 8) (size 9 to 14) (size 15 to 20)
#    0.000    2.818    0.000    3.273    0.000    7.273 
#    0.000    4.545    0.000    1.091    0.000    5.091 
#    0.000    0.000    0.000    0.000    0.000    0.000 
#
# Total GULP energy -545448.206134 kJ/mol
# GULP energy per Si atom -12396.550139 kJ/mol
# Density = 1.830451 g / cm^3
# Si number density = 18.346262 Si / 1000 Ang^3
#
#
#
# Elastic Constant Matrix: (Units=GPa)
#
#
# Indices 1 2 3 4 5 6 
#
# 1 63.9642 33.3679 57.9684 0.0000 0.0000 0.0000
# 2 33.3679 63.9642 57.9684 0.0000 0.0000 0.0000
# 3 57.9684 57.9684 171.2388 0.0000 0.0000 0.0000
# 4 0.0000 0.0000 0.0000 -9.9429 0.0000 0.0000
# 5 0.0000 0.0000 0.0000 0.0000 -9.9437 0.0000
# 6 0.0000 0.0000 0.0000 0.0000 0.0000 22.5606
#
#
#
# Elastic Compliance Matrix: (Units=1/GPa)
#
#
# Indices 1 2 3 4 5 6 
#
# 1 0.024950 -0.007734 -0.005828 0.000000 0.000000 0.000000
# 2 -0.007734 0.024950 -0.005828 0.000000 0.000000 0.000000
# 3 -0.005828 -0.005828 0.009786 0.000000 0.000000 0.000000
# 4 0.000000 0.000000 0.000000 -0.100575 0.000000 0.000000
# 5 0.000000 0.000000 0.000000 0.000000 -0.100566 0.000000
# 6 0.000000 0.000000 0.000000 0.000000 0.000000 0.044325
#
#
# Mechanical properties :
#
#
# Convention : Reuss Voigt Hill
#
# Bulk Modulus (GPa) = 47.83371 66.41961 57.12666
# Shear Modulus (GPa) = -97.31120 10.52563 -43.39278
#
# Velocity S-wave (km/s) = -7.29086 2.39785 -4.86862
# Velocity P-wave (km/s) = 6.68925 6.62934 0.63164
#
# Compressibility (1/GPa) = 0.02090576
#
# Stress axis : x y z
#
# Youngs Moduli (GPa) = 40.08024 40.08023 102.18986
#
# Poissons Ratio (x) = 0.30997 0.59557
# Poissons Ratio (y) = 0.30997 0.59557
# Poissons Ratio (z) = 0.23359 0.23359
#
# Static dielectric constant tensor:
#      x y z
#    x 3.247590 0.000000 0.000000 
#    y 0.000000 3.247590 0.000000 
#    z 0.000000 0.000000 3.697380 
# 
# 
# High freq. dielectric constant tensor:
#      x y z
#    x 1.687540 0.000000 0.000000 
#    y 0.000000 1.687540 0.000000 
#    z 0.000000 0.000000 1.730130 
# 
# From -- ./inp_files/5807.got.cif
#   From: 2010.03.12/outbox.cif.g09.slc.cpg/sg115_3_cif.got.tgz:5807.got - 2010.04.14 02:11:21.
