data_PCOD8309273
_publ_section_title
;
Structure prediction by ZEFSAII (Michael W. Deem and Ramdas Pophale) SiO2 
 PCOD8309273
Probable space group: P -4 M 2
;
_chemical_formula_sum "Si O2"
_cell_formula_units_Z 56
_cell_length_a 12.615372
_cell_length_b 12.615372
_cell_length_c 19.375501
_cell_angle_alpha 90.000000
_cell_angle_beta 90.000000
_cell_angle_gamma 90.000000
_cell_volume 3083.564690
_symmetry_space_group_name_H-M "P -4 M 2"
_symmetry_group_IT_number 115
_symmetry_cell_setting 'tetragonal'
loop_
_space_group_symop_operation_xyz
x,y,z
y,-x,-z
-x,-y,z
-y,x,-z
y,x,-z
-y,-x,-z
-x,y,z
x,-y,z
loop_
_atom_site_type_symbol
_atom_site_label
_atom_site_fract_x
_atom_site_fract_y
_atom_site_fract_z
Si Si1 0.122880 0.877318 0.722964
Si Si2 0.773374 0.621781 0.035455
Si Si3 0.621701 0.378669 0.284634
Si Si4 0.622521 0.113290 0.100451
Si Si5 0.261277 0.764141 0.388859
Si Si6 0.271555 0.237860 0.824199
Si Si7 0.124814 0.623823 0.486602
O O1 0.155252 0.804839 0.658492
O O2 0.202582 0.852365 0.786368
O O3 0.000000 0.854075 0.742587
O O4 0.137558 0.000000 0.702957
O O5 0.750914 0.500000 0.050380
O O6 0.810251 0.675121 0.107145
O O7 0.667107 0.667107 0.000000
O O8 0.865696 0.642975 0.980469
O O9 0.500000 0.357010 0.261422
O O10 0.634467 0.500000 0.308831
O O11 0.650100 0.300756 0.347193
O O12 0.706244 0.359559 0.223398
O O13 0.500000 0.112321 0.116529
O O14 0.668227 0.195234 0.153885
O O15 0.674900 0.000000 0.116207
O O16 0.180982 0.680066 0.422268
O O17 0.323352 0.835404 0.443254
O O18 0.154311 0.500000 0.486134
O O19 0.000000 0.641669 0.479514
#
# Coordination Sequence:
#
# PCOD8309273 Si02
#       7
#     8   8   8   8   8   8   8
#     4  10  21  36  53  73  98 130 170 213 254 297
#     4   9  18  31  47  70  98 128 163 202 246 298
#     4  10  20  33  50  73 102 134 165 197 236 287
#     4   9  17  30  48  69  93 121 155 197 245 295
#     4  10  20  35  54  75 102 134 165 201 246 295
#     4  10  19  32  50  71  97 128 164 204 248 293
#     4  10  20  34  54  79 104 130 163 203 246 293
#
# _framework density 18.160800999999999
#
# number of rings (size 3 to 8) (size 9 to 14) (size 15 to 20)
#    0.000    2.286    0.000    3.000    0.000    1.286 
#    0.000    0.000    0.000   21.857    0.000    7.000 
#    0.000    0.000    0.000    0.000    0.000    0.000 
#
# Total GULP energy -694232.607455 kJ/mol
# GULP energy per Si atom -12397.010847 kJ/mol
# Density = 1.811947 g / cm^3
# Si number density = 18.160801 Si / 1000 Ang^3
#
#
#
# Elastic Constant Matrix: (Units=GPa)
#
#
# Indices 1 2 3 4 5 6 
#
# 1 83.1646 31.3000 14.9721 0.0000 0.0000 0.0000
# 2 31.3000 83.1646 14.9721 0.0000 0.0000 0.0000
# 3 14.9721 14.9721 63.8570 0.0000 0.0000 0.0000
# 4 0.0000 0.0000 0.0000 25.6292 0.0000 0.0000
# 5 0.0000 0.0000 0.0000 0.0000 25.6292 0.0000
# 6 0.0000 0.0000 0.0000 0.0000 0.0000 28.2172
#
#
#
# Elastic Compliance Matrix: (Units=1/GPa)
#
#
# Indices 1 2 3 4 5 6 
#
# 1 0.014294 -0.004987 -0.002182 0.000000 0.000000 0.000000
# 2 -0.004987 0.014294 -0.002182 0.000000 0.000000 0.000000
# 3 -0.002182 -0.002182 0.016683 0.000000 0.000000 0.000000
# 4 0.000000 0.000000 0.000000 0.039018 0.000000 0.000000
# 5 0.000000 0.000000 0.000000 0.000000 0.039018 0.000000
# 6 0.000000 0.000000 0.000000 0.000000 0.000000 0.035439
#
#
# Mechanical properties :
#
#
# Convention : Reuss Voigt Hill
#
# Bulk Modulus (GPa) = 37.63801 39.18606 38.41204
# Shear Modulus (GPa) = 26.83763 27.15793 26.99778
#
# Velocity S-wave (km/s) = 3.84836 3.87125 3.85982
# Velocity P-wave (km/s) = 6.36524 6.45029 6.40791
#
# Compressibility (1/GPa) = 0.02656889
#
# Stress axis : x y z
#
# Youngs Moduli (GPa) = 69.95901 69.95901 59.94028
#
# Poissons Ratio (x) = 0.34888 0.13080
# Poissons Ratio (y) = 0.34888 0.13080
# Poissons Ratio (z) = 0.15266 0.15266
#
# Static dielectric constant tensor:
#      x y z
#    x 3.380140 0.000000 0.000000 
#    y 0.000000 3.380140 0.000000 
#    z 0.000000 0.000000 3.377150 
# 
# 
# High freq. dielectric constant tensor:
#      x y z
#    x 1.706280 0.000000 0.000000 
#    y 0.000000 1.706280 0.000000 
#    z 0.000000 0.000000 1.707350 
# 
# From -- ./inp_files/4906.got.cif
#   From: 2010.03.12/outbox.cif.g09.slc.cpg/sg115_3_cif.got.tgz:4906.got - 2010.04.14 02:11:21.
