data_PCOD8309339
_publ_section_title
;
Structure prediction by ZEFSAII (Michael W. Deem and Ramdas Pophale) SiO2 
 PCOD8309339
Probable space group: P -4 M 2
;
_chemical_formula_sum "Si O2"
_cell_formula_units_Z 56
_cell_length_a 14.749366
_cell_length_b 14.749366
_cell_length_c 14.553172
_cell_angle_alpha 90.000000
_cell_angle_beta 90.000000
_cell_angle_gamma 90.000000
_cell_volume 3165.952301
_symmetry_space_group_name_H-M "P -4 M 2"
_symmetry_group_IT_number 115
_symmetry_cell_setting 'tetragonal'
loop_
_space_group_symop_operation_xyz
x,y,z
y,-x,-z
-x,-y,z
-y,x,-z
y,x,-z
-y,-x,-z
-x,y,z
x,-y,z
loop_
_atom_site_type_symbol
_atom_site_label
_atom_site_fract_x
_atom_site_fract_y
_atom_site_fract_z
Si Si1 0.394874 0.712765 0.075484
Si Si2 0.282111 0.658653 0.402899
Si Si3 0.397002 0.100744 0.156160
Si Si4 0.398869 0.598929 0.249628
Si Si5 0.603769 0.100502 0.508773
Si Si6 0.146379 0.714124 0.666993
Si Si7 0.099152 0.105506 0.399418
O O1 0.500000 0.690774 0.052170
O O2 0.377406 0.821470 0.080314
O O3 0.366791 0.671258 0.173864
O O4 0.329046 0.670955 0.000000
O O5 0.333131 0.666870 0.500000
O O6 0.332778 0.587490 0.337880
O O7 0.175779 0.636644 0.417624
O O8 0.297799 0.747467 0.342455
O O9 0.500000 0.113159 0.192614
O O10 0.329356 0.108928 0.241001
O O11 0.384301 0.000000 0.112305
O O12 0.500000 0.625376 0.284160
O O13 0.399756 0.500000 0.201960
O O14 0.500000 0.122539 0.480314
O O15 0.666688 0.097891 0.419159
O O16 0.610343 0.000000 0.554183
O O17 0.128012 0.822448 0.673158
O O18 0.136790 0.136790 0.500000
O O19 0.000000 0.150464 0.375313
O O20 0.082664 0.000000 0.405086
#
# Coordination Sequence:
#
# PCOD8309339 Si02
#       7
#     8   8   8   8   8   8   8
#     4  10  20  36  59  85 109 134 170 216 269 324
#     4  10  21  32  46  70 104 143 180 220 260 306
#     4  10  20  34  55  83 113 139 166 212 269 321
#     4  10  20  34  52  75 104 136 173 217 263 313
#     4  10  20  32  47  68  98 141 190 231 266 314
#     4  11  19  30  49  72 100 137 181 225 271 318
#     4   9  17  28  42  63  93 130 176 230 276 308
#
# _framework density 17.688199999999998
#
# number of rings (size 3 to 8) (size 9 to 14) (size 15 to 20)
#    0.000    2.000    1.429    4.286    0.000    6.429 
#    0.000    0.714    0.000    1.714    0.000    2.000 
#    0.000    0.000    0.000    0.000    0.000    0.000 
#
# Total GULP energy -693985.865927 kJ/mol
# GULP energy per Si atom -12392.604749 kJ/mol
# Density = 1.764794 g / cm^3
# Si number density = 17.688200 Si / 1000 Ang^3
#
#
#
# Elastic Constant Matrix: (Units=GPa)
#
#
# Indices 1 2 3 4 5 6 
#
# 1 101.3657 30.6965 44.8878 0.0000 0.0000 0.0000
# 2 30.6965 101.3663 44.8869 0.0000 0.0000 0.0000
# 3 44.8878 44.8869 71.3285 0.0000 0.0000 0.0000
# 4 0.0000 0.0000 0.0000 21.0702 0.0000 0.0000
# 5 0.0000 0.0000 0.0000 0.0000 21.0702 0.0000
# 6 0.0000 0.0000 0.0000 0.0000 0.0000 23.8798
#
#
#
# Elastic Compliance Matrix: (Units=1/GPa)
#
#
# Indices 1 2 3 4 5 6 
#
# 1 0.013692 -0.000459 -0.008328 0.000000 0.000000 0.000000
# 2 -0.000459 0.013692 -0.008328 0.000000 0.000000 0.000000
# 3 -0.008328 -0.008328 0.024501 0.000000 0.000000 0.000000
# 4 0.000000 0.000000 0.000000 0.047460 0.000000 0.000000
# 5 0.000000 0.000000 0.000000 0.000000 0.047460 0.000000
# 6 0.000000 0.000000 0.000000 0.000000 0.000000 0.041876
#
#
# Mechanical properties :
#
#
# Convention : Reuss Voigt Hill
#
# Bulk Modulus (GPa) = 56.63619 57.22254 56.92937
# Shear Modulus (GPa) = 21.85355 23.44331 22.64843
#
# Velocity S-wave (km/s) = 3.51876 3.64451 3.58219
# Velocity P-wave (km/s) = 6.97120 7.08031 7.02597
#
# Compressibility (1/GPa) = 0.01765655
#
# Stress axis : x y z
#
# Youngs Moduli (GPa) = 73.03534 73.03707 40.81458
#
# Poissons Ratio (x) = 0.03349 0.33990
# Poissons Ratio (y) = 0.03349 0.33989
# Poissons Ratio (z) = 0.60824 0.60822
#
# Static dielectric constant tensor:
#      x y z
#    x 3.287180 0.000000 0.000000 
#    y 0.000000 3.287190 0.000000 
#    z 0.000000 0.000000 2.829730 
# 
# 
# High freq. dielectric constant tensor:
#      x y z
#    x 1.695000 0.000000 0.000000 
#    y 0.000000 1.695000 0.000000 
#    z 0.000000 0.000000 1.625440 
# 
# From -- ./inp_files/3780.got.cif
#   From: 2010.03.12/outbox.cif.g09.slc.cpg/sg115_2_cif.got.tgz:3780.got - 2010.04.14 02:11:21.
