data_PCOD8309989
_publ_section_title
;
Structure prediction by ZEFSAII (Michael W. Deem and Ramdas Pophale) SiO2 
 PCOD8309989
Probable space group: P -4 M 2
;
_chemical_formula_sum "Si O2"
_cell_formula_units_Z 32
_cell_length_a 13.219103
_cell_length_b 13.219103
_cell_length_c 9.314150
_cell_angle_alpha 90.000000
_cell_angle_beta 90.000000
_cell_angle_gamma 90.000000
_cell_volume 1627.598200
_symmetry_space_group_name_H-M "P -4 M 2"
_symmetry_group_IT_number 115
_symmetry_cell_setting 'tetragonal'
loop_
_space_group_symop_operation_xyz
x,y,z
y,-x,-z
-x,-y,z
-y,x,-z
y,x,-z
-y,-x,-z
-x,y,z
x,-y,z
loop_
_atom_site_type_symbol
_atom_site_label
_atom_site_fract_x
_atom_site_fract_y
_atom_site_fract_z
Si Si1 0.286136 0.111758 0.367568
Si Si2 0.265959 0.383459 0.121900
Si Si3 0.386896 0.693787 0.360969
Si Si4 0.745494 0.886659 0.698335
O O1 0.369364 0.190898 0.305332
O O2 0.300345 0.107509 0.538931
O O3 0.176161 0.149860 0.312944
O O4 0.304604 0.000000 0.302536
O O5 0.246395 0.500000 0.070187
O O6 0.353293 0.387015 0.242505
O O7 0.165080 0.334570 0.191965
O O8 0.309300 0.309300 0.000000
O O9 0.316018 0.683983 0.500000
O O10 0.500000 0.671172 0.406071
O O11 0.768498 0.000000 0.755101
#
# Coordination Sequence:
#
# PCOD8309989 Si02
#       4
#     8   8   8   8
#     4   9  17  33  57  87 118 144 180 233 289 345
#     4  11  23  39  56  80 115 156 200 242 288 345
#     4  11  21  35  54  81 113 146 192 246 295 345
#     4   9  18  35  58  85 114 146 187 233 283 345
#
# _framework density 19.660874
#
# number of rings (size 3 to 8) (size 9 to 14) (size 15 to 20)
#    0.000    2.000    5.000    1.500    0.000    4.500 
#    0.000   10.000    0.000    6.000    0.000    0.000 
#    0.000    0.000    0.000    0.000    0.000    0.000 
#
# Total GULP energy -396437.552625 kJ/mol
# GULP energy per Si atom -12388.673520 kJ/mol
# Density = 1.961613 g / cm^3
# Si number density = 19.660874 Si / 1000 Ang^3
#
#
#
# Elastic Constant Matrix: (Units=GPa)
#
#
# Indices 1 2 3 4 5 6 
#
# 1 112.8953 30.3746 25.6477 0.0000 0.0000 0.0000
# 2 30.3746 112.8933 25.6479 0.0000 0.0000 0.0000
# 3 25.6477 25.6479 58.2399 0.0000 0.0000 0.0000
# 4 0.0000 0.0000 0.0000 20.6259 0.0000 0.0000
# 5 0.0000 0.0000 0.0000 0.0000 20.6260 0.0000
# 6 0.0000 0.0000 0.0000 0.0000 0.0000 14.5798
#
#
#
# Elastic Compliance Matrix: (Units=1/GPa)
#
#
# Indices 1 2 3 4 5 6 
#
# 1 0.010202 -0.001916 -0.003649 0.000000 0.000000 0.000000
# 2 -0.001916 0.010202 -0.003649 0.000000 0.000000 0.000000
# 3 -0.003649 -0.003649 0.020384 0.000000 0.000000 0.000000
# 4 0.000000 0.000000 0.000000 0.048483 0.000000 0.000000
# 5 0.000000 0.000000 0.000000 0.000000 0.048482 0.000000
# 6 0.000000 0.000000 0.000000 0.000000 0.000000 0.068588
#
#
# Mechanical properties :
#
#
# Convention : Reuss Voigt Hill
#
# Bulk Modulus (GPa) = 44.72168 49.70766 47.21467
# Shear Modulus (GPa) = 21.53088 24.65689 23.09388
#
# Velocity S-wave (km/s) = 3.31284 3.54518 3.43098
# Velocity P-wave (km/s) = 6.11793 6.48808 6.30572
#
# Compressibility (1/GPa) = 0.02236052
#
# Stress axis : x y z
#
# Youngs Moduli (GPa) = 98.01747 98.01536 49.05706
#
# Poissons Ratio (x) = 0.18779 0.17901
# Poissons Ratio (y) = 0.18780 0.17902
# Poissons Ratio (z) = 0.35768 0.35768
#
# Static dielectric constant tensor:
#      x y z
#    x 3.596590 0.000000 0.000000 
#    y 0.000000 3.596590 0.000000 
#    z 0.000000 0.000000 3.435240 
# 
# 
# High freq. dielectric constant tensor:
#      x y z
#    x 1.760890 0.000000 0.000000 
#    y 0.000000 1.760890 0.000000 
#    z 0.000000 0.000000 1.739890 
# 
# From -- ./inp_files/1331.got.cif
#   From: 2010.03.12/outbox.cif.g09.slc.cpg/sg115_1_cif.got.tgz:1331.got - 2010.04.14 02:11:21.
