data_PCOD8309797
_publ_section_title
;
Structure prediction by ZEFSAII (Michael W. Deem and Ramdas Pophale) SiO2 
 PCOD8309797
Probable space group: P -4 M 2
;
_chemical_formula_sum "Si O2"
_cell_formula_units_Z 44
_cell_length_a 8.991547
_cell_length_b 8.991547
_cell_length_c 28.939939
_cell_angle_alpha 90.000000
_cell_angle_beta 90.000000
_cell_angle_gamma 90.000000
_cell_volume 2339.733799
_symmetry_space_group_name_H-M "P -4 M 2"
_symmetry_group_IT_number 115
_symmetry_cell_setting 'tetragonal'
loop_
_space_group_symop_operation_xyz
x,y,z
y,-x,-z
-x,-y,z
-y,x,-z
y,x,-z
-y,-x,-z
-x,y,z
x,-y,z
loop_
_atom_site_type_symbol
_atom_site_label
_atom_site_fract_x
_atom_site_fract_y
_atom_site_fract_z
Si Si1 0.677084 0.335144 0.902602
Si Si2 0.332269 0.322731 0.802963
Si Si3 0.324862 0.828790 0.626972
Si Si4 0.826170 0.672533 0.542614
Si Si5 0.828658 0.171620 0.279118
Si Si6 0.326350 0.326350 0.000000
O O1 0.500000 0.347270 0.905027
O O2 0.746485 0.500000 0.901351
O O3 0.718743 0.257219 0.853589
O O4 0.731572 0.253670 0.950907
O O5 0.500000 0.268729 0.791272
O O6 0.327662 0.500000 0.804502
O O7 0.218645 0.265355 0.765050
O O8 0.500000 0.806830 0.625719
O O9 0.252849 0.723368 0.589155
O O10 0.265583 0.776441 0.676655
O O11 0.280086 0.000000 0.617194
O O12 0.766006 0.766006 0.500000
O O13 0.791703 0.500000 0.533681
O O14 0.000000 0.703138 0.547671
O O15 0.000000 0.203403 0.268005
O O16 0.798344 0.000000 0.290072
O O17 0.294890 0.500000 0.994202
#
# Coordination Sequence:
#
# PCOD8309797 Si02
#       6
#     8   8   8   8   8   4
#     4   7  10  17  31  55  87 119 150 187 235 291
#     4   9  17  29  46  70  99 128 159 199 249 302
#     4  10  21  38  60  83 105 132 169 212 258 305
#     4  11  24  40  59  85 115 146 179 212 248 292
#     4  10  21  36  53  73  98 131 171 211 251 298
#     4   7   8  12  26  50  82 117 148 182 230 287
#
# _framework density 18.805558000000001
#
# number of rings (size 3 to 8) (size 9 to 14) (size 15 to 20)
#    0.000    2.818    0.000    4.364    0.000    6.909 
#    0.000    0.000    0.000    0.000    0.000    1.273 
#    0.000    8.727    0.000    0.000    0.000    0.000 
#
# Total GULP energy -545077.274071 kJ/mol
# GULP energy per Si atom -12388.119865 kJ/mol
# Density = 1.876276 g / cm^3
# Si number density = 18.805558 Si / 1000 Ang^3
#
#
#
# Elastic Constant Matrix: (Units=GPa)
#
#
# Indices 1 2 3 4 5 6 
#
# 1 45.5302 24.7361 38.3720 0.0000 0.0000 0.0000
# 2 24.7361 45.5302 38.3720 0.0000 0.0000 0.0000
# 3 38.3720 38.3720 159.5461 0.0000 0.0000 0.0000
# 4 0.0000 0.0000 0.0000 -170.0776 0.0000 0.0000
# 5 0.0000 0.0000 0.0000 0.0000 -170.0776 0.0000
# 6 0.0000 0.0000 0.0000 0.0000 0.0000 22.7183
#
#
#
# Elastic Compliance Matrix: (Units=1/GPa)
#
#
# Indices 1 2 3 4 5 6 
#
# 1 0.033696 -0.014394 -0.004642 0.000000 0.000000 0.000000
# 2 -0.014394 0.033696 -0.004642 0.000000 0.000000 0.000000
# 3 -0.004642 -0.004642 0.008501 0.000000 0.000000 0.000000
# 4 0.000000 0.000000 0.000000 -0.005880 0.000000 0.000000
# 5 0.000000 0.000000 0.000000 0.000000 -0.005880 0.000000
# 6 0.000000 0.000000 0.000000 0.000000 0.000000 0.044017
#
#
# Mechanical properties :
#
#
# Convention : Reuss Voigt Hill
#
# Bulk Modulus (GPa) = 35.04419 50.39632 42.72025
# Shear Modulus (GPa) = 30.29930 -53.54563 -11.62316
#
# Velocity S-wave (km/s) = 4.01832 -5.34183 -2.48880
# Velocity P-wave (km/s) = 6.34071 3.34515 3.80885
#
# Compressibility (1/GPa) = 0.02853540
#
# Stress axis : x y z
#
# Youngs Moduli (GPa) = 29.67704 29.67704 117.63654
#
# Poissons Ratio (x) = 0.42718 0.54609
# Poissons Ratio (y) = 0.42718 0.54609
# Poissons Ratio (z) = 0.13777 0.13777
#
# Static dielectric constant tensor:
#      x y z
#    x 3.187380 0.000000 0.000000 
#    y 0.000000 3.187380 0.000000 
#    z 0.000000 0.000000 4.180570 
# 
# 
# High freq. dielectric constant tensor:
#      x y z
#    x 1.693620 0.000000 0.000000 
#    y 0.000000 1.693620 0.000000 
#    z 0.000000 0.000000 1.764450 
# 
# From -- ./inp_files/5685.got.cif
#   From: 2010.03.12/outbox.cif.g09.slc.cpg/sg115_3_cif.got.tgz:5685.got - 2010.04.14 02:11:21.
