data_PCOD8309040
_publ_section_title
;
Structure prediction by ZEFSAII (Michael W. Deem and Ramdas Pophale) SiO2 
 PCOD8309040
Probable space group: P -4 21 C
;
_chemical_formula_sum "Si O2"
_cell_formula_units_Z 32
_cell_length_a 12.491651
_cell_length_b 12.491651
_cell_length_c 9.285111
_cell_angle_alpha 90.000000
_cell_angle_beta 90.000000
_cell_angle_gamma 90.000000
_cell_volume 1448.861206
_symmetry_space_group_name_H-M "P -4 21 C"
_symmetry_group_IT_number 114
_symmetry_cell_setting 'tetragonal'
loop_
_space_group_symop_operation_xyz
x,y,z
y,-x,-z
-x,-y,z
-y,x,-z
1/2+x,1/2-y,1/2-z
1/2-x,1/2+y,1/2-z
1/2-y,1/2-x,1/2+z
1/2+y,1/2+x,1/2+z
loop_
_atom_site_type_symbol
_atom_site_label
_atom_site_fract_x
_atom_site_fract_y
_atom_site_fract_z
Si Si1 0.107517 0.550669 0.399951
Si Si2 0.288967 0.150108 0.373970
Si Si3 0.602086 0.288258 0.533816
Si Si4 0.601502 0.440805 0.263380
O O1 0.078891 0.635864 0.524426
O O2 0.171978 0.624748 0.288057
O O3 0.170659 0.450935 0.473929
O O4 0.000000 0.500000 0.333073
O O5 0.290448 0.273402 0.422939
O O6 0.166210 0.109404 0.371625
O O7 0.578768 0.348865 0.383488
O O8 0.540390 0.340592 0.664390
O O9 0.500000 0.500000 0.195593
#
# Coordination Sequence:
#
# PCOD8309040 Si02
#       4
#     8   8   8   8
#     4  11  25  44  68 101 143 188 228 297 361 416
#     4  11  23  42  69 107 132 185 247 283 348 435
#     4  11  20  41  70  95 135 187 235 274 354 440
#     4  11  20  39  73  99 134 190 236 281 355 428
#
# _framework density 22.086312
#
# number of rings (size 3 to 8) (size 9 to 14) (size 15 to 20)
#    0.000    1.000    7.500    0.750    0.000    8.000 
#    0.000    0.000    0.000    1.500    0.000    0.000 
#    0.000    0.000    0.000    0.000    0.000    0.000 
#
# Total GULP energy -396427.457272 kJ/mol
# GULP energy per Si atom -12388.358040 kJ/mol
# Density = 2.203604 g / cm^3
# Si number density = 22.086312 Si / 1000 Ang^3
#
#
#
# Elastic Constant Matrix: (Units=GPa)
#
#
# Indices 1 2 3 4 5 6 
#
# 1 109.2476 49.9616 28.2958 0.0000 0.0000 0.0000
# 2 49.9616 109.2476 28.2958 0.0000 0.0000 0.0000
# 3 28.2958 28.2958 54.4225 0.0000 0.0000 0.0000
# 4 0.0000 0.0000 0.0000 35.7903 0.0000 0.0000
# 5 0.0000 0.0000 0.0000 0.0000 35.7903 0.0000
# 6 0.0000 0.0000 0.0000 0.0000 0.0000 41.1289
#
#
#
# Elastic Compliance Matrix: (Units=1/GPa)
#
#
# Indices 1 2 3 4 5 6 
#
# 1 0.012286 -0.004581 -0.004006 0.000000 0.000000 0.000000
# 2 -0.004581 0.012286 -0.004006 0.000000 0.000000 0.000000
# 3 -0.004006 -0.004006 0.022540 0.000000 0.000000 0.000000
# 4 0.000000 0.000000 0.000000 0.027941 0.000000 0.000000
# 5 0.000000 0.000000 0.000000 0.000000 0.027941 0.000000
# 6 0.000000 0.000000 0.000000 0.000000 0.000000 0.024314
#
#
# Mechanical properties :
#
#
# Convention : Reuss Voigt Hill
#
# Bulk Modulus (GPa) = 45.60737 54.00268 49.80503
# Shear Modulus (GPa) = 31.28853 33.63289 32.46071
#
# Velocity S-wave (km/s) = 3.76792 3.90653 3.83785
# Velocity P-wave (km/s) = 6.29477 6.69715 6.49907
#
# Compressibility (1/GPa) = 0.02192628
#
# Stress axis : x y z
#
# Youngs Moduli (GPa) = 81.39211 81.39211 44.36470
#
# Poissons Ratio (x) = 0.37287 0.17773
# Poissons Ratio (y) = 0.37287 0.17773
# Poissons Ratio (z) = 0.32606 0.32606
#
# Static dielectric constant tensor:
#      x y z
#    x 4.590460 0.000000 0.000000 
#    y 0.000000 4.590460 0.000000 
#    z 0.000000 0.000000 3.715610 
# 
# 
# High freq. dielectric constant tensor:
#      x y z
#    x 1.878580 0.000000 0.000000 
#    y 0.000000 1.878580 0.000000 
#    z 0.000000 0.000000 1.843250 
# 
# From -- ./inp_files/1363.got.cif
#   From: 2010.03.12/outbox.cif.g09.slc.cpg/sg114_1_cif.got.tgz:1363.got - 2010.04.14 02:08:34.
