data_PCOD8309709
_publ_section_title
;
Structure prediction by ZEFSAII (Michael W. Deem and Ramdas Pophale) SiO2 
 PCOD8309709
Probable space group: P -4 M 2
;
_chemical_formula_sum "Si O2"
_cell_formula_units_Z 40
_cell_length_a 8.096715
_cell_length_b 8.096715
_cell_length_c 28.742222
_cell_angle_alpha 90.000000
_cell_angle_beta 90.000000
_cell_angle_gamma 90.000000
_cell_volume 1884.247921
_symmetry_space_group_name_H-M "P -4 M 2"
_symmetry_group_IT_number 115
_symmetry_cell_setting 'tetragonal'
loop_
_space_group_symop_operation_xyz
x,y,z
y,-x,-z
-x,-y,z
-y,x,-z
y,x,-z
-y,-x,-z
-x,y,z
x,-y,z
loop_
_atom_site_type_symbol
_atom_site_label
_atom_site_fract_x
_atom_site_fract_y
_atom_site_fract_z
Si Si1 0.815023 0.803973 0.734871
Si Si2 0.686146 0.184661 0.453984
Si Si3 0.310622 0.500000 0.207395
Si Si4 0.500000 0.809568 0.894291
Si Si5 0.816914 0.193840 0.946730
Si Si6 0.189931 0.320176 0.360683
O O1 0.668180 0.725948 0.764804
O O2 0.791715 0.740824 0.681457
O O3 0.000000 0.746674 0.750801
O O4 0.801943 0.000000 0.739249
O O5 0.705986 0.294015 0.500000
O O6 0.500000 0.199642 0.436170
O O7 0.797267 0.237592 0.410951
O O8 0.734109 0.000000 0.468673
O O9 0.500000 0.500000 0.192761
O O10 0.203042 0.500000 0.161020
O O11 0.330769 0.728529 0.915149
O O12 0.500000 0.000000 0.909278
O O13 0.000000 0.270072 0.934872
O O14 0.829657 0.000000 0.937756
O O15 0.769713 0.230288 0.000000
O O16 0.278595 0.500000 0.360877
O O17 0.000000 0.347354 0.349990
#
# Coordination Sequence:
#
# PCOD8309709 Si02
#       6
#     8   8   4   4   8   8
#     4  10  21  41  69  93 115 156 213 265 313 370
#     4  11  24  39  55  80 115 153 194 239 293 359
#     4  12  26  42  58  86 134 170 204 258 318 379
#     4  10  20  36  60  86 116 162 214 256 308 369
#     4   8  15  31  56  86 118 152 199 257 310 365
#     4  10  20  37  63  91 117 145 188 246 303 363
#
# _framework density 21.228628
#
# number of rings (size 3 to 8) (size 9 to 14) (size 15 to 20)
#    0.000    2.000    1.000    3.300    0.000    7.200 
#    1.800    2.000    0.000    0.000    0.000    0.000 
#    0.000    0.000    0.000    0.000    0.000    0.000 
#
# Total GULP energy -495727.103451 kJ/mol
# GULP energy per Si atom -12393.177586 kJ/mol
# Density = 2.118031 g / cm^3
# Si number density = 21.228628 Si / 1000 Ang^3
#
#
#
# Elastic Constant Matrix: (Units=GPa)
#
#
# Indices 1 2 3 4 5 6 
#
# 1 83.8172 37.6354 34.6214 0.0000 0.0000 0.0000
# 2 37.6354 83.8160 34.6214 0.0000 0.0000 0.0000
# 3 34.6214 34.6214 127.2603 0.0000 0.0000 0.0000
# 4 0.0000 0.0000 0.0000 22.1144 0.0000 0.0000
# 5 0.0000 0.0000 0.0000 0.0000 22.1145 0.0000
# 6 0.0000 0.0000 0.0000 0.0000 0.0000 15.8818
#
#
#
# Elastic Compliance Matrix: (Units=1/GPa)
#
#
# Indices 1 2 3 4 5 6 
#
# 1 0.015699 -0.005954 -0.002651 0.000000 0.000000 0.000000
# 2 -0.005954 0.015700 -0.002651 0.000000 0.000000 0.000000
# 3 -0.002651 -0.002651 0.009300 0.000000 0.000000 0.000000
# 4 0.000000 0.000000 0.000000 0.045219 0.000000 0.000000
# 5 0.000000 0.000000 0.000000 0.000000 0.045219 0.000000
# 6 0.000000 0.000000 0.000000 0.000000 0.000000 0.062965
#
#
# Mechanical properties :
#
#
# Convention : Reuss Voigt Hill
#
# Bulk Modulus (GPa) = 54.98714 56.51665 55.75189
# Shear Modulus (GPa) = 22.45386 24.55648 23.50517
#
# Velocity S-wave (km/s) = 3.25578 3.40481 3.33113
# Velocity P-wave (km/s) = 6.33183 6.49135 6.41209
#
# Compressibility (1/GPa) = 0.01818607
#
# Stress axis : x y z
#
# Youngs Moduli (GPa) = 63.69664 63.69566 107.52180
#
# Poissons Ratio (x) = 0.37926 0.28506
# Poissons Ratio (y) = 0.37927 0.28507
# Poissons Ratio (z) = 0.16887 0.16887
#
# Static dielectric constant tensor:
#      x y z
#    x 3.953170 0.000000 0.000000 
#    y 0.000000 3.953180 0.000000 
#    z 0.000000 0.000000 3.630510 
# 
# 
# High freq. dielectric constant tensor:
#      x y z
#    x 1.823550 0.000000 0.000000 
#    y 0.000000 1.823550 0.000000 
#    z 0.000000 0.000000 1.825030 
# 
# From -- ./inp_files/5551.got.cif
#   From: 2010.03.12/outbox.cif.g09.slc.cpg/sg115_3_cif.got.tgz:5551.got - 2010.04.14 02:11:21.
