data_PCOD8309187
_publ_section_title
;
Structure prediction by ZEFSAII (Michael W. Deem and Ramdas Pophale) SiO2 
 PCOD8309187
Probable space group: P -4 M 2
;
_chemical_formula_sum "Si O2"
_cell_formula_units_Z 56
_cell_length_a 14.524733
_cell_length_b 14.524733
_cell_length_c 17.686802
_cell_angle_alpha 90.000000
_cell_angle_beta 90.000000
_cell_angle_gamma 90.000000
_cell_volume 3731.346922
_symmetry_space_group_name_H-M "P -4 M 2"
_symmetry_group_IT_number 115
_symmetry_cell_setting 'tetragonal'
loop_
_space_group_symop_operation_xyz
x,y,z
y,-x,-z
-x,-y,z
-y,x,-z
y,x,-z
-y,-x,-z
-x,y,z
x,-y,z
loop_
_atom_site_type_symbol
_atom_site_label
_atom_site_fract_x
_atom_site_fract_y
_atom_site_fract_z
Si Si1 0.272767 0.894139 0.062916
Si Si2 0.397283 0.891112 0.607904
Si Si3 0.226415 0.105077 0.900754
Si Si4 0.742882 0.893355 0.732827
Si Si5 0.893926 0.750294 0.688823
Si Si6 0.601335 0.109332 0.191781
Si Si7 0.894077 0.745708 0.516173
O O1 0.174255 0.858121 0.091434
O O2 0.355445 0.851972 0.113060
O O3 0.267191 0.000000 0.082739
O O4 0.292560 0.876450 0.973640
O O5 0.500000 0.846972 0.606064
O O6 0.345392 0.859582 0.684783
O O7 0.338529 0.857128 0.535435
O O8 0.406845 0.000000 0.605718
O O9 0.279589 0.122603 0.821825
O O10 0.188989 0.000000 0.903799
O O11 0.833924 0.839930 0.706910
O O12 0.763471 0.000000 0.715747
O O13 0.858415 0.665328 0.739199
O O14 0.881940 0.716791 0.602968
O O15 0.000000 0.775576 0.706590
O O16 0.500000 0.153448 0.201224
O O17 0.592893 0.000000 0.190706
O O18 0.838106 0.838106 0.500000
O O19 0.000000 0.767774 0.496257
#
# Coordination Sequence:
#
# PCOD8309187 Si02
#       7
#     8   8   8   8   8   8   8
#     4   9  16  27  40  58  85 118 151 180 214 252
#     4   9  18  32  47  62  85 119 152 181 217 259
#     4   9  17  26  40  61  85 115 148 181 215 252
#     4  10  18  29  44  64  91 121 150 180 214 255
#     4  10  19  29  43  65  91 118 148 183 218 256
#     4   9  17  29  43  59  84 118 150 182 222 262
#     4  10  19  30  45  66  92 120 149 181 215 256
#
# _framework density 15.007985
#
# number of rings (size 3 to 8) (size 9 to 14) (size 15 to 20)
#    0.000    2.571    2.857    0.000    0.000    1.286 
#    0.000    7.857    0.000    4.286    0.000    0.000 
#    0.000    2.000    0.000    0.286    0.000    0.000 
#
# Total GULP energy -693994.306005 kJ/mol
# GULP energy per Si atom -12392.755464 kJ/mol
# Density = 1.497383 g / cm^3
# Si number density = 15.007985 Si / 1000 Ang^3
#
#
#
# Elastic Constant Matrix: (Units=GPa)
#
#
# Indices 1 2 3 4 5 6 
#
# 1 71.9400 34.6444 46.1828 0.0000 0.0000 0.0000
# 2 34.6444 71.9400 46.1828 0.0000 0.0000 0.0000
# 3 46.1828 46.1828 138.8272 0.0000 0.0000 0.0000
# 4 0.0000 0.0000 0.0000 14.7227 0.0000 0.0000
# 5 0.0000 0.0000 0.0000 0.0000 14.7227 0.0000
# 6 0.0000 0.0000 0.0000 0.0000 0.0000 2.8535
#
#
#
# Elastic Compliance Matrix: (Units=1/GPa)
#
#
# Indices 1 2 3 4 5 6 
#
# 1 0.019998 -0.006815 -0.004385 0.000000 0.000000 0.000000
# 2 -0.006815 0.019998 -0.004385 0.000000 0.000000 0.000000
# 3 -0.004385 -0.004385 0.010121 0.000000 0.000000 0.000000
# 4 0.000000 0.000000 0.000000 0.067922 0.000000 0.000000
# 5 0.000000 0.000000 0.000000 0.000000 0.067922 0.000000
# 6 0.000000 0.000000 0.000000 0.000000 0.000000 0.350443
#
#
# Mechanical properties :
#
#
# Convention : Reuss Voigt Hill
#
# Bulk Modulus (GPa) = 52.78553 59.63635 56.21094
# Shear Modulus (GPa) = 8.71246 16.83959 12.77602
#
# Velocity S-wave (km/s) = 2.41202 3.35332 2.92084
# Velocity P-wave (km/s) = 6.55783 7.40376 6.99360
#
# Compressibility (1/GPa) = 0.01894458
#
# Stress axis : x y z
#
# Youngs Moduli (GPa) = 50.00579 50.00579 98.80544
#
# Poissons Ratio (x) = 0.34080 0.43330
# Poissons Ratio (y) = 0.34080 0.43330
# Poissons Ratio (z) = 0.21929 0.21929
#
# Static dielectric constant tensor:
#      x y z
#    x 2.778900 0.000000 0.000000 
#    y 0.000000 2.778900 0.000000 
#    z 0.000000 0.000000 3.319280 
# 
# 
# High freq. dielectric constant tensor:
#      x y z
#    x 1.538680 0.000000 0.000000 
#    y 0.000000 1.538680 0.000000 
#    z 0.000000 0.000000 1.601220 
# 
# From -- ./inp_files/4377.got.cif
#   From: 2010.03.12/outbox.cif.g09.slc.cpg/sg115_3_cif.got.tgz:4377.got - 2010.04.14 02:11:21.
