data_PCOD8309441
_publ_section_title
;
Structure prediction by ZEFSAII (Michael W. Deem and Ramdas Pophale) SiO2 
 PCOD8309441
Probable space group: P -4 M 2
;
_chemical_formula_sum "Si O2"
_cell_formula_units_Z 48
_cell_length_a 9.235897
_cell_length_b 9.235897
_cell_length_c 31.146036
_cell_angle_alpha 90.000000
_cell_angle_beta 90.000000
_cell_angle_gamma 90.000000
_cell_volume 2656.812728
_symmetry_space_group_name_H-M "P -4 M 2"
_symmetry_group_IT_number 115
_symmetry_cell_setting 'tetragonal'
loop_
_space_group_symop_operation_xyz
x,y,z
y,-x,-z
-x,-y,z
-y,x,-z
y,x,-z
-y,-x,-z
-x,y,z
x,-y,z
loop_
_atom_site_type_symbol
_atom_site_label
_atom_site_fract_x
_atom_site_fract_y
_atom_site_fract_z
Si Si1 0.670509 0.168426 0.962497
Si Si2 0.171649 0.666019 0.205323
Si Si3 0.836492 0.828247 0.877488
Si Si4 0.830627 0.668172 0.720946
Si Si5 0.339224 0.673279 0.546566
Si Si6 0.159378 0.328438 0.625396
O O1 0.500000 0.194651 0.957719
O O2 0.747786 0.222138 0.919118
O O3 0.704868 0.000000 0.971972
O O4 0.733302 0.266699 0.000000
O O5 0.221557 0.500000 0.200762
O O6 0.232301 0.754698 0.164447
O O7 0.236386 0.733997 0.248034
O O8 0.000000 0.677734 0.208101
O O9 0.000000 0.765255 0.879115
O O10 0.840811 0.000000 0.875602
O O11 0.802446 0.500000 0.730603
O O12 0.778724 0.708715 0.672627
O O13 0.000000 0.704740 0.726930
O O14 0.276210 0.723791 0.500000
O O15 0.500000 0.734402 0.552252
O O16 0.339802 0.500000 0.547347
O O17 0.251384 0.739796 0.586556
O O18 0.152747 0.500000 0.620489
O O19 0.000000 0.261718 0.621132
#
# Coordination Sequence:
#
# PCOD8309441 Si02
#       6
#     8   8   8   8   8   8
#     4  10  20  34  53  77 104 132 163 201 243 286
#     4  10  20  33  50  74 103 132 162 199 245 295
#     4   9  17  31  53  77  99 128 167 206 242 284
#     4   9  18  32  49  70  95 124 162 205 243 284
#     4   8  13  21  35  57  82 107 140 182 224 269
#     4   8  14  25  41  61  86 116 150 188 230 276
#
# _framework density 18.066762000000001
#
# number of rings (size 3 to 8) (size 9 to 14) (size 15 to 20)
#    0.000    3.000    0.000    3.000    0.000    5.000 
#    0.000    2.500    0.000    6.000    0.000    2.333 
#    0.000    0.000    0.000    0.000    0.000    0.000 
#
# Total GULP energy -594951.136467 kJ/mol
# GULP energy per Si atom -12394.815343 kJ/mol
# Density = 1.802564 g / cm^3
# Si number density = 18.066762 Si / 1000 Ang^3
#
#
#
# Elastic Constant Matrix: (Units=GPa)
#
#
# Indices 1 2 3 4 5 6 
#
# 1 65.1926 30.0334 58.4432 0.0000 0.0000 0.0000
# 2 30.0334 65.1918 58.4421 0.0000 0.0000 0.0000
# 3 58.4432 58.4421 177.6495 0.0000 0.0000 0.0000
# 4 0.0000 0.0000 0.0000 30.4978 0.0000 0.0000
# 5 0.0000 0.0000 0.0000 0.0000 30.4979 0.0000
# 6 0.0000 0.0000 0.0000 0.0000 0.0000 19.5242
#
#
#
# Elastic Compliance Matrix: (Units=1/GPa)
#
#
# Indices 1 2 3 4 5 6 
#
# 1 0.023028 -0.005414 -0.005795 0.000000 0.000000 0.000000
# 2 -0.005414 0.023028 -0.005795 0.000000 0.000000 0.000000
# 3 -0.005795 -0.005795 0.009442 0.000000 0.000000 0.000000
# 4 0.000000 0.000000 0.000000 0.032789 0.000000 0.000000
# 5 0.000000 0.000000 0.000000 0.000000 0.032789 0.000000
# 6 0.000000 0.000000 0.000000 0.000000 0.000000 0.051218
#
#
# Mechanical properties :
#
#
# Convention : Reuss Voigt Hill
#
# Bulk Modulus (GPa) = 46.53056 66.87459 56.70258
# Shear Modulus (GPa) = 23.42301 26.84502 25.13401
#
# Velocity S-wave (km/s) = 3.60456 3.85889 3.73389
# Velocity P-wave (km/s) = 6.56769 7.54655 7.07407
#
# Compressibility (1/GPa) = 0.02149125
#
# Stress axis : x y z
#
# Youngs Moduli (GPa) = 43.42502 43.42502 105.91358
#
# Poissons Ratio (x) = 0.23511 0.61374
# Poissons Ratio (y) = 0.23511 0.61372
# Poissons Ratio (z) = 0.25164 0.25163
#
# Static dielectric constant tensor:
#      x y z
#    x 3.172060 0.000000 0.000000 
#    y 0.000000 3.172050 0.000000 
#    z 0.000000 0.000000 3.639040 
# 
# 
# High freq. dielectric constant tensor:
#      x y z
#    x 1.669900 0.000000 0.000000 
#    y 0.000000 1.669900 0.000000 
#    z 0.000000 0.000000 1.720050 
# 
# From -- ./inp_files/6085.got.cif
#   From: 2010.03.12/outbox.cif.g09.slc.cpg/sg115_4_cif.got.tgz:6085.got - 2010.04.14 02:11:21.
