data_PCOD8309120
_publ_section_title
;
Structure prediction by ZEFSAII (Michael W. Deem and Ramdas Pophale) SiO2 
 PCOD8309120
Probable space group: P -4 21 C
;
_chemical_formula_sum "Si O2"
_cell_formula_units_Z 40
_cell_length_a 8.391489
_cell_length_b 8.391489
_cell_length_c 23.757387
_cell_angle_alpha 90.000000
_cell_angle_beta 90.000000
_cell_angle_gamma 90.000000
_cell_volume 1672.926002
_symmetry_space_group_name_H-M "P -4 21 C"
_symmetry_group_IT_number 114
_symmetry_cell_setting 'tetragonal'
loop_
_space_group_symop_operation_xyz
x,y,z
y,-x,-z
-x,-y,z
-y,x,-z
1/2+x,1/2-y,1/2-z
1/2-x,1/2+y,1/2-z
1/2-y,1/2-x,1/2+z
1/2+y,1/2+x,1/2+z
loop_
_atom_site_type_symbol
_atom_site_label
_atom_site_fract_x
_atom_site_fract_y
_atom_site_fract_z
Si Si1 0.168370 0.925702 0.695461
Si Si2 0.671758 0.299384 0.001138
Si Si3 0.048690 0.678810 0.193557
Si Si4 0.866537 0.114628 0.905503
Si Si5 0.397378 0.866749 0.603696
O O1 0.173885 0.736793 0.691690
O O2 0.303770 0.971993 0.650546
O O3 0.206563 0.990299 0.756884
O O4 0.000000 0.000000 0.675759
O O5 0.763899 0.207362 0.951946
O O6 0.482572 0.278872 0.993858
O O7 0.721607 0.220726 0.060397
O O8 0.000000 0.500000 0.205735
O O9 0.976069 0.745637 0.135817
O O10 0.978651 0.238136 0.870089
O O11 0.000000 0.000000 0.934082
O O12 0.500000 0.000000 0.570232
#
# Coordination Sequence:
#
# PCOD8309120 Si02
#       5
#     8   8   8   8   8
#     4  12  29  50  81 113 158 202 258 318 392 466
#     4  11  28  50  78 112 154 206 262 320 389 460
#     4  12  29  49  79 117 154 203 256 325 388 468
#     4  12  28  51  78 113 160 202 264 322 393 462
#     4  12  28  47  76 112 153 207 256 321 384 458
#
# _framework density 23.910204
#
# number of rings (size 3 to 8) (size 9 to 14) (size 15 to 20)
#    0.000    0.200    4.000    2.400   16.800    0.800 
#    0.000    0.000    0.000    0.000    0.000    0.000 
#    0.000    0.000    0.000    0.000    0.000    0.000 
#
# Total GULP energy -495782.555334 kJ/mol
# GULP energy per Si atom -12394.563883 kJ/mol
# Density = 2.385578 g / cm^3
# Si number density = 23.910204 Si / 1000 Ang^3
#
#
#
# Elastic Constant Matrix: (Units=GPa)
#
#
# Indices 1 2 3 4 5 6 
#
# 1 148.1893 71.1538 47.4250 0.0000 0.0000 0.0000
# 2 71.1538 148.1893 47.4250 0.0000 0.0000 0.0000
# 3 47.4250 47.4250 108.0863 0.0000 0.0000 0.0000
# 4 0.0000 0.0000 0.0000 -31.4671 0.0000 0.0000
# 5 0.0000 0.0000 0.0000 0.0000 -31.4671 0.0000
# 6 0.0000 0.0000 0.0000 0.0000 0.0000 -70.6243
#
#
#
# Elastic Compliance Matrix: (Units=1/GPa)
#
#
# Indices 1 2 3 4 5 6 
#
# 1 0.009304 -0.003677 -0.002469 0.000000 0.000000 0.000000
# 2 -0.003677 0.009304 -0.002469 0.000000 0.000000 0.000000
# 3 -0.002469 -0.002469 0.011418 0.000000 0.000000 0.000000
# 4 0.000000 0.000000 0.000000 -0.031779 0.000000 0.000000
# 5 0.000000 0.000000 0.000000 0.000000 -0.031779 0.000000
# 6 0.000000 0.000000 0.000000 0.000000 0.000000 -0.014159
#
#
# Mechanical properties :
#
#
# Convention : Reuss Voigt Hill
#
# Bulk Modulus (GPa) = 78.14686 81.83029 79.98857
# Shear Modulus (GPa) = -190.86279 -10.81429 -100.83854
#
# Velocity S-wave (km/s) = -8.94417 -2.12901 -6.50119
# Velocity P-wave (km/s) = 8.59708 5.31552 4.77781
#
# Compressibility (1/GPa) = 0.01279642
#
# Stress axis : x y z
#
# Youngs Moduli (GPa) = 107.48260 107.48260 87.57840
#
# Poissons Ratio (x) = 0.39523 0.21621
# Poissons Ratio (y) = 0.39523 0.21621
# Poissons Ratio (z) = 0.26535 0.26535
#
# Static dielectric constant tensor:
#      x y z
#    x 6.271710 0.000000 0.000000 
#    y 0.000000 6.271710 0.000000 
#    z 0.000000 0.000000 4.846610 
# 
# 
# High freq. dielectric constant tensor:
#      x y z
#    x 1.975670 0.000000 0.000000 
#    y 0.000000 1.975670 0.000000 
#    z 0.000000 0.000000 1.932080 
# 
# From -- ./inp_files/3362.got.cif
#   From: 2010.03.12/outbox.cif.g09.slc.cpg/sg114_2_cif.got.tgz:3362.got - 2010.04.14 02:08:34.
