data_PCOD8309544
_publ_section_title
;
Structure prediction by ZEFSAII (Michael W. Deem and Ramdas Pophale) SiO2 
 PCOD8309544
Probable space group: P -4 M 2
;
_chemical_formula_sum "Si O2"
_cell_formula_units_Z 37
_cell_length_a 15.932686
_cell_length_b 15.932686
_cell_length_c 8.988454
_cell_angle_alpha 90.000000
_cell_angle_beta 90.000000
_cell_angle_gamma 90.000000
_cell_volume 2281.723391
_symmetry_space_group_name_H-M "P -4 M 2"
_symmetry_group_IT_number 115
_symmetry_cell_setting 'tetragonal'
loop_
_space_group_symop_operation_xyz
x,y,z
y,-x,-z
-x,-y,z
-y,x,-z
y,x,-z
-y,-x,-z
-x,y,z
x,-y,z
loop_
_atom_site_type_symbol
_atom_site_label
_atom_site_fract_x
_atom_site_fract_y
_atom_site_fract_z
Si Si1 0.000000 0.091978 0.786209
Si Si2 0.899566 0.500000 0.159727
Si Si3 0.901572 0.500000 0.826280
Si Si4 0.901863 0.668422 0.316172
Si Si5 0.901466 0.332868 0.662025
Si Si6 0.000000 0.000000 0.500000
Si Si7 0.816864 0.827099 0.167612
O O1 0.915869 0.136147 0.839456
O O2 0.000000 0.083400 0.604228
O O3 0.000000 0.000000 0.859454
O O4 0.864632 0.584121 0.240102
O O5 0.000000 0.500000 0.165853
O O6 0.862931 0.500000 0.992013
O O7 0.873348 0.420351 0.732065
O O8 0.000000 0.500000 0.846685
O O9 0.879635 0.665324 0.489101
O O10 0.868004 0.753930 0.246698
O O11 0.000000 0.670362 0.288047
O O12 0.841128 0.267412 0.741403
O O13 0.000000 0.312083 0.689724
O O14 0.797706 0.797706 0.000000
#
# Coordination Sequence:
#
# PCOD8309544 Si02
#       7
#     4   4   4   8   8   1   8
#     4  10  24  33  50  60  95 128 180 211 254 289
#     4   9  17  33  51  75  95 120 157 208 259 307
#     4   9  17  31  53  71  97 122 155 204 261 305
#     4  10  21  33  53  70  96 128 170 209 255 303
#     4  10  20  34  51  71  95 129 168 209 252 307
#     4   8  24  36  50  60  84 128 186 204 264 280
#     4  12  24  33  48  70  99 131 172 212 259 294
#
# _framework density 16.215812
#
# number of rings (size 3 to 8) (size 9 to 14) (size 15 to 20)
#    0.324    1.514    1.081    3.243    6.054    4.324 
#    0.000    0.000    0.000    0.000    0.000    0.000 
#    0.000    0.865    0.000    8.649    0.000    5.189 
#
# Total GULP energy -458698.570240 kJ/mol
# GULP energy per Si atom -12397.258655 kJ/mol
# Density = 1.617890 g / cm^3
# Si number density = 16.215812 Si / 1000 Ang^3
#
#
#
# Elastic Constant Matrix: (Units=GPa)
#
#
# Indices 1 2 3 4 5 6 
#
# 1 78.9171 35.4679 49.2332 0.0000 0.0000 0.0000
# 2 35.4679 78.9171 49.2332 0.0000 0.0000 0.0000
# 3 49.2332 49.2332 145.4505 0.0000 0.0000 0.0000
# 4 0.0000 0.0000 0.0000 34.2149 0.0000 0.0000
# 5 0.0000 0.0000 0.0000 0.0000 34.2149 0.0000
# 6 0.0000 0.0000 0.0000 0.0000 0.0000 2.6290
#
#
#
# Elastic Compliance Matrix: (Units=1/GPa)
#
#
# Indices 1 2 3 4 5 6 
#
# 1 0.017676 -0.005339 -0.004176 0.000000 0.000000 0.000000
# 2 -0.005339 0.017676 -0.004176 0.000000 0.000000 0.000000
# 3 -0.004176 -0.004176 0.009702 0.000000 0.000000 0.000000
# 4 0.000000 0.000000 0.000000 0.029227 0.000000 0.000000
# 5 0.000000 0.000000 0.000000 0.000000 0.029227 0.000000
# 6 0.000000 0.000000 0.000000 0.000000 0.000000 0.380373
#
#
# Mechanical properties :
#
#
# Convention : Reuss Voigt Hill
#
# Bulk Modulus (GPa) = 56.58441 63.46149 60.02295
# Shear Modulus (GPa) = 9.66828 25.50179 17.58504
#
# Velocity S-wave (km/s) = 2.44442 3.96997 3.29665
# Velocity P-wave (km/s) = 6.55265 7.76110 7.18234
#
# Compressibility (1/GPa) = 0.01767271
#
# Stress axis : x y z
#
# Youngs Moduli (GPa) = 56.57293 56.57293 103.06896
#
# Poissons Ratio (x) = 0.30205 0.43042
# Poissons Ratio (y) = 0.30205 0.43042
# Poissons Ratio (z) = 0.23625 0.23625
#
# Static dielectric constant tensor:
#      x y z
#    x 2.848680 0.000000 0.000000 
#    y 0.000000 2.848680 0.000000 
#    z 0.000000 0.000000 3.309380 
# 
# 
# High freq. dielectric constant tensor:
#      x y z
#    x 1.597450 0.000000 0.000000 
#    y 0.000000 1.597450 0.000000 
#    z 0.000000 0.000000 1.649560 
# 
# From -- ./inp_files/1558.got.cif
#   From: 2010.03.12/outbox.cif.g09.slc.cpg/sg115_1_cif.got.tgz:1558.got - 2010.04.14 02:11:21.
