data_PCOD8309899
_publ_section_title
;
Structure prediction by ZEFSAII (Michael W. Deem and Ramdas Pophale) SiO2 
 PCOD8309899
Probable space group: P -4 M 2
;
_chemical_formula_sum "Si O2"
_cell_formula_units_Z 44
_cell_length_a 9.228576
_cell_length_b 9.228576
_cell_length_c 28.397175
_cell_angle_alpha 90.000000
_cell_angle_beta 90.000000
_cell_angle_gamma 90.000000
_cell_volume 2418.491270
_symmetry_space_group_name_H-M "P -4 M 2"
_symmetry_group_IT_number 115
_symmetry_cell_setting 'tetragonal'
loop_
_space_group_symop_operation_xyz
x,y,z
y,-x,-z
-x,-y,z
-y,x,-z
y,x,-z
-y,-x,-z
-x,y,z
x,-y,z
loop_
_atom_site_type_symbol
_atom_site_label
_atom_site_fract_x
_atom_site_fract_y
_atom_site_fract_z
Si Si1 0.329935 0.329935 0.500000
Si Si2 0.332376 0.331144 0.230702
Si Si3 0.162807 0.672803 0.139975
Si Si4 0.665394 0.168280 0.323252
Si Si5 0.327147 0.338375 0.948471
Si Si6 0.170011 0.168318 0.417322
O O1 0.297762 0.500000 0.504309
O O2 0.250134 0.268545 0.454498
O O3 0.500000 0.297280 0.221417
O O4 0.302914 0.500000 0.237696
O O5 0.245640 0.268985 0.186012
O O6 0.276710 0.252959 0.277726
O O7 0.168361 0.500000 0.139049
O O8 0.236557 0.735543 0.092669
O O9 0.000000 0.731798 0.141776
O O10 0.500000 0.212806 0.335535
O O11 0.768201 0.210754 0.366425
O O12 0.676176 0.000000 0.311471
O O13 0.500000 0.342667 0.947279
O O14 0.266023 0.500000 0.939936
O O15 0.278725 0.278725 0.000000
O O16 0.000000 0.201504 0.418462
O O17 0.201481 0.000000 0.429072
#
# Coordination Sequence:
#
# PCOD8309899 Si02
#       6
#     4   8   8   8   8   8
#     4  11  24  39  56  80 108 137 170 209 252 296
#     4   9  17  29  46  68  94 124 157 194 236 282
#     4   9  16  25  39  62  91 119 148 187 234 279
#     4   9  18  33  52  73  99 131 164 200 243 288
#     4   8  13  22  38  59  81 108 145 186 226 272
#     4  10  21  37  57  80 105 135 171 208 248 297
#
# _framework density 18.193162000000001
#
# number of rings (size 3 to 8) (size 9 to 14) (size 15 to 20)
#    0.000    2.818    0.000    2.182    0.000    6.545 
#    0.000    1.818    0.000    1.091    0.000    5.091 
#    0.000    0.000    0.000    0.000    0.000    0.000 
#
# Total GULP energy -545561.468257 kJ/mol
# GULP energy per Si atom -12399.124279 kJ/mol
# Density = 1.815175 g / cm^3
# Si number density = 18.193162 Si / 1000 Ang^3
#
#
#
# Elastic Constant Matrix: (Units=GPa)
#
#
# Indices 1 2 3 4 5 6 
#
# 1 75.5389 41.9792 75.3267 0.0000 0.0000 0.0000
# 2 41.9792 75.5389 75.3267 0.0000 0.0000 0.0000
# 3 75.3267 75.3267 187.1097 0.0000 0.0000 0.0000
# 4 0.0000 0.0000 0.0000 3.5114 0.0000 0.0000
# 5 0.0000 0.0000 0.0000 0.0000 3.5114 0.0000
# 6 0.0000 0.0000 0.0000 0.0000 0.0000 16.9203
#
#
#
# Elastic Compliance Matrix: (Units=1/GPa)
#
#
# Indices 1 2 3 4 5 6 
#
# 1 0.023691 -0.006107 -0.007079 0.000000 0.000000 0.000000
# 2 -0.006107 0.023691 -0.007079 0.000000 0.000000 0.000000
# 3 -0.007079 -0.007079 0.011044 0.000000 0.000000 0.000000
# 4 0.000000 0.000000 0.000000 0.284784 0.000000 0.000000
# 5 0.000000 0.000000 0.000000 0.000000 0.284784 0.000000
# 6 0.000000 0.000000 0.000000 0.000000 0.000000 0.059100
#
#
# Mechanical properties :
#
#
# Convention : Reuss Voigt Hill
#
# Bulk Modulus (GPa) = 55.87629 80.38364 68.12996
# Shear Modulus (GPa) = 6.81580 14.49231 10.65405
#
# Velocity S-wave (km/s) = 1.93765 2.82544 2.42256
# Velocity P-wave (km/s) = 5.98209 7.41104 6.73457
#
# Compressibility (1/GPa) = 0.01789668
#
# Stress axis : x y z
#
# Youngs Moduli (GPa) = 42.20994 42.20994 90.54408
#
# Poissons Ratio (x) = 0.25776 0.64098
# Poissons Ratio (y) = 0.25776 0.64098
# Poissons Ratio (z) = 0.29881 0.29881
#
# Static dielectric constant tensor:
#      x y z
#    x 3.208370 0.000000 0.000000 
#    y 0.000000 3.208370 0.000000 
#    z 0.000000 0.000000 3.650620 
# 
# 
# High freq. dielectric constant tensor:
#      x y z
#    x 1.681020 0.000000 0.000000 
#    y 0.000000 1.681020 0.000000 
#    z 0.000000 0.000000 1.722450 
# 
# From -- ./inp_files/5743.got.cif
#   From: 2010.03.12/outbox.cif.g09.slc.cpg/sg115_3_cif.got.tgz:5743.got - 2010.04.14 02:11:21.
