data_PCOD8309152
_publ_section_title
;
Structure prediction by ZEFSAII (Michael W. Deem and Ramdas Pophale) SiO2 
 PCOD8309152
Probable space group: P -4 M 2
;
_chemical_formula_sum "Si O2"
_cell_formula_units_Z 64
_cell_length_a 30.687914
_cell_length_b 30.687914
_cell_length_c 5.350469
_cell_angle_alpha 90.000000
_cell_angle_beta 90.000000
_cell_angle_gamma 90.000000
_cell_volume 5038.793831
_symmetry_space_group_name_H-M "P -4 M 2"
_symmetry_group_IT_number 115
_symmetry_cell_setting 'tetragonal'
loop_
_space_group_symop_operation_xyz
x,y,z
y,-x,-z
-x,-y,z
-y,x,-z
y,x,-z
-y,-x,-z
-x,y,z
x,-y,z
loop_
_atom_site_type_symbol
_atom_site_label
_atom_site_fract_x
_atom_site_fract_y
_atom_site_fract_z
Si Si1 0.177370 0.387217 0.249967
Si Si2 0.948894 0.583569 0.749557
Si Si3 0.734214 0.712440 0.750004
Si Si4 0.125274 0.702193 0.249879
Si Si5 0.806220 0.223066 0.249997
Si Si6 0.900566 0.670639 0.749872
Si Si7 0.904086 0.550455 0.249579
Si Si8 0.362453 0.802710 0.250044
O O1 0.158069 0.338423 0.249789
O O2 0.140919 0.423740 0.250267
O O3 0.207380 0.390805 0.499968
O O4 0.207352 0.390836 0.999867
O O5 0.938478 0.634860 0.749966
O O6 0.930788 0.561683 0.498294
O O7 0.000000 0.576453 0.750765
O O8 0.930446 0.561474 0.999366
O O9 0.704973 0.704973 0.500000
O O10 0.747310 0.763127 0.749999
O O11 0.776805 0.682649 0.750055
O O12 0.704972 0.704972 0.000000
O O13 0.151360 0.747030 0.249977
O O14 0.095337 0.700067 0.499533
O O15 0.095349 0.700079 0.000172
O O16 0.806711 0.193290 0.500000
O O17 0.806712 0.193289 0.000000
O O18 0.854312 0.646186 0.749790
O O19 0.892214 0.500000 0.250513
#
# Coordination Sequence:
#
# PCOD8309152 Si02
#       8
#     8   8   8   8   8   8   8   8
#     4  10  16  29  41  55  64  85 115 124 151 194
#     4  12  23  37  49  60  72  82 101 138 176 228
#     4  10  16  22  31  54  77  92 110 128 146 160
#     4  10  16  25  43  50  71  95 110 128 142 180
#     4  10  16  22  31  54  77  92 110 128 146 160
#     4  10  16  29  41  55  64  85 115 124 151 194
#     4  12  23  37  49  60  72  82 101 138 176 228
#     4  10  16  25  43  50  71  95 110 128 142 180
#
# _framework density 12.701453000000001
#
# number of rings (size 3 to 8) (size 9 to 14) (size 15 to 20)
#    0.000    1.500    5.000    8.250    0.000    1.500 
#    0.000    0.000    0.000    0.000    0.000    0.000 
#    0.000    0.000    0.000    0.000    0.000    0.000 
#
# Total GULP energy -793044.565728 kJ/mol
# GULP energy per Si atom -12391.321340 kJ/mol
# Density = 1.267254 g / cm^3
# Si number density = 12.701453 Si / 1000 Ang^3
#
#
#
# Elastic Constant Matrix: (Units=GPa)
#
#
# Indices 1 2 3 4 5 6 
#
# 1 23.0290 22.9234 20.0177 0.0000 0.0000 0.0000
# 2 22.9234 23.0284 20.0176 0.0000 0.0000 0.0000
# 3 20.0177 20.0176 156.0990 0.0000 0.0000 0.0000
# 4 0.0000 0.0000 0.0000 14.0904 0.0000 0.0000
# 5 0.0000 0.0000 0.0000 0.0000 14.0904 0.0000
# 6 0.0000 0.0000 0.0000 0.0000 0.0000 6.0087
#
#
#
# Elastic Compliance Matrix: (Units=1/GPa)
#
#
# Indices 1 2 3 4 5 6 
#
# 1 4.761608 -4.737179 -0.003134 0.000000 0.000000 0.000000
# 2 -4.737179 4.761748 -0.003149 0.000000 0.000000 0.000000
# 3 -0.003134 -0.003149 0.007212 0.000000 0.000000 0.000000
# 4 0.000000 0.000000 0.000000 0.070971 0.000000 0.000000
# 5 0.000000 0.000000 0.000000 0.000000 0.070970 0.000000
# 6 0.000000 0.000000 0.000000 0.000000 0.000000 0.166426
#
#
# Mechanical properties :
#
#
# Convention : Reuss Voigt Hill
#
# Bulk Modulus (GPa) = 22.91310 36.45264 29.68287
# Shear Modulus (GPa) = 0.25853 16.11774 8.18813
#
# Velocity S-wave (km/s) = 0.45164 3.56612 2.54177
# Velocity P-wave (km/s) = 4.28379 6.76152 5.65991
#
# Compressibility (1/GPa) = 0.04364315
#
# Stress axis : x y z
#
# Youngs Moduli (GPa) = 0.21001 0.21001 138.65888
#
# Poissons Ratio (x) = 0.99484 0.43457
# Poissons Ratio (y) = 0.99487 0.43666
# Poissons Ratio (z) = 0.00066 0.00066
#
# Static dielectric constant tensor:
#      x y z
#    x 2.246670 0.000000 0.000000 
#    y 0.000000 2.246670 0.000000 
#    z 0.000000 0.000000 20.247240 
# 
# 
# High freq. dielectric constant tensor:
#      x y z
#    x 1.429810 0.000000 0.000000 
#    y 0.000000 1.429810 0.000000 
#    z 0.000000 0.000000 1.529830 
# 
# From -- ./inp_files/824.got.cif
#   From: 2010.03.12/outbox.cif.g09.slc.cpg/sg115_1_cif.got.tgz:824.got - 2010.04.14 02:11:21.
