data_PCOD8309380
_publ_section_title
;
Structure prediction by ZEFSAII (Michael W. Deem and Ramdas Pophale) SiO2 
 PCOD8309380
Probable space group: P -4 M 2
;
_chemical_formula_sum "Si O2"
_cell_formula_units_Z 40
_cell_length_a 9.259298
_cell_length_b 9.259298
_cell_length_c 25.332458
_cell_angle_alpha 90.000000
_cell_angle_beta 90.000000
_cell_angle_gamma 90.000000
_cell_volume 2171.868140
_symmetry_space_group_name_H-M "P -4 M 2"
_symmetry_group_IT_number 115
_symmetry_cell_setting 'tetragonal'
loop_
_space_group_symop_operation_xyz
x,y,z
y,-x,-z
-x,-y,z
-y,x,-z
y,x,-z
-y,-x,-z
-x,y,z
x,-y,z
loop_
_atom_site_type_symbol
_atom_site_label
_atom_site_fract_x
_atom_site_fract_y
_atom_site_fract_z
Si Si1 0.833771 0.333420 0.134141
Si Si2 0.660913 0.327791 0.557616
Si Si3 0.669472 0.830655 0.046834
Si Si4 0.834743 0.334387 0.256298
Si Si5 0.836362 0.328893 0.656999
O O1 0.797764 0.500000 0.121155
O O2 0.728639 0.229128 0.102070
O O3 0.805879 0.299677 0.195268
O O4 0.000000 0.301602 0.119088
O O5 0.721258 0.278743 0.500000
O O6 0.500000 0.266216 0.567133
O O7 0.656923 0.500000 0.558044
O O8 0.761090 0.266579 0.604210
O O9 0.500000 0.798679 0.042884
O O10 0.702383 0.000000 0.043057
O O11 0.749899 0.749899 0.000000
O O12 0.797423 0.500000 0.268473
O O13 0.731325 0.235485 0.290500
O O14 0.000000 0.300922 0.270813
O O15 0.823158 0.500000 0.658939
O O16 0.000000 0.275848 0.655400
#
# Coordination Sequence:
#
# PCOD8309380 Si02
#       5
#     8   8   8   8   8
#     4   9  19  37  59  81 105 134 172 217 260 304
#     4   8  14  27  48  70  92 125 171 217 257 300
#     4  11  24  39  56  81 111 141 175 214 255 303
#     4   9  19  36  56  77 102 135 175 215 255 302
#     4  10  20  32  48  74 107 138 168 207 256 308
#
# _framework density 18.417325999999999
#
# number of rings (size 3 to 8) (size 9 to 14) (size 15 to 20)
#    0.000    2.600    0.000    3.600    0.000    7.600 
#    0.000    7.000    0.000    3.600    0.000    0.000 
#    0.000    0.000    0.000    0.000    0.000    0.000 
#
# Total GULP energy -495991.720725 kJ/mol
# GULP energy per Si atom -12399.793018 kJ/mol
# Density = 1.837541 g / cm^3
# Si number density = 18.417326 Si / 1000 Ang^3
#
#
#
# Elastic Constant Matrix: (Units=GPa)
#
#
# Indices 1 2 3 4 5 6 
#
# 1 88.5059 55.8922 64.3367 0.0000 0.0000 0.0000
# 2 55.8922 88.5060 64.3367 0.0000 0.0000 0.0000
# 3 64.3367 64.3367 123.4588 0.0000 0.0000 0.0000
# 4 0.0000 0.0000 0.0000 9.1898 0.0000 0.0000
# 5 0.0000 0.0000 0.0000 0.0000 9.1899 0.0000
# 6 0.0000 0.0000 0.0000 0.0000 0.0000 27.6189
#
#
#
# Elastic Compliance Matrix: (Units=1/GPa)
#
#
# Indices 1 2 3 4 5 6 
#
# 1 0.021796 -0.008866 -0.006738 0.000000 0.000000 0.000000
# 2 -0.008866 0.021796 -0.006738 0.000000 0.000000 0.000000
# 3 -0.006738 -0.006738 0.015122 0.000000 0.000000 0.000000
# 4 0.000000 0.000000 0.000000 0.108817 0.000000 0.000000
# 5 0.000000 0.000000 0.000000 0.000000 0.108815 0.000000
# 6 0.000000 0.000000 0.000000 0.000000 0.000000 0.036207
#
#
# Mechanical properties :
#
#
# Convention : Reuss Voigt Hill
#
# Bulk Modulus (GPa) = 71.27623 74.40021 72.83822
# Shear Modulus (GPa) = 13.81550 16.92672 15.37111
#
# Velocity S-wave (km/s) = 2.74183 3.03490 2.89208
# Velocity P-wave (km/s) = 6.98629 7.26398 7.12648
#
# Compressibility (1/GPa) = 0.01402992
#
# Stress axis : x y z
#
# Youngs Moduli (GPa) = 45.88079 45.88091 66.12833
#
# Poissons Ratio (x) = 0.40680 0.44555
# Poissons Ratio (y) = 0.40680 0.44555
# Poissons Ratio (z) = 0.30913 0.30913
#
# Static dielectric constant tensor:
#      x y z
#    x 3.339540 0.000000 0.000000 
#    y 0.000000 3.339540 0.000000 
#    z 0.000000 0.000000 3.552590 
# 
# 
# High freq. dielectric constant tensor:
#      x y z
#    x 1.701220 0.000000 0.000000 
#    y 0.000000 1.701220 0.000000 
#    z 0.000000 0.000000 1.729910 
# 
# From -- ./inp_files/5096.got.cif
#   From: 2010.03.12/outbox.cif.g09.slc.cpg/sg115_3_cif.got.tgz:5096.got - 2010.04.14 02:11:21.
