data_PCOD8309764
_publ_section_title
;
Structure prediction by ZEFSAII (Michael W. Deem and Ramdas Pophale) SiO2 
 PCOD8309764
Probable space group: P -4 M 2
;
_chemical_formula_sum "Si O2"
_cell_formula_units_Z 44
_cell_length_a 9.520904
_cell_length_b 9.520904
_cell_length_c 27.596830
_cell_angle_alpha 90.000000
_cell_angle_beta 90.000000
_cell_angle_gamma 90.000000
_cell_volume 2501.586765
_symmetry_space_group_name_H-M "P -4 M 2"
_symmetry_group_IT_number 115
_symmetry_cell_setting 'tetragonal'
loop_
_space_group_symop_operation_xyz
x,y,z
y,-x,-z
-x,-y,z
-y,x,-z
y,x,-z
-y,-x,-z
-x,y,z
x,-y,z
loop_
_atom_site_type_symbol
_atom_site_label
_atom_site_fract_x
_atom_site_fract_y
_atom_site_fract_z
Si Si1 0.161669 0.663119 0.407208
Si Si2 0.334334 0.341394 0.054182
Si Si3 0.336783 0.335543 0.313990
Si Si4 0.839235 0.163180 0.239026
Si Si5 0.836753 0.841845 0.872529
Si Si6 0.837786 0.837786 0.500000
O O1 0.182596 0.500000 0.418993
O O2 0.258452 0.711868 0.362859
O O3 0.212153 0.748819 0.453945
O O4 0.000000 0.697433 0.394136
O O5 0.500000 0.331493 0.060553
O O6 0.282568 0.500000 0.062894
O O7 0.264638 0.243691 0.093606
O O8 0.292114 0.292114 0.000000
O O9 0.500000 0.295562 0.318517
O O10 0.315347 0.500000 0.304650
O O11 0.269256 0.254429 0.269336
O O12 0.805838 0.195299 0.183156
O O13 0.000000 0.205122 0.251267
O O14 0.815321 0.000000 0.250828
O O15 0.000000 0.824895 0.883448
O O16 0.787576 0.000000 0.884093
O O17 0.000000 0.809190 0.512000
#
# Coordination Sequence:
#
# PCOD8309764 Si02
#       6
#     8   8   8   8   8   4
#     4   9  18  33  51  70  96 131 166 200 243 295
#     4   9  19  35  52  72 101 135 169 205 246 294
#     4  10  21  35  51  75 105 134 167 207 250 297
#     4   9  19  36  55  74  99 132 168 206 250 299
#     4   9  19  35  53  75 102 130 164 207 252 298
#     4   9  18  32  50  73  98 124 160 205 248 291
#
# _framework density 17.588837999999999
#
# number of rings (size 3 to 8) (size 9 to 14) (size 15 to 20)
#    0.000    2.818    0.000    2.182    0.000    5.818 
#    0.000   10.000    0.000    0.000    0.000    0.000 
#    0.000    0.000    0.000    0.000    0.000    0.000 
#
# Total GULP energy -545643.204151 kJ/mol
# GULP energy per Si atom -12400.981913 kJ/mol
# Density = 1.754880 g / cm^3
# Si number density = 17.588838 Si / 1000 Ang^3
#
#
#
# Elastic Constant Matrix: (Units=GPa)
#
#
# Indices 1 2 3 4 5 6 
#
# 1 69.4101 42.6483 64.8044 0.0000 0.0000 0.0000
# 2 42.6483 69.4101 64.8044 0.0000 0.0000 0.0000
# 3 64.8044 64.8044 122.7366 0.0000 0.0000 0.0000
# 4 0.0000 0.0000 0.0000 42.6835 0.0000 0.0000
# 5 0.0000 0.0000 0.0000 0.0000 42.6835 0.0000
# 6 0.0000 0.0000 0.0000 0.0000 0.0000 31.6275
#
#
#
# Elastic Compliance Matrix: (Units=1/GPa)
#
#
# Indices 1 2 3 4 5 6 
#
# 1 0.030145 -0.007222 -0.012103 0.000000 0.000000 0.000000
# 2 -0.007222 0.030145 -0.012103 0.000000 0.000000 0.000000
# 3 -0.012103 -0.012103 0.020928 0.000000 0.000000 0.000000
# 4 0.000000 0.000000 0.000000 0.023428 0.000000 0.000000
# 5 0.000000 0.000000 0.000000 0.000000 0.023428 0.000000
# 6 0.000000 0.000000 0.000000 0.000000 0.000000 0.031618
#
#
# Mechanical properties :
#
#
# Convention : Reuss Voigt Hill
#
# Bulk Modulus (GPa) = 54.46269 67.34121 60.90195
# Shear Modulus (GPa) = 21.86575 29.35222 25.60899
#
# Velocity S-wave (km/s) = 3.52967 4.08952 3.81987
# Velocity P-wave (km/s) = 6.90239 7.78899 7.35906
#
# Compressibility (1/GPa) = 0.01836119
#
# Stress axis : x y z
#
# Youngs Moduli (GPa) = 33.17349 33.17349 47.78271
#
# Poissons Ratio (x) = 0.23959 0.57831
# Poissons Ratio (y) = 0.23959 0.57831
# Poissons Ratio (z) = 0.40150 0.40150
#
# Static dielectric constant tensor:
#      x y z
#    x 3.210450 0.000000 0.000000 
#    y 0.000000 3.210450 0.000000 
#    z 0.000000 0.000000 3.271930 
# 
# 
# High freq. dielectric constant tensor:
#      x y z
#    x 1.677470 0.000000 0.000000 
#    y 0.000000 1.677470 0.000000 
#    z 0.000000 0.000000 1.686000 
# 
# From -- ./inp_files/5779.got.cif
#   From: 2010.03.12/outbox.cif.g09.slc.cpg/sg115_3_cif.got.tgz:5779.got - 2010.04.14 02:11:21.
