data_PCOD8309883
_publ_section_title
;
Structure prediction by ZEFSAII (Michael W. Deem and Ramdas Pophale) SiO2 
 PCOD8309883
Probable space group: P -4 M 2
;
_chemical_formula_sum "Si O2"
_cell_formula_units_Z 40
_cell_length_a 8.941575
_cell_length_b 8.941575
_cell_length_c 25.501943
_cell_angle_alpha 90.000000
_cell_angle_beta 90.000000
_cell_angle_gamma 90.000000
_cell_volume 2038.925315
_symmetry_space_group_name_H-M "P -4 M 2"
_symmetry_group_IT_number 115
_symmetry_cell_setting 'tetragonal'
loop_
_space_group_symop_operation_xyz
x,y,z
y,-x,-z
-x,-y,z
-y,x,-z
y,x,-z
-y,-x,-z
-x,y,z
x,-y,z
loop_
_atom_site_type_symbol
_atom_site_label
_atom_site_fract_x
_atom_site_fract_y
_atom_site_fract_z
Si Si1 0.172977 0.324964 0.548609
Si Si2 0.672360 0.176025 0.645857
Si Si3 0.172987 0.828951 0.848527
Si Si4 0.666717 0.676706 0.058356
Si Si5 0.675409 0.826990 0.257859
O O1 0.268980 0.268980 0.500000
O O2 0.199443 0.500000 0.555845
O O3 0.224607 0.244672 0.601118
O O4 0.000000 0.287630 0.538076
O O5 0.500000 0.218113 0.635256
O O6 0.722160 0.240799 0.701309
O O7 0.696464 0.000000 0.646283
O O8 0.261074 0.783585 0.900235
O O9 0.223889 0.727505 0.799703
O O10 0.000000 0.804080 0.860647
O O11 0.209518 0.000000 0.834570
O O12 0.500000 0.741395 0.069202
O O13 0.661893 0.500000 0.062839
O O14 0.721713 0.721713 0.000000
O O15 0.500000 0.800539 0.263206
O O16 0.718223 0.000000 0.268175
#
# Coordination Sequence:
#
# PCOD8309883 Si02
#       5
#     8   8   8   8   8
#     4  11  24  41  62  89 119 152 192 235 280 332
#     4  11  24  40  59  86 118 151 189 232 279 333
#     4  10  21  36  55  81 112 145 182 226 277 332
#     4   9  19  36  56  78 106 142 184 228 275 329
#     4  10  21  38  60  84 110 145 189 232 277 332
#
# _framework density 19.618178
#
# number of rings (size 3 to 8) (size 9 to 14) (size 15 to 20)
#    0.000    1.800    0.000    4.200    0.000   12.400 
#    0.000    3.000    0.000    0.000    0.000    0.000 
#    0.000    0.000    0.000    0.000    0.000    0.000 
#
# Total GULP energy -496190.802628 kJ/mol
# GULP energy per Si atom -12404.770066 kJ/mol
# Density = 1.957353 g / cm^3
# Si number density = 19.618178 Si / 1000 Ang^3
#
#
#
# Elastic Constant Matrix: (Units=GPa)
#
#
# Indices 1 2 3 4 5 6 
#
# 1 64.6547 44.2390 38.3086 0.0000 0.0000 0.0000
# 2 44.2390 64.6547 38.3086 0.0000 0.0000 0.0000
# 3 38.3086 38.3086 116.3643 0.0000 0.0000 0.0000
# 4 0.0000 0.0000 0.0000 39.1858 0.0000 0.0000
# 5 0.0000 0.0000 0.0000 0.0000 39.1858 0.0000
# 6 0.0000 0.0000 0.0000 0.0000 0.0000 32.0137
#
#
#
# Elastic Compliance Matrix: (Units=1/GPa)
#
#
# Indices 1 2 3 4 5 6 
#
# 1 0.030467 -0.018515 -0.003935 0.000000 0.000000 0.000000
# 2 -0.018515 0.030467 -0.003935 0.000000 0.000000 0.000000
# 3 -0.003935 -0.003935 0.011184 0.000000 0.000000 0.000000
# 4 0.000000 0.000000 0.000000 0.025519 0.000000 0.000000
# 5 0.000000 0.000000 0.000000 0.000000 0.025519 0.000000
# 6 0.000000 0.000000 0.000000 0.000000 0.000000 0.031237
#
#
# Mechanical properties :
#
#
# Convention : Reuss Voigt Hill
#
# Bulk Modulus (GPa) = 51.68185 54.15398 52.91792
# Shear Modulus (GPa) = 23.40691 30.39824 26.90258
#
# Velocity S-wave (km/s) = 3.45791 3.94063 3.70714
# Velocity P-wave (km/s) = 6.50722 6.95476 6.73471
#
# Compressibility (1/GPa) = 0.01934915
#
# Stress axis : x y z
#
# Youngs Moduli (GPa) = 32.82258 32.82258 89.41053
#
# Poissons Ratio (x) = 0.60772 0.35180
# Poissons Ratio (y) = 0.60772 0.35180
# Poissons Ratio (z) = 0.12914 0.12914
#
# Static dielectric constant tensor:
#      x y z
#    x 3.632070 0.000000 0.000000 
#    y 0.000000 3.632070 0.000000 
#    z 0.000000 0.000000 4.112680 
# 
# 
# High freq. dielectric constant tensor:
#      x y z
#    x 1.767860 0.000000 0.000000 
#    y 0.000000 1.767860 0.000000 
#    z 0.000000 0.000000 1.778550 
# 
# From -- ./inp_files/5070.got.cif
#   From: 2010.03.12/outbox.cif.g09.slc.cpg/sg115_3_cif.got.tgz:5070.got - 2010.04.14 02:11:21.
