data_PCOD8309306
_publ_section_title
;
Structure prediction by ZEFSAII (Michael W. Deem and Ramdas Pophale) SiO2 
 PCOD8309306
Probable space group: P -4 M 2
;
_chemical_formula_sum "Si O2"
_cell_formula_units_Z 21
_cell_length_a 8.110048
_cell_length_b 8.110048
_cell_length_c 16.005346
_cell_angle_alpha 90.000000
_cell_angle_beta 90.000000
_cell_angle_gamma 90.000000
_cell_volume 1052.717679
_symmetry_space_group_name_H-M "P -4 M 2"
_symmetry_group_IT_number 115
_symmetry_cell_setting 'tetragonal'
loop_
_space_group_symop_operation_xyz
x,y,z
y,-x,-z
-x,-y,z
-y,x,-z
y,x,-z
-y,-x,-z
-x,y,z
x,-y,z
loop_
_atom_site_type_symbol
_atom_site_label
_atom_site_fract_x
_atom_site_fract_y
_atom_site_fract_z
Si Si1 0.000000 0.816383 0.340481
Si Si2 0.688818 0.189208 0.914033
Si Si3 0.000000 0.000000 0.500000
Si Si4 0.320289 0.806761 0.255216
O O1 0.168333 0.726005 0.308747
O O2 0.000000 0.835440 0.441758
O O3 0.000000 0.000000 0.299339
O O4 0.500000 0.242667 0.925642
O O5 0.771603 0.298688 0.842598
O O6 0.705156 0.000000 0.886671
O O7 0.784225 0.215776 0.000000
O O8 0.500000 0.733728 0.282570
O O9 0.323785 0.000000 0.272168
#
# Coordination Sequence:
#
# PCOD8309306 Si02
#       4
#     4   8   1   8
#     4   8  16  32  55  83 110 142 178 230 282 351
#     4  11  23  36  51  75 111 154 201 245 291 345
#     4   8  16  32  60  84 110 144 172 220 300 340
#     4  10  19  33  56  82 109 145 190 235 286 341
#
# _framework density 19.948370000000001
#
# number of rings (size 3 to 8) (size 9 to 14) (size 15 to 20)
#    0.571    1.524    1.905    2.286    0.000    7.619 
#    0.000    0.000    0.000    4.571    0.000    0.000 
#    0.000    0.000    0.000    0.000    0.000    0.000 
#
# Total GULP energy -260220.083449 kJ/mol
# GULP energy per Si atom -12391.432545 kJ/mol
# Density = 1.990297 g / cm^3
# Si number density = 19.948370 Si / 1000 Ang^3
#
#
#
# Elastic Constant Matrix: (Units=GPa)
#
#
# Indices 1 2 3 4 5 6 
#
# 1 94.6010 22.9040 31.1143 0.0000 0.0000 0.0000
# 2 22.9040 94.6016 31.1149 0.0000 0.0000 0.0000
# 3 31.1143 31.1149 118.7190 0.0000 0.0000 0.0000
# 4 0.0000 0.0000 0.0000 10.4288 0.0000 0.0000
# 5 0.0000 0.0000 0.0000 0.0000 10.4289 0.0000
# 6 0.0000 0.0000 0.0000 0.0000 0.0000 13.8387
#
#
#
# Elastic Compliance Matrix: (Units=1/GPa)
#
#
# Indices 1 2 3 4 5 6 
#
# 1 0.011915 -0.002033 -0.002590 0.000000 0.000000 0.000000
# 2 -0.002033 0.011915 -0.002590 0.000000 0.000000 0.000000
# 3 -0.002590 -0.002590 0.009781 0.000000 0.000000 0.000000
# 4 0.000000 0.000000 0.000000 0.095888 0.000000 0.000000
# 5 0.000000 0.000000 0.000000 0.000000 0.095887 0.000000
# 6 0.000000 0.000000 0.000000 0.000000 0.000000 0.072261
#
#
# Mechanical properties :
#
#
# Convention : Reuss Voigt Hill
#
# Bulk Modulus (GPa) = 52.12434 53.13199 52.62817
# Shear Modulus (GPa) = 15.70020 21.79184 18.74602
#
# Velocity S-wave (km/s) = 2.80847 3.30875 3.06882
# Velocity P-wave (km/s) = 6.05830 6.42571 6.24471
#
# Compressibility (1/GPa) = 0.01918489
#
# Stress axis : x y z
#
# Youngs Moduli (GPa) = 83.93002 83.93031 102.24111
#
# Poissons Ratio (x) = 0.17062 0.26479
# Poissons Ratio (y) = 0.17062 0.26480
# Poissons Ratio (z) = 0.21737 0.21737
#
# Static dielectric constant tensor:
#      x y z
#    x 3.898790 0.000000 0.000000 
#    y 0.000000 3.898760 0.000000 
#    z 0.000000 0.000000 3.266600 
# 
# 
# High freq. dielectric constant tensor:
#      x y z
#    x 1.766820 0.000000 0.000000 
#    y 0.000000 1.766820 0.000000 
#    z 0.000000 0.000000 1.749550 
# 
# From -- ./inp_files/3349.got.cif
#   From: 2010.03.12/outbox.cif.g09.slc.cpg/sg115_2_cif.got.tgz:3349.got - 2010.04.14 02:11:21.
