data_PCOD8309984
_publ_section_title
;
Structure prediction by ZEFSAII (Michael W. Deem and Ramdas Pophale) SiO2 
 PCOD8309984
Probable space group: P -4 M 2
;
_chemical_formula_sum "Si O2"
_cell_formula_units_Z 48
_cell_length_a 13.818844
_cell_length_b 13.818844
_cell_length_c 13.315502
_cell_angle_alpha 90.000000
_cell_angle_beta 90.000000
_cell_angle_gamma 90.000000
_cell_volume 2542.734247
_symmetry_space_group_name_H-M "P -4 M 2"
_symmetry_group_IT_number 115
_symmetry_cell_setting 'tetragonal'
loop_
_space_group_symop_operation_xyz
x,y,z
y,-x,-z
-x,-y,z
-y,x,-z
y,x,-z
-y,-x,-z
-x,y,z
x,-y,z
loop_
_atom_site_type_symbol
_atom_site_label
_atom_site_fract_x
_atom_site_fract_y
_atom_site_fract_z
Si Si1 0.193864 0.890803 0.899844
Si Si2 0.111906 0.251433 0.555958
Si Si3 0.704402 0.608880 0.901434
Si Si4 0.389392 0.109845 0.624938
Si Si5 0.893601 0.395153 0.011260
Si Si6 0.754177 0.243923 0.740182
O O1 0.170602 0.817472 0.810055
O O2 0.165499 0.000000 0.870753
O O3 0.136942 0.863059 0.000000
O O4 0.309457 0.876234 0.910623
O O5 0.157600 0.157600 0.500000
O O6 0.117329 0.345251 0.486040
O O7 0.176214 0.282059 0.652210
O O8 0.000000 0.227469 0.583940
O O9 0.665610 0.500000 0.881916
O O10 0.818946 0.609974 0.920448
O O11 0.695616 0.672090 0.800418
O O12 0.650735 0.650735 0.000000
O O13 0.500000 0.145071 0.619536
O O14 0.330937 0.176329 0.700704
O O15 0.381839 0.000000 0.665026
O O16 0.883260 0.500000 0.066877
O O17 0.000000 0.383881 0.962742
#
# Coordination Sequence:
#
# PCOD8309984 Si02
#       6
#     8   8   8   8   8   8
#     4  11  21  35  51  74 113 152 188 225 265 313
#     4   9  20  37  58  82 113 144 177 219 272 333
#     4  11  22  38  55  77 113 151 188 227 273 328
#     4   9  19  37  60  84 108 134 170 224 284 333
#     4   9  17  31  53  76 100 138 185 230 272 308
#     4  11  20  35  55  87 107 141 183 229 272 319
#
# _framework density 18.877317999999999
#
# number of rings (size 3 to 8) (size 9 to 14) (size 15 to 20)
#    0.000    2.000    3.333    0.500    0.000    4.500 
#    0.000    1.667    0.000    0.000    0.000    0.000 
#    0.000    0.000    0.000    0.000    0.000    0.000 
#
# Total GULP energy -594878.347031 kJ/mol
# GULP energy per Si atom -12393.298896 kJ/mol
# Density = 1.883435 g / cm^3
# Si number density = 18.877318 Si / 1000 Ang^3
#
#
#
# Elastic Constant Matrix: (Units=GPa)
#
#
# Indices 1 2 3 4 5 6 
#
# 1 103.6548 28.1493 43.6155 0.0000 0.0000 0.0000
# 2 28.1493 103.6540 43.6147 0.0000 0.0000 0.0000
# 3 43.6155 43.6147 101.5169 0.0000 0.0000 0.0000
# 4 0.0000 0.0000 0.0000 20.3852 0.0000 0.0000
# 5 0.0000 0.0000 0.0000 0.0000 20.3852 0.0000
# 6 0.0000 0.0000 0.0000 0.0000 0.0000 21.8610
#
#
#
# Elastic Compliance Matrix: (Units=1/GPa)
#
#
# Indices 1 2 3 4 5 6 
#
# 1 0.011923 -0.001321 -0.004555 0.000000 0.000000 0.000000
# 2 -0.001321 0.011923 -0.004555 0.000000 0.000000 0.000000
# 3 -0.004555 -0.004555 0.013764 0.000000 0.000000 0.000000
# 4 0.000000 0.000000 0.000000 0.049055 0.000000 0.000000
# 5 0.000000 0.000000 0.000000 0.000000 0.049055 0.000000
# 6 0.000000 0.000000 0.000000 0.000000 0.000000 0.045743
#
#
# Mechanical properties :
#
#
# Convention : Reuss Voigt Hill
#
# Bulk Modulus (GPa) = 59.70769 59.95384 59.83076
# Shear Modulus (GPa) = 24.04908 25.42271 24.73589
#
# Velocity S-wave (km/s) = 3.57314 3.67377 3.62380
# Velocity P-wave (km/s) = 6.98005 7.05862 7.01944
#
# Compressibility (1/GPa) = 0.01674826
#
# Stress axis : x y z
#
# Youngs Moduli (GPa) = 83.87301 83.87290 72.65158
#
# Poissons Ratio (x) = 0.11082 0.33091
# Poissons Ratio (y) = 0.11082 0.33091
# Poissons Ratio (z) = 0.38202 0.38202
#
# Static dielectric constant tensor:
#      x y z
#    x 3.601870 0.000000 0.000000 
#    y 0.000000 3.601870 0.000000 
#    z 0.000000 0.000000 3.328280 
# 
# 
# High freq. dielectric constant tensor:
#      x y z
#    x 1.733730 0.000000 0.000000 
#    y 0.000000 1.733730 0.000000 
#    z 0.000000 0.000000 1.716850 
# 
# From -- ./inp_files/2934.got.cif
#   From: 2010.03.12/outbox.cif.g09.slc.cpg/sg115_2_cif.got.tgz:2934.got - 2010.04.14 02:11:21.
