data_PCOD8309442
_publ_section_title
;
Structure prediction by ZEFSAII (Michael W. Deem and Ramdas Pophale) SiO2 
 PCOD8309442
Probable space group: P -4 M 2
;
_chemical_formula_sum "Si O2"
_cell_formula_units_Z 48
_cell_length_a 9.227732
_cell_length_b 9.227732
_cell_length_c 31.132463
_cell_angle_alpha 90.000000
_cell_angle_beta 90.000000
_cell_angle_gamma 90.000000
_cell_volume 2650.961536
_symmetry_space_group_name_H-M "P -4 M 2"
_symmetry_group_IT_number 115
_symmetry_cell_setting 'tetragonal'
loop_
_space_group_symop_operation_xyz
x,y,z
y,-x,-z
-x,-y,z
-y,x,-z
y,x,-z
-y,-x,-z
-x,y,z
x,-y,z
loop_
_atom_site_type_symbol
_atom_site_label
_atom_site_fract_x
_atom_site_fract_y
_atom_site_fract_z
Si Si1 0.670633 0.168710 0.962341
Si Si2 0.169754 0.668305 0.205950
Si Si3 0.836420 0.828087 0.877499
Si Si4 0.835084 0.672191 0.720739
Si Si5 0.173406 0.839078 0.546612
Si Si6 0.171576 0.340661 0.625569
O O1 0.500000 0.195056 0.957867
O O2 0.747098 0.223841 0.918907
O O3 0.705363 0.000000 0.971433
O O4 0.733974 0.266027 0.000000
O O5 0.203850 0.500000 0.198586
O O6 0.230401 0.755943 0.164890
O O7 0.251980 0.723317 0.247749
O O8 0.000000 0.695897 0.212476
O O9 0.000000 0.765239 0.879255
O O10 0.839521 0.000000 0.876292
O O11 0.819634 0.500000 0.723937
O O12 0.793405 0.725357 0.672574
O O13 0.000000 0.718562 0.731956
O O14 0.223814 0.776187 0.500000
O O15 0.239860 0.750368 0.586480
O O16 0.000000 0.839995 0.547441
O O17 0.234701 0.000000 0.552399
O O18 0.239950 0.500000 0.622176
O O19 0.000000 0.349317 0.620311
#
# Coordination Sequence:
#
# PCOD8309442 Si02
#       6
#     8   8   8   8   8   8
#     4  10  20  34  53  77 105 136 169 205 244 286
#     4  10  20  33  50  74 103 132 162 199 245 295
#     4   9  17  31  53  78 102 130 165 204 245 289
#     4   9  18  32  49  70  95 124 162 205 243 284
#     4   8  13  21  35  58  86 113 144 184 228 274
#     4   8  14  25  41  61  86 116 150 188 230 276
#
# _framework density 18.106638
#
# number of rings (size 3 to 8) (size 9 to 14) (size 15 to 20)
#    0.000    3.000    0.000    3.000    0.000    5.000 
#    0.000    2.500    0.000    6.000    0.000    2.333 
#    0.000    0.000    0.000    0.000    0.000    0.000 
#
# Total GULP energy -594964.581345 kJ/mol
# GULP energy per Si atom -12395.095445 kJ/mol
# Density = 1.806543 g / cm^3
# Si number density = 18.106638 Si / 1000 Ang^3
#
#
#
# Elastic Constant Matrix: (Units=GPa)
#
#
# Indices 1 2 3 4 5 6 
#
# 1 65.0966 29.9985 57.6321 0.0000 0.0000 0.0000
# 2 29.9985 65.0963 57.6311 0.0000 0.0000 0.0000
# 3 57.6321 57.6311 175.6736 0.0000 0.0000 0.0000
# 4 0.0000 0.0000 0.0000 5.2077 0.0000 0.0000
# 5 0.0000 0.0000 0.0000 0.0000 5.2081 0.0000
# 6 0.0000 0.0000 0.0000 0.0000 0.0000 18.6922
#
#
#
# Elastic Compliance Matrix: (Units=1/GPa)
#
#
# Indices 1 2 3 4 5 6 
#
# 1 0.022975 -0.005517 -0.005727 0.000000 0.000000 0.000000
# 2 -0.005517 0.022975 -0.005727 0.000000 0.000000 0.000000
# 3 -0.005727 -0.005727 0.009450 0.000000 0.000000 0.000000
# 4 0.000000 0.000000 0.000000 0.192022 0.000000 0.000000
# 5 0.000000 0.000000 0.000000 0.000000 0.192008 0.000000
# 6 0.000000 0.000000 0.000000 0.000000 0.000000 0.053498
#
#
# Mechanical properties :
#
#
# Convention : Reuss Voigt Hill
#
# Bulk Modulus (GPa) = 46.60554 66.26554 56.43554
# Shear Modulus (GPa) = 9.36289 16.52859 12.94574
#
# Velocity S-wave (km/s) = 2.27644 3.02461 2.67680
# Velocity P-wave (km/s) = 5.71882 6.99103 6.38668
#
# Compressibility (1/GPa) = 0.02145668
#
# Stress axis : x y z
#
# Youngs Moduli (GPa) = 43.52605 43.52635 105.81918
#
# Poissons Ratio (x) = 0.24014 0.60605
# Poissons Ratio (y) = 0.24014 0.60603
# Poissons Ratio (z) = 0.24929 0.24928
#
# Static dielectric constant tensor:
#      x y z
#    x 3.146840 0.000000 0.000000 
#    y 0.000000 3.146840 0.000000 
#    z 0.000000 0.000000 3.657940 
# 
# 
# High freq. dielectric constant tensor:
#      x y z
#    x 1.670640 0.000000 0.000000 
#    y 0.000000 1.670640 0.000000 
#    z 0.000000 0.000000 1.721530 
# 
# From -- ./inp_files/6035.got.cif
#   From: 2010.03.12/outbox.cif.g09.slc.cpg/sg115_4_cif.got.tgz:6035.got - 2010.04.14 02:11:21.
