data_PCOD8309693
_publ_section_title
;
Structure prediction by ZEFSAII (Michael W. Deem and Ramdas Pophale) SiO2 
 PCOD8309693
Probable space group: P -4 M 2
;
_chemical_formula_sum "Si O2"
_cell_formula_units_Z 29
_cell_length_a 8.295498
_cell_length_b 8.295498
_cell_length_c 21.200020
_cell_angle_alpha 90.000000
_cell_angle_beta 90.000000
_cell_angle_gamma 90.000000
_cell_volume 1458.885462
_symmetry_space_group_name_H-M "P -4 M 2"
_symmetry_group_IT_number 115
_symmetry_cell_setting 'tetragonal'
loop_
_space_group_symop_operation_xyz
x,y,z
y,-x,-z
-x,-y,z
-y,x,-z
y,x,-z
-y,-x,-z
-x,y,z
x,-y,z
loop_
_atom_site_type_symbol
_atom_site_label
_atom_site_fract_x
_atom_site_fract_y
_atom_site_fract_z
Si Si1 0.819853 0.190966 0.192086
Si Si2 0.000000 0.000000 0.500000
Si Si3 0.176356 0.000000 0.621287
Si Si4 0.320574 0.689184 0.317156
Si Si5 0.678091 0.189104 0.062933
O O1 0.700005 0.252067 0.245727
O O2 0.766294 0.263074 0.124374
O O3 0.000000 0.253500 0.207390
O O4 0.815056 0.000000 0.189975
O O5 0.841547 0.000000 0.544933
O O6 0.258456 0.831281 0.640036
O O7 0.000000 0.000000 0.654536
O O8 0.500000 0.750951 0.340351
O O9 0.321098 0.500000 0.318328
O O10 0.500000 0.265261 0.057669
O O11 0.666391 0.000000 0.071924
O O12 0.776400 0.223601 0.000000
#
# Coordination Sequence:
#
# PCOD8309693 Si02
#       5
#     8   1   4   8   8
#     4  10  20  35  58  87 115 154 209 265 320 381
#     4   8  24  44  72 100 128 164 218 248 300 356
#     4  10  21  43  68  96 127 166 217 258 302 369
#     4  11  23  38  61  96 136 173 210 263 326 382
#     4  10  21  36  53  75 107 150 202 258 318 383
#
# _framework density 19.878188000000002
#
# number of rings (size 3 to 8) (size 9 to 14) (size 15 to 20)
#    0.414    1.379    1.379    2.897    0.000    6.069 
#    0.000    2.759    0.000    1.655    0.000    0.000 
#    0.000    0.000    0.000    0.000    0.000    0.000 
#
# Total GULP energy -359365.037910 kJ/mol
# GULP energy per Si atom -12391.897859 kJ/mol
# Density = 1.983294 g / cm^3
# Si number density = 19.878188 Si / 1000 Ang^3
#
#
#
# Elastic Constant Matrix: (Units=GPa)
#
#
# Indices 1 2 3 4 5 6 
#
# 1 56.3316 4.5978 26.8032 0.0000 0.0000 0.0000
# 2 4.5978 56.3338 26.8034 0.0000 0.0000 0.0000
# 3 26.8032 26.8034 133.8471 0.0000 0.0000 0.0000
# 4 0.0000 0.0000 0.0000 5.3268 0.0000 0.0000
# 5 0.0000 0.0000 0.0000 0.0000 5.3268 0.0000
# 6 0.0000 0.0000 0.0000 0.0000 0.0000 26.2896
#
#
#
# Elastic Compliance Matrix: (Units=1/GPa)
#
#
# Indices 1 2 3 4 5 6 
#
# 1 0.019626 0.000296 -0.003990 0.000000 0.000000 0.000000
# 2 0.000296 0.019625 -0.003989 0.000000 0.000000 0.000000
# 3 -0.003990 -0.003989 0.009069 0.000000 0.000000 0.000000
# 4 0.000000 0.000000 0.000000 0.187731 0.000000 0.000000
# 5 0.000000 0.000000 0.000000 0.000000 0.187731 0.000000
# 6 0.000000 0.000000 0.000000 0.000000 0.000000 0.038038
#
#
# Mechanical properties :
#
#
# Convention : Reuss Voigt Hill
#
# Bulk Modulus (GPa) = 30.34414 40.32460 35.33437
# Shear Modulus (GPa) = 10.24233 19.94251 15.09242
#
# Velocity S-wave (km/s) = 2.27238 3.17083 2.75843
# Velocity P-wave (km/s) = 4.70990 5.80822 5.28765
#
# Compressibility (1/GPa) = 0.03295529
#
# Stress axis : x y z
#
# Youngs Moduli (GPa) = 50.95254 50.95473 110.26559
#
# Poissons Ratio (x) = -0.01510 0.43991
# Poissons Ratio (y) = -0.01510 0.43989
# Poissons Ratio (z) = 0.20328 0.20328
#
# Static dielectric constant tensor:
#      x y z
#    x 3.765500 0.000000 0.000000 
#    y 0.000000 3.765500 0.000000 
#    z 0.000000 0.000000 3.837010 
# 
# 
# High freq. dielectric constant tensor:
#      x y z
#    x 1.774980 0.000000 0.000000 
#    y 0.000000 1.774980 0.000000 
#    z 0.000000 0.000000 1.763100 
# 
# From -- ./inp_files/4534.got.cif
#   From: 2010.03.12/outbox.cif.g09.slc.cpg/sg115_3_cif.got.tgz:4534.got - 2010.04.14 02:11:21.
