data_PCOD8309086
_publ_section_title
;
Structure prediction by ZEFSAII (Michael W. Deem and Ramdas Pophale) SiO2 
 PCOD8309086
Probable space group: P -4 21 C
;
_chemical_formula_sum "Si O2"
_cell_formula_units_Z 42
_cell_length_a 15.665986
_cell_length_b 15.665986
_cell_length_c 7.436079
_cell_angle_alpha 90.000000
_cell_angle_beta 90.000000
_cell_angle_gamma 90.000000
_cell_volume 1824.985689
_symmetry_space_group_name_H-M "P -4 21 C"
_symmetry_group_IT_number 114
_symmetry_cell_setting 'tetragonal'
loop_
_space_group_symop_operation_xyz
x,y,z
y,-x,-z
-x,-y,z
-y,x,-z
1/2+x,1/2-y,1/2-z
1/2-x,1/2+y,1/2-z
1/2-y,1/2-x,1/2+z
1/2+y,1/2+x,1/2+z
loop_
_atom_site_type_symbol
_atom_site_label
_atom_site_fract_x
_atom_site_fract_y
_atom_site_fract_z
Si Si1 0.000000 0.000000 0.500000
Si Si2 0.367363 0.379754 0.851642
Si Si3 0.744008 0.376228 0.840385
Si Si4 0.310843 0.951986 0.650991
Si Si5 0.401891 0.974602 0.004445
Si Si6 0.238654 0.601981 0.421981
O O1 0.964535 0.924544 0.372161
O O2 0.272840 0.402638 0.777887
O O3 0.414730 0.318690 0.708768
O O4 0.353811 0.342240 0.053030
O O5 0.780779 0.460197 0.944748
O O6 0.728817 0.396894 0.629065
O O7 0.806619 0.297023 0.863709
O O8 0.374775 0.988602 0.801549
O O9 0.372001 0.891400 0.532819
O O10 0.500000 0.000000 0.036903
O O11 0.334465 0.030710 0.120209
#
# Coordination Sequence:
#
# PCOD8309086 Si02
#       6
#     2   8   8   8   8   8
#     4  12  28  56  82  92 152 218 248 316 378 452
#     4  12  27  52  72 106 147 197 258 304 371 443
#     4  11  23  45  71 104 146 190 243 307 376 435
#     4  11  26  41  69 108 139 191 247 292 372 450
#     4  11  24  42  72 111 151 186 236 307 383 449
#     4  11  25  44  74 110 149 194 242 313 375 447
#
# _framework density 23.013877999999998
#
# number of rings (size 3 to 8) (size 9 to 14) (size 15 to 20)
#    0.000    0.762    5.714    0.571    8.000    0.000 
#    6.857    0.952    0.000    0.000    0.000    0.000 
#    0.000    0.000    0.000    0.000    0.000    0.000 
#
# Total GULP energy -520551.822494 kJ/mol
# GULP energy per Si atom -12394.091012 kJ/mol
# Density = 2.296150 g / cm^3
# Si number density = 23.013878 Si / 1000 Ang^3
#
#
#
# Elastic Constant Matrix: (Units=GPa)
#
#
# Indices 1 2 3 4 5 6 
#
# 1 116.7114 34.4118 29.3075 0.0000 0.0000 0.0000
# 2 34.4118 116.7114 29.3075 0.0000 0.0000 0.0000
# 3 29.3075 29.3075 85.6910 0.0000 0.0000 0.0000
# 4 0.0000 0.0000 0.0000 26.9195 0.0000 0.0000
# 5 0.0000 0.0000 0.0000 0.0000 26.9195 0.0000
# 6 0.0000 0.0000 0.0000 0.0000 0.0000 33.4191
#
#
#
# Elastic Compliance Matrix: (Units=1/GPa)
#
#
# Indices 1 2 3 4 5 6 
#
# 1 0.009890 -0.002261 -0.002609 0.000000 0.000000 0.000000
# 2 -0.002261 0.009890 -0.002609 0.000000 0.000000 0.000000
# 3 -0.002609 -0.002609 0.013455 0.000000 0.000000 0.000000
# 4 0.000000 0.000000 0.000000 0.037148 0.000000 0.000000
# 5 0.000000 0.000000 0.000000 0.000000 0.037148 0.000000
# 6 0.000000 0.000000 0.000000 0.000000 0.000000 0.029923
#
#
# Mechanical properties :
#
#
# Convention : Reuss Voigt Hill
#
# Bulk Modulus (GPa) = 54.71699 56.12972 55.42336
# Shear Modulus (GPa) = 31.54500 32.52409 32.03455
#
# Velocity S-wave (km/s) = 3.70631 3.76338 3.73495
# Velocity P-wave (km/s) = 6.49175 6.58229 6.53718
#
# Compressibility (1/GPa) = 0.01827586
#
# Stress axis : x y z
#
# Youngs Moduli (GPa) = 101.11283 101.11283 74.32373
#
# Poissons Ratio (x) = 0.22859 0.19393
# Poissons Ratio (y) = 0.22859 0.19393
# Poissons Ratio (z) = 0.26383 0.26383
#
# Static dielectric constant tensor:
#      x y z
#    x 4.391520 0.000000 0.000000 
#    y 0.000000 4.391520 0.000000 
#    z 0.000000 0.000000 3.933320 
# 
# 
# High freq. dielectric constant tensor:
#      x y z
#    x 1.911750 0.000000 0.000000 
#    y 0.000000 1.911750 0.000000 
#    z 0.000000 0.000000 1.892250 
# 
# From -- ./inp_files/820.got.cif
#   From: 2010.03.12/outbox.cif.g09.slc.cpg/sg114_1_cif.got.tgz:820.got - 2010.04.14 02:08:34.
