data_PCOD8309162
_publ_section_title
;
Structure prediction by ZEFSAII (Michael W. Deem and Ramdas Pophale) SiO2 
 PCOD8309162
Probable space group: P -4 M 2
;
_chemical_formula_sum "Si O2"
_cell_formula_units_Z 48
_cell_length_a 13.651424
_cell_length_b 13.651424
_cell_length_c 16.557759
_cell_angle_alpha 90.000000
_cell_angle_beta 90.000000
_cell_angle_gamma 90.000000
_cell_volume 3085.726771
_symmetry_space_group_name_H-M "P -4 M 2"
_symmetry_group_IT_number 115
_symmetry_cell_setting 'tetragonal'
loop_
_space_group_symop_operation_xyz
x,y,z
y,-x,-z
-x,-y,z
-y,x,-z
y,x,-z
-y,-x,-z
-x,y,z
x,-y,z
loop_
_atom_site_type_symbol
_atom_site_label
_atom_site_fract_x
_atom_site_fract_y
_atom_site_fract_z
Si Si1 0.111536 0.208214 0.074734
Si Si2 0.208763 0.704021 0.823587
Si Si3 0.706213 0.388158 0.574291
Si Si4 0.110289 0.387605 0.675092
Si Si5 0.388033 0.613758 0.742475
Si Si6 0.390313 0.889183 0.029353
O O1 0.182654 0.192197 0.151268
O O2 0.000000 0.187984 0.102216
O O3 0.136535 0.136535 0.000000
O O4 0.127434 0.320040 0.046845
O O5 0.135968 0.682142 0.749851
O O6 0.320631 0.681665 0.798850
O O7 0.184659 0.634990 0.899029
O O8 0.682210 0.317791 0.500000
O O9 0.691877 0.500000 0.546187
O O10 0.818411 0.366928 0.599765
O O11 0.634670 0.364389 0.648896
O O12 0.124285 0.500000 0.704122
O O13 0.000000 0.366622 0.646191
O O14 0.500000 0.640614 0.761019
O O15 0.365211 0.500000 0.760912
O O16 0.500000 0.868378 0.999067
O O17 0.378252 0.000000 0.062400
#
# Coordination Sequence:
#
# PCOD8309162 Si02
#       6
#     8   8   8   8   8   8
#     4   9  19  32  44  61  83 108 141 182 224 261
#     4  10  17  27  44  63  84 111 142 175 213 257
#     4   9  16  26  43  66  90 116 142 167 198 239
#     4   9  17  29  46  69  91 108 134 175 217 251
#     4   9  17  27  40  63  93 119 141 167 202 246
#     4   9  16  27  44  63  81 103 135 176 218 257
#
# _framework density 15.555493999999999
#
# number of rings (size 3 to 8) (size 9 to 14) (size 15 to 20)
#    0.000    2.833    0.000    3.500    0.000    3.667 
#    0.000    0.000    0.000    4.000    0.000    8.167 
#    0.000    0.000    0.000    0.000    0.000    0.000 
#
# Total GULP energy -595140.230678 kJ/mol
# GULP energy per Si atom -12398.754806 kJ/mol
# Density = 1.552009 g / cm^3
# Si number density = 15.555494 Si / 1000 Ang^3
#
#
#
# Elastic Constant Matrix: (Units=GPa)
#
#
# Indices 1 2 3 4 5 6 
#
# 1 101.2609 33.9026 43.6704 0.0000 0.0000 0.0000
# 2 33.9026 101.2610 43.6707 0.0000 0.0000 0.0000
# 3 43.6704 43.6707 74.1406 0.0000 0.0000 0.0000
# 4 0.0000 0.0000 0.0000 20.2648 0.0000 0.0000
# 5 0.0000 0.0000 0.0000 0.0000 20.2645 0.0000
# 6 0.0000 0.0000 0.0000 0.0000 0.0000 17.0448
#
#
#
# Elastic Compliance Matrix: (Units=1/GPa)
#
#
# Indices 1 2 3 4 5 6 
#
# 1 0.013395 -0.001451 -0.007036 0.000000 0.000000 0.000000
# 2 -0.001451 0.013395 -0.007036 0.000000 0.000000 0.000000
# 3 -0.007036 -0.007036 0.021776 0.000000 0.000000 0.000000
# 4 0.000000 0.000000 0.000000 0.049347 0.000000 0.000000
# 5 0.000000 0.000000 0.000000 0.000000 0.049347 0.000000
# 6 0.000000 0.000000 0.000000 0.000000 0.000000 0.058669
#
#
# Mechanical properties :
#
#
# Convention : Reuss Voigt Hill
#
# Bulk Modulus (GPa) = 57.06810 57.68332 57.37571
# Shear Modulus (GPa) = 20.59176 21.87608 21.23392
#
# Velocity S-wave (km/s) = 3.64230 3.75417 3.69866
# Velocity P-wave (km/s) = 7.37936 7.48027 7.42999
#
# Compressibility (1/GPa) = 0.01752292
#
# Stress axis : x y z
#
# Youngs Moduli (GPa) = 74.65237 74.65215 45.92125
#
# Poissons Ratio (x) = 0.10829 0.32309
# Poissons Ratio (y) = 0.10829 0.32310
# Poissons Ratio (z) = 0.52524 0.52524
#
# Static dielectric constant tensor:
#      x y z
#    x 2.983960 0.000000 0.000000 
#    y 0.000000 2.983960 0.000000 
#    z 0.000000 0.000000 2.690090 
# 
# 
# High freq. dielectric constant tensor:
#      x y z
#    x 1.591750 0.000000 0.000000 
#    y 0.000000 1.591750 0.000000 
#    z 0.000000 0.000000 1.570850 
# 
# From -- ./inp_files/3715.got.cif
#   From: 2010.03.12/outbox.cif.g09.slc.cpg/sg115_2_cif.got.tgz:3715.got - 2010.04.14 02:11:21.
