data_PCOD8309817
_publ_section_title
;
Structure prediction by ZEFSAII (Michael W. Deem and Ramdas Pophale) SiO2 
 PCOD8309817
Probable space group: P -4 M 2
;
_chemical_formula_sum "Si O2"
_cell_formula_units_Z 44
_cell_length_a 9.101024
_cell_length_b 9.101024
_cell_length_c 28.685114
_cell_angle_alpha 90.000000
_cell_angle_beta 90.000000
_cell_angle_gamma 90.000000
_cell_volume 2375.948919
_symmetry_space_group_name_H-M "P -4 M 2"
_symmetry_group_IT_number 115
_symmetry_cell_setting 'tetragonal'
loop_
_space_group_symop_operation_xyz
x,y,z
y,-x,-z
-x,-y,z
-y,x,-z
y,x,-z
-y,-x,-z
-x,y,z
x,-y,z
loop_
_atom_site_type_symbol
_atom_site_label
_atom_site_fract_x
_atom_site_fract_y
_atom_site_fract_z
Si Si1 0.328527 0.328527 0.500000
Si Si2 0.330186 0.830354 0.678205
Si Si3 0.660367 0.173940 0.140067
Si Si4 0.834946 0.674932 0.959819
Si Si5 0.172721 0.830131 0.583718
Si Si6 0.166233 0.324589 0.759389
O O1 0.295958 0.500000 0.493557
O O2 0.271803 0.243870 0.454979
O O3 0.500000 0.797574 0.668027
O O4 0.238205 0.781546 0.633196
O O5 0.279137 0.736433 0.722024
O O6 0.301896 0.000000 0.689802
O O7 0.500000 0.249133 0.140766
O O8 0.739362 0.218863 0.091068
O O9 0.739421 0.214548 0.189252
O O10 0.640378 0.000000 0.138937
O O11 0.829965 0.500000 0.957291
O O12 0.000000 0.729430 0.970915
O O13 0.728035 0.728035 0.000000
O O14 0.000000 0.802282 0.584581
O O15 0.210051 0.000000 0.572746
O O16 0.174124 0.500000 0.760194
O O17 0.000000 0.273536 0.747270
#
# Coordination Sequence:
#
# PCOD8309817 Si02
#       6
#     4   8   8   8   8   8
#     4  11  24  39  56  82 114 143 170 205 252 300
#     4  10  21  36  53  75 106 141 171 203 249 300
#     4   7  12  26  47  68  91 122 161 203 245 292
#     4   9  17  30  48  69  94 125 161 202 248 297
#     4  10  21  38  60  82 103 134 177 216 249 292
#     4   9  17  31  53  77  97 123 165 212 253 296
#
# _framework density 18.518917999999999
#
# number of rings (size 3 to 8) (size 9 to 14) (size 15 to 20)
#    0.000    2.818    0.000    3.818    0.000    5.455 
#    0.000    1.818    0.000    8.727    0.000    0.000 
#    0.000    0.000    0.000    0.000    0.000    0.000 
#
# Total GULP energy -545219.090985 kJ/mol
# GULP energy per Si atom -12391.342977 kJ/mol
# Density = 1.847677 g / cm^3
# Si number density = 18.518918 Si / 1000 Ang^3
#
#
#
# Elastic Constant Matrix: (Units=GPa)
#
#
# Indices 1 2 3 4 5 6 
#
# 1 54.5012 29.3444 50.6452 0.0000 0.0000 0.0000
# 2 29.3444 54.5012 50.6452 0.0000 0.0000 0.0000
# 3 50.6452 50.6452 166.5194 0.0000 0.0000 0.0000
# 4 0.0000 0.0000 0.0000 30.0204 0.0000 0.0000
# 5 0.0000 0.0000 0.0000 0.0000 30.0204 0.0000
# 6 0.0000 0.0000 0.0000 0.0000 0.0000 25.6906
#
#
#
# Elastic Compliance Matrix: (Units=1/GPa)
#
#
# Indices 1 2 3 4 5 6 
#
# 1 0.029302 -0.010448 -0.005734 0.000000 0.000000 0.000000
# 2 -0.010448 0.029302 -0.005734 0.000000 0.000000 0.000000
# 3 -0.005734 -0.005734 0.009493 0.000000 0.000000 0.000000
# 4 0.000000 0.000000 0.000000 0.033311 0.000000 0.000000
# 5 0.000000 0.000000 0.000000 0.000000 0.033311 0.000000
# 6 0.000000 0.000000 0.000000 0.000000 0.000000 0.038925
#
#
# Mechanical properties :
#
#
# Convention : Reuss Voigt Hill
#
# Bulk Modulus (GPa) = 41.21279 59.64349 50.42814
# Shear Modulus (GPa) = 22.16647 26.80541 24.48594
#
# Velocity S-wave (km/s) = 3.46347 3.80868 3.64017
# Velocity P-wave (km/s) = 6.18845 7.18457 6.70503
#
# Compressibility (1/GPa) = 0.02426431
#
# Stress axis : x y z
#
# Youngs Moduli (GPa) = 34.12698 34.12698 105.33709
#
# Poissons Ratio (x) = 0.35657 0.60403
# Poissons Ratio (y) = 0.35657 0.60403
# Poissons Ratio (z) = 0.19569 0.19569
#
# Static dielectric constant tensor:
#      x y z
#    x 3.158880 0.000000 0.000000 
#    y 0.000000 3.158880 0.000000 
#    z 0.000000 0.000000 3.887420 
# 
# 
# High freq. dielectric constant tensor:
#      x y z
#    x 1.692700 0.000000 0.000000 
#    y 0.000000 1.692700 0.000000 
#    z 0.000000 0.000000 1.744410 
# 
# From -- ./inp_files/5745.got.cif
#   From: 2010.03.12/outbox.cif.g09.slc.cpg/sg115_3_cif.got.tgz:5745.got - 2010.04.14 02:11:21.
