data_PCOD8309770
_publ_section_title
;
Structure prediction by ZEFSAII (Michael W. Deem and Ramdas Pophale) SiO2 
 PCOD8309770
Probable space group: P -4 M 2
;
_chemical_formula_sum "Si O2"
_cell_formula_units_Z 48
_cell_length_a 9.145428
_cell_length_b 9.145428
_cell_length_c 30.688337
_cell_angle_alpha 90.000000
_cell_angle_beta 90.000000
_cell_angle_gamma 90.000000
_cell_volume 2566.737316
_symmetry_space_group_name_H-M "P -4 M 2"
_symmetry_group_IT_number 115
_symmetry_cell_setting 'tetragonal'
loop_
_space_group_symop_operation_xyz
x,y,z
y,-x,-z
-x,-y,z
-y,x,-z
y,x,-z
-y,-x,-z
-x,y,z
x,-y,z
loop_
_atom_site_type_symbol
_atom_site_label
_atom_site_fract_x
_atom_site_fract_y
_atom_site_fract_z
Si Si1 0.170180 0.166523 0.295169
Si Si2 0.828148 0.164617 0.049328
Si Si3 0.328435 0.171772 0.460290
Si Si4 0.669091 0.670161 0.123931
Si Si5 0.328548 0.169877 0.617254
Si Si6 0.329912 0.830549 0.209223
O O1 0.212599 0.270544 0.335136
O O2 0.251750 0.227837 0.252658
O O3 0.000000 0.173746 0.284998
O O4 0.218825 0.000000 0.305941
O O5 0.750810 0.276827 0.081132
O O6 0.000000 0.172968 0.056827
O O7 0.772297 0.000000 0.058646
O O8 0.789307 0.210694 0.000000
O O9 0.243037 0.243037 0.500000
O O10 0.500000 0.202832 0.465778
O O11 0.272052 0.243613 0.416109
O O12 0.294961 0.000000 0.459263
O O13 0.500000 0.710718 0.118305
O O14 0.696035 0.500000 0.129454
O O15 0.733124 0.747006 0.167152
O O16 0.500000 0.203171 0.614604
O O17 0.295678 0.000000 0.606658
O O18 0.500000 0.798195 0.215181
O O19 0.295131 0.000000 0.202078
#
# Coordination Sequence:
#
# PCOD8309770 Si02
#       6
#     8   8   8   8   8   8
#     4   9  18  33  53  77 105 138 177 220 264 310
#     4   9  19  36  56  77 101 131 170 215 261 311
#     4  11  24  40  59  84 112 143 181 223 267 317
#     4  10  21  35  51  75 107 140 174 213 259 313
#     4  10  21  37  57  82 112 145 181 220 264 316
#     4   9  18  33  52  73 100 137 179 219 259 307
#
# _framework density 18.700783999999999
#
# number of rings (size 3 to 8) (size 9 to 14) (size 15 to 20)
#    0.000    2.333    0.000    2.500    0.000    8.333 
#    0.000    5.833    0.000    0.000    0.000    0.000 
#    0.000    0.000    0.000    0.000    0.000    0.000 
#
# Total GULP energy -595338.848451 kJ/mol
# GULP energy per Si atom -12402.892676 kJ/mol
# Density = 1.865822 g / cm^3
# Si number density = 18.700784 Si / 1000 Ang^3
#
#
#
# Elastic Constant Matrix: (Units=GPa)
#
#
# Indices 1 2 3 4 5 6 
#
# 1 74.1210 49.5245 68.3257 0.0000 0.0000 0.0000
# 2 49.5245 74.1210 68.3257 0.0000 0.0000 0.0000
# 3 68.3257 68.3257 155.3199 0.0000 0.0000 0.0000
# 4 0.0000 0.0000 0.0000 -294.0709 0.0000 0.0000
# 5 0.0000 0.0000 0.0000 0.0000 -294.1317 0.0000
# 6 0.0000 0.0000 0.0000 0.0000 0.0000 27.3041
#
#
#
# Elastic Compliance Matrix: (Units=1/GPa)
#
#
# Indices 1 2 3 4 5 6 
#
# 1 0.028198 -0.012458 -0.006924 0.000000 0.000000 0.000000
# 2 -0.012458 0.028198 -0.006924 0.000000 0.000000 0.000000
# 3 -0.006924 -0.006924 0.012530 0.000000 0.000000 0.000000
# 4 0.000000 0.000000 0.000000 -0.003401 0.000000 0.000000
# 5 0.000000 0.000000 0.000000 0.000000 -0.003400 0.000000
# 6 0.000000 0.000000 0.000000 0.000000 0.000000 0.036625
#
#
# Mechanical properties :
#
#
# Convention : Reuss Voigt Hill
#
# Bulk Modulus (GPa) = 61.29733 75.10152 68.19943
# Shear Modulus (GPa) = 31.88752 -104.35397 -36.23322
#
# Velocity S-wave (km/s) = 4.13382 -7.47817 -4.40651
# Velocity P-wave (km/s) = 7.45880 5.85810 3.26469
#
# Compressibility (1/GPa) = 0.01631392
#
# Stress axis : x y z
#
# Youngs Moduli (GPa) = 35.46338 35.46332 79.80711
#
# Poissons Ratio (x) = 0.44180 0.55259
# Poissons Ratio (y) = 0.44180 0.55260
# Poissons Ratio (z) = 0.24555 0.24555
#
# Static dielectric constant tensor:
#      x y z
#    x 3.414990 0.000000 0.000000 
#    y 0.000000 3.414990 0.000000 
#    z 0.000000 0.000000 3.615680 
# 
# 
# High freq. dielectric constant tensor:
#      x y z
#    x 1.722660 0.000000 0.000000 
#    y 0.000000 1.722660 0.000000 
#    z 0.000000 0.000000 1.740010 
# 
# From -- ./inp_files/5919.got.cif
#   From: 2010.03.12/outbox.cif.g09.slc.cpg/sg115_3_cif.got.tgz:5919.got - 2010.04.14 02:11:21.
