data_PCOD8309444
_publ_section_title
;
Structure prediction by ZEFSAII (Michael W. Deem and Ramdas Pophale) SiO2 
 PCOD8309444
Probable space group: P -4 M 2
;
_chemical_formula_sum "Si O2"
_cell_formula_units_Z 48
_cell_length_a 13.098662
_cell_length_b 13.098662
_cell_length_c 15.484715
_cell_angle_alpha 90.000000
_cell_angle_beta 90.000000
_cell_angle_gamma 90.000000
_cell_volume 2656.789143
_symmetry_space_group_name_H-M "P -4 M 2"
_symmetry_group_IT_number 115
_symmetry_cell_setting 'tetragonal'
loop_
_space_group_symop_operation_xyz
x,y,z
y,-x,-z
-x,-y,z
-y,x,-z
y,x,-z
-y,-x,-z
-x,y,z
x,-y,z
loop_
_atom_site_type_symbol
_atom_site_label
_atom_site_fract_x
_atom_site_fract_y
_atom_site_fract_z
Si Si1 0.782741 0.619506 0.324274
Si Si2 0.113509 0.378976 0.500000
Si Si3 0.782740 0.619506 0.675727
Si Si4 0.882190 0.713997 0.835427
Si Si5 0.713997 0.117810 0.835427
Si Si6 0.381527 0.214394 1.000000
O O1 0.759842 0.500000 0.324432
O O2 0.827447 0.658435 0.415154
O O3 0.675771 0.675771 0.306307
O O4 0.863500 0.647411 0.250249
O O5 0.105570 0.500000 0.500000
O O6 0.172553 0.341565 0.584847
O O7 0.000000 0.331187 0.500000
O O8 0.759842 0.500000 0.675569
O O9 0.863499 0.647411 0.749751
O O10 0.818778 0.818778 0.833950
O O11 0.852169 0.644884 0.916523
O O12 0.000000 0.744641 0.841240
O O13 0.744641 0.000000 0.841241
O O14 0.644883 0.147832 0.916523
O O15 0.500000 0.242716 0.000000
O O16 0.320670 0.320670 0.000000
#
# Coordination Sequence:
#
# PCOD8309444 Si02
#       6
#     8   8   8   8   8   8
#     4  10  20  33  50  74 103 135 172 211 252 302
#     4   9  17  30  49  71  95 127 167 209 252 295
#     4  10  20  33  50  74 103 135 172 211 252 302
#     4  10  21  36  54  77 103 132 169 211 255 304
#     4  10  21  36  54  77 103 132 169 211 255 304
#     4  10  21  36  54  78 106 136 171 208 248 298
#
# _framework density 18.066921000000001
#
# number of rings (size 3 to 8) (size 9 to 14) (size 15 to 20)
#    0.000    2.167    0.000    3.000    0.000    5.500 
#    0.000    0.000    0.000   12.000    0.000    0.000 
#    0.000   12.000    0.000    0.000    0.000    0.000 
#
# Total GULP energy -595357.635532 kJ/mol
# GULP energy per Si atom -12403.284074 kJ/mol
# Density = 1.802580 g / cm^3
# Si number density = 18.066921 Si / 1000 Ang^3
#
#
#
# Elastic Constant Matrix: (Units=GPa)
#
#
# Indices 1 2 3 4 5 6 
#
# 1 112.9489 44.4699 41.5724 0.0000 0.0000 0.0000
# 2 44.4699 112.9489 41.5724 0.0000 0.0000 0.0000
# 3 41.5724 41.5724 153.0340 0.0000 0.0000 0.0000
# 4 0.0000 0.0000 0.0000 3.3838 0.0000 0.0000
# 5 0.0000 0.0000 0.0000 0.0000 3.3838 0.0000
# 6 0.0000 0.0000 0.0000 0.0000 0.0000 12.6734
#
#
#
# Elastic Compliance Matrix: (Units=1/GPa)
#
#
# Indices 1 2 3 4 5 6 
#
# 1 0.011010 -0.003593 -0.002015 0.000000 0.000000 0.000000
# 2 -0.003593 0.011010 -0.002015 0.000000 0.000000 0.000000
# 3 -0.002015 -0.002015 0.007629 0.000000 0.000000 0.000000
# 4 0.000000 0.000000 0.000000 0.295528 0.000000 0.000000
# 5 0.000000 0.000000 0.000000 0.000000 0.295528 0.000000
# 6 0.000000 0.000000 0.000000 0.000000 0.000000 0.078906
#
#
# Mechanical properties :
#
#
# Convention : Reuss Voigt Hill
#
# Bulk Modulus (GPa) = 69.42832 70.46237 69.94534
# Shear Modulus (GPa) = 6.94775 20.64265 13.79520
#
# Velocity S-wave (km/s) = 1.96314 3.38385 2.76626
# Velocity P-wave (km/s) = 6.60684 7.37243 7.00011
#
# Compressibility (1/GPa) = 0.01440334
#
# Stress axis : x y z
#
# Youngs Moduli (GPa) = 90.82791 90.82791 131.07647
#
# Poissons Ratio (x) = 0.32636 0.26409
# Poissons Ratio (y) = 0.32636 0.26409
# Poissons Ratio (z) = 0.18300 0.18300
#
# Static dielectric constant tensor:
#      x y z
#    x 3.155270 0.000000 0.000000 
#    y 0.000000 3.155270 0.000000 
#    z 0.000000 0.000000 3.671690 
# 
# 
# High freq. dielectric constant tensor:
#      x y z
#    x 1.690530 0.000000 0.000000 
#    y 0.000000 1.690530 0.000000 
#    z 0.000000 0.000000 1.724220 
# 
# From -- ./inp_files/4284.got.cif
#   From: 2010.03.12/outbox.cif.g09.slc.cpg/sg115_3_cif.got.tgz:4284.got - 2010.04.14 02:11:21.
