data_PCOD8309183
_publ_section_title
;
Structure prediction by ZEFSAII (Michael W. Deem and Ramdas Pophale) SiO2 
 PCOD8309183
Probable space group: P -4 M 2
;
_chemical_formula_sum "Si O2"
_cell_formula_units_Z 56
_cell_length_a 13.735260
_cell_length_b 13.735260
_cell_length_c 16.543997
_cell_angle_alpha 90.000000
_cell_angle_beta 90.000000
_cell_angle_gamma 90.000000
_cell_volume 3121.146918
_symmetry_space_group_name_H-M "P -4 M 2"
_symmetry_group_IT_number 115
_symmetry_cell_setting 'tetragonal'
loop_
_space_group_symop_operation_xyz
x,y,z
y,-x,-z
-x,-y,z
-y,x,-z
y,x,-z
-y,-x,-z
-x,y,z
x,-y,z
loop_
_atom_site_type_symbol
_atom_site_label
_atom_site_fract_x
_atom_site_fract_y
_atom_site_fract_z
Si Si1 0.111501 0.210163 0.073512
Si Si2 0.608854 0.110122 0.031361
Si Si3 0.385549 0.386998 0.254857
Si Si4 0.609613 0.885544 0.321730
Si Si5 0.892999 0.615899 0.497253
Si Si6 0.614093 0.699716 0.578027
Si Si7 0.215865 0.704074 0.824767
O O1 0.128026 0.320445 0.044067
O O2 0.183461 0.197158 0.149859
O O3 0.000000 0.191032 0.100740
O O4 0.136920 0.136920 0.000000
O O5 0.500000 0.131470 0.000640
O O6 0.620477 0.000000 0.063364
O O7 0.632890 0.179892 0.105219
O O8 0.500000 0.367605 0.245388
O O9 0.360459 0.500000 0.244639
O O10 0.350885 0.343124 0.341748
O O11 0.323539 0.329413 0.187412
O O12 0.500000 0.843712 0.307907
O O13 0.648146 0.861801 0.412196
O O14 0.684671 0.840353 0.258324
O O15 0.607389 0.000000 0.308789
O O16 0.898738 0.500000 0.496984
O O17 0.810395 0.654505 0.435279
O O18 0.000000 0.658143 0.473585
O O19 0.634957 0.634957 0.500000
O O20 0.500000 0.704551 0.590101
#
# Coordination Sequence:
#
# PCOD8309183 Si02
#       7
#     8   8   8   8   8   8   8
#     4   9  20  36  52  72  96 124 157 193 235 286
#     4   9  17  31  53  77  94 110 142 191 242 288
#     4  10  21  33  44  65  98 133 167 199 232 275
#     4   9  16  26  44  72  99 119 147 195 252 298
#     4   8  15  28  45  65  90 119 152 195 243 283
#     4  10  18  28  44  65  91 126 166 202 237 282
#     4  11  19  30  49  70  96 127 155 188 235 289
#
# _framework density 17.942124
#
# number of rings (size 3 to 8) (size 9 to 14) (size 15 to 20)
#    0.000    2.571    0.000    3.857    0.000    4.286 
#    0.000    0.714    0.000    0.857    0.000    7.000 
#    0.000    1.429    0.000    0.000    0.000    0.000 
#
# Total GULP energy -694139.800405 kJ/mol
# GULP energy per Si atom -12395.353579 kJ/mol
# Density = 1.790129 g / cm^3
# Si number density = 17.942124 Si / 1000 Ang^3
#
#
#
# Elastic Constant Matrix: (Units=GPa)
#
#
# Indices 1 2 3 4 5 6 
#
# 1 76.5779 24.7164 32.6942 0.0000 0.0000 0.0000
# 2 24.7164 76.5779 32.6942 0.0000 0.0000 0.0000
# 3 32.6942 32.6942 59.1090 0.0000 0.0000 0.0000
# 4 0.0000 0.0000 0.0000 24.4221 0.0000 0.0000
# 5 0.0000 0.0000 0.0000 0.0000 24.4221 0.0000
# 6 0.0000 0.0000 0.0000 0.0000 0.0000 18.5488
#
#
#
# Elastic Compliance Matrix: (Units=1/GPa)
#
#
# Indices 1 2 3 4 5 6 
#
# 1 0.017318 -0.001964 -0.008493 0.000000 0.000000 0.000000
# 2 -0.001964 0.017318 -0.008493 0.000000 0.000000 0.000000
# 3 -0.008493 -0.008493 0.026313 0.000000 0.000000 0.000000
# 4 0.000000 0.000000 0.000000 0.040947 0.000000 0.000000
# 5 0.000000 0.000000 0.000000 0.000000 0.040947 0.000000
# 6 0.000000 0.000000 0.000000 0.000000 0.000000 0.053912
#
#
# Mechanical properties :
#
#
# Convention : Reuss Voigt Hill
#
# Bulk Modulus (GPa) = 43.38264 43.60823 43.49544
# Shear Modulus (GPa) = 20.63239 21.62260 21.12749
#
# Velocity S-wave (km/s) = 3.39476 3.47526 3.43525
# Velocity P-wave (km/s) = 6.29266 6.36090 6.32687
#
# Compressibility (1/GPa) = 0.02305069
#
# Stress axis : x y z
#
# Youngs Moduli (GPa) = 57.74210 57.74210 38.00395
#
# Poissons Ratio (x) = 0.11339 0.32276
# Poissons Ratio (y) = 0.11339 0.32276
# Poissons Ratio (z) = 0.49040 0.49040
#
# Static dielectric constant tensor:
#      x y z
#    x 3.387990 0.000000 0.000000 
#    y 0.000000 3.387990 0.000000 
#    z 0.000000 0.000000 3.213880 
# 
# 
# High freq. dielectric constant tensor:
#      x y z
#    x 1.687340 0.000000 0.000000 
#    y 0.000000 1.687340 0.000000 
#    z 0.000000 0.000000 1.674070 
# 
# From -- ./inp_files/3861.got.cif
#   From: 2010.03.12/outbox.cif.g09.slc.cpg/sg115_2_cif.got.tgz:3861.got - 2010.04.14 02:11:21.
