data_PCOD8309207
_publ_section_title
;
Structure prediction by ZEFSAII (Michael W. Deem and Ramdas Pophale) SiO2 
 PCOD8309207
Probable space group: P -4 M 2
;
_chemical_formula_sum "Si O2"
_cell_formula_units_Z 48
_cell_length_a 9.869590
_cell_length_b 9.869590
_cell_length_c 27.369783
_cell_angle_alpha 90.000000
_cell_angle_beta 90.000000
_cell_angle_gamma 90.000000
_cell_volume 2666.057904
_symmetry_space_group_name_H-M "P -4 M 2"
_symmetry_group_IT_number 115
_symmetry_cell_setting 'tetragonal'
loop_
_space_group_symop_operation_xyz
x,y,z
y,-x,-z
-x,-y,z
-y,x,-z
y,x,-z
-y,-x,-z
-x,y,z
x,-y,z
loop_
_atom_site_type_symbol
_atom_site_label
_atom_site_fract_x
_atom_site_fract_y
_atom_site_fract_z
Si Si1 0.500000 0.152803 0.215900
Si Si2 0.779296 0.845775 0.268266
Si Si3 0.844385 0.157317 0.620517
Si Si4 0.000000 0.336467 0.219463
Si Si5 0.659717 0.741119 0.947837
Si Si6 0.000000 0.660476 0.107622
Si Si7 0.658718 0.500000 0.877629
Si Si8 0.655149 0.653972 0.557335
O O1 0.372180 0.177787 0.250320
O O2 0.500000 0.258129 0.171965
O O3 0.500000 0.000000 0.194559
O O4 0.783122 0.821340 0.325815
O O5 0.868386 0.730472 0.242946
O O6 0.829832 0.000000 0.256385
O O7 0.751507 0.240116 0.583792
O O8 0.000000 0.174717 0.604230
O O9 0.801695 0.000000 0.619568
O O10 0.000000 0.291150 0.163169
O O11 0.000000 0.500000 0.226541
O O12 0.500000 0.740906 0.957291
O O13 0.717622 0.873072 0.921690
O O14 0.701473 0.625614 0.910399
O O15 0.730574 0.730574 0.000000
O O16 0.000000 0.500000 0.106813
O O17 0.500000 0.500000 0.863973
O O18 0.674738 0.674738 0.500000
O O19 0.500000 0.683171 0.572347
O O20 0.694241 0.500000 0.571911
#
# Coordination Sequence:
#
# PCOD8309207 Si02
#       8
#     4   8   8   4   8   4   4   8
#     4  10  22  38  56  86 116 146 190 238 283 338
#     4  10  21  39  60  80 117 156 189 232 288 344
#     4  10  21  37  58  85 112 152 200 240 279 334
#     4  11  21  37  61  85 111 147 197 233 282 347
#     4  10  18  33  54  76 102 137 176 217 274 334
#     4   9  20  33  51  79 107 137 171 221 276 325
#     4  10  20  34  58  80 106 138 182 230 273 334
#     4   9  20  39  60  84 119 157 191 234 292 346
#
# _framework density 18.004111000000002
#
# number of rings (size 3 to 8) (size 9 to 14) (size 15 to 20)
#    0.000    2.167    1.667    1.750    1.167    4.000 
#    1.500    2.500    3.667    0.000    0.000    0.000 
#    0.000    0.000    0.000    0.000    0.000    0.000 
#
# Total GULP energy -595141.996351 kJ/mol
# GULP energy per Si atom -12398.791591 kJ/mol
# Density = 1.796313 g / cm^3
# Si number density = 18.004111 Si / 1000 Ang^3
#
#
#
# Elastic Constant Matrix: (Units=GPa)
#
#
# Indices 1 2 3 4 5 6 
#
# 1 115.9311 61.3566 64.3839 0.0000 0.0000 0.0000
# 2 61.3566 115.9311 64.3839 0.0000 0.0000 0.0000
# 3 64.3839 64.3839 109.2466 0.0000 0.0000 0.0000
# 4 0.0000 0.0000 0.0000 25.0244 0.0000 0.0000
# 5 0.0000 0.0000 0.0000 0.0000 25.0244 0.0000
# 6 0.0000 0.0000 0.0000 0.0000 0.0000 20.2680
#
#
#
# Elastic Compliance Matrix: (Units=1/GPa)
#
#
# Indices 1 2 3 4 5 6 
#
# 1 0.014093 -0.004231 -0.005812 0.000000 0.000000 0.000000
# 2 -0.004231 0.014093 -0.005812 0.000000 0.000000 0.000000
# 3 -0.005812 -0.005812 0.016004 0.000000 0.000000 0.000000
# 4 0.000000 0.000000 0.000000 0.039961 0.000000 0.000000
# 5 0.000000 0.000000 0.000000 0.000000 0.039961 0.000000
# 6 0.000000 0.000000 0.000000 0.000000 0.000000 0.049339
#
#
# Mechanical properties :
#
#
# Convention : Reuss Voigt Hill
#
# Bulk Modulus (GPa) = 80.12933 80.15083 80.14008
# Shear Modulus (GPa) = 23.88677 24.12897 24.00787
#
# Velocity S-wave (km/s) = 3.64640 3.66484 3.65563
# Velocity P-wave (km/s) = 7.89500 7.90713 7.90107
#
# Compressibility (1/GPa) = 0.01247982
#
# Stress axis : x y z
#
# Youngs Moduli (GPa) = 70.95819 70.95819 62.48318
#
# Poissons Ratio (x) = 0.30021 0.36316
# Poissons Ratio (y) = 0.30021 0.36316
# Poissons Ratio (z) = 0.41242 0.41242
#
# Static dielectric constant tensor:
#      x y z
#    x 3.363920 0.000000 0.000000 
#    y 0.000000 3.363920 0.000000 
#    z 0.000000 0.000000 3.312030 
# 
# 
# High freq. dielectric constant tensor:
#      x y z
#    x 1.696600 0.000000 0.000000 
#    y 0.000000 1.696600 0.000000 
#    z 0.000000 0.000000 1.704060 
# 
# From -- ./inp_files/6289.got.cif
#   From: 2010.03.12/outbox.cif.g09.slc.cpg/sg115_4_cif.got.tgz:6289.got - 2010.04.14 02:11:21.
