data_PCOD8309210
_publ_section_title
;
Structure prediction by ZEFSAII (Michael W. Deem and Ramdas Pophale) SiO2 
 PCOD8309210
Probable space group: P -4 M 2
;
_chemical_formula_sum "Si O2"
_cell_formula_units_Z 29
_cell_length_a 11.479625
_cell_length_b 11.479625
_cell_length_c 12.541813
_cell_angle_alpha 90.000000
_cell_angle_beta 90.000000
_cell_angle_gamma 90.000000
_cell_volume 1652.782569
_symmetry_space_group_name_H-M "P -4 M 2"
_symmetry_group_IT_number 115
_symmetry_cell_setting 'tetragonal'
loop_
_space_group_symop_operation_xyz
x,y,z
y,-x,-z
-x,-y,z
-y,x,-z
y,x,-z
-y,-x,-z
-x,y,z
x,-y,z
loop_
_atom_site_type_symbol
_atom_site_label
_atom_site_fract_x
_atom_site_fract_y
_atom_site_fract_z
Si Si1 0.500000 0.500000 0.000000
Si Si2 0.242102 0.500000 0.043828
Si Si3 0.864976 0.747235 0.716672
Si Si4 0.864018 0.738618 0.096305
Si Si5 0.136044 0.500000 0.811764
Si Si6 0.134122 0.134122 0.500000
O O1 0.380538 0.500000 0.067953
O O2 0.187589 0.389743 0.100943
O O3 0.215152 0.500000 0.917245
O O4 0.797763 0.836092 0.792127
O O5 0.832748 0.613054 0.741247
O O6 0.831509 0.779287 0.595837
O O7 0.000000 0.770407 0.736977
O O8 0.000000 0.732350 0.076127
O O9 0.809506 0.809506 0.000000
O O10 0.000000 0.500000 0.845722
O O11 0.000000 0.153169 0.464829
#
# Coordination Sequence:
#
# PCOD8309210 Si02
#       6
#     1   4   8   8   4   4
#     4  12  20  36  60  72 100 154 196 224 260 340
#     4  12  22  38  55  81 114 149 192 236 284 336
#     4  10  20  35  56  81 110 148 192 233 286 351
#     4  12  23  35  54  82 116 148 184 232 286 343
#     4  10  18  34  55  78 111 148 186 233 284 340
#     4   9  18  34  54  76 106 143 188 242 290 339
#
# _framework density 17.546167000000001
#
# number of rings (size 3 to 8) (size 9 to 14) (size 15 to 20)
#    0.000    1.241    4.138    2.897    0.000    3.034 
#    0.000    1.379    0.000    3.310    0.000    0.000 
#    0.000    0.000    0.000    0.000    0.000    0.000 
#
# Total GULP energy -359670.612138 kJ/mol
# GULP energy per Si atom -12402.434901 kJ/mol
# Density = 1.750623 g / cm^3
# Si number density = 17.546167 Si / 1000 Ang^3
#
#
#
# Elastic Constant Matrix: (Units=GPa)
#
#
# Indices 1 2 3 4 5 6 
#
# 1 88.0342 46.6019 35.6269 0.0000 0.0000 0.0000
# 2 46.6019 88.0342 35.6269 0.0000 0.0000 0.0000
# 3 35.6269 35.6269 101.9769 0.0000 0.0000 0.0000
# 4 0.0000 0.0000 0.0000 3.3469 0.0000 0.0000
# 5 0.0000 0.0000 0.0000 0.0000 3.3469 0.0000
# 6 0.0000 0.0000 0.0000 0.0000 0.0000 40.5637
#
#
#
# Elastic Compliance Matrix: (Units=1/GPa)
#
#
# Indices 1 2 3 4 5 6 
#
# 1 0.016624 -0.007512 -0.003183 0.000000 0.000000 0.000000
# 2 -0.007512 0.016624 -0.003183 0.000000 0.000000 0.000000
# 3 -0.003183 -0.003183 0.012031 0.000000 0.000000 0.000000
# 4 0.000000 0.000000 0.000000 0.298780 0.000000 0.000000
# 5 0.000000 0.000000 0.000000 0.000000 0.298780 0.000000
# 6 0.000000 0.000000 0.000000 0.000000 0.000000 0.024653
#
#
# Mechanical properties :
#
#
# Convention : Reuss Voigt Hill
#
# Bulk Modulus (GPa) = 57.07408 57.08406 57.07907
# Shear Modulus (GPa) = 7.13177 20.13082 13.63129
#
# Velocity S-wave (km/s) = 2.01827 3.39086 2.79028
# Velocity P-wave (km/s) = 6.16683 6.92350 6.55609
#
# Compressibility (1/GPa) = 0.01752109
#
# Stress axis : x y z
#
# Youngs Moduli (GPa) = 60.15397 60.15397 83.12198
#
# Poissons Ratio (x) = 0.45186 0.26462
# Poissons Ratio (y) = 0.45186 0.26462
# Poissons Ratio (z) = 0.19150 0.19150
#
# Static dielectric constant tensor:
#      x y z
#    x 3.523000 0.000000 0.000000 
#    y 0.000000 3.523000 0.000000 
#    z 0.000000 0.000000 3.176530 
# 
# 
# High freq. dielectric constant tensor:
#      x y z
#    x 1.686360 0.000000 0.000000 
#    y 0.000000 1.686360 0.000000 
#    z 0.000000 0.000000 1.659210 
# 
# From -- ./inp_files/2470.got.cif
#   From: 2010.03.12/outbox.cif.g09.slc.cpg/sg115_2_cif.got.tgz:2470.got - 2010.04.14 02:11:21.
