data_PCOD8309298
_publ_section_title
;
Structure prediction by ZEFSAII (Michael W. Deem and Ramdas Pophale) SiO2 
 PCOD8309298
Probable space group: P -4 M 2
;
_chemical_formula_sum "Si O2"
_cell_formula_units_Z 64
_cell_length_a 13.624911
_cell_length_b 13.624911
_cell_length_c 18.412578
_cell_angle_alpha 90.000000
_cell_angle_beta 90.000000
_cell_angle_gamma 90.000000
_cell_volume 3418.077833
_symmetry_space_group_name_H-M "P -4 M 2"
_symmetry_group_IT_number 115
_symmetry_cell_setting 'tetragonal'
loop_
_space_group_symop_operation_xyz
x,y,z
y,-x,-z
-x,-y,z
-y,x,-z
y,x,-z
-y,-x,-z
-x,y,z
x,-y,z
loop_
_atom_site_type_symbol
_atom_site_label
_atom_site_fract_x
_atom_site_fract_y
_atom_site_fract_z
Si Si1 0.181675 0.292867 0.055838
Si Si2 0.785270 0.113729 0.723795
Si Si3 0.885693 0.802763 0.855772
Si Si4 0.779022 0.387899 0.204003
Si Si5 0.769260 0.885554 0.557285
Si Si6 0.386052 0.607783 0.698637
Si Si7 0.606260 0.890572 0.076111
Si Si8 0.384796 0.278127 0.559794
O O1 0.138402 0.189838 0.090308
O O2 0.215661 0.364732 0.119344
O O3 0.271489 0.271489 0.000000
O O4 0.103955 0.351000 0.006362
O O5 0.867098 0.170155 0.772001
O O6 0.676667 0.147780 0.746967
O O7 0.807259 0.134046 0.639279
O O8 0.794777 0.000000 0.742211
O O9 0.850456 0.689290 0.868092
O O10 0.000000 0.821093 0.876598
O O11 0.809460 0.500000 0.219070
O O12 0.665989 0.368087 0.226600
O O13 0.852579 0.852579 0.500000
O O14 0.670053 0.824239 0.543233
O O15 0.745295 0.000000 0.545662
O O16 0.500000 0.592506 0.682491
O O17 0.335088 0.500000 0.702124
O O18 0.343469 0.675940 0.634567
O O19 0.500000 0.834202 0.080694
O O20 0.585785 0.000000 0.100924
O O21 0.359899 0.359899 0.500000
O O22 0.500000 0.255476 0.561306
#
# Coordination Sequence:
#
# PCOD8309298 Si02
#       8
#     8   8   8   8   8   8   8   8
#     4   9  18  32  49  72 106 139 178 225 268 321
#     4  10  21  37  56  80 110 144 186 234 283 335
#     4   9  19  35  54  76 105 141 181 228 279 332
#     4  10  19  33  52  78 111 144 182 228 280 337
#     4  10  22  39  59  82 112 149 193 241 289 342
#     4   9  17  30  49  75 108 144 181 223 271 326
#     4   9  17  32  55  79 102 134 175 220 274 332
#     4  10  19  33  56  85 116 149 187 226 275 339
#
# _framework density 18.723973000000001
#
# number of rings (size 3 to 8) (size 9 to 14) (size 15 to 20)
#    0.000    2.500    1.250    0.750    0.000    4.000 
#    0.000   11.875    0.000    0.750    0.000    1.750 
#    0.000    1.000    0.000    0.000    0.000    0.000 
#
# Total GULP energy -792905.381618 kJ/mol
# GULP energy per Si atom -12389.146588 kJ/mol
# Density = 1.868136 g / cm^3
# Si number density = 18.723973 Si / 1000 Ang^3
#
#
#
# Elastic Constant Matrix: (Units=GPa)
#
#
# Indices 1 2 3 4 5 6 
#
# 1 98.2559 27.9479 42.8646 0.0000 0.0000 0.0000
# 2 27.9479 98.2559 42.8646 0.0000 0.0000 0.0000
# 3 42.8646 42.8646 118.2512 0.0000 0.0000 0.0000
# 4 0.0000 0.0000 0.0000 25.4422 0.0000 0.0000
# 5 0.0000 0.0000 0.0000 0.0000 25.4422 0.0000
# 6 0.0000 0.0000 0.0000 0.0000 0.0000 18.2233
#
#
#
# Elastic Compliance Matrix: (Units=1/GPa)
#
#
# Indices 1 2 3 4 5 6 
#
# 1 0.012368 -0.001855 -0.003811 0.000000 0.000000 0.000000
# 2 -0.001855 0.012368 -0.003811 0.000000 0.000000 0.000000
# 3 -0.003811 -0.003811 0.011219 0.000000 0.000000 0.000000
# 4 0.000000 0.000000 0.000000 0.039305 0.000000 0.000000
# 5 0.000000 0.000000 0.000000 0.000000 0.039305 0.000000
# 6 0.000000 0.000000 0.000000 0.000000 0.000000 0.054875
#
#
# Mechanical properties :
#
#
# Convention : Reuss Voigt Hill
#
# Bulk Modulus (GPa) = 58.81898 60.23522 59.52710
# Shear Modulus (GPa) = 25.76539 27.22730 26.49635
#
# Velocity S-wave (km/s) = 3.71356 3.81746 3.76587
# Velocity P-wave (km/s) = 7.06182 7.18823 7.12530
#
# Compressibility (1/GPa) = 0.01700132
#
# Stress axis : x y z
#
# Youngs Moduli (GPa) = 80.85624 80.85624 89.13369
#
# Poissons Ratio (x) = 0.15003 0.33965
# Poissons Ratio (y) = 0.15003 0.33965
# Poissons Ratio (z) = 0.30810 0.30810
#
# Static dielectric constant tensor:
#      x y z
#    x 3.506450 0.000000 0.000000 
#    y 0.000000 3.506450 0.000000 
#    z 0.000000 0.000000 3.528970 
# 
# 
# High freq. dielectric constant tensor:
#      x y z
#    x 1.713900 0.000000 0.000000 
#    y 0.000000 1.713900 0.000000 
#    z 0.000000 0.000000 1.730060 
# 
# From -- ./inp_files/4485.got.cif
#   From: 2010.03.12/outbox.cif.g09.slc.cpg/sg115_3_cif.got.tgz:4485.got - 2010.04.14 02:11:21.
