data_PCOD8309904
_publ_section_title
;
Structure prediction by ZEFSAII (Michael W. Deem and Ramdas Pophale) SiO2 
 PCOD8309904
Probable space group: P -4 M 2
;
_chemical_formula_sum "Si O2"
_cell_formula_units_Z 44
_cell_length_a 9.207537
_cell_length_b 9.207537
_cell_length_c 28.446772
_cell_angle_alpha 90.000000
_cell_angle_beta 90.000000
_cell_angle_gamma 90.000000
_cell_volume 2411.681419
_symmetry_space_group_name_H-M "P -4 M 2"
_symmetry_group_IT_number 115
_symmetry_cell_setting 'tetragonal'
loop_
_space_group_symop_operation_xyz
x,y,z
y,-x,-z
-x,-y,z
-y,x,-z
y,x,-z
-y,-x,-z
-x,y,z
x,-y,z
loop_
_atom_site_type_symbol
_atom_site_label
_atom_site_fract_x
_atom_site_fract_y
_atom_site_fract_z
Si Si1 0.173204 0.161849 0.051070
Si Si2 0.168172 0.333483 0.322669
Si Si3 0.329828 0.329828 0.500000
Si Si4 0.167432 0.329500 0.141129
Si Si5 0.327150 0.663746 0.768505
Si Si6 0.170265 0.168121 0.582529
O O1 0.231997 0.261443 0.093300
O O2 0.000000 0.159280 0.050516
O O3 0.234586 0.000000 0.059246
O O4 0.223994 0.223994 0.000000
O O5 0.210068 0.500000 0.334574
O O6 0.257811 0.271542 0.278592
O O7 0.207837 0.233602 0.366706
O O8 0.000000 0.321780 0.309180
O O9 0.297597 0.500000 0.495016
O O10 0.248822 0.270180 0.545491
O O11 0.188483 0.500000 0.136731
O O12 0.254796 0.265640 0.185561
O O13 0.000000 0.286600 0.148388
O O14 0.500000 0.669635 0.769391
O O15 0.268097 0.500000 0.768652
O O16 0.000000 0.201621 0.582205
O O17 0.201259 0.000000 0.569870
#
# Coordination Sequence:
#
# PCOD8309904 Si02
#       6
#     8   8   4   8   8   8
#     4   8  14  26  44  64  86 114 148 185 227 276
#     4   9  17  31  52  75  98 127 164 203 241 284
#     4  11  24  39  56  80 108 139 176 213 248 292
#     4   9  16  27  45  67  88 113 150 192 230 273
#     4   9  17  29  46  68  94 124 157 194 236 282
#     4  10  21  37  57  81 108 137 169 207 253 301
#
# _framework density 18.244533000000001
#
# number of rings (size 3 to 8) (size 9 to 14) (size 15 to 20)
#    0.000    2.818    0.000    2.182    0.000    5.818 
#    0.000    3.636    0.000    7.091    0.000    0.000 
#    0.000    0.000    0.000    0.000    0.000    0.000 
#
# Total GULP energy -545540.027916 kJ/mol
# GULP energy per Si atom -12398.636998 kJ/mol
# Density = 1.820301 g / cm^3
# Si number density = 18.244533 Si / 1000 Ang^3
#
#
#
# Elastic Constant Matrix: (Units=GPa)
#
#
# Indices 1 2 3 4 5 6 
#
# 1 72.2598 42.5171 72.1510 0.0000 0.0000 0.0000
# 2 42.5171 72.2598 72.1510 0.0000 0.0000 0.0000
# 3 72.1510 72.1510 182.4213 0.0000 0.0000 0.0000
# 4 0.0000 0.0000 0.0000 24.8098 0.0000 0.0000
# 5 0.0000 0.0000 0.0000 0.0000 24.8098 0.0000
# 6 0.0000 0.0000 0.0000 0.0000 0.0000 16.5735
#
#
#
# Elastic Compliance Matrix: (Units=1/GPa)
#
#
# Indices 1 2 3 4 5 6 
#
# 1 0.025476 -0.008146 -0.006854 0.000000 0.000000 0.000000
# 2 -0.008146 0.025476 -0.006854 0.000000 0.000000 0.000000
# 3 -0.006854 -0.006854 0.010904 0.000000 0.000000 0.000000
# 4 0.000000 0.000000 0.000000 0.040307 0.000000 0.000000
# 5 0.000000 0.000000 0.000000 0.000000 0.040307 0.000000
# 6 0.000000 0.000000 0.000000 0.000000 0.000000 0.060337
#
#
# Mechanical properties :
#
#
# Convention : Reuss Voigt Hill
#
# Bulk Modulus (GPa) = 55.10666 77.84217 66.47441
# Shear Modulus (GPa) = 19.79694 22.58008 21.18851
#
# Velocity S-wave (km/s) = 3.29764 3.52182 3.41157
# Velocity P-wave (km/s) = 6.69099 7.70041 7.21338
#
# Compressibility (1/GPa) = 0.01814663
#
# Stress axis : x y z
#
# Youngs Moduli (GPa) = 39.25274 39.25274 91.71024
#
# Poissons Ratio (x) = 0.31974 0.62862
# Poissons Ratio (y) = 0.31974 0.62862
# Poissons Ratio (z) = 0.26905 0.26905
#
# Static dielectric constant tensor:
#      x y z
#    x 3.220200 0.000000 0.000000 
#    y 0.000000 3.220200 0.000000 
#    z 0.000000 0.000000 3.688580 
# 
# 
# High freq. dielectric constant tensor:
#      x y z
#    x 1.683660 0.000000 0.000000 
#    y 0.000000 1.683660 0.000000 
#    z 0.000000 0.000000 1.725630 
# 
# From -- ./inp_files/5698.got.cif
#   From: 2010.03.12/outbox.cif.g09.slc.cpg/sg115_3_cif.got.tgz:5698.got - 2010.04.14 02:11:21.
