data_PCOD8309097
_publ_section_title
;
Structure prediction by ZEFSAII (Michael W. Deem and Ramdas Pophale) SiO2 
 PCOD8309097
Probable space group: P -4 21 C
;
_chemical_formula_sum "Si O2"
_cell_formula_units_Z 40
_cell_length_a 9.249621
_cell_length_b 9.249621
_cell_length_c 21.553419
_cell_angle_alpha 90.000000
_cell_angle_beta 90.000000
_cell_angle_gamma 90.000000
_cell_volume 1844.013294
_symmetry_space_group_name_H-M "P -4 21 C"
_symmetry_group_IT_number 114
_symmetry_cell_setting 'tetragonal'
loop_
_space_group_symop_operation_xyz
x,y,z
y,-x,-z
-x,-y,z
-y,x,-z
1/2+x,1/2-y,1/2-z
1/2-x,1/2+y,1/2-z
1/2-y,1/2-x,1/2+z
1/2+y,1/2+x,1/2+z
loop_
_atom_site_type_symbol
_atom_site_label
_atom_site_fract_x
_atom_site_fract_y
_atom_site_fract_z
Si Si1 0.142791 0.596674 0.211478
Si Si2 0.424610 0.650342 0.701283
Si Si3 0.977364 0.332621 0.574514
Si Si4 0.470093 0.828492 0.580959
Si Si5 0.756095 0.247137 0.476433
O O1 0.275740 0.527135 0.247864
O O2 0.119415 0.764778 0.230334
O O3 0.184298 0.603900 0.139109
O O4 0.000000 0.500000 0.223053
O O5 0.500000 0.500000 0.681455
O O6 0.406539 0.759602 0.643530
O O7 0.899032 0.258109 0.516804
O O8 0.000000 0.500000 0.558055
O O9 0.125951 0.242423 0.577320
O O10 0.370887 0.796038 0.522591
O O11 0.611115 0.734988 0.564587
O O12 0.500000 0.000000 0.590775
#
# Coordination Sequence:
#
# PCOD8309097 Si02
#       5
#     8   8   8   8   8
#     4  11  26  50  74 102 148 182 241 305 352 431
#     4  12  28  48  77 107 133 196 243 292 368 425
#     4  11  24  45  69 103 144 182 233 287 353 418
#     4  12  27  45  70 105 149 182 239 292 356 424
#     4  12  22  45  67 104 143 189 223 293 348 429
#
# _framework density 21.691818999999999
#
# number of rings (size 3 to 8) (size 9 to 14) (size 15 to 20)
#    0.000    0.400    6.000    1.800   11.200    0.400 
#    3.600    0.000    0.000    0.000    0.000    0.000 
#    0.000    0.000    0.000    0.000    0.000    0.000 
#
# Total GULP energy -495795.458625 kJ/mol
# GULP energy per Si atom -12394.886466 kJ/mol
# Density = 2.164245 g / cm^3
# Si number density = 21.691819 Si / 1000 Ang^3
#
#
#
# Elastic Constant Matrix: (Units=GPa)
#
#
# Indices 1 2 3 4 5 6 
#
# 1 132.2380 49.9842 29.8987 0.0000 0.0000 0.0000
# 2 49.9842 132.2380 29.8987 0.0000 0.0000 0.0000
# 3 29.8987 29.8987 52.5425 0.0000 0.0000 0.0000
# 4 0.0000 0.0000 0.0000 44.2417 0.0000 0.0000
# 5 0.0000 0.0000 0.0000 0.0000 44.2417 0.0000
# 6 0.0000 0.0000 0.0000 0.0000 0.0000 35.8256
#
#
#
# Elastic Compliance Matrix: (Units=1/GPa)
#
#
# Indices 1 2 3 4 5 6 
#
# 1 0.009453 -0.002705 -0.003840 0.000000 0.000000 0.000000
# 2 -0.002705 0.009453 -0.003840 0.000000 0.000000 0.000000
# 3 -0.003840 -0.003840 0.023402 0.000000 0.000000 0.000000
# 4 0.000000 0.000000 0.000000 0.022603 0.000000 0.000000
# 5 0.000000 0.000000 0.000000 0.000000 0.022603 0.000000
# 6 0.000000 0.000000 0.000000 0.000000 0.000000 0.027913
#
#
# Mechanical properties :
#
#
# Convention : Reuss Voigt Hill
#
# Bulk Modulus (GPa) = 46.42796 59.62020 53.02408
# Shear Modulus (GPa) = 34.87353 38.67758 36.77556
#
# Velocity S-wave (km/s) = 4.01394 4.22720 4.12195
# Velocity P-wave (km/s) = 6.55227 7.16731 6.86668
#
# Compressibility (1/GPa) = 0.02153875
#
# Stress axis : x y z
#
# Youngs Moduli (GPa) = 105.79016 105.79016 42.73097
#
# Poissons Ratio (x) = 0.28614 0.16408
# Poissons Ratio (y) = 0.28614 0.16408
# Poissons Ratio (z) = 0.40621 0.40621
#
# Static dielectric constant tensor:
#      x y z
#    x 3.697780 0.000000 0.000000 
#    y 0.000000 3.697780 0.000000 
#    z 0.000000 0.000000 4.021340 
# 
# 
# High freq. dielectric constant tensor:
#      x y z
#    x 1.859420 0.000000 0.000000 
#    y 0.000000 1.859420 0.000000 
#    z 0.000000 0.000000 1.855630 
# 
# From -- ./inp_files/3349.got.cif
#   From: 2010.03.12/outbox.cif.g09.slc.cpg/sg114_2_cif.got.tgz:3349.got - 2010.04.14 02:08:34.
