data_PCOD8309689
_publ_section_title
;
Structure prediction by ZEFSAII (Michael W. Deem and Ramdas Pophale) SiO2 
 PCOD8309689
Probable space group: P -4 M 2
;
_chemical_formula_sum "Si O2"
_cell_formula_units_Z 48
_cell_length_a 8.805069
_cell_length_b 8.805069
_cell_length_c 30.815197
_cell_angle_alpha 90.000000
_cell_angle_beta 90.000000
_cell_angle_gamma 90.000000
_cell_volume 2389.078807
_symmetry_space_group_name_H-M "P -4 M 2"
_symmetry_group_IT_number 115
_symmetry_cell_setting 'tetragonal'
loop_
_space_group_symop_operation_xyz
x,y,z
y,-x,-z
-x,-y,z
-y,x,-z
y,x,-z
-y,-x,-z
-x,y,z
x,-y,z
loop_
_atom_site_type_symbol
_atom_site_label
_atom_site_fract_x
_atom_site_fract_y
_atom_site_fract_z
Si Si1 0.676320 0.174582 0.040642
Si Si2 0.824383 0.675958 0.459284
Si Si3 0.329183 0.819676 0.878066
Si Si4 0.678584 0.826264 0.703469
Si Si5 0.819321 0.829164 0.208322
Si Si6 0.675284 0.823954 0.377826
O O1 0.500000 0.201257 0.049244
O O2 0.765579 0.223051 0.083277
O O3 0.713697 0.000000 0.030267
O O4 0.725482 0.274519 0.000000
O O5 0.723846 0.723846 0.500000
O O6 0.794788 0.500000 0.448908
O O7 0.778039 0.773202 0.417817
O O8 0.000000 0.707033 0.470203
O O9 0.500000 0.757478 0.884344
O O10 0.263908 0.755301 0.832746
O O11 0.328379 0.000000 0.877712
O O12 0.500000 0.815641 0.709236
O O13 0.753374 0.761454 0.747313
O O14 0.729905 0.720442 0.664353
O O15 0.729387 0.000000 0.694344
O O16 0.000000 0.826936 0.207434
O O17 0.755964 0.000000 0.205829
O O18 0.500000 0.792001 0.389155
O O19 0.705530 0.000000 0.368483
#
# Coordination Sequence:
#
# PCOD8309689 Si02
#       6
#     8   8   8   8   8   8
#     4  11  24  40  58  82 111 144 184 229 277 331
#     4  11  24  41  62  89 118 149 188 232 279 334
#     4  10  20  35  57  85 115 147 185 229 277 331
#     4  10  20  35  57  85 115 148 189 236 285 338
#     4   9  17  31  54  83 114 149 188 231 280 332
#     4  11  24  40  58  83 115 151 192 236 282 335
#
# _framework density 20.091425000000001
#
# number of rings (size 3 to 8) (size 9 to 14) (size 15 to 20)
#    0.000    1.667    0.000    4.500    0.000   14.000 
#    0.000    0.833    0.000    5.000    0.000    0.000 
#    0.000    0.000    0.000    0.000    0.000    0.000 
#
# Total GULP energy -595457.807147 kJ/mol
# GULP energy per Si atom -12405.370982 kJ/mol
# Density = 2.004570 g / cm^3
# Si number density = 20.091425 Si / 1000 Ang^3
#
#
#
# Elastic Constant Matrix: (Units=GPa)
#
#
# Indices 1 2 3 4 5 6 
#
# 1 44.3576 47.3927 19.0064 0.0000 0.0000 0.0000
# 2 47.3927 44.3561 19.0069 0.0000 0.0000 0.0000
# 3 19.0064 19.0069 123.9091 0.0000 0.0000 0.0000
# 4 0.0000 0.0000 0.0000 143.9032 0.0000 0.0000
# 5 0.0000 0.0000 0.0000 0.0000 143.9245 0.0000
# 6 0.0000 0.0000 0.0000 0.0000 0.0000 27.3334
#
#
#
# Elastic Compliance Matrix: (Units=1/GPa)
#
#
# Indices 1 2 3 4 5 6 
#
# 1 -0.158876 0.170518 -0.001786 0.000000 0.000000 0.000000
# 2 0.170518 -0.158882 -0.001784 0.000000 0.000000 0.000000
# 3 -0.001786 -0.001784 0.008618 0.000000 0.000000 0.000000
# 4 0.000000 0.000000 0.000000 0.006949 0.000000 0.000000
# 5 0.000000 0.000000 0.000000 0.000000 0.006948 0.000000
# 6 0.000000 0.000000 0.000000 0.000000 0.000000 0.036585
#
#
# Mechanical properties :
#
#
# Convention : Reuss Voigt Hill
#
# Bulk Modulus (GPa) = 40.39635 42.60387 41.50011
# Shear Modulus (GPa) = -8.55724 71.51334 31.47805
#
# Velocity S-wave (km/s) = -2.06601 5.97254 3.96250
# Velocity P-wave (km/s) = 3.80246 8.29534 6.45257
#
# Compressibility (1/GPa) = 0.02475471
#
# Stress axis : x y z
#
# Youngs Moduli (GPa) = -6.29422 -6.29397 116.03432
#
# Poissons Ratio (x) = 1.07323 0.20729
# Poissons Ratio (y) = 1.07328 0.20702
# Poissons Ratio (z) = -0.01124 -0.01123
#
# Static dielectric constant tensor:
#      x y z
#    x 3.615630 0.000000 0.000000 
#    y 0.000000 3.615640 0.000000 
#    z 0.000000 0.000000 3.940660 
# 
# 
# High freq. dielectric constant tensor:
#      x y z
#    x 1.781790 0.000000 0.000000 
#    y 0.000000 1.781790 0.000000 
#    z 0.000000 0.000000 1.800210 
# 
# From -- ./inp_files/5999.got.cif
#   From: 2010.03.12/outbox.cif.g09.slc.cpg/sg115_3_cif.got.tgz:5999.got - 2010.04.14 02:11:21.
