data_PCOD8309006
_publ_section_title
;
Structure prediction by ZEFSAII (Michael W. Deem and Ramdas Pophale) SiO2 
 PCOD8309006
Probable space group: P -4 21 C
;
_chemical_formula_sum "Si O2"
_cell_formula_units_Z 38
_cell_length_a 8.811547
_cell_length_b 8.811547
_cell_length_c 22.257197
_cell_angle_alpha 90.000000
_cell_angle_beta 90.000000
_cell_angle_gamma 90.000000
_cell_volume 1728.123571
_symmetry_space_group_name_H-M "P -4 21 C"
_symmetry_group_IT_number 114
_symmetry_cell_setting 'tetragonal'
loop_
_space_group_symop_operation_xyz
x,y,z
y,-x,-z
-x,-y,z
-y,x,-z
1/2+x,1/2-y,1/2-z
1/2-x,1/2+y,1/2-z
1/2-y,1/2-x,1/2+z
1/2+y,1/2+x,1/2+z
loop_
_atom_site_type_symbol
_atom_site_label
_atom_site_fract_x
_atom_site_fract_y
_atom_site_fract_z
Si Si1 0.171953 0.476755 0.429959
Si Si2 0.774220 0.695686 0.040546
Si Si3 0.500000 0.000000 0.879065
Si Si4 0.308666 0.073402 0.769682
Si Si5 0.429940 0.788233 0.706301
Si Si6 0.000000 0.000000 0.500000
O O1 0.257771 0.638102 0.430458
O O2 0.233807 0.350293 0.476102
O O3 0.186712 0.407692 0.364041
O O4 0.000000 0.500000 0.449137
O O5 0.609814 0.612756 0.037618
O O6 0.880647 0.588901 0.080191
O O7 0.379754 0.085019 0.836329
O O8 0.397117 0.192992 0.726520
O O9 0.133516 0.123271 0.774547
O O10 0.322815 0.908866 0.740780
#
# Coordination Sequence:
#
# PCOD8309006 Si02
#       6
#     8   8   4   8   8   2
#     4  12  25  45  71  99 147 182 238 296 358 428
#     4  12  26  46  68 105 140 188 235 296 355 434
#     4  10  24  44  68  96 144 172 234 296 346 422
#     4  10  24  43  67  99 132 176 230 280 350 408
#     4  10  24  45  67  97 133 181 222 289 346 419
#     4  12  24  40  76  96 136 188 236 272 356 422
#
# _framework density 21.989166000000001
#
# number of rings (size 3 to 8) (size 9 to 14) (size 15 to 20)
#    0.000    1.263    5.263    0.000   11.789    1.263 
#    0.000    0.000    0.000    0.000    0.000    0.000 
#    0.000    0.000    0.000    0.000    0.000    0.000 
#
# Total GULP energy -471027.078224 kJ/mol
# GULP energy per Si atom -12395.449427 kJ/mol
# Density = 2.193912 g / cm^3
# Si number density = 21.989166 Si / 1000 Ang^3
#
#
#
# Elastic Constant Matrix: (Units=GPa)
#
#
# Indices 1 2 3 4 5 6 
#
# 1 60.0696 40.1110 18.9388 0.0000 0.0000 0.0000
# 2 40.1110 60.0696 18.9388 0.0000 0.0000 0.0000
# 3 18.9388 18.9388 122.6898 0.0000 0.0000 0.0000
# 4 0.0000 0.0000 0.0000 -2.4311 0.0000 0.0000
# 5 0.0000 0.0000 0.0000 0.0000 -2.4311 0.0000
# 6 0.0000 0.0000 0.0000 0.0000 0.0000 49.9164
#
#
#
# Elastic Compliance Matrix: (Units=1/GPa)
#
#
# Indices 1 2 3 4 5 6 
#
# 1 0.030352 -0.019752 -0.001636 0.000000 0.000000 0.000000
# 2 -0.019752 0.030352 -0.001636 0.000000 0.000000 0.000000
# 3 -0.001636 -0.001636 0.008656 0.000000 0.000000 0.000000
# 4 0.000000 0.000000 0.000000 -0.411336 0.000000 0.000000
# 5 0.000000 0.000000 0.000000 0.000000 -0.411336 0.000000
# 6 0.000000 0.000000 0.000000 0.000000 0.000000 0.020034
#
#
# Mechanical properties :
#
#
# Convention : Reuss Voigt Hill
#
# Bulk Modulus (GPa) = 42.89685 44.31181 43.60433
# Shear Modulus (GPa) = -7.35879 20.00019 6.32070
#
# Velocity S-wave (km/s) = -1.83134 3.01914 1.69726
# Velocity P-wave (km/s) = 3.88314 5.68762 4.86969
#
# Compressibility (1/GPa) = 0.02331173
#
# Stress axis : x y z
#
# Youngs Moduli (GPa) = 32.94652 32.94652 115.52913
#
# Poissons Ratio (x) = 0.65075 0.18905
# Poissons Ratio (y) = 0.65075 0.18905
# Poissons Ratio (z) = 0.05391 0.05391
#
# Static dielectric constant tensor:
#      x y z
#    x 4.059540 0.000000 0.000000 
#    y 0.000000 4.059540 0.000000 
#    z 0.000000 0.000000 4.013470 
# 
# 
# High freq. dielectric constant tensor:
#      x y z
#    x 1.864030 0.000000 0.000000 
#    y 0.000000 1.864030 0.000000 
#    z 0.000000 0.000000 1.872300 
# 
# From -- ./inp_files/3448.got.cif
#   From: 2010.03.12/outbox.cif.g09.slc.cpg/sg114_2_cif.got.tgz:3448.got - 2010.04.14 02:08:34.
