data_PCOD8309300
_publ_section_title
;
Structure prediction by ZEFSAII (Michael W. Deem and Ramdas Pophale) SiO2 
 PCOD8309300
Probable space group: P -4 M 2
;
_chemical_formula_sum "Si O2"
_cell_formula_units_Z 33
_cell_length_a 12.845821
_cell_length_b 12.845821
_cell_length_c 11.896265
_cell_angle_alpha 90.000000
_cell_angle_beta 90.000000
_cell_angle_gamma 90.000000
_cell_volume 1963.063563
_symmetry_space_group_name_H-M "P -4 M 2"
_symmetry_group_IT_number 115
_symmetry_cell_setting 'tetragonal'
loop_
_space_group_symop_operation_xyz
x,y,z
y,-x,-z
-x,-y,z
-y,x,-z
y,x,-z
-y,-x,-z
-x,y,z
x,-y,z
loop_
_atom_site_type_symbol
_atom_site_label
_atom_site_fract_x
_atom_site_fract_y
_atom_site_fract_z
Si Si1 0.117579 0.613510 0.762063
Si Si2 0.785193 0.615430 0.530245
Si Si3 0.000000 0.831243 0.294780
Si Si4 0.000000 0.000000 0.500000
Si Si5 0.000000 0.380471 0.407112
Si Si6 0.179487 0.881184 0.119744
O O1 0.126305 0.500000 0.821102
O O2 0.200824 0.619471 0.663136
O O3 0.145837 0.702618 0.849075
O O4 0.000000 0.629551 0.714996
O O5 0.698958 0.698958 0.500000
O O6 0.748114 0.500000 0.492203
O O7 0.896762 0.641737 0.478152
O O8 0.000000 0.707115 0.311786
O O9 0.897593 0.850652 0.220731
O O10 0.000000 0.899514 0.413197
O O11 0.000000 0.500000 0.360273
O O12 0.158331 0.000000 0.095217
O O13 0.172513 0.827488 0.000000
#
# Coordination Sequence:
#
# PCOD8309300 Si02
#       6
#     8   8   4   1   4   8
#     4   9  18  33  53  77 101 136 186 223 256 309
#     4  10  19  33  53  77 109 144 179 223 268 320
#     4  12  24  35  53  81 112 146 178 214 269 332
#     4  12  28  32  50  88 116 140 180 218 260 336
#     4  10  22  36  50  74 112 146 175 217 271 319
#     4  11  21  36  54  76 110 143 174 219 274 322
#
# _framework density 16.810459000000002
#
# number of rings (size 3 to 8) (size 9 to 14) (size 15 to 20)
#    0.000    1.697    3.636    1.455    5.091    0.242 
#    0.000    1.212    0.000    1.455    0.000    0.000 
#    0.000    0.000    0.000    0.000    0.000    0.000 
#
# Total GULP energy -408831.932652 kJ/mol
# GULP energy per Si atom -12388.846444 kJ/mol
# Density = 1.677220 g / cm^3
# Si number density = 16.810459 Si / 1000 Ang^3
#
#
#
# Elastic Constant Matrix: (Units=GPa)
#
#
# Indices 1 2 3 4 5 6 
#
# 1 127.2057 69.2683 54.5500 0.0000 0.0000 0.0000
# 2 69.2683 127.2055 54.5514 0.0000 0.0000 0.0000
# 3 54.5500 54.5514 98.5361 0.0000 0.0000 0.0000
# 4 0.0000 0.0000 0.0000 220.2292 0.0000 0.0000
# 5 0.0000 0.0000 0.0000 0.0000 219.9300 0.0000
# 6 0.0000 0.0000 0.0000 0.0000 0.0000 29.2795
#
#
#
# Elastic Compliance Matrix: (Units=1/GPa)
#
#
# Indices 1 2 3 4 5 6 
#
# 1 0.012304 -0.004956 -0.004068 0.000000 0.000000 0.000000
# 2 -0.004956 0.012305 -0.004069 0.000000 0.000000 0.000000
# 3 -0.004068 -0.004069 0.014653 0.000000 0.000000 0.000000
# 4 0.000000 0.000000 0.000000 0.004541 0.000000 0.000000
# 5 0.000000 0.000000 0.000000 0.000000 0.004547 0.000000
# 6 0.000000 0.000000 0.000000 0.000000 0.000000 0.034154
#
#
# Mechanical properties :
#
#
# Convention : Reuss Voigt Hill
#
# Bulk Modulus (GPa) = 76.46836 78.85407 77.66122
# Shear Modulus (GPa) = 44.22921 105.52626 74.87773
#
# Velocity S-wave (km/s) = 5.13494 7.93161 6.68125
# Velocity P-wave (km/s) = 8.98578 11.44072 10.28675
#
# Compressibility (1/GPa) = 0.01307730
#
# Stress axis : x y z
#
# Youngs Moduli (GPa) = 81.27186 81.27048 68.24426
#
# Poissons Ratio (x) = 0.40274 0.27764
# Poissons Ratio (y) = 0.40275 0.27766
# Poissons Ratio (z) = 0.33064 0.33066
#
# Static dielectric constant tensor:
#      x y z
#    x 3.094460 0.000000 0.000000 
#    y 0.000000 3.094210 0.000000 
#    z 0.000000 0.000000 2.948100 
# 
# 
# High freq. dielectric constant tensor:
#      x y z
#    x 1.650020 0.000000 0.000000 
#    y 0.000000 1.650020 0.000000 
#    z 0.000000 0.000000 1.629570 
# 
# From -- ./inp_files/2667.got.cif
#   From: 2010.03.12/outbox.cif.g09.slc.cpg/sg115_2_cif.got.tgz:2667.got - 2010.04.14 02:11:21.
