data_PCOD8309971
_publ_section_title
;
Structure prediction by ZEFSAII (Michael W. Deem and Ramdas Pophale) SiO2 
 PCOD8309971
Probable space group: P -4 M 2
;
_chemical_formula_sum "Si O2"
_cell_formula_units_Z 33
_cell_length_a 11.904956
_cell_length_b 11.904956
_cell_length_c 11.570268
_cell_angle_alpha 90.000000
_cell_angle_beta 90.000000
_cell_angle_gamma 90.000000
_cell_volume 1639.830681
_symmetry_space_group_name_H-M "P -4 M 2"
_symmetry_group_IT_number 115
_symmetry_cell_setting 'tetragonal'
loop_
_space_group_symop_operation_xyz
x,y,z
y,-x,-z
-x,-y,z
-y,x,-z
y,x,-z
-y,-x,-z
-x,y,z
x,-y,z
loop_
_atom_site_type_symbol
_atom_site_label
_atom_site_fract_x
_atom_site_fract_y
_atom_site_fract_z
Si Si1 0.368077 0.765005 0.590777
Si Si2 0.626118 0.126929 0.004972
Si Si3 0.000000 0.817010 0.695741
Si Si4 0.226834 0.780261 0.813442
Si Si5 0.000000 0.000000 0.500000
Si Si6 0.629969 0.000000 0.476174
O O1 0.327887 0.672114 0.500000
O O2 0.500000 0.751555 0.611922
O O3 0.301855 0.739427 0.707557
O O4 0.336332 0.890431 0.549582
O O5 0.500000 0.165858 0.973390
O O6 0.703071 0.132299 0.890549
O O7 0.628075 0.000000 0.050027
O O8 0.670699 0.203360 0.109143
O O9 0.110843 0.839430 0.772500
O O10 0.000000 0.689830 0.648344
O O11 0.000000 0.891734 0.580962
O O12 0.500000 0.000000 0.445092
#
# Coordination Sequence:
#
# PCOD8309971 Si02
#       6
#     8   8   4   8   1   4
#     4  11  23  40  64  95 131 169 215 266 323 385
#     4  10  23  43  66  91 122 166 219 267 314 375
#     4  12  22  40  62  95 128 174 204 255 315 394
#     4  11  23  40  64  95 128 163 213 263 322 379
#     4  12  28  36  56  90 152 176 192 232 330 420
#     4  10  22  40  63  90 125 167 214 260 304 374
#
# _framework density 20.124029
#
# number of rings (size 3 to 8) (size 9 to 14) (size 15 to 20)
#    0.000    1.212    3.636    2.182    3.394    2.182 
#    0.000    0.000    0.000   11.636    0.000    0.000 
#    0.000    0.000    0.000    0.000    0.000    0.000 
#
# Total GULP energy -409332.052413 kJ/mol
# GULP energy per Si atom -12404.001588 kJ/mol
# Density = 2.007823 g / cm^3
# Si number density = 20.124029 Si / 1000 Ang^3
#
#
#
# Elastic Constant Matrix: (Units=GPa)
#
#
# Indices 1 2 3 4 5 6 
#
# 1 120.5287 39.9271 53.0242 0.0000 0.0000 0.0000
# 2 39.9271 120.5313 53.0255 0.0000 0.0000 0.0000
# 3 53.0242 53.0255 124.7328 0.0000 0.0000 0.0000
# 4 0.0000 0.0000 0.0000 25.6622 0.0000 0.0000
# 5 0.0000 0.0000 0.0000 0.0000 25.6615 0.0000
# 6 0.0000 0.0000 0.0000 0.0000 0.0000 27.6308
#
#
#
# Elastic Compliance Matrix: (Units=1/GPa)
#
#
# Indices 1 2 3 4 5 6 
#
# 1 0.010537 -0.001870 -0.003685 0.000000 0.000000 0.000000
# 2 -0.001870 0.010537 -0.003685 0.000000 0.000000 0.000000
# 3 -0.003685 -0.003685 0.011150 0.000000 0.000000 0.000000
# 4 0.000000 0.000000 0.000000 0.038968 0.000000 0.000000
# 5 0.000000 0.000000 0.000000 0.000000 0.038969 0.000000
# 6 0.000000 0.000000 0.000000 0.000000 0.000000 0.036192
#
#
# Mechanical properties :
#
#
# Convention : Reuss Voigt Hill
#
# Bulk Modulus (GPa) = 72.74673 73.08295 72.91484
# Shear Modulus (GPa) = 29.51395 30.44531 29.97963
#
# Velocity S-wave (km/s) = 3.83378 3.89380 3.86391
# Velocity P-wave (km/s) = 7.47160 7.52401 7.49785
#
# Compressibility (1/GPa) = 0.01374632
#
# Stress axis : x y z
#
# Youngs Moduli (GPa) = 94.90333 94.90478 89.68752
#
# Poissons Ratio (x) = 0.17743 0.33046
# Poissons Ratio (y) = 0.17743 0.33046
# Poissons Ratio (z) = 0.34968 0.34969
#
# Static dielectric constant tensor:
#      x y z
#    x 3.715040 0.000000 0.000000 
#    y 0.000000 3.715040 0.000000 
#    z 0.000000 0.000000 3.690680 
# 
# 
# High freq. dielectric constant tensor:
#      x y z
#    x 1.785390 0.000000 0.000000 
#    y 0.000000 1.785390 0.000000 
#    z 0.000000 0.000000 1.794790 
# 
# From -- ./inp_files/2601.got.cif
#   From: 2010.03.12/outbox.cif.g09.slc.cpg/sg115_2_cif.got.tgz:2601.got - 2010.04.14 02:11:21.
