data_PCOD8309129
_publ_section_title
;
Structure prediction by ZEFSAII (Michael W. Deem and Ramdas Pophale) SiO2 
 PCOD8309129
Probable space group: P -4 21 C
;
_chemical_formula_sum "Si O2"
_cell_formula_units_Z 40
_cell_length_a 8.990683
_cell_length_b 8.990683
_cell_length_c 22.132374
_cell_angle_alpha 90.000000
_cell_angle_beta 90.000000
_cell_angle_gamma 90.000000
_cell_volume 1789.012483
_symmetry_space_group_name_H-M "P -4 21 C"
_symmetry_group_IT_number 114
_symmetry_cell_setting 'tetragonal'
loop_
_space_group_symop_operation_xyz
x,y,z
y,-x,-z
-x,-y,z
-y,x,-z
1/2+x,1/2-y,1/2-z
1/2-x,1/2+y,1/2-z
1/2-y,1/2-x,1/2+z
1/2+y,1/2+x,1/2+z
loop_
_atom_site_type_symbol
_atom_site_label
_atom_site_fract_x
_atom_site_fract_y
_atom_site_fract_z
Si Si1 0.660244 0.426527 0.692450
Si Si2 0.155175 0.418188 0.794504
Si Si3 0.667852 0.556504 0.913992
Si Si4 0.824458 0.515060 0.573190
Si Si5 0.799184 0.284226 0.484957
O O1 0.500000 0.500000 0.695187
O O2 0.779036 0.509978 0.734312
O O3 0.633147 0.257789 0.714358
O O4 0.727903 0.438611 0.625620
O O5 0.278733 0.437880 0.845716
O O6 0.000000 0.500000 0.810822
O O7 0.500000 0.500000 0.916647
O O8 0.680746 0.711382 0.948607
O O9 0.779369 0.454562 0.951369
O O10 0.773801 0.452830 0.506907
O O11 0.780854 0.686775 0.564689
O O12 0.000000 0.500000 0.587142
#
# Coordination Sequence:
#
# PCOD8309129 Si02
#       5
#     8   8   8   8   8
#     4  12  29  52  76 108 142 192 247 306 371 436
#     4  12  29  50  79 106 146 190 247 304 369 438
#     4  12  23  45  72 106 145 193 244 288 358 438
#     4  12  27  45  72 106 151 188 245 298 361 432
#     4  12  25  43  70 107 149 196 238 297 359 434
#
# _framework density 22.358702999999998
#
# number of rings (size 3 to 8) (size 9 to 14) (size 15 to 20)
#    0.000    0.000    6.000    2.400   11.200    0.000 
#    0.000    0.000    0.000    0.000    0.000    0.000 
#    0.000    0.000    0.000    0.000    0.000    0.000 
#
# Total GULP energy -495948.859297 kJ/mol
# GULP energy per Si atom -12398.721482 kJ/mol
# Density = 2.230781 g / cm^3
# Si number density = 22.358703 Si / 1000 Ang^3
#
#
#
# Elastic Constant Matrix: (Units=GPa)
#
#
# Indices 1 2 3 4 5 6 
#
# 1 85.8996 39.0076 14.9260 0.0000 0.0000 0.0000
# 2 39.0076 85.8996 14.9260 0.0000 0.0000 0.0000
# 3 14.9260 14.9260 71.0425 0.0000 0.0000 0.0000
# 4 0.0000 0.0000 0.0000 34.3240 0.0000 0.0000
# 5 0.0000 0.0000 0.0000 0.0000 34.3240 0.0000
# 6 0.0000 0.0000 0.0000 0.0000 0.0000 36.7978
#
#
#
# Elastic Compliance Matrix: (Units=1/GPa)
#
#
# Indices 1 2 3 4 5 6 
#
# 1 0.014877 -0.006448 -0.001771 0.000000 0.000000 0.000000
# 2 -0.006448 0.014877 -0.001771 0.000000 0.000000 0.000000
# 3 -0.001771 -0.001771 0.014820 0.000000 0.000000 0.000000
# 4 0.000000 0.000000 0.000000 0.029134 0.000000 0.000000
# 5 0.000000 0.000000 0.000000 0.000000 0.029134 0.000000
# 6 0.000000 0.000000 0.000000 0.000000 0.000000 0.027176
#
#
# Mechanical properties :
#
#
# Convention : Reuss Voigt Hill
#
# Bulk Modulus (GPa) = 40.65908 42.28454 41.47181
# Shear Modulus (GPa) = 31.60609 32.68796 32.14703
#
# Velocity S-wave (km/s) = 3.76386 3.82773 3.79593
# Velocity P-wave (km/s) = 6.09206 6.20390 6.14823
#
# Compressibility (1/GPa) = 0.02459475
#
# Stress axis : x y z
#
# Youngs Moduli (GPa) = 67.21616 67.21616 67.47525
#
# Poissons Ratio (x) = 0.43342 0.11950
# Poissons Ratio (y) = 0.43342 0.11950
# Poissons Ratio (z) = 0.11904 0.11904
#
# Static dielectric constant tensor:
#      x y z
#    x 3.996410 0.000000 0.000000 
#    y 0.000000 3.996410 0.000000 
#    z 0.000000 0.000000 3.993850 
# 
# 
# High freq. dielectric constant tensor:
#      x y z
#    x 1.895460 0.000000 0.000000 
#    y 0.000000 1.895460 0.000000 
#    z 0.000000 0.000000 1.884410 
# 
# From -- ./inp_files/3398.got.cif
#   From: 2010.03.12/outbox.cif.g09.slc.cpg/sg114_2_cif.got.tgz:3398.got - 2010.04.14 02:08:34.
