data_PCOD8309539
_publ_section_title
;
Structure prediction by ZEFSAII (Michael W. Deem and Ramdas Pophale) SiO2 
 PCOD8309539
Probable space group: P -4 M 2
;
_chemical_formula_sum "Si O2"
_cell_formula_units_Z 48
_cell_length_a 9.101513
_cell_length_b 9.101513
_cell_length_c 30.796748
_cell_angle_alpha 90.000000
_cell_angle_beta 90.000000
_cell_angle_gamma 90.000000
_cell_volume 2551.126810
_symmetry_space_group_name_H-M "P -4 M 2"
_symmetry_group_IT_number 115
_symmetry_cell_setting 'tetragonal'
loop_
_space_group_symop_operation_xyz
x,y,z
y,-x,-z
-x,-y,z
-y,x,-z
y,x,-z
-y,-x,-z
-x,y,z
x,-y,z
loop_
_atom_site_type_symbol
_atom_site_label
_atom_site_fract_x
_atom_site_fract_y
_atom_site_fract_z
Si Si1 0.337680 0.325724 0.672518
Si Si2 0.331680 0.827168 0.243236
Si Si3 0.672604 0.330268 0.077845
Si Si4 0.828529 0.171472 0.000000
Si Si5 0.325995 0.666946 0.576619
Si Si6 0.170452 0.669727 0.166483
Si Si7 0.170509 0.829492 0.500000
O O1 0.500000 0.260863 0.682010
O O2 0.346818 0.500000 0.671577
O O3 0.229181 0.271371 0.710337
O O4 0.281761 0.275735 0.624908
O O5 0.500000 0.775846 0.235593
O O6 0.229019 0.764676 0.205996
O O7 0.318432 0.000000 0.243054
O O8 0.500000 0.301206 0.079979
O O9 0.707545 0.500000 0.066694
O O10 0.742209 0.227109 0.041797
O O11 0.741869 0.284147 0.123573
O O12 0.000000 0.203701 0.006514
O O13 0.500000 0.674371 0.570704
O O14 0.271305 0.500000 0.568975
O O15 0.251009 0.773535 0.542715
O O16 0.197781 0.500000 0.177641
O O17 0.000000 0.704260 0.158690
O O18 0.000000 0.795557 0.505405
#
# Coordination Sequence:
#
# PCOD8309539 Si02
#       7
#     8   8   8   4   8   8   4
#     4   8  15  30  53  79 105 133 169 216 264 309
#     4  10  20  33  52  80 111 142 177 216 261 315
#     4  10  21  38  61  86 109 138 180 227 272 317
#     4  11  24  39  56  82 116 151 182 215 262 318
#     4   9  18  34  57  82 103 128 170 220 265 312
#     4  10  21  37  57  80 107 142 183 224 267 315
#     4  11  24  37  48  70 106 143 176 211 256 312
#
# _framework density 18.815217000000001
#
# number of rings (size 3 to 8) (size 9 to 14) (size 15 to 20)
#    0.000    2.333    0.000    3.500    0.000    8.000 
#    0.000    2.500    0.000    1.000    0.000    0.000 
#    0.000    0.000    0.000    0.000    0.000    0.000 
#
# Total GULP energy -595250.600950 kJ/mol
# GULP energy per Si atom -12401.054186 kJ/mol
# Density = 1.877239 g / cm^3
# Si number density = 18.815217 Si / 1000 Ang^3
#
#
#
# Elastic Constant Matrix: (Units=GPa)
#
#
# Indices 1 2 3 4 5 6 
#
# 1 68.9102 39.0175 58.3133 0.0000 0.0000 0.0000
# 2 39.0175 68.9093 58.3130 0.0000 0.0000 0.0000
# 3 58.3133 58.3130 154.3669 0.0000 0.0000 0.0000
# 4 0.0000 0.0000 0.0000 -36.9856 0.0000 0.0000
# 5 0.0000 0.0000 0.0000 0.0000 -36.9867 0.0000
# 6 0.0000 0.0000 0.0000 0.0000 0.0000 27.9433
#
#
#
# Elastic Compliance Matrix: (Units=1/GPa)
#
#
# Indices 1 2 3 4 5 6 
#
# 1 0.024555 -0.008898 -0.005914 0.000000 0.000000 0.000000
# 2 -0.008898 0.024555 -0.005914 0.000000 0.000000 0.000000
# 3 -0.005914 -0.005914 0.010946 0.000000 0.000000 0.000000
# 4 0.000000 0.000000 0.000000 -0.027038 0.000000 0.000000
# 5 0.000000 0.000000 0.000000 0.000000 -0.027037 0.000000
# 6 0.000000 0.000000 0.000000 0.000000 0.000000 0.035787
#
#
# Mechanical properties :
#
#
# Convention : Reuss Voigt Hill
#
# Bulk Modulus (GPa) = 53.75732 67.05267 60.40499
# Shear Modulus (GPa) = 55.91342 -0.10294 27.90524
#
# Velocity S-wave (km/s) = 5.45726 -0.23416 3.85531
# Velocity P-wave (km/s) = 8.26693 5.97007 7.21054
#
# Compressibility (1/GPa) = 0.01860212
#
# Stress axis : x y z
#
# Youngs Moduli (GPa) = 40.72521 40.72454 91.35362
#
# Poissons Ratio (x) = 0.36238 0.54030
# Poissons Ratio (y) = 0.36239 0.54031
# Poissons Ratio (z) = 0.24086 0.24086
#
# Static dielectric constant tensor:
#      x y z
#    x 3.432230 0.000000 0.000000 
#    y 0.000000 3.432230 0.000000 
#    z 0.000000 0.000000 3.754040 
# 
# 
# High freq. dielectric constant tensor:
#      x y z
#    x 1.720270 0.000000 0.000000 
#    y 0.000000 1.720270 0.000000 
#    z 0.000000 0.000000 1.748230 
# 
# From -- ./inp_files/6155.got.cif
#   From: 2010.03.12/outbox.cif.g09.slc.cpg/sg115_4_cif.got.tgz:6155.got - 2010.04.14 02:11:21.
