data_PCOD8309697
_publ_section_title
;
Structure prediction by ZEFSAII (Michael W. Deem and Ramdas Pophale) SiO2 
 PCOD8309697
Probable space group: P -4 M 2
;
_chemical_formula_sum "Si O2"
_cell_formula_units_Z 36
_cell_length_a 16.179402
_cell_length_b 16.179402
_cell_length_c 7.487721
_cell_angle_alpha 90.000000
_cell_angle_beta 90.000000
_cell_angle_gamma 90.000000
_cell_volume 1960.083557
_symmetry_space_group_name_H-M "P -4 M 2"
_symmetry_group_IT_number 115
_symmetry_cell_setting 'tetragonal'
loop_
_space_group_symop_operation_xyz
x,y,z
y,-x,-z
-x,-y,z
-y,x,-z
y,x,-z
-y,-x,-z
-x,y,z
x,-y,z
loop_
_atom_site_type_symbol
_atom_site_label
_atom_site_fract_x
_atom_site_fract_y
_atom_site_fract_z
Si Si1 0.726228 0.406585 0.500002
Si Si2 0.000000 0.280340 0.792212
Si Si3 0.144231 0.593829 0.204823
Si Si4 0.593829 0.144231 0.204819
Si Si5 0.000000 0.280340 0.207791
Si Si6 0.000000 0.860911 0.500001
O O1 0.643222 0.356779 0.500000
O O2 0.697446 0.500000 0.500004
O O3 0.777163 0.385032 0.323128
O O4 0.777163 0.385030 0.676877
O O5 0.077101 0.337940 0.744212
O O6 0.000000 0.196864 0.675769
O O7 0.000000 0.253904 0.000001
O O8 0.111593 0.500000 0.243944
O O9 0.077101 0.662060 0.255791
O O10 0.170829 0.602031 0.000002
O O11 0.500000 0.111594 0.243943
O O12 0.000000 0.196864 0.324233
O O13 0.081964 0.918037 0.500000
#
# Coordination Sequence:
#
# PCOD8309697 Si02
#       6
#     8   4   8   8   4   4
#     4  10  21  35  51  73 103 141 181 218 256 298
#     4  10  20  35  59  85 105 133 171 207 252 316
#     4   9  18  33  54  82 113 137 160 202 261 317
#     4   9  18  33  54  82 113 137 160 202 261 317
#     4  10  20  35  59  85 105 133 171 207 252 316
#     4  11  26  44  55  68 100 142 181 224 264 295
#
# _framework density 18.366561999999998
#
# number of rings (size 3 to 8) (size 9 to 14) (size 15 to 20)
#    0.000    2.333    0.000    2.000    0.000    8.222 
#    0.000   10.000    0.000    0.000    0.000    6.222 
#    0.000    0.000    0.000    0.000    0.000    0.000 
#
# Total GULP energy -446310.605755 kJ/mol
# GULP energy per Si atom -12397.516827 kJ/mol
# Density = 1.832476 g / cm^3
# Si number density = 18.366562 Si / 1000 Ang^3
#
#
#
# Elastic Constant Matrix: (Units=GPa)
#
#
# Indices 1 2 3 4 5 6 
#
# 1 127.1712 91.6213 69.8907 0.0000 0.0000 0.0000
# 2 91.6213 127.1645 69.8896 0.0000 0.0000 0.0000
# 3 69.8907 69.8896 108.1617 0.0000 0.0000 0.0000
# 4 0.0000 0.0000 0.0000 16.3701 0.0000 0.0000
# 5 0.0000 0.0000 0.0000 0.0000 16.3622 0.0000
# 6 0.0000 0.0000 0.0000 0.0000 0.0000 46.0289
#
#
#
# Elastic Compliance Matrix: (Units=1/GPa)
#
#
# Indices 1 2 3 4 5 6 
#
# 1 0.017958 -0.010174 -0.005030 0.000000 0.000000 0.000000
# 2 -0.010174 0.017959 -0.005030 0.000000 0.000000 0.000000
# 3 -0.005030 -0.005030 0.015745 0.000000 0.000000 0.000000
# 4 0.000000 0.000000 0.000000 0.061087 0.000000 0.000000
# 5 0.000000 0.000000 0.000000 0.000000 0.061116 0.000000
# 6 0.000000 0.000000 0.000000 0.000000 0.000000 0.021725
#
#
# Mechanical properties :
#
#
# Convention : Reuss Voigt Hill
#
# Bulk Modulus (GPa) = 89.32925 91.70006 90.51465
# Shear Modulus (GPa) = 20.85164 24.49196 22.67180
#
# Velocity S-wave (km/s) = 3.37308 3.65568 3.51722
# Velocity P-wave (km/s) = 7.99454 8.23740 8.11688
#
# Compressibility (1/GPa) = 0.01119454
#
# Stress axis : x y z
#
# Youngs Moduli (GPa) = 55.68701 55.68344 63.51025
#
# Poissons Ratio (x) = 0.56653 0.31943
# Poissons Ratio (y) = 0.56656 0.31946
# Poissons Ratio (z) = 0.28008 0.28009
#
# Static dielectric constant tensor:
#      x y z
#    x 3.280560 0.000000 0.000000 
#    y 0.000000 3.280560 0.000000 
#    z 0.000000 0.000000 3.777890 
# 
# 
# High freq. dielectric constant tensor:
#      x y z
#    x 1.703750 0.000000 0.000000 
#    y 0.000000 1.703750 0.000000 
#    z 0.000000 0.000000 1.729440 
# 
# From -- ./inp_files/1536.got.cif
#   From: 2010.03.12/outbox.cif.g09.slc.cpg/sg115_1_cif.got.tgz:1536.got - 2010.04.14 02:11:21.
