data_PCOD8309016
_publ_section_title
;
Structure prediction by ZEFSAII (Michael W. Deem and Ramdas Pophale) SiO2 
 PCOD8309016
Probable space group: P -4 21 C
;
_chemical_formula_sum "Si O2"
_cell_formula_units_Z 40
_cell_length_a 11.124619
_cell_length_b 11.124619
_cell_length_c 13.923097
_cell_angle_alpha 90.000000
_cell_angle_beta 90.000000
_cell_angle_gamma 90.000000
_cell_volume 1723.082775
_symmetry_space_group_name_H-M "P -4 21 C"
_symmetry_group_IT_number 114
_symmetry_cell_setting 'tetragonal'
loop_
_space_group_symop_operation_xyz
x,y,z
y,-x,-z
-x,-y,z
-y,x,-z
1/2+x,1/2-y,1/2-z
1/2-x,1/2+y,1/2-z
1/2-y,1/2-x,1/2+z
1/2+y,1/2+x,1/2+z
loop_
_atom_site_type_symbol
_atom_site_label
_atom_site_fract_x
_atom_site_fract_y
_atom_site_fract_z
Si Si1 0.635588 0.855247 0.116496
Si Si2 0.000000 0.000000 0.249188
Si Si3 0.863201 0.723322 0.077903
Si Si4 0.775109 0.084185 0.138962
Si Si5 0.582472 0.263554 0.216138
Si Si6 0.000000 0.500000 0.538349
O O1 0.718764 0.740959 0.087536
O O2 0.528202 0.818919 0.185828
O O3 0.708859 0.960918 0.170114
O O4 0.584240 0.911242 0.020150
O O5 0.906810 0.076759 0.183525
O O6 0.064661 0.098317 0.319813
O O7 0.920012 0.789328 0.169291
O O8 0.906299 0.585283 0.094953
O O9 0.907062 0.780308 0.977370
O O10 0.705693 0.202080 0.179939
#
# Coordination Sequence:
#
# PCOD8309016 Si02
#       6
#     8   4   8   8   8   4
#     4  11  22  49  72 107 145 186 251 307 362 448
#     4  12  28  43  76 109 144 204 246 303 378 435
#     4  11  25  45  77 105 146 199 241 309 385 433
#     4  11  26  50  71 109 147 191 254 306 362 461
#     4  12  25  48  71 108 150 186 247 310 367 447
#     4  10  24  46  74 104 142 198 242 300 374 446
#
# _framework density 23.214206000000001
#
# number of rings (size 3 to 8) (size 9 to 14) (size 15 to 20)
#    0.000    0.800    6.000    1.200    8.400    0.800 
#    7.200    0.000    0.000    1.200    0.000    0.000 
#    0.000    0.000    0.000    0.000    0.000    0.000 
#
# Total GULP energy -495523.691440 kJ/mol
# GULP energy per Si atom -12388.092286 kJ/mol
# Density = 2.316137 g / cm^3
# Si number density = 23.214206 Si / 1000 Ang^3
#
#
#
# Elastic Constant Matrix: (Units=GPa)
#
#
# Indices 1 2 3 4 5 6 
#
# 1 140.1208 68.6390 24.8588 0.0000 0.0000 0.0000
# 2 68.6390 140.1208 24.8588 0.0000 0.0000 0.0000
# 3 24.8588 24.8588 68.9065 0.0000 0.0000 0.0000
# 4 0.0000 0.0000 0.0000 12.4243 0.0000 0.0000
# 5 0.0000 0.0000 0.0000 0.0000 12.4243 0.0000
# 6 0.0000 0.0000 0.0000 0.0000 0.0000 70.3893
#
#
#
# Elastic Compliance Matrix: (Units=1/GPa)
#
#
# Indices 1 2 3 4 5 6 
#
# 1 0.009615 -0.004375 -0.001891 0.000000 0.000000 0.000000
# 2 -0.004375 0.009615 -0.001891 0.000000 0.000000 0.000000
# 3 -0.001891 -0.001891 0.015876 0.000000 0.000000 0.000000
# 4 0.000000 0.000000 0.000000 0.080487 0.000000 0.000000
# 5 0.000000 0.000000 0.000000 0.000000 0.080487 0.000000
# 6 0.000000 0.000000 0.000000 0.000000 0.000000 0.014207
#
#
# Mechanical properties :
#
#
# Convention : Reuss Voigt Hill
#
# Bulk Modulus (GPa) = 53.20510 65.09567 59.15038
# Shear Modulus (GPa) = 21.47173 34.43368 27.95271
#
# Velocity S-wave (km/s) = 3.04458 3.85554 3.47381
# Velocity P-wave (km/s) = 5.94376 6.92261 6.45177
#
# Compressibility (1/GPa) = 0.01879519
#
# Stress axis : x y z
#
# Youngs Moduli (GPa) = 104.00407 104.00407 62.98621
#
# Poissons Ratio (x) = 0.45497 0.11908
# Poissons Ratio (y) = 0.45497 0.11908
# Poissons Ratio (z) = 0.19662 0.19662
#
# Static dielectric constant tensor:
#      x y z
#    x 7.330360 0.000000 0.000000 
#    y 0.000000 7.330360 0.000000 
#    z 0.000000 0.000000 3.900410 
# 
# 
# High freq. dielectric constant tensor:
#      x y z
#    x 1.931340 0.000000 0.000000 
#    y 0.000000 1.931340 0.000000 
#    z 0.000000 0.000000 1.885540 
# 
# From -- ./inp_files/2187.got.cif
#   From: 2010.03.12/outbox.cif.g09.slc.cpg/sg114_2_cif.got.tgz:2187.got - 2010.04.14 02:08:34.
