data_PCOD8309765
_publ_section_title
;
Structure prediction by ZEFSAII (Michael W. Deem and Ramdas Pophale) SiO2 
 PCOD8309765
Probable space group: P -4 M 2
;
_chemical_formula_sum "Si O2"
_cell_formula_units_Z 48
_cell_length_a 9.375405
_cell_length_b 9.375405
_cell_length_c 30.754473
_cell_angle_alpha 90.000000
_cell_angle_beta 90.000000
_cell_angle_gamma 90.000000
_cell_volume 2703.263400
_symmetry_space_group_name_H-M "P -4 M 2"
_symmetry_group_IT_number 115
_symmetry_cell_setting 'tetragonal'
loop_
_space_group_symop_operation_xyz
x,y,z
y,-x,-z
-x,-y,z
-y,x,-z
y,x,-z
-y,-x,-z
-x,y,z
x,-y,z
loop_
_atom_site_type_symbol
_atom_site_label
_atom_site_fract_x
_atom_site_fract_y
_atom_site_fract_z
Si Si1 0.333169 0.335396 0.119574
Si Si2 0.165586 0.161593 0.050221
Si Si3 0.669830 0.341247 0.452639
Si Si4 0.665484 0.166047 0.204540
Si Si5 0.665030 0.167266 0.370561
Si Si6 0.161385 0.169654 0.287841
O O1 0.500000 0.313628 0.111989
O O2 0.291851 0.500000 0.125020
O O3 0.254668 0.273058 0.077904
O O4 0.282723 0.252772 0.162600
O O5 0.000000 0.180927 0.061181
O O6 0.213594 0.000000 0.061121
O O7 0.195564 0.195564 0.000000
O O8 0.718940 0.281061 0.500000
O O9 0.500000 0.346180 0.453051
O O10 0.731205 0.500000 0.444516
O O11 0.725591 0.239648 0.414297
O O12 0.500000 0.193998 0.215231
O O13 0.757209 0.224088 0.244974
O O14 0.694534 0.000000 0.195448
O O15 0.500000 0.206150 0.362132
O O16 0.755971 0.227527 0.330178
O O17 0.686117 0.000000 0.376405
O O18 0.000000 0.228744 0.287785
O O19 0.163457 0.000000 0.288435
#
# Coordination Sequence:
#
# PCOD8309765 Si02
#       6
#     8   8   8   8   8   8
#     4  10  21  35  51  75 106 135 163 199 245 294
#     4   9  19  36  56  77 101 131 169 209 245 285
#     4   8  14  26  44  64  86 114 148 183 219 263
#     4   9  17  31  51  71  91 121 162 201 234 274
#     4   9  16  27  45  67  88 112 146 186 224 265
#     4   9  17  29  46  68  92 118 150 189 232 277
#
# _framework density 17.756315000000001
#
# number of rings (size 3 to 8) (size 9 to 14) (size 15 to 20)
#    0.000    3.000    0.000    2.000    0.000    4.667 
#    0.000    5.833    0.000    6.500    0.000    0.000 
#    0.000    0.000    0.000    0.000    0.000    0.000 
#
# Total GULP energy -595143.270092 kJ/mol
# GULP energy per Si atom -12398.818127 kJ/mol
# Density = 1.771590 g / cm^3
# Si number density = 17.756315 Si / 1000 Ang^3
#
#
#
# Elastic Constant Matrix: (Units=GPa)
#
#
# Indices 1 2 3 4 5 6 
#
# 1 67.1426 36.8243 65.9659 0.0000 0.0000 0.0000
# 2 36.8243 67.1427 65.9659 0.0000 0.0000 0.0000
# 3 65.9659 65.9659 159.5958 0.0000 0.0000 0.0000
# 4 0.0000 0.0000 0.0000 30.1109 0.0000 0.0000
# 5 0.0000 0.0000 0.0000 0.0000 30.1109 0.0000
# 6 0.0000 0.0000 0.0000 0.0000 0.0000 18.2043
#
#
#
# Elastic Compliance Matrix: (Units=1/GPa)
#
#
# Indices 1 2 3 4 5 6 
#
# 1 0.026606 -0.006377 -0.008361 0.000000 0.000000 0.000000
# 2 -0.006377 0.026606 -0.008361 0.000000 0.000000 0.000000
# 3 -0.008361 -0.008361 0.013178 0.000000 0.000000 0.000000
# 4 0.000000 0.000000 0.000000 0.033211 0.000000 0.000000
# 5 0.000000 0.000000 0.000000 0.000000 0.033211 0.000000
# 6 0.000000 0.000000 0.000000 0.000000 0.000000 0.054932
#
#
# Mechanical properties :
#
#
# Convention : Reuss Voigt Hill
#
# Bulk Modulus (GPa) = 49.52879 70.15482 59.84181
# Shear Modulus (GPa) = 20.77520 24.02690 22.40105
#
# Velocity S-wave (km/s) = 3.42426 3.68251 3.55573
# Velocity P-wave (km/s) = 6.60214 7.59452 7.11565
#
# Compressibility (1/GPa) = 0.02019028
#
# Stress axis : x y z
#
# Youngs Moduli (GPa) = 37.58563 37.58573 75.88650
#
# Poissons Ratio (x) = 0.23970 0.63449
# Poissons Ratio (y) = 0.23970 0.63449
# Poissons Ratio (z) = 0.31426 0.31425
#
# Static dielectric constant tensor:
#      x y z
#    x 3.138640 0.000000 0.000000 
#    y 0.000000 3.138640 0.000000 
#    z 0.000000 0.000000 3.512010 
# 
# 
# High freq. dielectric constant tensor:
#      x y z
#    x 1.664370 0.000000 0.000000 
#    y 0.000000 1.664370 0.000000 
#    z 0.000000 0.000000 1.701130 
# 
# From -- ./inp_files/5974.got.cif
#   From: 2010.03.12/outbox.cif.g09.slc.cpg/sg115_3_cif.got.tgz:5974.got - 2010.04.14 02:11:21.
