data_PCOD8309892
_publ_section_title
;
Structure prediction by ZEFSAII (Michael W. Deem and Ramdas Pophale) SiO2 
 PCOD8309892
Probable space group: P -4 M 2
;
_chemical_formula_sum "Si O2"
_cell_formula_units_Z 48
_cell_length_a 9.072299
_cell_length_b 9.072299
_cell_length_c 30.913852
_cell_angle_alpha 90.000000
_cell_angle_beta 90.000000
_cell_angle_gamma 90.000000
_cell_volume 2544.414334
_symmetry_space_group_name_H-M "P -4 M 2"
_symmetry_group_IT_number 115
_symmetry_cell_setting 'tetragonal'
loop_
_space_group_symop_operation_xyz
x,y,z
y,-x,-z
-x,-y,z
-y,x,-z
y,x,-z
-y,-x,-z
-x,y,z
x,-y,z
loop_
_atom_site_type_symbol
_atom_site_label
_atom_site_fract_x
_atom_site_fract_y
_atom_site_fract_z
Si Si1 0.671984 0.169186 0.961912
Si Si2 0.327800 0.671398 0.204650
Si Si3 0.827083 0.830015 0.873162
Si Si4 0.170514 0.826572 0.717072
Si Si5 0.335719 0.675941 0.546826
Si Si6 0.172947 0.332519 0.630666
O O1 0.500000 0.195317 0.954090
O O2 0.756716 0.215335 0.918655
O O3 0.706556 0.000000 0.974125
O O4 0.726366 0.273635 0.000000
O O5 0.500000 0.700804 0.210868
O O6 0.291889 0.500000 0.198333
O O7 0.273340 0.758462 0.162952
O O8 0.244430 0.729217 0.246534
O O9 0.000000 0.800489 0.875706
O O10 0.792406 0.000000 0.861807
O O11 0.225388 0.764814 0.671075
O O12 0.000000 0.784503 0.725591
O O13 0.193992 0.000000 0.717560
O O14 0.271455 0.728546 0.500000
O O15 0.500000 0.737714 0.553781
O O16 0.336560 0.500000 0.546023
O O17 0.239006 0.735716 0.586607
O O18 0.227759 0.500000 0.638219
O O19 0.000000 0.326061 0.625269
#
# Coordination Sequence:
#
# PCOD8309892 Si02
#       6
#     8   8   8   8   8   8
#     4  10  21  37  58  84 114 149 187 226 270 318
#     4  11  24  39  56  81 111 141 175 217 265 316
#     4  10  21  38  61  86 111 143 183 224 267 317
#     4  10  21  37  56  77 103 137 176 216 261 315
#     4   8  14  26  45  68  94 126 164 205 250 302
#     4   9  17  30  49  72  98 129 166 209 256 306
#
# _framework density 18.864854000000001
#
# number of rings (size 3 to 8) (size 9 to 14) (size 15 to 20)
#    0.000    2.333    0.000    3.000    0.000    7.667 
#    0.000    2.500    0.000    1.000    0.000    0.000 
#    0.000    0.000    0.000    0.000    0.000    0.000 
#
# Total GULP energy -595257.999405 kJ/mol
# GULP energy per Si atom -12401.208321 kJ/mol
# Density = 1.882192 g / cm^3
# Si number density = 18.864854 Si / 1000 Ang^3
#
#
#
# Elastic Constant Matrix: (Units=GPa)
#
#
# Indices 1 2 3 4 5 6 
#
# 1 71.3848 39.7857 60.4011 0.0000 0.0000 0.0000
# 2 39.7857 71.3839 60.4002 0.0000 0.0000 0.0000
# 3 60.4011 60.4002 159.4882 0.0000 0.0000 0.0000
# 4 0.0000 0.0000 0.0000 37.4384 0.0000 0.0000
# 5 0.0000 0.0000 0.0000 0.0000 37.4384 0.0000
# 6 0.0000 0.0000 0.0000 0.0000 0.0000 25.2911
#
#
#
# Elastic Compliance Matrix: (Units=1/GPa)
#
#
# Indices 1 2 3 4 5 6 
#
# 1 0.023466 -0.008181 -0.005789 0.000000 0.000000 0.000000
# 2 -0.008181 0.023466 -0.005789 0.000000 0.000000 0.000000
# 3 -0.005789 -0.005789 0.010655 0.000000 0.000000 0.000000
# 4 0.000000 0.000000 0.000000 0.026711 0.000000 0.000000
# 5 0.000000 0.000000 0.000000 0.000000 0.026711 0.000000
# 6 0.000000 0.000000 0.000000 0.000000 0.000000 0.039540
#
#
# Mechanical properties :
#
#
# Convention : Reuss Voigt Hill
#
# Bulk Modulus (GPa) = 55.33906 69.27011 62.30458
# Shear Modulus (GPa) = 25.49868 29.47823 27.48846
#
# Velocity S-wave (km/s) = 3.68047 3.95726 3.82137
# Velocity P-wave (km/s) = 6.88907 7.59465 7.25045
#
# Compressibility (1/GPa) = 0.01807042
#
# Stress axis : x y z
#
# Youngs Moduli (GPa) = 42.61439 42.61417 93.85481
#
# Poissons Ratio (x) = 0.34861 0.54332
# Poissons Ratio (y) = 0.34861 0.54331
# Poissons Ratio (z) = 0.24669 0.24669
#
# Static dielectric constant tensor:
#      x y z
#    x 3.398520 0.000000 0.000000 
#    y 0.000000 3.398520 0.000000 
#    z 0.000000 0.000000 3.789440 
# 
# 
# High freq. dielectric constant tensor:
#      x y z
#    x 1.722930 0.000000 0.000000 
#    y 0.000000 1.722930 0.000000 
#    z 0.000000 0.000000 1.750630 
# 
# From -- ./inp_files/6012.got.cif
#   From: 2010.03.12/outbox.cif.g09.slc.cpg/sg115_4_cif.got.tgz:6012.got - 2010.04.14 02:11:21.
