data_PCOD8309863
_publ_section_title
;
Structure prediction by ZEFSAII (Michael W. Deem and Ramdas Pophale) SiO2 
 PCOD8309863
Probable space group: P -4 M 2
;
_chemical_formula_sum "Si O2"
_cell_formula_units_Z 48
_cell_length_a 9.316712
_cell_length_b 9.316712
_cell_length_c 30.965675
_cell_angle_alpha 90.000000
_cell_angle_beta 90.000000
_cell_angle_gamma 90.000000
_cell_volume 2687.855349
_symmetry_space_group_name_H-M "P -4 M 2"
_symmetry_group_IT_number 115
_symmetry_cell_setting 'tetragonal'
loop_
_space_group_symop_operation_xyz
x,y,z
y,-x,-z
-x,-y,z
-y,x,-z
y,x,-z
-y,-x,-z
-x,y,z
x,-y,z
loop_
_atom_site_type_symbol
_atom_site_label
_atom_site_fract_x
_atom_site_fract_y
_atom_site_fract_z
Si Si1 0.831184 0.666217 0.536672
Si Si2 0.831720 0.836512 0.306475
Si Si3 0.340672 0.671605 0.954536
Si Si4 0.329080 0.662179 0.861613
Si Si5 0.665215 0.667279 0.622725
Si Si6 0.839337 0.168612 0.791691
O O1 0.766389 0.766389 0.500000
O O2 0.797968 0.500000 0.525864
O O3 0.757048 0.712750 0.581186
O O4 0.000000 0.694783 0.540640
O O5 0.749844 0.724135 0.336034
O O6 0.789311 0.799893 0.257291
O O7 0.000000 0.816882 0.313892
O O8 0.786429 0.000000 0.317588
O O9 0.500000 0.736082 0.952463
O O10 0.347404 0.500000 0.957331
O O11 0.265572 0.713581 0.908797
O O12 0.269643 0.730358 0.000000
O O13 0.500000 0.671488 0.862649
O O14 0.279050 0.500000 0.852283
O O15 0.272308 0.761115 0.823854
O O16 0.500000 0.709966 0.614669
O O17 0.681947 0.500000 0.632275
O O18 0.000000 0.221998 0.802441
O O19 0.828939 0.000000 0.797611
#
# Coordination Sequence:
#
# PCOD8309863 Si02
#       6
#     8   8   8   8   8   8
#     4  10  21  37  57  80 106 138 174 208 244 288
#     4   9  19  36  55  73  95 127 168 209 245 286
#     4   7  10  19  37  61  89 119 149 185 233 285
#     4   9  17  28  45  72  99 120 151 198 245 289
#     4  10  21  36  55  80 108 136 165 201 248 297
#     4   9  19  35  51  67  92 129 168 201 238 288
#
# _framework density 17.858105999999999
#
# number of rings (size 3 to 8) (size 9 to 14) (size 15 to 20)
#    0.000    3.000    0.000    3.500    0.000    5.000 
#    0.000    5.000    0.000    1.000    0.000    5.833 
#    0.000    0.000    0.000    0.000    0.000    0.000 
#
# Total GULP energy -594780.813177 kJ/mol
# GULP energy per Si atom -12391.266941 kJ/mol
# Density = 1.781746 g / cm^3
# Si number density = 17.858106 Si / 1000 Ang^3
#
#
#
# Elastic Constant Matrix: (Units=GPa)
#
#
# Indices 1 2 3 4 5 6 
#
# 1 56.6747 33.2147 58.3651 0.0000 0.0000 0.0000
# 2 33.2147 56.6746 58.3651 0.0000 0.0000 0.0000
# 3 58.3651 58.3651 150.6631 0.0000 0.0000 0.0000
# 4 0.0000 0.0000 0.0000 -39.6500 0.0000 0.0000
# 5 0.0000 0.0000 0.0000 0.0000 -39.6526 0.0000
# 6 0.0000 0.0000 0.0000 0.0000 0.0000 28.0630
#
#
#
# Elastic Compliance Matrix: (Units=1/GPa)
#
#
# Indices 1 2 3 4 5 6 
#
# 1 0.032506 -0.010120 -0.008672 0.000000 0.000000 0.000000
# 2 -0.010120 0.032506 -0.008672 0.000000 0.000000 0.000000
# 3 -0.008672 -0.008672 0.013356 0.000000 0.000000 0.000000
# 4 0.000000 0.000000 0.000000 -0.025221 0.000000 0.000000
# 5 0.000000 0.000000 0.000000 0.000000 -0.025219 0.000000
# 6 0.000000 0.000000 0.000000 0.000000 0.000000 0.035634
#
#
# Mechanical properties :
#
#
# Convention : Reuss Voigt Hill
#
# Bulk Modulus (GPa) = 42.66125 62.65580 52.65852
# Shear Modulus (GPa) = 39.58656 -2.64343 18.47157
#
# Velocity S-wave (km/s) = 4.71332 -1.21797 3.21962
# Velocity P-wave (km/s) = 7.31857 5.76052 6.58578
#
# Compressibility (1/GPa) = 0.02344048
#
# Stress axis : x y z
#
# Youngs Moduli (GPa) = 30.76333 30.76325 74.87008
#
# Poissons Ratio (x) = 0.31131 0.64930
# Poissons Ratio (y) = 0.31131 0.64930
# Poissons Ratio (z) = 0.26679 0.26679
#
# Static dielectric constant tensor:
#      x y z
#    x 3.080930 0.000000 0.000000 
#    y 0.000000 3.080930 0.000000 
#    z 0.000000 0.000000 3.617330 
# 
# 
# High freq. dielectric constant tensor:
#      x y z
#    x 1.667040 0.000000 0.000000 
#    y 0.000000 1.667040 0.000000 
#    z 0.000000 0.000000 1.712920 
# 
# From -- ./inp_files/5912.got.cif
#   From: 2010.03.12/outbox.cif.g09.slc.cpg/sg115_3_cif.got.tgz:5912.got - 2010.04.14 02:11:21.
