data_PCOD8309119
_publ_section_title
;
Structure prediction by ZEFSAII (Michael W. Deem and Ramdas Pophale) SiO2 
 PCOD8309119
Probable space group: P -4 21 C
;
_chemical_formula_sum "Si O2"
_cell_formula_units_Z 34
_cell_length_a 9.090644
_cell_length_b 9.090644
_cell_length_c 17.765685
_cell_angle_alpha 90.000000
_cell_angle_beta 90.000000
_cell_angle_gamma 90.000000
_cell_volume 1468.152803
_symmetry_space_group_name_H-M "P -4 21 C"
_symmetry_group_IT_number 114
_symmetry_cell_setting 'tetragonal'
loop_
_space_group_symop_operation_xyz
x,y,z
y,-x,-z
-x,-y,z
-y,x,-z
1/2+x,1/2-y,1/2-z
1/2-x,1/2+y,1/2-z
1/2-y,1/2-x,1/2+z
1/2+y,1/2+x,1/2+z
loop_
_atom_site_type_symbol
_atom_site_label
_atom_site_fract_x
_atom_site_fract_y
_atom_site_fract_z
Si Si1 0.652952 0.326029 0.496997
Si Si2 0.327045 0.001002 0.285713
Si Si3 0.215449 0.864308 0.615136
Si Si4 0.209152 0.678814 0.842388
Si Si5 0.500000 0.500000 0.000000
O O1 0.486356 0.312981 0.468404
O O2 0.658337 0.219822 0.569247
O O3 0.762360 0.288841 0.427781
O O4 0.250620 0.118254 0.339643
O O5 0.291108 0.054698 0.200231
O O6 0.500000 0.000000 0.304884
O O7 0.255153 0.840964 0.295601
O O8 0.123945 0.933993 0.549818
O O9 0.275728 0.000657 0.664269
#
# Coordination Sequence:
#
# PCOD8309119 Si02
#       5
#     8   8   8   8   2
#     4  11  27  48  75 107 147 191 247 315 379 448
#     4  12  27  46  71 110 149 199 243 303 377 444
#     4  12  23  47  77 106 145 191 250 305 367 439
#     4  12  27  48  75 110 148 196 249 312 367 454
#     4  12  20  44  72 104 136 188 242 296 360 408
#
# _framework density 23.158352000000001
#
# number of rings (size 3 to 8) (size 9 to 14) (size 15 to 20)
#    0.000    0.235    4.706    2.824    6.588    0.000 
#    4.235    0.000    0.000    0.000    0.000    0.000 
#    0.000    0.000    0.000    0.000    0.000    0.000 
#
# Total GULP energy -421484.340666 kJ/mol
# GULP energy per Si atom -12396.598255 kJ/mol
# Density = 2.310564 g / cm^3
# Si number density = 23.158352 Si / 1000 Ang^3
#
#
#
# Elastic Constant Matrix: (Units=GPa)
#
#
# Indices 1 2 3 4 5 6 
#
# 1 132.5267 47.3629 42.6609 0.0000 0.0000 0.0000
# 2 47.3629 132.5267 42.6609 0.0000 0.0000 0.0000
# 3 42.6609 42.6609 107.7841 0.0000 0.0000 0.0000
# 4 0.0000 0.0000 0.0000 41.2720 0.0000 0.0000
# 5 0.0000 0.0000 0.0000 0.0000 41.2720 0.0000
# 6 0.0000 0.0000 0.0000 0.0000 0.0000 32.2655
#
#
#
# Elastic Compliance Matrix: (Units=1/GPa)
#
#
# Indices 1 2 3 4 5 6 
#
# 1 0.009293 -0.002449 -0.002709 0.000000 0.000000 0.000000
# 2 -0.002449 0.009293 -0.002709 0.000000 0.000000 0.000000
# 3 -0.002709 -0.002709 0.011422 0.000000 0.000000 0.000000
# 4 0.000000 0.000000 0.000000 0.024230 0.000000 0.000000
# 5 0.000000 0.000000 0.000000 0.000000 0.024230 0.000000
# 6 0.000000 0.000000 0.000000 0.000000 0.000000 0.030993
#
#
# Mechanical properties :
#
#
# Convention : Reuss Voigt Hill
#
# Bulk Modulus (GPa) = 70.05488 70.91187 70.48337
# Shear Modulus (GPa) = 38.47599 38.97209 38.72404
#
# Velocity S-wave (km/s) = 4.08049 4.10671 4.09362
# Velocity P-wave (km/s) = 7.24683 7.29203 7.26946
#
# Compressibility (1/GPa) = 0.01427452
#
# Stress axis : x y z
#
# Youngs Moduli (GPa) = 107.60906 107.60906 87.55000
#
# Poissons Ratio (x) = 0.26355 0.23715
# Poissons Ratio (y) = 0.26355 0.23715
# Poissons Ratio (z) = 0.29149 0.29149
#
# Static dielectric constant tensor:
#      x y z
#    x 4.536610 0.000000 0.000000 
#    y 0.000000 4.536610 0.000000 
#    z 0.000000 0.000000 4.348770 
# 
# 
# High freq. dielectric constant tensor:
#      x y z
#    x 1.929070 0.000000 0.000000 
#    y 0.000000 1.929070 0.000000 
#    z 0.000000 0.000000 1.922420 
# 
# From -- ./inp_files/2950.got.cif
#   From: 2010.03.12/outbox.cif.g09.slc.cpg/sg114_2_cif.got.tgz:2950.got - 2010.04.14 02:08:34.
