data_PCOD8309286
_publ_section_title
;
Structure prediction by ZEFSAII (Michael W. Deem and Ramdas Pophale) SiO2 
 PCOD8309286
Probable space group: P -4 M 2
;
_chemical_formula_sum "Si O2"
_cell_formula_units_Z 28
_cell_length_a 7.830430
_cell_length_b 7.830430
_cell_length_c 21.551593
_cell_angle_alpha 90.000000
_cell_angle_beta 90.000000
_cell_angle_gamma 90.000000
_cell_volume 1321.449588
_symmetry_space_group_name_H-M "P -4 M 2"
_symmetry_group_IT_number 115
_symmetry_cell_setting 'tetragonal'
loop_
_space_group_symop_operation_xyz
x,y,z
y,-x,-z
-x,-y,z
-y,x,-z
y,x,-z
-y,-x,-z
-x,y,z
x,-y,z
loop_
_atom_site_type_symbol
_atom_site_label
_atom_site_fract_x
_atom_site_fract_y
_atom_site_fract_z
Si Si1 0.202481 0.688041 0.631559
Si Si2 0.801974 0.690807 0.935275
Si Si3 0.198661 0.198661 0.500000
Si Si4 0.202963 0.000000 0.851678
Si Si5 0.795693 0.000000 0.712475
O O1 0.255774 0.500000 0.656008
O O2 0.272516 0.710102 0.561473
O O3 0.000000 0.709341 0.629107
O O4 0.276632 0.831648 0.677747
O O5 0.774562 0.500000 0.907867
O O6 0.000000 0.728084 0.948888
O O7 0.730190 0.829750 0.886567
O O8 0.703071 0.703071 0.000000
O O9 0.000000 0.235675 0.490944
O O10 0.278042 0.000000 0.782223
O O11 0.000000 0.000000 0.848764
O O12 0.000000 0.000000 0.712903
#
# Coordination Sequence:
#
# PCOD8309286 Si02
#       5
#     8   8   4   4   4
#     4   9  16  25  41  67 100 139 184 230 276 331
#     4  10  19  32  53  79 107 146 190 232 283 334
#     4   9  14  24  42  63  90 130 176 223 282 333
#     4   9  18  30  49  73 111 150 184 231 279 334
#     4   9  16  28  42  69 107 147 181 221 278 329
#
# _framework density 21.188852000000001
#
# number of rings (size 3 to 8) (size 9 to 14) (size 15 to 20)
#    0.000    2.714    2.857    0.000    0.000    1.429 
#    0.000    5.714    0.000    0.429    0.000    4.000 
#    0.000    0.000    0.000    0.000    0.000    0.000 
#
# Total GULP energy -347088.022284 kJ/mol
# GULP energy per Si atom -12396.000796 kJ/mol
# Density = 2.114062 g / cm^3
# Si number density = 21.188852 Si / 1000 Ang^3
#
#
#
# Elastic Constant Matrix: (Units=GPa)
#
#
# Indices 1 2 3 4 5 6 
#
# 1 87.5905 32.6940 55.4963 0.0000 0.0000 0.0000
# 2 32.6940 87.5905 55.4963 0.0000 0.0000 0.0000
# 3 55.4963 55.4963 179.6582 0.0000 0.0000 0.0000
# 4 0.0000 0.0000 0.0000 5.7027 0.0000 0.0000
# 5 0.0000 0.0000 0.0000 0.0000 5.7027 0.0000
# 6 0.0000 0.0000 0.0000 0.0000 0.0000 4.8103
#
#
#
# Elastic Compliance Matrix: (Units=1/GPa)
#
#
# Indices 1 2 3 4 5 6 
#
# 1 0.014922 -0.003294 -0.003592 0.000000 0.000000 0.000000
# 2 -0.003294 0.014922 -0.003592 0.000000 0.000000 0.000000
# 3 -0.003592 -0.003592 0.007785 0.000000 0.000000 0.000000
# 4 0.000000 0.000000 0.000000 0.175354 0.000000 0.000000
# 5 0.000000 0.000000 0.000000 0.000000 0.175354 0.000000
# 6 0.000000 0.000000 0.000000 0.000000 0.000000 0.207889
#
#
# Mechanical properties :
#
#
# Convention : Reuss Voigt Hill
#
# Bulk Modulus (GPa) = 59.97466 71.35692 65.66579
# Shear Modulus (GPa) = 8.02903 17.31999 12.67451
#
# Velocity S-wave (km/s) = 1.94872 2.86214 2.44840
# Velocity P-wave (km/s) = 5.78183 6.68373 6.24907
#
# Compressibility (1/GPa) = 0.01667371
#
# Stress axis : x y z
#
# Youngs Moduli (GPa) = 67.01485 67.01485 128.44890
#
# Poissons Ratio (x) = 0.22075 0.46138
# Poissons Ratio (y) = 0.22075 0.46138
# Poissons Ratio (z) = 0.24071 0.24071
#
# Static dielectric constant tensor:
#      x y z
#    x 3.561090 0.000000 0.000000 
#    y 0.000000 3.561090 0.000000 
#    z 0.000000 0.000000 3.942090 
# 
# 
# High freq. dielectric constant tensor:
#      x y z
#    x 1.804860 0.000000 0.000000 
#    y 0.000000 1.804860 0.000000 
#    z 0.000000 0.000000 1.820720 
# 
# From -- ./inp_files/4530.got.cif
#   From: 2010.03.12/outbox.cif.g09.slc.cpg/sg115_3_cif.got.tgz:4530.got - 2010.04.14 02:11:21.
