data_PCOD8309542
_publ_section_title
;
Structure prediction by ZEFSAII (Michael W. Deem and Ramdas Pophale) SiO2 
 PCOD8309542
Probable space group: P -4 M 2
;
_chemical_formula_sum "Si O2"
_cell_formula_units_Z 33
_cell_length_a 8.094806
_cell_length_b 8.094806
_cell_length_c 23.773888
_cell_angle_alpha 90.000000
_cell_angle_beta 90.000000
_cell_angle_gamma 90.000000
_cell_volume 1557.805032
_symmetry_space_group_name_H-M "P -4 M 2"
_symmetry_group_IT_number 115
_symmetry_cell_setting 'tetragonal'
loop_
_space_group_symop_operation_xyz
x,y,z
y,-x,-z
-x,-y,z
-y,x,-z
y,x,-z
-y,-x,-z
-x,y,z
x,-y,z
loop_
_atom_site_type_symbol
_atom_site_label
_atom_site_fract_x
_atom_site_fract_y
_atom_site_fract_z
Si Si1 0.811332 0.809931 0.733726
Si Si2 0.691049 0.308952 0.500000
Si Si3 0.680049 0.689845 0.845847
Si Si4 0.684607 0.194187 0.383443
Si Si5 0.000000 0.298628 0.914910
Si Si6 0.000000 0.000000 0.000000
O O1 0.706483 0.710182 0.779199
O O2 0.737458 0.781729 0.671057
O O3 0.000000 0.746700 0.736300
O O4 0.798380 0.000000 0.749728
O O5 0.500000 0.266396 0.496050
O O6 0.774534 0.243230 0.442252
O O7 0.500000 0.770560 0.862152
O O8 0.667984 0.500000 0.860613
O O9 0.836818 0.758932 0.880297
O O10 0.500000 0.269705 0.381499
O O11 0.679957 0.000000 0.380354
O O12 0.000000 0.500000 0.928347
O O13 0.000000 0.176660 0.967980
#
# Coordination Sequence:
#
# PCOD8309542 Si02
#       6
#     8   4   8   8   4   1
#     4  10  20  33  53  82 117 151 192 246 307 369
#     4   9  18  32  48  65  90 130 182 239 294 357
#     4  10  21  38  63  92 124 166 208 251 308 366
#     4   9  18  32  49  69  98 141 186 234 299 367
#     4  10  24  46  68  98 138 174 213 263 308 357
#     4  12  28  44  76 104 132 180 224 250 308 364
#
# _framework density 21.183654000000001
#
# number of rings (size 3 to 8) (size 9 to 14) (size 15 to 20)
#    0.000    2.303    1.212    0.727    1.697    4.364 
#    0.000    2.424    0.000    0.000    0.000    0.000 
#    0.000    0.000    0.000    0.000    0.000    0.000 
#
# Total GULP energy -408816.136038 kJ/mol
# GULP energy per Si atom -12388.367759 kJ/mol
# Density = 2.113544 g / cm^3
# Si number density = 21.183654 Si / 1000 Ang^3
#
#
#
# Elastic Constant Matrix: (Units=GPa)
#
#
# Indices 1 2 3 4 5 6 
#
# 1 71.3429 31.7081 45.5686 0.0000 0.0000 0.0000
# 2 31.7081 71.3433 45.5687 0.0000 0.0000 0.0000
# 3 45.5686 45.5687 141.8513 0.0000 0.0000 0.0000
# 4 0.0000 0.0000 0.0000 31.7555 0.0000 0.0000
# 5 0.0000 0.0000 0.0000 0.0000 31.7558 0.0000
# 6 0.0000 0.0000 0.0000 0.0000 0.0000 12.6043
#
#
#
# Elastic Compliance Matrix: (Units=1/GPa)
#
#
# Indices 1 2 3 4 5 6 
#
# 1 0.019393 -0.005838 -0.004354 0.000000 0.000000 0.000000
# 2 -0.005838 0.019393 -0.004354 0.000000 0.000000 0.000000
# 3 -0.004354 -0.004354 0.009847 0.000000 0.000000 0.000000
# 4 0.000000 0.000000 0.000000 0.031491 0.000000 0.000000
# 5 0.000000 0.000000 0.000000 0.000000 0.031490 0.000000
# 6 0.000000 0.000000 0.000000 0.000000 0.000000 0.079338
#
#
# Mechanical properties :
#
#
# Convention : Reuss Voigt Hill
#
# Bulk Modulus (GPa) = 51.17855 58.91426 55.04640
# Shear Modulus (GPa) = 22.06945 26.00260 24.03602
#
# Velocity S-wave (km/s) = 3.23122 3.50735 3.37211
# Velocity P-wave (km/s) = 6.17519 6.65384 6.41897
#
# Compressibility (1/GPa) = 0.01953944
#
# Stress axis : x y z
#
# Youngs Moduli (GPa) = 51.56600 51.56632 101.55093
#
# Poissons Ratio (x) = 0.30103 0.44219
# Poissons Ratio (y) = 0.30103 0.44219
# Poissons Ratio (z) = 0.22454 0.22454
#
# Static dielectric constant tensor:
#      x y z
#    x 3.883800 0.000000 0.000000 
#    y 0.000000 3.883790 0.000000 
#    z 0.000000 0.000000 3.994780 
# 
# 
# High freq. dielectric constant tensor:
#      x y z
#    x 1.815270 0.000000 0.000000 
#    y 0.000000 1.815270 0.000000 
#    z 0.000000 0.000000 1.830070 
# 
# From -- ./inp_files/4725.got.cif
#   From: 2010.03.12/outbox.cif.g09.slc.cpg/sg115_3_cif.got.tgz:4725.got - 2010.04.14 02:11:21.
