data_PCOD8309969
_publ_section_title
;
Structure prediction by ZEFSAII (Michael W. Deem and Ramdas Pophale) SiO2 
 PCOD8309969
Probable space group: P -4 M 2
;
_chemical_formula_sum "Si O2"
_cell_formula_units_Z 34
_cell_length_a 7.806075
_cell_length_b 7.806075
_cell_length_c 26.610237
_cell_angle_alpha 90.000000
_cell_angle_beta 90.000000
_cell_angle_gamma 90.000000
_cell_volume 1621.489653
_symmetry_space_group_name_H-M "P -4 M 2"
_symmetry_group_IT_number 115
_symmetry_cell_setting 'tetragonal'
loop_
_space_group_symop_operation_xyz
x,y,z
y,-x,-z
-x,-y,z
-y,x,-z
y,x,-z
-y,-x,-z
-x,y,z
x,-y,z
loop_
_atom_site_type_symbol
_atom_site_label
_atom_site_fract_x
_atom_site_fract_y
_atom_site_fract_z
Si Si1 0.000000 0.687289 0.718991
Si Si2 0.309884 0.702162 0.055691
Si Si3 0.705336 0.000000 0.873685
Si Si4 0.304160 0.807287 0.447094
Si Si5 0.805787 0.309873 0.343895
Si Si6 0.000000 0.000000 0.794028
O O1 0.167210 0.694980 0.683887
O O2 0.000000 0.500000 0.744852
O O3 0.000000 0.829478 0.761374
O O4 0.500000 0.780482 0.067627
O O5 0.325452 0.500000 0.056825
O O6 0.169492 0.762522 0.095835
O O7 0.244845 0.755156 0.000000
O O8 0.821479 0.000000 0.824318
O O9 0.500000 0.000000 0.861469
O O10 0.287214 0.712787 0.500000
O O11 0.500000 0.804066 0.429906
O O12 0.197899 0.711282 0.404102
O O13 0.234680 0.000000 0.452660
O O14 0.737918 0.500000 0.329901
O O15 0.000000 0.288248 0.325439
#
# Coordination Sequence:
#
# PCOD8309969 Si02
#       6
#     4   8   4   8   8   2
#     4  12  26  48  72  93 122 160 211 273 332 388
#     4   8  15  31  57  90 129 171 213 255 301 362
#     4  10  22  39  61  89 126 170 210 259 318 377
#     4  11  23  37  56  89 131 172 210 247 297 369
#     4  11  23  42  70  98 126 163 206 257 321 387
#     4  12  28  46  63  92 125 156 214 272 332 384
#
# _framework density 20.968374000000001
#
# number of rings (size 3 to 8) (size 9 to 14) (size 15 to 20)
#    0.000    1.647    2.353    2.824    0.000    8.941 
#    0.000    1.176    0.000    0.000    0.000    0.000 
#    0.000    0.000    0.000    0.000    0.000    0.000 
#
# Total GULP energy -421544.306757 kJ/mol
# GULP energy per Si atom -12398.361963 kJ/mol
# Density = 2.092065 g / cm^3
# Si number density = 20.968374 Si / 1000 Ang^3
#
#
#
# Elastic Constant Matrix: (Units=GPa)
#
#
# Indices 1 2 3 4 5 6 
#
# 1 123.2865 42.5524 51.4815 0.0000 0.0000 0.0000
# 2 42.5524 123.2870 51.4815 0.0000 0.0000 0.0000
# 3 51.4815 51.4815 119.6644 0.0000 0.0000 0.0000
# 4 0.0000 0.0000 0.0000 3.9650 0.0000 0.0000
# 5 0.0000 0.0000 0.0000 0.0000 3.9648 0.0000
# 6 0.0000 0.0000 0.0000 0.0000 0.0000 -7.7862
#
#
#
# Elastic Compliance Matrix: (Units=1/GPa)
#
#
# Indices 1 2 3 4 5 6 
#
# 1 0.010307 -0.002079 -0.003540 0.000000 0.000000 0.000000
# 2 -0.002079 0.010307 -0.003540 0.000000 0.000000 0.000000
# 3 -0.003540 -0.003540 0.011402 0.000000 0.000000 0.000000
# 4 0.000000 0.000000 0.000000 0.252209 0.000000 0.000000
# 5 0.000000 0.000000 0.000000 0.000000 0.252218 0.000000
# 6 0.000000 0.000000 0.000000 0.000000 0.000000 -0.128432
#
#
# Mechanical properties :
#
#
# Convention : Reuss Voigt Hill
#
# Bulk Modulus (GPa) = 72.99846 73.02987 73.01417
# Shear Modulus (GPa) = 11.60375 14.74354 13.17364
#
# Velocity S-wave (km/s) = 2.35498 2.65454 2.50924
# Velocity P-wave (km/s) = 6.50260 6.65580 6.57964
#
# Compressibility (1/GPa) = 0.01369892
#
# Stress axis : x y z
#
# Youngs Moduli (GPa) = 97.02189 97.02235 87.70155
#
# Poissons Ratio (x) = 0.20175 0.31043
# Poissons Ratio (y) = 0.20175 0.31043
# Poissons Ratio (z) = 0.34342 0.34342
#
# Static dielectric constant tensor:
#      x y z
#    x 4.007580 0.000000 0.000000 
#    y 0.000000 4.007600 0.000000 
#    z 0.000000 0.000000 3.605830 
# 
# 
# High freq. dielectric constant tensor:
#      x y z
#    x 1.825180 0.000000 0.000000 
#    y 0.000000 1.825180 0.000000 
#    z 0.000000 0.000000 1.798530 
# 
# From -- ./inp_files/4713.got.cif
#   From: 2010.03.12/outbox.cif.g09.slc.cpg/sg115_3_cif.got.tgz:4713.got - 2010.04.14 02:11:21.
