data_PCOD8309032
_publ_section_title
;
Structure prediction by ZEFSAII (Michael W. Deem and Ramdas Pophale) SiO2 
 PCOD8309032
Probable space group: P -4 21 C
;
_chemical_formula_sum "Si O2"
_cell_formula_units_Z 48
_cell_length_a 8.370909
_cell_length_b 8.370909
_cell_length_c 28.708280
_cell_angle_alpha 90.000000
_cell_angle_beta 90.000000
_cell_angle_gamma 90.000000
_cell_volume 2011.649969
_symmetry_space_group_name_H-M "P -4 21 C"
_symmetry_group_IT_number 114
_symmetry_cell_setting 'tetragonal'
loop_
_space_group_symop_operation_xyz
x,y,z
y,-x,-z
-x,-y,z
-y,x,-z
1/2+x,1/2-y,1/2-z
1/2-x,1/2+y,1/2-z
1/2-y,1/2-x,1/2+z
1/2+y,1/2+x,1/2+z
loop_
_atom_site_type_symbol
_atom_site_label
_atom_site_fract_x
_atom_site_fract_y
_atom_site_fract_z
Si Si1 0.199197 0.847207 0.484741
Si Si2 0.664253 0.594504 0.445725
Si Si3 0.450371 0.177525 0.371506
Si Si4 0.396404 0.258907 0.784796
Si Si5 0.310184 0.225117 0.608617
Si Si6 0.736568 0.397634 0.797521
O O1 0.346549 0.742795 0.505672
O O2 0.202154 0.832081 0.428784
O O3 0.031720 0.778447 0.503149
O O4 0.500000 0.500000 0.455759
O O5 0.648864 0.752461 0.414589
O O6 0.786627 0.477730 0.418664
O O7 0.348127 0.184388 0.324571
O O8 0.605016 0.290666 0.364975
O O9 0.500000 0.000000 0.385276
O O10 0.583307 0.280411 0.794983
O O11 0.307185 0.426359 0.781517
O O12 0.375911 0.168879 0.735681
O O13 0.299356 0.092896 0.649199
#
# Coordination Sequence:
#
# PCOD8309032 Si02
#       6
#     8   8   8   8   8   8
#     4  11  27  48  75 106 149 194 250 303 369 434
#     4  10  26  45  72 109 147 188 246 300 368 433
#     4  11  22  44  74 100 138 195 232 297 360 424
#     4  11  26  45  75 101 150 184 242 294 362 433
#     4  11  25  45  72 104 147 187 241 295 363 435
#     4  11  26  47  70 109 142 192 239 296 362 430
#
# _framework density 23.861011999999999
#
# number of rings (size 3 to 8) (size 9 to 14) (size 15 to 20)
#    0.000    1.167    1.667    2.000    9.333    2.000 
#    0.000    0.000    0.000    0.000    0.000    0.000 
#    0.000    0.000    0.000    0.000    0.000    0.000 
#
# Total GULP energy -595439.466212 kJ/mol
# GULP energy per Si atom -12404.988879 kJ/mol
# Density = 2.380670 g / cm^3
# Si number density = 23.861012 Si / 1000 Ang^3
#
#
#
# Elastic Constant Matrix: (Units=GPa)
#
#
# Indices 1 2 3 4 5 6 
#
# 1 89.4475 24.0350 41.5428 0.0000 0.0000 0.0000
# 2 24.0350 89.4475 41.5428 0.0000 0.0000 0.0000
# 3 41.5428 41.5428 166.1778 0.0000 0.0000 0.0000
# 4 0.0000 0.0000 0.0000 41.0860 0.0000 0.0000
# 5 0.0000 0.0000 0.0000 0.0000 41.0860 0.0000
# 6 0.0000 0.0000 0.0000 0.0000 0.0000 36.2090
#
#
#
# Elastic Compliance Matrix: (Units=1/GPa)
#
#
# Indices 1 2 3 4 5 6 
#
# 1 0.013037 -0.002251 -0.002696 0.000000 0.000000 0.000000
# 2 -0.002251 0.013037 -0.002696 0.000000 0.000000 0.000000
# 3 -0.002696 -0.002696 0.007366 0.000000 0.000000 0.000000
# 4 0.000000 0.000000 0.000000 0.024339 0.000000 0.000000
# 5 0.000000 0.000000 0.000000 0.000000 0.024339 0.000000
# 6 0.000000 0.000000 0.000000 0.000000 0.000000 0.027617
#
#
# Mechanical properties :
#
#
# Convention : Reuss Voigt Hill
#
# Bulk Modulus (GPa) = 55.08933 62.14599 58.61766
# Shear Modulus (GPa) = 38.14663 39.53971 38.84317
#
# Velocity S-wave (km/s) = 4.00271 4.07515 4.03909
# Velocity P-wave (km/s) = 6.67083 6.94579 6.80970
#
# Compressibility (1/GPa) = 0.01815234
#
# Stress axis : x y z
#
# Youngs Moduli (GPa) = 76.70568 76.70568 135.76253
#
# Poissons Ratio (x) = 0.17265 0.36607
# Poissons Ratio (y) = 0.17265 0.36607
# Poissons Ratio (z) = 0.20683 0.20683
#
# Static dielectric constant tensor:
#      x y z
#    x 4.264440 0.000000 0.000000 
#    y 0.000000 4.264440 0.000000 
#    z 0.000000 0.000000 4.291080 
# 
# 
# High freq. dielectric constant tensor:
#      x y z
#    x 1.944700 0.000000 0.000000 
#    y 0.000000 1.944700 0.000000 
#    z 0.000000 0.000000 1.955700 
# 
# From -- ./inp_files/3913.got.cif
#   From: 2010.03.12/outbox.cif.g09.slc.cpg/sg114_2_cif.got.tgz:3913.got - 2010.04.14 02:08:34.
