data_PCOD8309556
_publ_section_title
;
Structure prediction by ZEFSAII (Michael W. Deem and Ramdas Pophale) SiO2 
 PCOD8309556
Probable space group: P -4 M 2
;
_chemical_formula_sum "Si O2"
_cell_formula_units_Z 48
_cell_length_a 9.287788
_cell_length_b 9.287788
_cell_length_c 31.104219
_cell_angle_alpha 90.000000
_cell_angle_beta 90.000000
_cell_angle_gamma 90.000000
_cell_volume 2683.143428
_symmetry_space_group_name_H-M "P -4 M 2"
_symmetry_group_IT_number 115
_symmetry_cell_setting 'tetragonal'
loop_
_space_group_symop_operation_xyz
x,y,z
y,-x,-z
-x,-y,z
-y,x,-z
y,x,-z
-y,-x,-z
-x,y,z
x,-y,z
loop_
_atom_site_type_symbol
_atom_site_label
_atom_site_fract_x
_atom_site_fract_y
_atom_site_fract_z
Si Si1 0.168891 0.666180 0.295795
Si Si2 0.839576 0.171764 0.046755
Si Si3 0.332494 0.832853 0.128090
Si Si4 0.829216 0.837604 0.378222
Si Si5 0.167843 0.669674 0.462757
Si Si6 0.332609 0.333233 0.788648
O O1 0.206047 0.500000 0.305453
O O2 0.229205 0.760571 0.335291
O O3 0.247191 0.721480 0.252970
O O4 0.000000 0.688522 0.289146
O O5 0.741568 0.231183 0.085352
O O6 0.000000 0.232516 0.054162
O O7 0.841719 0.000000 0.046520
O O8 0.778241 0.221760 0.000000
O O9 0.500000 0.803348 0.122413
O O10 0.272661 0.751389 0.169968
O O11 0.296296 0.000000 0.134107
O O12 0.778815 0.745027 0.419039
O O13 0.000000 0.841018 0.376615
O O14 0.766932 0.000000 0.381252
O O15 0.265002 0.734999 0.500000
O O16 0.195264 0.500000 0.458764
O O17 0.000000 0.702993 0.472025
O O18 0.500000 0.306185 0.796981
O O19 0.297072 0.500000 0.780840
#
# Coordination Sequence:
#
# PCOD8309556 Si02
#       6
#     8   8   8   8   8   8
#     4   9  17  30  48  69  93 121 154 192 232 274
#     4   8  14  26  44  64  86 113 144 178 219 267
#     4   9  17  29  45  64  86 113 146 183 221 262
#     4   9  17  30  50  75 100 126 158 197 240 284
#     4  10  20  34  53  76 102 133 168 204 243 288
#     4   9  18  32  47  63  88 122 153 181 222 275
#
# _framework density 17.889465000000001
#
# number of rings (size 3 to 8) (size 9 to 14) (size 15 to 20)
#    0.000    3.000    0.000    1.500    0.000    4.333 
#    0.000    1.667    0.000    4.000    0.000    0.000 
#    0.000    0.000    0.000    0.000    0.000    0.000 
#
# Total GULP energy -595118.011637 kJ/mol
# GULP energy per Si atom -12398.291909 kJ/mol
# Density = 1.784875 g / cm^3
# Si number density = 17.889465 Si / 1000 Ang^3
#
#
#
# Elastic Constant Matrix: (Units=GPa)
#
#
# Indices 1 2 3 4 5 6 
#
# 1 61.0734 33.1974 68.6698 0.0000 0.0000 0.0000
# 2 33.1974 61.0738 68.6709 0.0000 0.0000 0.0000
# 3 68.6698 68.6709 203.9748 0.0000 0.0000 0.0000
# 4 0.0000 0.0000 0.0000 17.6634 0.0000 0.0000
# 5 0.0000 0.0000 0.0000 0.0000 17.6631 0.0000
# 6 0.0000 0.0000 0.0000 0.0000 0.0000 16.9350
#
#
#
# Elastic Compliance Matrix: (Units=1/GPa)
#
#
# Indices 1 2 3 4 5 6 
#
# 1 0.028346 -0.007527 -0.007009 0.000000 0.000000 0.000000
# 2 -0.007527 0.028346 -0.007009 0.000000 0.000000 0.000000
# 3 -0.007009 -0.007009 0.009622 0.000000 0.000000 0.000000
# 4 0.000000 0.000000 0.000000 0.056614 0.000000 0.000000
# 5 0.000000 0.000000 0.000000 0.000000 0.056615 0.000000
# 6 0.000000 0.000000 0.000000 0.000000 0.000000 0.059049
#
#
# Mechanical properties :
#
#
# Convention : Reuss Voigt Hill
#
# Bulk Modulus (GPa) = 43.05924 74.13315 58.59619
# Shear Modulus (GPa) = 17.27575 20.82456 19.05016
#
# Velocity S-wave (km/s) = 3.11093 3.41555 3.26679
# Velocity P-wave (km/s) = 6.08488 7.55540 6.85966
#
# Compressibility (1/GPa) = 0.02322382
#
# Stress axis : x y z
#
# Youngs Moduli (GPa) = 35.27877 35.27845 103.93080
#
# Poissons Ratio (x) = 0.26554 0.72842
# Poissons Ratio (y) = 0.26555 0.72845
# Poissons Ratio (z) = 0.24726 0.24727
#
# Static dielectric constant tensor:
#      x y z
#    x 3.160280 0.000000 0.000000 
#    y 0.000000 3.160280 0.000000 
#    z 0.000000 0.000000 3.659010 
# 
# 
# High freq. dielectric constant tensor:
#      x y z
#    x 1.669430 0.000000 0.000000 
#    y 0.000000 1.669430 0.000000 
#    z 0.000000 0.000000 1.709210 
# 
# From -- ./inp_files/5900.got.cif
#   From: 2010.03.12/outbox.cif.g09.slc.cpg/sg115_3_cif.got.tgz:5900.got - 2010.04.14 02:11:21.
