data_PCOD8309774
_publ_section_title
;
Structure prediction by ZEFSAII (Michael W. Deem and Ramdas Pophale) SiO2 
 PCOD8309774
Probable space group: P -4 M 2
;
_chemical_formula_sum "Si O2"
_cell_formula_units_Z 48
_cell_length_a 9.201461
_cell_length_b 9.201461
_cell_length_c 30.410712
_cell_angle_alpha 90.000000
_cell_angle_beta 90.000000
_cell_angle_gamma 90.000000
_cell_volume 2574.780242
_symmetry_space_group_name_H-M "P -4 M 2"
_symmetry_group_IT_number 115
_symmetry_cell_setting 'tetragonal'
loop_
_space_group_symop_operation_xyz
x,y,z
y,-x,-z
-x,-y,z
-y,x,-z
y,x,-z
-y,-x,-z
-x,y,z
x,-y,z
loop_
_atom_site_type_symbol
_atom_site_label
_atom_site_fract_x
_atom_site_fract_y
_atom_site_fract_z
Si Si1 0.164980 0.330418 0.660138
Si Si2 0.831013 0.168988 0.500000
Si Si3 0.169646 0.332199 0.414038
Si Si4 0.170766 0.831078 0.922165
Si Si5 0.670499 0.329502 0.000000
Si Si6 0.670351 0.163911 0.239423
Si Si7 0.830793 0.666043 0.166018
O O1 0.185960 0.500000 0.651717
O O2 0.274930 0.244899 0.629616
O O3 0.202397 0.291003 0.710381
O O4 0.000000 0.284007 0.649266
O O5 0.748984 0.229992 0.542801
O O6 0.000000 0.201527 0.507202
O O7 0.206774 0.500000 0.419630
O O8 0.000000 0.302022 0.408792
O O9 0.235176 0.785692 0.875191
O O10 0.000000 0.798864 0.922232
O O11 0.202853 0.000000 0.932824
O O12 0.247910 0.730945 0.957643
O O13 0.500000 0.297361 0.995435
O O14 0.500000 0.176501 0.231277
O O15 0.749186 0.279787 0.209054
O O16 0.722831 0.000000 0.228479
O O17 0.786414 0.500000 0.156041
O O18 0.000000 0.680375 0.175781
#
# Coordination Sequence:
#
# PCOD8309774 Si02
#       7
#     8   4   8   8   4   8   8
#     4   9  19  36  56  77 103 138 179 220 262 311
#     4   9  18  34  54  73  98 136 178 215 254 305
#     4  10  21  35  52  78 109 137 169 213 263 314
#     4  10  21  38  60  83 107 140 182 223 265 315
#     4  11  24  39  56  82 114 145 178 217 264 318
#     4   9  19  36  56  78 105 139 180 222 264 313
#     4  10  21  36  55  81 112 144 178 219 267 316
#
# _framework density 18.642367
#
# number of rings (size 3 to 8) (size 9 to 14) (size 15 to 20)
#    0.000    2.333    0.000    3.000    0.000    8.000 
#    0.000    6.667    0.000    0.000    0.000    0.000 
#    0.000    0.000    0.000    0.000    0.000    0.000 
#
# Total GULP energy -595347.300972 kJ/mol
# GULP energy per Si atom -12403.068770 kJ/mol
# Density = 1.859994 g / cm^3
# Si number density = 18.642367 Si / 1000 Ang^3
#
#
#
# Elastic Constant Matrix: (Units=GPa)
#
#
# Indices 1 2 3 4 5 6 
#
# 1 80.5751 58.0841 68.4142 0.0000 0.0000 0.0000
# 2 58.0841 80.5758 68.4144 0.0000 0.0000 0.0000
# 3 68.4142 68.4144 135.8176 0.0000 0.0000 0.0000
# 4 0.0000 0.0000 0.0000 -72.1384 0.0000 0.0000
# 5 0.0000 0.0000 0.0000 0.0000 -72.1362 0.0000
# 6 0.0000 0.0000 0.0000 0.0000 0.0000 31.7421
#
#
#
# Elastic Compliance Matrix: (Units=1/GPa)
#
#
# Indices 1 2 3 4 5 6 
#
# 1 0.029401 -0.015061 -0.007223 0.000000 0.000000 0.000000
# 2 -0.015061 0.029401 -0.007223 0.000000 0.000000 0.000000
# 3 -0.007223 -0.007223 0.014640 0.000000 0.000000 0.000000
# 4 0.000000 0.000000 0.000000 -0.013862 0.000000 0.000000
# 5 0.000000 0.000000 0.000000 0.000000 -0.013863 0.000000
# 6 0.000000 0.000000 0.000000 0.000000 0.000000 0.031504
#
#
# Mechanical properties :
#
#
# Convention : Reuss Voigt Hill
#
# Bulk Modulus (GPa) = 69.31752 76.31045 72.81398
# Shear Modulus (GPa) = 35.44998 -15.70280 9.87359
#
# Velocity S-wave (km/s) = 4.36544 -2.90542 2.30387
# Velocity P-wave (km/s) = 7.91663 5.45596 6.79855
#
# Compressibility (1/GPa) = 0.01442637
#
# Stress axis : x y z
#
# Youngs Moduli (GPa) = 34.01265 34.01302 68.30669
#
# Poissons Ratio (x) = 0.51227 0.49340
# Poissons Ratio (y) = 0.51226 0.49339
# Poissons Ratio (z) = 0.24568 0.24568
#
# Static dielectric constant tensor:
#      x y z
#    x 3.392340 0.000000 0.000000 
#    y 0.000000 3.392330 0.000000 
#    z 0.000000 0.000000 3.516120 
# 
# 
# High freq. dielectric constant tensor:
#      x y z
#    x 1.722200 0.000000 0.000000 
#    y 0.000000 1.722200 0.000000 
#    z 0.000000 0.000000 1.735130 
# 
# From -- ./inp_files/6228.got.cif
#   From: 2010.03.12/outbox.cif.g09.slc.cpg/sg115_4_cif.got.tgz:6228.got - 2010.04.14 02:11:21.
