data_PCOD8309859
_publ_section_title
;
Structure prediction by ZEFSAII (Michael W. Deem and Ramdas Pophale) SiO2 
 PCOD8309859
Probable space group: P -4 M 2
;
_chemical_formula_sum "Si O2"
_cell_formula_units_Z 48
_cell_length_a 9.165947
_cell_length_b 9.165947
_cell_length_c 30.673526
_cell_angle_alpha 90.000000
_cell_angle_beta 90.000000
_cell_angle_gamma 90.000000
_cell_volume 2577.023539
_symmetry_space_group_name_H-M "P -4 M 2"
_symmetry_group_IT_number 115
_symmetry_cell_setting 'tetragonal'
loop_
_space_group_symop_operation_xyz
x,y,z
y,-x,-z
-x,-y,z
-y,x,-z
y,x,-z
-y,-x,-z
-x,y,z
x,-y,z
loop_
_atom_site_type_symbol
_atom_site_label
_atom_site_fract_x
_atom_site_fract_y
_atom_site_fract_z
Si Si1 0.331837 0.331837 0.000000
Si Si2 0.167801 0.171765 0.327629
Si Si3 0.331559 0.170395 0.836828
Si Si4 0.170363 0.332538 0.414438
Si Si5 0.330576 0.669425 0.500000
Si Si6 0.329224 0.331652 0.251351
Si Si7 0.828202 0.332679 0.912842
O O1 0.236651 0.281560 0.958944
O O2 0.303123 0.500000 0.011782
O O3 0.222230 0.239438 0.373083
O O4 0.268829 0.233021 0.289828
O O5 0.000000 0.216014 0.318494
O O6 0.187732 0.000000 0.330256
O O7 0.500000 0.203474 0.847481
O O8 0.282362 0.251260 0.792966
O O9 0.234368 0.228990 0.875882
O O10 0.302056 0.000000 0.830473
O O11 0.214799 0.500000 0.405774
O O12 0.249872 0.270068 0.457208
O O13 0.000000 0.315028 0.422649
O O14 0.500000 0.702950 0.493638
O O15 0.500000 0.303296 0.245849
O O16 0.294479 0.500000 0.261971
O O17 0.783224 0.500000 0.903111
O O18 0.000000 0.313098 0.914725
#
# Coordination Sequence:
#
# PCOD8309859 Si02
#       7
#     4   8   8   8   4   8   8
#     4   9  18  34  56  79 106 144 186 225 264 309
#     4  10  21  36  54  78 108 141 176 215 262 315
#     4  10  21  37  58  82 107 139 179 220 263 314
#     4   9  18  33  52  73 100 136 174 212 258 312
#     4   9  18  32  50  73 100 130 168 215 262 307
#     4  10  21  37  58  82 106 136 176 220 265 314
#     4  10  21  36  55  81 112 144 178 219 267 316
#
# _framework density 18.626141000000001
#
# number of rings (size 3 to 8) (size 9 to 14) (size 15 to 20)
#    0.000    2.333    0.000    2.000    0.000    6.667 
#    0.000    3.333    0.000    0.000    0.000    0.000 
#    0.000    0.000    0.000    0.000    0.000    0.000 
#
# Total GULP energy -595419.218747 kJ/mol
# GULP energy per Si atom -12404.567057 kJ/mol
# Density = 1.858375 g / cm^3
# Si number density = 18.626141 Si / 1000 Ang^3
#
#
#
# Elastic Constant Matrix: (Units=GPa)
#
#
# Indices 1 2 3 4 5 6 
#
# 1 77.4490 44.7985 73.2767 0.0000 0.0000 0.0000
# 2 44.7985 77.4487 73.2767 0.0000 0.0000 0.0000
# 3 73.2767 73.2767 169.9515 0.0000 0.0000 0.0000
# 4 0.0000 0.0000 0.0000 -58.5985 0.0000 0.0000
# 5 0.0000 0.0000 0.0000 0.0000 -58.6317 0.0000
# 6 0.0000 0.0000 0.0000 0.0000 0.0000 26.7014
#
#
#
# Elastic Compliance Matrix: (Units=1/GPa)
#
#
# Indices 1 2 3 4 5 6 
#
# 1 0.023780 -0.006848 -0.007300 0.000000 0.000000 0.000000
# 2 -0.006848 0.023780 -0.007301 0.000000 0.000000 0.000000
# 3 -0.007300 -0.007301 0.012179 0.000000 0.000000 0.000000
# 4 0.000000 0.000000 0.000000 -0.017065 0.000000 0.000000
# 5 0.000000 0.000000 0.000000 0.000000 -0.017056 0.000000
# 6 0.000000 0.000000 0.000000 0.000000 0.000000 0.037451
#
#
# Mechanical properties :
#
#
# Convention : Reuss Voigt Hill
#
# Bulk Modulus (GPa) = 59.37622 78.61697 68.99660
# Shear Modulus (GPa) = 44.81058 -9.20593 17.80232
#
# Velocity S-wave (km/s) = 4.91021 -2.22558 3.09491
# Velocity P-wave (km/s) = 8.00587 5.97455 7.06361
#
# Compressibility (1/GPa) = 0.01684176
#
# Stress axis : x y z
#
# Youngs Moduli (GPa) = 42.05257 42.05220 82.10544
#
# Poissons Ratio (x) = 0.28796 0.59941
# Poissons Ratio (y) = 0.28796 0.59942
# Poissons Ratio (z) = 0.30700 0.30701
#
# Static dielectric constant tensor:
#      x y z
#    x 3.396790 0.000000 0.000000 
#    y 0.000000 3.396800 0.000000 
#    z 0.000000 0.000000 3.562190 
# 
# 
# High freq. dielectric constant tensor:
#      x y z
#    x 1.719370 0.000000 0.000000 
#    y 0.000000 1.719380 0.000000 
#    z 0.000000 0.000000 1.734620 
# 
# From -- ./inp_files/6144.got.cif
#   From: 2010.03.12/outbox.cif.g09.slc.cpg/sg115_4_cif.got.tgz:6144.got - 2010.04.14 02:11:21.
