data_PCOD8309860
_publ_section_title
;
Structure prediction by ZEFSAII (Michael W. Deem and Ramdas Pophale) SiO2 
 PCOD8309860
Probable space group: P -4 M 2
;
_chemical_formula_sum "Si O2"
_cell_formula_units_Z 48
_cell_length_a 9.105904
_cell_length_b 9.105904
_cell_length_c 30.856927
_cell_angle_alpha 90.000000
_cell_angle_beta 90.000000
_cell_angle_gamma 90.000000
_cell_volume 2558.578864
_symmetry_space_group_name_H-M "P -4 M 2"
_symmetry_group_IT_number 115
_symmetry_cell_setting 'tetragonal'
loop_
_space_group_symop_operation_xyz
x,y,z
y,-x,-z
-x,-y,z
-y,x,-z
y,x,-z
-y,-x,-z
-x,y,z
x,-y,z
loop_
_atom_site_type_symbol
_atom_site_label
_atom_site_fract_x
_atom_site_fract_y
_atom_site_fract_z
Si Si1 0.331681 0.327458 0.671112
Si Si2 0.829246 0.170755 0.500000
Si Si3 0.170048 0.328882 0.414791
Si Si4 0.172383 0.830379 0.922431
Si Si5 0.671453 0.328548 0.000000
Si Si6 0.674063 0.166985 0.243476
Si Si7 0.829627 0.669948 0.166314
O O1 0.500000 0.280533 0.679831
O O2 0.317193 0.500000 0.664856
O O3 0.269640 0.252777 0.627675
O O4 0.234380 0.270928 0.711146
O O5 0.750437 0.234291 0.542690
O O6 0.000000 0.204993 0.505336
O O7 0.199058 0.500000 0.421029
O O8 0.000000 0.290714 0.408678
O O9 0.244697 0.786195 0.877104
O O10 0.000000 0.800182 0.919341
O O11 0.205124 0.000000 0.934210
O O12 0.241167 0.726562 0.958400
O O13 0.500000 0.296577 0.993222
O O14 0.500000 0.174764 0.240470
O O15 0.737343 0.263942 0.205154
O O16 0.731057 0.000000 0.239889
O O17 0.788414 0.500000 0.160174
O O18 0.000000 0.691207 0.177188
#
# Coordination Sequence:
#
# PCOD8309860 Si02
#       7
#     8   4   8   8   4   8   8
#     4   9  18  33  51  71  98 132 168 208 255 305
#     4   9  18  32  48  67  94 126 158 195 244 300
#     4   9  18  32  49  70  96 126 162 204 249 299
#     4  10  21  38  60  84 110 142 180 222 269 318
#     4  11  24  39  56  82 114 147 184 223 264 314
#     4  10  21  36  54  78 108 141 177 217 263 315
#     4  10  21  37  58  83 110 142 180 221 266 316
#
# _framework density 18.760414999999998
#
# number of rings (size 3 to 8) (size 9 to 14) (size 15 to 20)
#    0.000    2.333    0.000    2.000    0.000    7.333 
#    0.000    1.667    0.000    0.000    0.000    0.000 
#    0.000    0.000    0.000    0.000    0.000    0.000 
#
# Total GULP energy -595364.176647 kJ/mol
# GULP energy per Si atom -12403.420347 kJ/mol
# Density = 1.871772 g / cm^3
# Si number density = 18.760415 Si / 1000 Ang^3
#
#
#
# Elastic Constant Matrix: (Units=GPa)
#
#
# Indices 1 2 3 4 5 6 
#
# 1 70.2968 38.6663 62.3028 0.0000 0.0000 0.0000
# 2 38.6663 70.2968 62.3027 0.0000 0.0000 0.0000
# 3 62.3028 62.3027 163.4196 0.0000 0.0000 0.0000
# 4 0.0000 0.0000 0.0000 40.7662 0.0000 0.0000
# 5 0.0000 0.0000 0.0000 0.0000 40.7664 0.0000
# 6 0.0000 0.0000 0.0000 0.0000 0.0000 26.1268
#
#
#
# Elastic Compliance Matrix: (Units=1/GPa)
#
#
# Indices 1 2 3 4 5 6 
#
# 1 0.023943 -0.007672 -0.006203 0.000000 0.000000 0.000000
# 2 -0.007672 0.023943 -0.006203 0.000000 0.000000 0.000000
# 3 -0.006203 -0.006203 0.010849 0.000000 0.000000 0.000000
# 4 0.000000 0.000000 0.000000 0.024530 0.000000 0.000000
# 5 0.000000 0.000000 0.000000 0.000000 0.024530 0.000000
# 6 0.000000 0.000000 0.000000 0.000000 0.000000 0.038275
#
#
# Mechanical properties :
#
#
# Convention : Reuss Voigt Hill
#
# Bulk Modulus (GPa) = 53.82588 70.06185 61.94386
# Shear Modulus (GPa) = 25.98478 30.91465 28.44971
#
# Velocity S-wave (km/s) = 3.72571 4.06380 3.89842
# Velocity P-wave (km/s) = 6.87469 7.71012 7.30436
#
# Compressibility (1/GPa) = 0.01857842
#
# Stress axis : x y z
#
# Youngs Moduli (GPa) = 41.76556 41.76564 92.17286
#
# Poissons Ratio (x) = 0.32042 0.57178
# Poissons Ratio (y) = 0.32042 0.57178
# Poissons Ratio (z) = 0.25909 0.25909
#
# Static dielectric constant tensor:
#      x y z
#    x 3.384730 0.000000 0.000000 
#    y 0.000000 3.384740 0.000000 
#    z 0.000000 0.000000 3.691840 
# 
# 
# High freq. dielectric constant tensor:
#      x y z
#    x 1.725520 0.000000 0.000000 
#    y 0.000000 1.725520 0.000000 
#    z 0.000000 0.000000 1.743280 
# 
# From -- ./inp_files/6227.got.cif
#   From: 2010.03.12/outbox.cif.g09.slc.cpg/sg115_4_cif.got.tgz:6227.got - 2010.04.14 02:11:21.
