data_PCOD8309705
_publ_section_title
;
Structure prediction by ZEFSAII (Michael W. Deem and Ramdas Pophale) SiO2 
 PCOD8309705
Probable space group: P -4 M 2
;
_chemical_formula_sum "Si O2"
_cell_formula_units_Z 56
_cell_length_a 15.574572
_cell_length_b 15.574572
_cell_length_c 11.550024
_cell_angle_alpha 90.000000
_cell_angle_beta 90.000000
_cell_angle_gamma 90.000000
_cell_volume 2801.658056
_symmetry_space_group_name_H-M "P -4 M 2"
_symmetry_group_IT_number 115
_symmetry_cell_setting 'tetragonal'
loop_
_space_group_symop_operation_xyz
x,y,z
y,-x,-z
-x,-y,z
-y,x,-z
y,x,-z
-y,-x,-z
-x,y,z
x,-y,z
loop_
_atom_site_type_symbol
_atom_site_label
_atom_site_fract_x
_atom_site_fract_y
_atom_site_fract_z
Si Si1 0.904841 0.182477 0.741597
Si Si2 0.155686 0.597614 0.115102
Si Si3 0.096795 0.722834 0.302047
Si Si4 0.340645 0.095446 0.120745
Si Si5 0.350231 0.593998 0.119908
Si Si6 0.246007 0.597187 0.725908
Si Si7 0.711354 0.156662 0.454060
O O1 0.823849 0.120955 0.717071
O O2 0.889319 0.237912 0.858989
O O3 0.910260 0.254907 0.641351
O O4 0.000000 0.136069 0.744957
O O5 0.124521 0.500000 0.142364
O O6 0.152886 0.658547 0.226529
O O7 0.253313 0.598842 0.074870
O O8 0.098746 0.639808 0.015047
O O9 0.105245 0.682867 0.431542
O O10 0.000000 0.715028 0.260876
O O11 0.396956 0.166414 0.186105
O O12 0.365915 0.000000 0.164997
O O13 0.369023 0.500000 0.176720
O O14 0.367655 0.667230 0.215035
O O15 0.402170 0.597831 0.000000
O O16 0.262916 0.500000 0.691909
O O17 0.222392 0.644008 0.605053
O O18 0.790564 0.209437 0.500000
#
# Coordination Sequence:
#
# PCOD8309705 Si02
#       7
#     8   8   8   8   8   8   8
#     4   9  19  36  60  85 111 150 195 245 306 370
#     4  11  23  38  57  83 118 160 204 251 307 370
#     4  11  23  37  58  88 120 157 200 253 312 369
#     4  10  20  36  58  84 115 153 201 250 298 360
#     4  11  22  37  60  90 124 158 198 249 311 380
#     4  11  22  37  59  87 117 154 197 247 308 366
#     4   9  19  38  58  78 109 151 197 242 290 357
#
# _framework density 19.988163
#
# number of rings (size 3 to 8) (size 9 to 14) (size 15 to 20)
#    0.000    1.714    1.429    4.286    0.000    4.429 
#    0.000    0.714    0.000    2.571    0.000    2.000 
#    0.000    0.000    0.000    0.000    0.000    0.000 
#
# Total GULP energy -693812.348814 kJ/mol
# GULP energy per Si atom -12389.506229 kJ/mol
# Density = 1.994267 g / cm^3
# Si number density = 19.988163 Si / 1000 Ang^3
#
#
#
# Elastic Constant Matrix: (Units=GPa)
#
#
# Indices 1 2 3 4 5 6 
#
# 1 106.6669 29.2948 31.0343 0.0000 0.0000 0.0000
# 2 29.2948 106.6674 31.0349 0.0000 0.0000 0.0000
# 3 31.0343 31.0349 75.4339 0.0000 0.0000 0.0000
# 4 0.0000 0.0000 0.0000 21.5996 0.0000 0.0000
# 5 0.0000 0.0000 0.0000 0.0000 21.5989 0.0000
# 6 0.0000 0.0000 0.0000 0.0000 0.0000 15.0451
#
#
#
# Elastic Compliance Matrix: (Units=1/GPa)
#
#
# Indices 1 2 3 4 5 6 
#
# 1 0.010990 -0.001934 -0.003726 0.000000 0.000000 0.000000
# 2 -0.001934 0.010990 -0.003726 0.000000 0.000000 0.000000
# 3 -0.003726 -0.003726 0.016322 0.000000 0.000000 0.000000
# 4 0.000000 0.000000 0.000000 0.046297 0.000000 0.000000
# 5 0.000000 0.000000 0.000000 0.000000 0.046299 0.000000
# 6 0.000000 0.000000 0.000000 0.000000 0.000000 0.066467
#
#
# Mechanical properties :
#
#
# Convention : Reuss Voigt Hill
#
# Bulk Modulus (GPa) = 51.20030 52.38845 51.79437
# Shear Modulus (GPa) = 22.45704 24.80899 23.63301
#
# Velocity S-wave (km/s) = 3.35553 3.52687 3.44226
# Velocity P-wave (km/s) = 6.37837 6.54612 6.46279
#
# Compressibility (1/GPa) = 0.01953114
#
# Stress axis : x y z
#
# Youngs Moduli (GPa) = 90.99031 90.99025 61.26597
#
# Poissons Ratio (x) = 0.17600 0.22826
# Poissons Ratio (y) = 0.17600 0.22826
# Poissons Ratio (z) = 0.33900 0.33901
#
# Static dielectric constant tensor:
#      x y z
#    x 3.599200 0.000000 0.000000 
#    y 0.000000 3.599200 0.000000 
#    z 0.000000 0.000000 4.177430 
# 
# 
# High freq. dielectric constant tensor:
#      x y z
#    x 1.777110 0.000000 0.000000 
#    y 0.000000 1.777110 0.000000 
#    z 0.000000 0.000000 1.771110 
# 
# From -- ./inp_files/3073.got.cif
#   From: 2010.03.12/outbox.cif.g09.slc.cpg/sg115_2_cif.got.tgz:3073.got - 2010.04.14 02:11:21.
