data_PCOD8309865
_publ_section_title
;
Structure prediction by ZEFSAII (Michael W. Deem and Ramdas Pophale) SiO2 
 PCOD8309865
Probable space group: P -4 M 2
;
_chemical_formula_sum "Si O2"
_cell_formula_units_Z 40
_cell_length_a 9.335506
_cell_length_b 9.335506
_cell_length_c 25.274420
_cell_angle_alpha 90.000000
_cell_angle_beta 90.000000
_cell_angle_gamma 90.000000
_cell_volume 2202.707969
_symmetry_space_group_name_H-M "P -4 M 2"
_symmetry_group_IT_number 115
_symmetry_cell_setting 'tetragonal'
loop_
_space_group_symop_operation_xyz
x,y,z
y,-x,-z
-x,-y,z
-y,x,-z
y,x,-z
-y,-x,-z
-x,y,z
x,-y,z
loop_
_atom_site_type_symbol
_atom_site_label
_atom_site_fract_x
_atom_site_fract_y
_atom_site_fract_z
Si Si1 0.168007 0.163276 0.263466
Si Si2 0.839594 0.831750 0.856764
Si Si3 0.660157 0.330388 0.058509
Si Si4 0.665873 0.831502 0.455308
Si Si5 0.335012 0.666842 0.650172
O O1 0.210602 0.199825 0.203226
O O2 0.249771 0.275584 0.299618
O O3 0.000000 0.182972 0.272492
O O4 0.212958 0.000000 0.277097
O O5 0.729949 0.761650 0.896696
O O6 0.000000 0.779165 0.869893
O O7 0.828329 0.000000 0.863901
O O8 0.500000 0.271388 0.067896
O O9 0.661000 0.500000 0.062379
O O10 0.715301 0.284700 0.000000
O O11 0.766529 0.766529 0.500000
O O12 0.500000 0.799185 0.468930
O O13 0.711117 0.756812 0.400790
O O14 0.694862 0.000000 0.450284
O O15 0.500000 0.709475 0.640306
O O16 0.318772 0.500000 0.662291
#
# Coordination Sequence:
#
# PCOD8309865 Si02
#       5
#     8   8   8   8   8
#     4   9  19  36  55  75 103 138 173 211 256 305
#     4   9  19  35  53  75 103 134 170 212 257 305
#     4   9  19  35  52  72 101 135 170 210 256 306
#     4  10  21  37  57  80 106 138 175 213 255 304
#     4  10  21  36  55  80 108 138 173 213 257 304
#
# _framework density 18.159466999999999
#
# number of rings (size 3 to 8) (size 9 to 14) (size 15 to 20)
#    0.000    2.600    0.000    3.000    0.000    6.800 
#    0.000    9.000    0.000    0.000    0.000    0.000 
#    0.000    0.000    0.000    0.000    0.000    0.000 
#
# Total GULP energy -496018.435165 kJ/mol
# GULP energy per Si atom -12400.460879 kJ/mol
# Density = 1.811814 g / cm^3
# Si number density = 18.159467 Si / 1000 Ang^3
#
#
#
# Elastic Constant Matrix: (Units=GPa)
#
#
# Indices 1 2 3 4 5 6 
#
# 1 71.9341 43.2436 64.1136 0.0000 0.0000 0.0000
# 2 43.2436 71.9340 64.1135 0.0000 0.0000 0.0000
# 3 64.1136 64.1135 133.4521 0.0000 0.0000 0.0000
# 4 0.0000 0.0000 0.0000 38.8025 0.0000 0.0000
# 5 0.0000 0.0000 0.0000 0.0000 38.8024 0.0000
# 6 0.0000 0.0000 0.0000 0.0000 0.0000 34.0583
#
#
#
# Elastic Compliance Matrix: (Units=1/GPa)
#
#
# Indices 1 2 3 4 5 6 
#
# 1 0.026760 -0.008095 -0.008967 0.000000 0.000000 0.000000
# 2 -0.008095 0.026760 -0.008967 0.000000 0.000000 0.000000
# 3 -0.008967 -0.008967 0.016110 0.000000 0.000000 0.000000
# 4 0.000000 0.000000 0.000000 0.025772 0.000000 0.000000
# 5 0.000000 0.000000 0.000000 0.000000 0.025772 0.000000
# 6 0.000000 0.000000 0.000000 0.000000 0.000000 0.029361
#
#
# Mechanical properties :
#
#
# Convention : Reuss Voigt Hill
#
# Bulk Modulus (GPa) = 56.91106 68.91795 62.91450
# Shear Modulus (GPa) = 23.98649 29.38926 26.68787
#
# Velocity S-wave (km/s) = 3.63833 4.02730 3.83775
# Velocity P-wave (km/s) = 7.00411 7.72395 7.37282
#
# Compressibility (1/GPa) = 0.01757128
#
# Stress axis : x y z
#
# Youngs Moduli (GPa) = 37.36886 37.36891 62.07451
#
# Poissons Ratio (x) = 0.30248 0.55665
# Poissons Ratio (y) = 0.30248 0.55665
# Poissons Ratio (z) = 0.33510 0.33510
#
# Static dielectric constant tensor:
#      x y z
#    x 3.309940 0.000000 0.000000 
#    y 0.000000 3.309940 0.000000 
#    z 0.000000 0.000000 3.415510 
# 
# 
# High freq. dielectric constant tensor:
#      x y z
#    x 1.701130 0.000000 0.000000 
#    y 0.000000 1.701130 0.000000 
#    z 0.000000 0.000000 1.712910 
# 
# From -- ./inp_files/5052.got.cif
#   From: 2010.03.12/outbox.cif.g09.slc.cpg/sg115_3_cif.got.tgz:5052.got - 2010.04.14 02:11:21.
