data_PCOD8309249
_publ_section_title
;
Structure prediction by ZEFSAII (Michael W. Deem and Ramdas Pophale) SiO2 
 PCOD8309249
Probable space group: P -4 M 2
;
_chemical_formula_sum "Si O2"
_cell_formula_units_Z 48
_cell_length_a 14.702519
_cell_length_b 14.702519
_cell_length_c 11.264927
_cell_angle_alpha 90.000000
_cell_angle_beta 90.000000
_cell_angle_gamma 90.000000
_cell_volume 2435.072412
_symmetry_space_group_name_H-M "P -4 M 2"
_symmetry_group_IT_number 115
_symmetry_cell_setting 'tetragonal'
loop_
_space_group_symop_operation_xyz
x,y,z
y,-x,-z
-x,-y,z
-y,x,-z
y,x,-z
-y,-x,-z
-x,y,z
x,-y,z
loop_
_atom_site_type_symbol
_atom_site_label
_atom_site_fract_x
_atom_site_fract_y
_atom_site_fract_z
Si Si1 0.660482 0.393612 0.368874
Si Si2 0.275663 0.101513 0.075031
Si Si3 0.603618 0.769508 0.222871
Si Si4 0.186126 0.897236 0.835664
Si Si5 0.725108 0.832380 0.595985
Si Si6 0.097409 0.398946 0.576695
O O1 0.615423 0.384578 0.500000
O O2 0.659382 0.500000 0.332910
O O3 0.611268 0.336654 0.261262
O O4 0.760405 0.352669 0.370383
O O5 0.336166 0.188783 0.116008
O O6 0.174523 0.107266 0.131962
O O7 0.314536 0.000000 0.107427
O O8 0.267122 0.110166 0.932774
O O9 0.500000 0.792537 0.190540
O O10 0.639785 0.825092 0.336965
O O11 0.225271 0.872038 0.708600
O O12 0.146247 0.000000 0.833188
O O13 0.797137 0.797137 0.500000
O O14 0.667216 0.912499 0.535283
O O15 0.125686 0.500000 0.535326
O O16 0.000000 0.400778 0.642968
#
# Coordination Sequence:
#
# PCOD8309249 Si02
#       6
#     8   8   8   8   8   8
#     4  11  21  35  57  85 122 163 205 253 306 359
#     4  10  21  39  62  87 117 155 200 250 297 349
#     4  11  21  36  57  85 118 155 203 251 300 357
#     4  10  21  38  63  89 118 154 197 245 296 358
#     4  11  19  34  56  83 117 153 189 238 295 362
#     4  10  19  31  50  77 110 147 189 237 289 349
#
# _framework density 19.711940999999999
#
# number of rings (size 3 to 8) (size 9 to 14) (size 15 to 20)
#    0.000    1.500    5.000    2.000    0.000    2.500 
#    0.000    4.167    0.000    2.000    0.000    0.000 
#    0.000    0.000    0.000    0.000    0.000    0.000 
#
# Total GULP energy -594626.483529 kJ/mol
# GULP energy per Si atom -12388.051740 kJ/mol
# Density = 1.966708 g / cm^3
# Si number density = 19.711941 Si / 1000 Ang^3
#
#
#
# Elastic Constant Matrix: (Units=GPa)
#
#
# Indices 1 2 3 4 5 6 
#
# 1 93.3230 14.4512 28.9399 0.0000 0.0000 0.0000
# 2 14.4512 93.3230 28.9401 0.0000 0.0000 0.0000
# 3 28.9399 28.9401 91.1898 0.0000 0.0000 0.0000
# 4 0.0000 0.0000 0.0000 19.9126 0.0000 0.0000
# 5 0.0000 0.0000 0.0000 0.0000 19.9127 0.0000
# 6 0.0000 0.0000 0.0000 0.0000 0.0000 21.4274
#
#
#
# Elastic Compliance Matrix: (Units=1/GPa)
#
#
# Indices 1 2 3 4 5 6 
#
# 1 0.011932 -0.000747 -0.003550 0.000000 0.000000 0.000000
# 2 -0.000747 0.011932 -0.003550 0.000000 0.000000 0.000000
# 3 -0.003550 -0.003550 0.013219 0.000000 0.000000 0.000000
# 4 0.000000 0.000000 0.000000 0.050219 0.000000 0.000000
# 5 0.000000 0.000000 0.000000 0.000000 0.050219 0.000000
# 6 0.000000 0.000000 0.000000 0.000000 0.000000 0.046669
#
#
# Mechanical properties :
#
#
# Convention : Reuss Voigt Hill
#
# Bulk Modulus (GPa) = 46.74974 46.94427 46.84700
# Shear Modulus (GPa) = 24.15301 25.95084 25.05192
#
# Velocity S-wave (km/s) = 3.50422 3.63230 3.56884
# Velocity P-wave (km/s) = 6.33567 6.43881 6.38745
#
# Compressibility (1/GPa) = 0.02139049
#
# Stress axis : x y z
#
# Youngs Moduli (GPa) = 83.80892 83.80887 75.64759
#
# Poissons Ratio (x) = 0.06260 0.26852
# Poissons Ratio (y) = 0.06260 0.26853
# Poissons Ratio (z) = 0.29749 0.29750
#
# Static dielectric constant tensor:
#      x y z
#    x 3.660290 0.000000 0.000000 
#    y 0.000000 3.660290 0.000000 
#    z 0.000000 0.000000 3.529930 
# 
# 
# High freq. dielectric constant tensor:
#      x y z
#    x 1.766140 0.000000 0.000000 
#    y 0.000000 1.766140 0.000000 
#    z 0.000000 0.000000 1.747640 
# 
# From -- ./inp_files/2984.got.cif
#   From: 2010.03.12/outbox.cif.g09.slc.cpg/sg115_2_cif.got.tgz:2984.got - 2010.04.14 02:11:21.
