data_PCOD8309724
_publ_section_title
;
Structure prediction by ZEFSAII (Michael W. Deem and Ramdas Pophale) SiO2 
 PCOD8309724
Probable space group: P -4 M 2
;
_chemical_formula_sum "Si O2"
_cell_formula_units_Z 34
_cell_length_a 9.307818
_cell_length_b 9.307818
_cell_length_c 19.679555
_cell_angle_alpha 90.000000
_cell_angle_beta 90.000000
_cell_angle_gamma 90.000000
_cell_volume 1704.947613
_symmetry_space_group_name_H-M "P -4 M 2"
_symmetry_group_IT_number 115
_symmetry_cell_setting 'tetragonal'
loop_
_space_group_symop_operation_xyz
x,y,z
y,-x,-z
-x,-y,z
-y,x,-z
y,x,-z
-y,-x,-z
-x,y,z
x,-y,z
loop_
_atom_site_type_symbol
_atom_site_label
_atom_site_fract_x
_atom_site_fract_y
_atom_site_fract_z
Si Si1 0.331413 0.668588 0.000000
Si Si2 0.000000 0.500000 0.477099
Si Si3 0.798036 0.000000 0.462999
Si Si4 0.500000 0.837426 0.653164
Si Si5 0.276628 0.326097 0.736606
Si Si6 0.000000 0.834678 0.695671
Si Si7 0.336529 0.840327 0.871479
O O1 0.243110 0.731762 0.064375
O O2 0.500000 0.696371 0.012880
O O3 0.000000 0.628976 0.529674
O O4 0.141515 0.500000 0.428606
O O5 0.841908 0.000000 0.385122
O O6 0.859695 0.859695 0.500000
O O7 0.635847 0.743528 0.674495
O O8 0.500000 0.000000 0.687042
O O9 0.282799 0.500000 0.734486
O O10 0.333488 0.266650 0.807634
O O11 0.122558 0.261166 0.727079
O O12 0.000000 0.000000 0.722392
O O13 0.500000 0.867466 0.889889
O O14 0.265236 0.000000 0.859321
#
# Coordination Sequence:
#
# PCOD8309724 Si02
#       7
#     4   2   4   4   8   4   8
#     4   9  18  34  58  85 118 156 212 271 318 374
#     4  10  24  40  66  94 122 166 218 266 318 388
#     4  11  22  43  68  91 120 169 215 259 316 395
#     4  10  21  39  64  94 127 172 215 258 320 396
#     4  12  24  39  64  98 131 168 213 276 327 387
#     4  12  25  43  66  92 126 167 219 268 331 392
#     4  10  20  37  62  91 123 171 217 260 320 393
#
# _framework density 19.941960999999999
#
# number of rings (size 3 to 8) (size 9 to 14) (size 15 to 20)
#    0.353    0.941    2.353    4.941    1.647    0.941 
#    2.118    0.000    0.000    0.000    0.000    0.000 
#    0.000    0.000    0.000    0.000    0.000    0.000 
#
# Total GULP energy -421253.393721 kJ/mol
# GULP energy per Si atom -12389.805698 kJ/mol
# Density = 1.989657 g / cm^3
# Si number density = 19.941961 Si / 1000 Ang^3
#
#
#
# Elastic Constant Matrix: (Units=GPa)
#
#
# Indices 1 2 3 4 5 6 
#
# 1 131.4207 31.2361 7.3814 0.0000 0.0000 0.0000
# 2 31.2361 131.4201 7.3815 0.0000 0.0000 0.0000
# 3 7.3814 7.3815 53.2627 0.0000 0.0000 0.0000
# 4 0.0000 0.0000 0.0000 25.1531 0.0000 0.0000
# 5 0.0000 0.0000 0.0000 0.0000 25.1529 0.0000
# 6 0.0000 0.0000 0.0000 0.0000 0.0000 30.9498
#
#
#
# Elastic Compliance Matrix: (Units=1/GPa)
#
#
# Indices 1 2 3 4 5 6 
#
# 1 0.008104 -0.001878 -0.000863 0.000000 0.000000 0.000000
# 2 -0.001878 0.008104 -0.000863 0.000000 0.000000 0.000000
# 3 -0.000863 -0.000863 0.019014 0.000000 0.000000 0.000000
# 4 0.000000 0.000000 0.000000 0.039756 0.000000 0.000000
# 5 0.000000 0.000000 0.000000 0.000000 0.039757 0.000000
# 6 0.000000 0.000000 0.000000 0.000000 0.000000 0.032310
#
#
# Mechanical properties :
#
#
# Convention : Reuss Voigt Hill
#
# Bulk Modulus (GPa) = 35.69514 45.34462 40.51988
# Shear Modulus (GPa) = 30.56408 34.25814 32.41111
#
# Velocity S-wave (km/s) = 3.91916 4.14924 4.03584
# Velocity P-wave (km/s) = 6.19823 6.76333 6.48694
#
# Compressibility (1/GPa) = 0.02801502
#
# Stress axis : x y z
#
# Youngs Moduli (GPa) = 123.39734 123.39669 52.59279
#
# Poissons Ratio (x) = 0.23170 0.04538
# Poissons Ratio (y) = 0.23170 0.04538
# Poissons Ratio (z) = 0.10647 0.10648
#
# Static dielectric constant tensor:
#      x y z
#    x 3.624350 0.000000 0.000000 
#    y 0.000000 3.624360 0.000000 
#    z 0.000000 0.000000 3.576410 
# 
# 
# High freq. dielectric constant tensor:
#      x y z
#    x 1.776790 0.000000 0.000000 
#    y 0.000000 1.776790 0.000000 
#    z 0.000000 0.000000 1.776900 
# 
# From -- ./inp_files/4745.got.cif
#   From: 2010.03.12/outbox.cif.g09.slc.cpg/sg115_3_cif.got.tgz:4745.got - 2010.04.14 02:11:21.
