data_PCOD8309487
_publ_section_title
;
Structure prediction by ZEFSAII (Michael W. Deem and Ramdas Pophale) SiO2 
 PCOD8309487
Probable space group: P -4 M 2
;
_chemical_formula_sum "Si O2"
_cell_formula_units_Z 48
_cell_length_a 9.088382
_cell_length_b 9.088382
_cell_length_c 30.758663
_cell_angle_alpha 90.000000
_cell_angle_beta 90.000000
_cell_angle_gamma 90.000000
_cell_volume 2540.625189
_symmetry_space_group_name_H-M "P -4 M 2"
_symmetry_group_IT_number 115
_symmetry_cell_setting 'tetragonal'
loop_
_space_group_symop_operation_xyz
x,y,z
y,-x,-z
-x,-y,z
-y,x,-z
y,x,-z
-y,-x,-z
-x,y,z
x,-y,z
loop_
_atom_site_type_symbol
_atom_site_label
_atom_site_fract_x
_atom_site_fract_y
_atom_site_fract_z
Si Si1 0.669065 0.827624 0.538426
Si Si2 0.169172 0.173120 0.295202
Si Si3 0.325512 0.337387 0.121563
Si Si4 0.668581 0.673702 0.218522
Si Si5 0.833846 0.674758 0.961374
Si Si6 0.329877 0.328033 0.626887
O O1 0.771287 0.771287 0.500000
O O2 0.500000 0.788503 0.527644
O O3 0.720128 0.749322 0.582526
O O4 0.692786 0.000000 0.544510
O O5 0.223134 0.241667 0.250255
O O6 0.266025 0.233163 0.334393
O O7 0.000000 0.217428 0.302768
O O8 0.190400 0.000000 0.292600
O O9 0.500000 0.347278 0.119564
O O10 0.259457 0.500000 0.112775
O O11 0.281007 0.282419 0.169680
O O12 0.265189 0.227378 0.084733
O O13 0.500000 0.721919 0.227288
O O14 0.684164 0.500000 0.225745
O O15 0.824227 0.500000 0.963244
O O16 0.000000 0.731215 0.966141
O O17 0.736915 0.736915 0.000000
O O18 0.500000 0.294722 0.637204
O O19 0.299453 0.500000 0.621980
#
# Coordination Sequence:
#
# PCOD8309487 Si02
#       6
#     8   8   8   8   8   8
#     4  10  21  37  58  84 113 146 182 220 266 318
#     4  11  24  38  52  76 111 147 181 217 261 315
#     4   8  15  30  53  79 104 131 168 216 264 309
#     4   9  18  34  57  83 107 133 171 217 264 316
#     4  10  20  33  51  76 104 136 175 216 260 312
#     4  10  21  38  61  85 107 137 181 229 272 315
#
# _framework density 18.892989
#
# number of rings (size 3 to 8) (size 9 to 14) (size 15 to 20)
#    0.000    2.333    0.000    3.500    0.000    8.000 
#    0.000    2.500    0.000    1.000    0.000    0.000 
#    0.000    0.000    0.000    0.000    0.000    0.000 
#
# Total GULP energy -595271.630118 kJ/mol
# GULP energy per Si atom -12401.492294 kJ/mol
# Density = 1.884999 g / cm^3
# Si number density = 18.892989 Si / 1000 Ang^3
#
#
#
# Elastic Constant Matrix: (Units=GPa)
#
#
# Indices 1 2 3 4 5 6 
#
# 1 64.3586 36.5192 51.1856 0.0000 0.0000 0.0000
# 2 36.5192 64.3586 51.1856 0.0000 0.0000 0.0000
# 3 51.1856 51.1856 147.6388 0.0000 0.0000 0.0000
# 4 0.0000 0.0000 0.0000 -11.6285 0.0000 0.0000
# 5 0.0000 0.0000 0.0000 0.0000 -11.6285 0.0000
# 6 0.0000 0.0000 0.0000 0.0000 0.0000 26.6350
#
#
#
# Elastic Compliance Matrix: (Units=1/GPa)
#
#
# Indices 1 2 3 4 5 6 
#
# 1 0.025607 -0.010313 -0.005302 0.000000 0.000000 0.000000
# 2 -0.010313 0.025607 -0.005302 0.000000 0.000000 0.000000
# 3 -0.005302 -0.005302 0.010450 0.000000 0.000000 0.000000
# 4 0.000000 0.000000 0.000000 -0.085996 0.000000 0.000000
# 5 0.000000 0.000000 0.000000 0.000000 -0.085996 0.000000
# 6 0.000000 0.000000 0.000000 0.000000 0.000000 0.037545
#
#
# Mechanical properties :
#
#
# Convention : Reuss Voigt Hill
#
# Bulk Modulus (GPa) = 50.43311 61.57077 56.00194
# Shear Modulus (GPa) = -205.43911 9.83998 -97.79957
#
# Velocity S-wave (km/s) = -10.43908 2.28464 -7.20260
# Velocity P-wave (km/s) = 10.88793 6.29439 6.28203
#
# Compressibility (1/GPa) = 0.01982824
#
# Stress axis : x y z
#
# Youngs Moduli (GPa) = 39.05182 39.05182 95.69548
#
# Poissons Ratio (x) = 0.40275 0.50740
# Poissons Ratio (y) = 0.40275 0.50740
# Poissons Ratio (z) = 0.20706 0.20706
#
# Static dielectric constant tensor:
#      x y z
#    x 3.416790 0.000000 0.000000 
#    y 0.000000 3.416790 0.000000 
#    z 0.000000 0.000000 3.709270 
# 
# 
# High freq. dielectric constant tensor:
#      x y z
#    x 1.723350 0.000000 0.000000 
#    y 0.000000 1.723350 0.000000 
#    z 0.000000 0.000000 1.750620 
# 
# From -- ./inp_files/5924.got.cif
#   From: 2010.03.12/outbox.cif.g09.slc.cpg/sg115_3_cif.got.tgz:5924.got - 2010.04.14 02:11:21.
