data_PCOD8309028
_publ_section_title
;
Structure prediction by ZEFSAII (Michael W. Deem and Ramdas Pophale) SiO2 
 PCOD8309028
Probable space group: P -4 21 C
;
_chemical_formula_sum "Si O2"
_cell_formula_units_Z 32
_cell_length_a 8.553327
_cell_length_b 8.553327
_cell_length_c 18.881417
_cell_angle_alpha 90.000000
_cell_angle_beta 90.000000
_cell_angle_gamma 90.000000
_cell_volume 1381.353191
_symmetry_space_group_name_H-M "P -4 21 C"
_symmetry_group_IT_number 114
_symmetry_cell_setting 'tetragonal'
loop_
_space_group_symop_operation_xyz
x,y,z
y,-x,-z
-x,-y,z
-y,x,-z
1/2+x,1/2-y,1/2-z
1/2-x,1/2+y,1/2-z
1/2-y,1/2-x,1/2+z
1/2+y,1/2+x,1/2+z
loop_
_atom_site_type_symbol
_atom_site_label
_atom_site_fract_x
_atom_site_fract_y
_atom_site_fract_z
Si Si1 0.101453 0.844066 0.588107
Si Si2 0.667628 0.683736 0.518686
Si Si3 0.820818 0.707430 0.661436
Si Si4 0.322662 0.980453 0.700134
O O1 0.179507 0.774760 0.516361
O O2 0.988670 0.714693 0.622703
O O3 0.240240 0.866662 0.644177
O O4 0.000000 0.000000 0.570888
O O5 0.719409 0.514500 0.491071
O O6 0.688606 0.681199 0.602841
O O7 0.779490 0.863777 0.703563
O O8 0.820810 0.572170 0.718732
O O9 0.500000 0.000000 0.673618
#
# Coordination Sequence:
#
# PCOD8309028 Si02
#       4
#     8   8   8   8
#     4  10  25  46  73 108 146 188 244 299 370 438
#     4  11  27  48  73 105 147 194 244 306 367 440
#     4  11  26  44  75 107 143 192 237 308 354 441
#     4  11  24  45  70 108 142 190 238 297 362 431
#
# _framework density 23.165690999999999
#
# number of rings (size 3 to 8) (size 9 to 14) (size 15 to 20)
#    0.000    1.250    0.000    3.000   14.000    0.000 
#    9.000    0.000    0.000    0.000    0.000    0.000 
#    0.000    0.000    0.000    0.000    0.000    0.000 
#
# Total GULP energy -396876.016168 kJ/mol
# GULP energy per Si atom -12402.375505 kJ/mol
# Density = 2.311297 g / cm^3
# Si number density = 23.165691 Si / 1000 Ang^3
#
#
#
# Elastic Constant Matrix: (Units=GPa)
#
#
# Indices 1 2 3 4 5 6 
#
# 1 110.1111 20.9972 40.0928 0.0000 0.0000 0.0000
# 2 20.9972 110.1111 40.0928 0.0000 0.0000 0.0000
# 3 40.0928 40.0928 112.1235 0.0000 0.0000 0.0000
# 4 0.0000 0.0000 0.0000 35.0249 0.0000 0.0000
# 5 0.0000 0.0000 0.0000 0.0000 35.0249 0.0000
# 6 0.0000 0.0000 0.0000 0.0000 0.0000 36.1704
#
#
#
# Elastic Compliance Matrix: (Units=1/GPa)
#
#
# Indices 1 2 3 4 5 6 
#
# 1 0.010492 -0.000730 -0.003491 0.000000 0.000000 0.000000
# 2 -0.000730 0.010492 -0.003491 0.000000 0.000000 0.000000
# 3 -0.003491 -0.003491 0.011415 0.000000 0.000000 0.000000
# 4 0.000000 0.000000 0.000000 0.028551 0.000000 0.000000
# 5 0.000000 0.000000 0.000000 0.000000 0.028551 0.000000
# 6 0.000000 0.000000 0.000000 0.000000 0.000000 0.027647
#
#
# Mechanical properties :
#
#
# Convention : Reuss Voigt Hill
#
# Bulk Modulus (GPa) = 58.90456 59.41235 59.15846
# Shear Modulus (GPa) = 36.17176 36.65488 36.41332
#
# Velocity S-wave (km/s) = 3.95579 3.98212 3.96898
# Velocity P-wave (km/s) = 6.80787 6.84437 6.82614
#
# Compressibility (1/GPa) = 0.01697661
#
# Stress axis : x y z
#
# Youngs Moduli (GPa) = 95.31155 95.31155 87.60281
#
# Poissons Ratio (x) = 0.06955 0.30580
# Poissons Ratio (y) = 0.06955 0.30580
# Poissons Ratio (z) = 0.33271 0.33271
#
# Static dielectric constant tensor:
#      x y z
#    x 4.242780 0.000000 0.000000 
#    y 0.000000 4.242780 0.000000 
#    z 0.000000 0.000000 4.164860 
# 
# 
# High freq. dielectric constant tensor:
#      x y z
#    x 1.920060 0.000000 0.000000 
#    y 0.000000 1.920060 0.000000 
#    z 0.000000 0.000000 1.928790 
# 
# From -- ./inp_files/2844.got.cif
#   From: 2010.03.12/outbox.cif.g09.slc.cpg/sg114_2_cif.got.tgz:2844.got - 2010.04.14 02:08:34.
