data_PCOD8309347
_publ_section_title
;
Structure prediction by ZEFSAII (Michael W. Deem and Ramdas Pophale) SiO2 
 PCOD8309347
Probable space group: P -4 M 2
;
_chemical_formula_sum "Si O2"
_cell_formula_units_Z 48
_cell_length_a 9.199684
_cell_length_b 9.199684
_cell_length_c 31.237324
_cell_angle_alpha 90.000000
_cell_angle_beta 90.000000
_cell_angle_gamma 90.000000
_cell_volume 2643.745480
_symmetry_space_group_name_H-M "P -4 M 2"
_symmetry_group_IT_number 115
_symmetry_cell_setting 'tetragonal'
loop_
_space_group_symop_operation_xyz
x,y,z
y,-x,-z
-x,-y,z
-y,x,-z
y,x,-z
-y,-x,-z
-x,y,z
x,-y,z
loop_
_atom_site_type_symbol
_atom_site_label
_atom_site_fract_x
_atom_site_fract_y
_atom_site_fract_z
Si Si1 0.672310 0.166112 0.719113
Si Si2 0.336099 0.670140 0.048886
Si Si3 0.661034 0.326248 0.545061
Si Si4 0.673653 0.663225 0.636945
Si Si5 0.830183 0.832943 0.879286
Si Si6 0.330430 0.169613 0.205561
O O1 0.500000 0.180534 0.722823
O O2 0.728460 0.227748 0.673606
O O3 0.742217 0.260455 0.756122
O O4 0.723795 0.000000 0.723067
O O5 0.500000 0.724372 0.058649
O O6 0.324932 0.500000 0.057773
O O7 0.221913 0.751488 0.078404
O O8 0.294696 0.705305 0.000000
O O9 0.733030 0.266971 0.500000
O O10 0.500000 0.259661 0.547246
O O11 0.653486 0.500000 0.542102
O O12 0.738867 0.285078 0.590358
O O13 0.500000 0.662820 0.633933
O O14 0.728096 0.500000 0.647900
O O15 0.776309 0.741631 0.838475
O O16 0.000000 0.811122 0.886678
O O17 0.789103 0.000000 0.871207
O O18 0.500000 0.205518 0.203305
O O19 0.300018 0.000000 0.213050
#
# Coordination Sequence:
#
# PCOD8309347 Si02
#       6
#     8   8   8   8   8   8
#     4  10  20  32  47  70  99 129 161 198 241 290
#     4   9  19  36  56  78 105 137 172 207 242 282
#     4   7   9  14  27  50  79 109 143 185 232 279
#     4   8  13  22  37  58  86 118 151 191 238 284
#     4  10  21  36  54  77 104 132 163 201 245 293
#     4  10  21  37  56  75  95 125 165 205 247 295
#
# _framework density 18.15606
#
# number of rings (size 3 to 8) (size 9 to 14) (size 15 to 20)
#    0.000    3.000    0.000    3.500    0.000    4.667 
#    0.000    2.500    0.000    0.000    0.000    1.167 
#    0.000    6.667    0.000    0.000    0.000    0.000 
#
# Total GULP energy -594788.103129 kJ/mol
# GULP energy per Si atom -12391.418815 kJ/mol
# Density = 1.811474 g / cm^3
# Si number density = 18.156060 Si / 1000 Ang^3
#
#
#
# Elastic Constant Matrix: (Units=GPa)
#
#
# Indices 1 2 3 4 5 6 
#
# 1 60.2123 31.0703 58.0523 0.0000 0.0000 0.0000
# 2 31.0703 60.2123 58.0523 0.0000 0.0000 0.0000
# 3 58.0523 58.0523 168.1631 0.0000 0.0000 0.0000
# 4 0.0000 0.0000 0.0000 -4.1453 0.0000 0.0000
# 5 0.0000 0.0000 0.0000 0.0000 -4.1452 0.0000
# 6 0.0000 0.0000 0.0000 0.0000 0.0000 22.4230
#
#
#
# Elastic Compliance Matrix: (Units=1/GPa)
#
#
# Indices 1 2 3 4 5 6 
#
# 1 0.026923 -0.007392 -0.006742 0.000000 0.000000 0.000000
# 2 -0.007392 0.026923 -0.006742 0.000000 0.000000 0.000000
# 3 -0.006742 -0.006742 0.010602 0.000000 0.000000 0.000000
# 4 0.000000 0.000000 0.000000 -0.241234 0.000000 0.000000
# 5 0.000000 0.000000 0.000000 0.000000 -0.241240 0.000000
# 6 0.000000 0.000000 0.000000 0.000000 0.000000 0.044597
#
#
# Mechanical properties :
#
#
# Convention : Reuss Voigt Hill
#
# Bulk Modulus (GPa) = 44.06468 64.77083 54.41775
# Shear Modulus (GPa) = -15.42673 12.25399 -1.58637
#
# Velocity S-wave (km/s) = -2.91808 2.60075 -0.93576
# Velocity P-wave (km/s) = 3.60126 6.69108 5.37306
#
# Compressibility (1/GPa) = 0.02269391
#
# Stress axis : x y z
#
# Youngs Moduli (GPa) = 37.14343 37.14343 94.32488
#
# Poissons Ratio (x) = 0.27456 0.63596
# Poissons Ratio (y) = 0.27456 0.63596
# Poissons Ratio (z) = 0.25043 0.25043
#
# Static dielectric constant tensor:
#      x y z
#    x 3.091920 0.000000 0.000000 
#    y 0.000000 3.091920 0.000000 
#    z 0.000000 0.000000 3.796300 
# 
# 
# High freq. dielectric constant tensor:
#      x y z
#    x 1.670110 0.000000 0.000000 
#    y 0.000000 1.670110 0.000000 
#    z 0.000000 0.000000 1.729910 
# 
# From -- ./inp_files/6109.got.cif
#   From: 2010.03.12/outbox.cif.g09.slc.cpg/sg115_4_cif.got.tgz:6109.got - 2010.04.14 02:11:21.
