data_PCOD8309418
_publ_section_title
;
Structure prediction by ZEFSAII (Michael W. Deem and Ramdas Pophale) SiO2 
 PCOD8309418
Probable space group: P -4 M 2
;
_chemical_formula_sum "Si O2"
_cell_formula_units_Z 40
_cell_length_a 9.131961
_cell_length_b 9.131961
_cell_length_c 25.755520
_cell_angle_alpha 90.000000
_cell_angle_beta 90.000000
_cell_angle_gamma 90.000000
_cell_volume 2147.822654
_symmetry_space_group_name_H-M "P -4 M 2"
_symmetry_group_IT_number 115
_symmetry_cell_setting 'tetragonal'
loop_
_space_group_symop_operation_xyz
x,y,z
y,-x,-z
-x,-y,z
-y,x,-z
y,x,-z
-y,-x,-z
-x,y,z
x,-y,z
loop_
_atom_site_type_symbol
_atom_site_label
_atom_site_fract_x
_atom_site_fract_y
_atom_site_fract_z
Si Si1 0.674209 0.336586 0.148549
Si Si2 0.829443 0.671608 0.453010
Si Si3 0.326431 0.161912 0.245916
Si Si4 0.330990 0.827867 0.046055
Si Si5 0.827528 0.331377 0.637880
O O1 0.500000 0.338345 0.151226
O O2 0.737340 0.500000 0.142653
O O3 0.738800 0.268497 0.201809
O O4 0.726731 0.241805 0.099599
O O5 0.743517 0.743517 0.500000
O O6 0.797829 0.500000 0.453371
O O7 0.774512 0.737504 0.399067
O O8 0.000000 0.706557 0.459623
O O9 0.500000 0.152509 0.240886
O O10 0.286618 0.218384 0.303529
O O11 0.260269 0.000000 0.237028
O O12 0.500000 0.785988 0.035802
O O13 0.308936 0.000000 0.050274
O O14 0.233670 0.766331 0.000000
O O15 0.786224 0.500000 0.626288
O O16 0.000000 0.308148 0.629346
#
# Coordination Sequence:
#
# PCOD8309418 Si02
#       5
#     8   8   8   8   8
#     4   9  16  26  44  72 103 133 167 208 253 301
#     4  11  24  39  55  77 104 134 171 214 259 308
#     4   8  14  26  45  71 104 137 167 203 248 298
#     4  10  20  33  50  72  99 132 169 210 257 307
#     4   9  18  33  54  80 108 138 173 211 251 299
#
# _framework density 18.623508999999999
#
# number of rings (size 3 to 8) (size 9 to 14) (size 15 to 20)
#    0.000    2.600    0.000    3.600    0.000    8.800 
#    0.000    2.000    0.000    1.200    0.000    5.600 
#    0.000    0.000    0.000    0.000    0.000    0.000 
#
# Total GULP energy -495960.827245 kJ/mol
# GULP energy per Si atom -12399.020681 kJ/mol
# Density = 1.858112 g / cm^3
# Si number density = 18.623509 Si / 1000 Ang^3
#
#
#
# Elastic Constant Matrix: (Units=GPa)
#
#
# Indices 1 2 3 4 5 6 
#
# 1 73.8950 41.6713 60.3178 0.0000 0.0000 0.0000
# 2 41.6713 73.8934 60.3159 0.0000 0.0000 0.0000
# 3 60.3178 60.3159 164.5159 0.0000 0.0000 0.0000
# 4 0.0000 0.0000 0.0000 -4.5908 0.0000 0.0000
# 5 0.0000 0.0000 0.0000 0.0000 -4.5893 0.0000
# 6 0.0000 0.0000 0.0000 0.0000 0.0000 21.9905
#
#
#
# Elastic Compliance Matrix: (Units=1/GPa)
#
#
# Indices 1 2 3 4 5 6 
#
# 1 0.022526 -0.008508 -0.005140 0.000000 0.000000 0.000000
# 2 -0.008508 0.022526 -0.005139 0.000000 0.000000 0.000000
# 3 -0.005140 -0.005139 0.009847 0.000000 0.000000 0.000000
# 4 0.000000 0.000000 0.000000 -0.217825 0.000000 0.000000
# 5 0.000000 0.000000 0.000000 0.000000 -0.217899 0.000000
# 6 0.000000 0.000000 0.000000 0.000000 0.000000 0.045474
#
#
# Mechanical properties :
#
#
# Convention : Reuss Voigt Hill
#
# Bulk Modulus (GPa) = 57.71960 70.76826 64.24393
# Shear Modulus (GPa) = -17.12318 12.56203 -2.28057
#
# Velocity S-wave (km/s) = -3.03551 2.59998 -1.10780
# Velocity P-wave (km/s) = 4.33294 6.86259 5.73888
#
# Compressibility (1/GPa) = 0.01732514
#
# Stress axis : x y z
#
# Youngs Moduli (GPa) = 44.39356 44.39335 101.55380
#
# Poissons Ratio (x) = 0.37770 0.52194
# Poissons Ratio (y) = 0.37770 0.52191
# Poissons Ratio (z) = 0.22816 0.22815
#
# Static dielectric constant tensor:
#      x y z
#    x 3.294690 0.000000 0.000000 
#    y 0.000000 3.294690 0.000000 
#    z 0.000000 0.000000 3.685970 
# 
# 
# High freq. dielectric constant tensor:
#      x y z
#    x 1.700260 0.000000 0.000000 
#    y 0.000000 1.700260 0.000000 
#    z 0.000000 0.000000 1.742380 
# 
# From -- ./inp_files/5095.got.cif
#   From: 2010.03.12/outbox.cif.g09.slc.cpg/sg115_3_cif.got.tgz:5095.got - 2010.04.14 02:11:21.
