data_PCOD8309184
_publ_section_title
;
Structure prediction by ZEFSAII (Michael W. Deem and Ramdas Pophale) SiO2 
 PCOD8309184
Probable space group: P -4 M 2
;
_chemical_formula_sum "Si O2"
_cell_formula_units_Z 56
_cell_length_a 13.975717
_cell_length_b 13.975717
_cell_length_c 16.262611
_cell_angle_alpha 90.000000
_cell_angle_beta 90.000000
_cell_angle_gamma 90.000000
_cell_volume 3176.424006
_symmetry_space_group_name_H-M "P -4 M 2"
_symmetry_group_IT_number 115
_symmetry_cell_setting 'tetragonal'
loop_
_space_group_symop_operation_xyz
x,y,z
y,-x,-z
-x,-y,z
-y,x,-z
y,x,-z
-y,-x,-z
-x,y,z
x,-y,z
loop_
_atom_site_type_symbol
_atom_site_label
_atom_site_fract_x
_atom_site_fract_y
_atom_site_fract_z
Si Si1 0.788657 0.890044 0.747965
Si Si2 0.607775 0.113573 0.474815
Si Si3 0.612501 0.232866 0.003314
Si Si4 0.604855 0.113384 0.656917
Si Si5 0.891249 0.610567 0.836776
Si Si6 0.112020 0.721412 0.678048
Si Si7 0.888428 0.231542 0.064710
O O1 0.681448 0.854333 0.725223
O O2 0.861935 0.832248 0.690639
O O3 0.809970 0.873227 0.843990
O O4 0.802877 0.000000 0.723633
O O5 0.500000 0.146112 0.453309
O O6 0.635791 0.150910 0.566038
O O7 0.678894 0.157937 0.405833
O O8 0.614769 0.000000 0.473147
O O9 0.500000 0.242632 0.983044
O O10 0.632224 0.183106 0.090766
O O11 0.662266 0.337735 0.000000
O O12 0.664449 0.162470 0.938378
O O13 0.500000 0.155124 0.680608
O O14 0.597662 0.000000 0.653753
O O15 0.892888 0.500000 0.814369
O O16 0.849581 0.664626 0.757558
O O17 0.000000 0.643853 0.860374
O O18 0.000000 0.708577 0.672877
O O19 0.000000 0.243393 0.044392
O O20 0.841424 0.158576 0.000000
#
# Coordination Sequence:
#
# PCOD8309184 Si02
#       7
#     8   8   8   8   8   8   8
#     4  10  21  33  45  65  94 129 165 196 233 287
#     4   8  14  26  46  70  91 114 149 191 234 277
#     4  10  20  33  49  69  94 123 155 196 247 303
#     4   8  15  30  49  66  88 118 152 194 238 274
#     4   9  17  30  49  71  92 115 148 195 251 299
#     4  10  18  28  45  68  96 127 155 190 233 279
#     4  10  21  36  52  71  95 125 167 215 257 300
#
# _framework density 17.629888000000001
#
# number of rings (size 3 to 8) (size 9 to 14) (size 15 to 20)
#    0.000    2.714    0.000    3.429    0.000    6.000 
#    0.000    2.857    0.000    0.000    0.000    4.000 
#    0.000    1.714    0.000    6.286    0.000    0.571 
#
# Total GULP energy -694010.146273 kJ/mol
# GULP energy per Si atom -12393.038326 kJ/mol
# Density = 1.758976 g / cm^3
# Si number density = 17.629888 Si / 1000 Ang^3
#
#
#
# Elastic Constant Matrix: (Units=GPa)
#
#
# Indices 1 2 3 4 5 6 
#
# 1 59.2671 22.1906 23.8915 0.0000 0.0000 0.0000
# 2 22.1906 59.2662 23.8917 0.0000 0.0000 0.0000
# 3 23.8915 23.8917 75.8723 0.0000 0.0000 0.0000
# 4 0.0000 0.0000 0.0000 24.7552 0.0000 0.0000
# 5 0.0000 0.0000 0.0000 0.0000 24.7552 0.0000
# 6 0.0000 0.0000 0.0000 0.0000 0.0000 22.2037
#
#
#
# Elastic Compliance Matrix: (Units=1/GPa)
#
#
# Indices 1 2 3 4 5 6 
#
# 1 0.021014 -0.005957 -0.004741 0.000000 0.000000 0.000000
# 2 -0.005957 0.021015 -0.004742 0.000000 0.000000 0.000000
# 3 -0.004741 -0.004742 0.016166 0.000000 0.000000 0.000000
# 4 0.000000 0.000000 0.000000 0.040395 0.000000 0.000000
# 5 0.000000 0.000000 0.000000 0.000000 0.040396 0.000000
# 6 0.000000 0.000000 0.000000 0.000000 0.000000 0.045038
#
#
# Mechanical properties :
#
#
# Convention : Reuss Voigt Hill
#
# Bulk Modulus (GPa) = 36.60925 37.15034 36.87979
# Shear Modulus (GPa) = 22.32049 22.63829 22.47939
#
# Velocity S-wave (km/s) = 3.56203 3.58730 3.57469
# Velocity P-wave (km/s) = 6.14231 6.18679 6.16459
#
# Compressibility (1/GPa) = 0.02731550
#
# Stress axis : x y z
#
# Youngs Moduli (GPa) = 47.58624 47.58531 61.85737
#
# Poissons Ratio (x) = 0.28346 0.29330
# Poissons Ratio (y) = 0.28347 0.29331
# Poissons Ratio (z) = 0.22563 0.22563
#
# Static dielectric constant tensor:
#      x y z
#    x 3.195370 0.000000 0.000000 
#    y 0.000000 3.195370 0.000000 
#    z 0.000000 0.000000 3.499210 
# 
# 
# High freq. dielectric constant tensor:
#      x y z
#    x 1.659760 0.000000 0.000000 
#    y 0.000000 1.659760 0.000000 
#    z 0.000000 0.000000 1.688510 
# 
# From -- ./inp_files/3832.got.cif
#   From: 2010.03.12/outbox.cif.g09.slc.cpg/sg115_2_cif.got.tgz:3832.got - 2010.04.14 02:11:21.
