data_PCOD8309850
_publ_section_title
;
Structure prediction by ZEFSAII (Michael W. Deem and Ramdas Pophale) SiO2 
 PCOD8309850
Probable space group: P -4 M 2
;
_chemical_formula_sum "Si O2"
_cell_formula_units_Z 48
_cell_length_a 9.162085
_cell_length_b 9.162085
_cell_length_c 30.691017
_cell_angle_alpha 90.000000
_cell_angle_beta 90.000000
_cell_angle_gamma 90.000000
_cell_volume 2576.320640
_symmetry_space_group_name_H-M "P -4 M 2"
_symmetry_group_IT_number 115
_symmetry_cell_setting 'tetragonal'
loop_
_space_group_symop_operation_xyz
x,y,z
y,-x,-z
-x,-y,z
-y,x,-z
y,x,-z
-y,-x,-z
-x,y,z
x,-y,z
loop_
_atom_site_type_symbol
_atom_site_label
_atom_site_fract_x
_atom_site_fract_y
_atom_site_fract_z
Si Si1 0.667996 0.829004 0.537928
Si Si2 0.167731 0.171890 0.297422
Si Si3 0.329593 0.332365 0.124836
Si Si4 0.829688 0.667517 0.210753
Si Si5 0.828414 0.668231 0.961670
Si Si6 0.331691 0.329420 0.626413
O O1 0.770451 0.770451 0.500000
O O2 0.500000 0.793431 0.526485
O O3 0.715488 0.750372 0.582242
O O4 0.694402 0.000000 0.543887
O O5 0.222741 0.238845 0.251939
O O6 0.269120 0.232506 0.335228
O O7 0.000000 0.217238 0.306443
O O8 0.186506 0.000000 0.294898
O O9 0.500000 0.312695 0.132750
O O10 0.286685 0.500000 0.115979
O O11 0.250309 0.272268 0.167862
O O12 0.275949 0.239218 0.083669
O O13 0.786468 0.500000 0.219750
O O14 0.000000 0.686423 0.202498
O O15 0.785376 0.500000 0.970066
O O16 0.000000 0.690518 0.959311
O O17 0.765439 0.765439 0.000000
O O18 0.500000 0.296530 0.637588
O O19 0.302033 0.500000 0.620414
#
# Coordination Sequence:
#
# PCOD8309850 Si02
#       6
#     8   8   8   8   8   8
#     4  10  21  37  58  83 110 142 179 219 265 316
#     4  10  21  36  54  78 109 144 180 218 263 315
#     4   9  18  33  53  76 102 134 173 216 260 308
#     4   9  18  33  53  76 103 137 176 216 258 308
#     4  10  21  36  54  77 105 138 176 217 262 313
#     4  10  21  37  58  82 107 139 180 224 268 314
#
# _framework density 18.631219999999999
#
# number of rings (size 3 to 8) (size 9 to 14) (size 15 to 20)
#    0.000    2.333    0.000    2.000    0.000    6.667 
#    0.000    3.333    0.000    0.000    0.000    0.000 
#    0.000    0.000    0.000    0.000    0.000    0.000 
#
# Total GULP energy -595417.401478 kJ/mol
# GULP energy per Si atom -12404.529197 kJ/mol
# Density = 1.858881 g / cm^3
# Si number density = 18.631220 Si / 1000 Ang^3
#
#
#
# Elastic Constant Matrix: (Units=GPa)
#
#
# Indices 1 2 3 4 5 6 
#
# 1 76.6449 43.9439 72.4833 0.0000 0.0000 0.0000
# 2 43.9439 76.6449 72.4833 0.0000 0.0000 0.0000
# 3 72.4833 72.4833 171.6505 0.0000 0.0000 0.0000
# 4 0.0000 0.0000 0.0000 -59.2317 0.0000 0.0000
# 5 0.0000 0.0000 0.0000 0.0000 -59.2317 0.0000
# 6 0.0000 0.0000 0.0000 0.0000 0.0000 26.1850
#
#
#
# Elastic Compliance Matrix: (Units=1/GPa)
#
#
# Indices 1 2 3 4 5 6 
#
# 1 0.023711 -0.006869 -0.007112 0.000000 0.000000 0.000000
# 2 -0.006869 0.023711 -0.007112 0.000000 0.000000 0.000000
# 3 -0.007112 -0.007112 0.011832 0.000000 0.000000 0.000000
# 4 0.000000 0.000000 0.000000 -0.016883 0.000000 0.000000
# 5 0.000000 0.000000 0.000000 0.000000 -0.016883 0.000000
# 6 0.000000 0.000000 0.000000 0.000000 0.000000 0.038190
#
#
# Mechanical properties :
#
#
# Convention : Reuss Voigt Hill
#
# Bulk Modulus (GPa) = 58.58624 78.08457 68.33541
# Shear Modulus (GPa) = 44.82101 -9.38703 17.71699
#
# Velocity S-wave (km/s) = 4.91011 -2.24706 3.08706
# Velocity P-wave (km/s) = 7.97866 5.93879 7.03307
#
# Compressibility (1/GPa) = 0.01706885
#
# Stress axis : x y z
#
# Youngs Moduli (GPa) = 42.17391 42.17391 84.51424
#
# Poissons Ratio (x) = 0.28968 0.60108
# Poissons Ratio (y) = 0.28968 0.60108
# Poissons Ratio (z) = 0.29995 0.29995
#
# Static dielectric constant tensor:
#      x y z
#    x 3.399740 0.000000 0.000000 
#    y 0.000000 3.399740 0.000000 
#    z 0.000000 0.000000 3.567910 
# 
# 
# High freq. dielectric constant tensor:
#      x y z
#    x 1.719450 0.000000 0.000000 
#    y 0.000000 1.719450 0.000000 
#    z 0.000000 0.000000 1.735070 
# 
# From -- ./inp_files/5938.got.cif
#   From: 2010.03.12/outbox.cif.g09.slc.cpg/sg115_3_cif.got.tgz:5938.got - 2010.04.14 02:11:21.
