data_PCOD8309588
_publ_section_title
;
Structure prediction by ZEFSAII (Michael W. Deem and Ramdas Pophale) SiO2 
 PCOD8309588
Probable space group: P -4 M 2
;
_chemical_formula_sum "Si O2"
_cell_formula_units_Z 48
_cell_length_a 8.857868
_cell_length_b 8.857868
_cell_length_c 30.844972
_cell_angle_alpha 90.000000
_cell_angle_beta 90.000000
_cell_angle_gamma 90.000000
_cell_volume 2420.152811
_symmetry_space_group_name_H-M "P -4 M 2"
_symmetry_group_IT_number 115
_symmetry_cell_setting 'tetragonal'
loop_
_space_group_symop_operation_xyz
x,y,z
y,-x,-z
-x,-y,z
-y,x,-z
y,x,-z
-y,-x,-z
-x,y,z
x,-y,z
loop_
_atom_site_type_symbol
_atom_site_label
_atom_site_fract_x
_atom_site_fract_y
_atom_site_fract_z
Si Si1 0.677162 0.825880 0.622405
Si Si2 0.823082 0.675938 0.215050
Si Si3 0.169496 0.179116 0.872592
Si Si4 0.173486 0.676821 0.040261
Si Si5 0.678044 0.171294 0.459044
Si Si6 0.176761 0.324839 0.703785
O O1 0.500000 0.799237 0.620325
O O2 0.753220 0.727924 0.585341
O O3 0.735309 0.773876 0.668849
O O4 0.719248 0.000000 0.615224
O O5 0.787194 0.500000 0.220297
O O6 0.767068 0.730022 0.167896
O O7 0.727222 0.770598 0.249152
O O8 0.000000 0.709417 0.221969
O O9 0.242092 0.239866 0.917016
O O10 0.000000 0.243590 0.867939
O O11 0.168270 0.000000 0.874022
O O12 0.188913 0.500000 0.047821
O O13 0.000000 0.723510 0.031635
O O14 0.273805 0.726196 0.000000
O O15 0.744612 0.255388 0.500000
O O16 0.500000 0.180357 0.462364
O O17 0.735741 0.000000 0.459429
O O18 0.216075 0.500000 0.697037
O O19 0.000000 0.294692 0.698620
#
# Coordination Sequence:
#
# PCOD8309588 Si02
#       6
#     8   8   8   8   8   8
#     4  11  24  41  62  89 118 150 192 239 287 341
#     4  10  20  35  57  85 115 147 185 229 278 334
#     4   9  17  31  54  82 110 142 181 226 276 329
#     4  10  20  34  53  78 108 142 181 226 275 328
#     4  11  24  41  62  90 122 156 196 239 284 338
#     4  11  24  40  58  83 115 151 192 236 282 335
#
# _framework density 19.833461
#
# number of rings (size 3 to 8) (size 9 to 14) (size 15 to 20)
#    0.000    1.667    0.000    4.500    0.000   14.000 
#    0.000    0.833    0.000    5.000    0.000    0.000 
#    0.000    0.000    0.000    0.000    0.000    0.000 
#
# Total GULP energy -595444.200798 kJ/mol
# GULP energy per Si atom -12405.087517 kJ/mol
# Density = 1.978832 g / cm^3
# Si number density = 19.833461 Si / 1000 Ang^3
#
#
#
# Elastic Constant Matrix: (Units=GPa)
#
#
# Indices 1 2 3 4 5 6 
#
# 1 63.0691 48.1448 27.5829 0.0000 0.0000 0.0000
# 2 48.1448 63.0694 27.5827 0.0000 0.0000 0.0000
# 3 27.5829 27.5827 122.2196 0.0000 0.0000 0.0000
# 4 0.0000 0.0000 0.0000 51.2229 0.0000 0.0000
# 5 0.0000 0.0000 0.0000 0.0000 51.2247 0.0000
# 6 0.0000 0.0000 0.0000 0.0000 0.0000 27.4746
#
#
#
# Elastic Compliance Matrix: (Units=1/GPa)
#
#
# Indices 1 2 3 4 5 6 
#
# 1 0.038565 -0.028440 -0.002285 0.000000 0.000000 0.000000
# 2 -0.028440 0.038565 -0.002285 0.000000 0.000000 0.000000
# 3 -0.002285 -0.002285 0.009213 0.000000 0.000000 0.000000
# 4 0.000000 0.000000 0.000000 0.019523 0.000000 0.000000
# 5 0.000000 0.000000 0.000000 0.000000 0.019522 0.000000
# 6 0.000000 0.000000 0.000000 0.000000 0.000000 0.036397
#
#
# Mechanical properties :
#
#
# Convention : Reuss Voigt Hill
#
# Bulk Modulus (GPa) = 49.20437 50.55322 49.87880
# Shear Modulus (GPa) = 21.31484 35.65428 28.48456
#
# Velocity S-wave (km/s) = 3.28180 4.24451 3.79382
# Velocity P-wave (km/s) = 6.26282 7.04027 6.66289
#
# Compressibility (1/GPa) = 0.02032340
#
# Stress axis : x y z
#
# Youngs Moduli (GPa) = 25.93034 25.93051 108.53764
#
# Poissons Ratio (x) = 0.73745 0.24802
# Poissons Ratio (y) = 0.73745 0.24801
# Poissons Ratio (z) = 0.05925 0.05925
#
# Static dielectric constant tensor:
#      x y z
#    x 3.624780 0.000000 0.000000 
#    y 0.000000 3.624780 0.000000 
#    z 0.000000 0.000000 3.681830 
# 
# 
# High freq. dielectric constant tensor:
#      x y z
#    x 1.772850 0.000000 0.000000 
#    y 0.000000 1.772850 0.000000 
#    z 0.000000 0.000000 1.792330 
# 
# From -- ./inp_files/6037.got.cif
#   From: 2010.03.12/outbox.cif.g09.slc.cpg/sg115_4_cif.got.tgz:6037.got - 2010.04.14 02:11:21.
