data_PCOD8309303
_publ_section_title
;
Structure prediction by ZEFSAII (Michael W. Deem and Ramdas Pophale) SiO2 
 PCOD8309303
Probable space group: P -4 M 2
;
_chemical_formula_sum "Si O2"
_cell_formula_units_Z 40
_cell_length_a 20.338449
_cell_length_b 20.338449
_cell_length_c 4.994730
_cell_angle_alpha 90.000000
_cell_angle_beta 90.000000
_cell_angle_gamma 90.000000
_cell_volume 2066.082590
_symmetry_space_group_name_H-M "P -4 M 2"
_symmetry_group_IT_number 115
_symmetry_cell_setting 'tetragonal'
loop_
_space_group_symop_operation_xyz
x,y,z
y,-x,-z
-x,-y,z
-y,x,-z
y,x,-z
-y,-x,-z
-x,y,z
x,-y,z
loop_
_atom_site_type_symbol
_atom_site_label
_atom_site_fract_x
_atom_site_fract_y
_atom_site_fract_z
Si Si1 0.349395 0.246784 0.066068
Si Si2 0.723142 0.884809 0.037333
Si Si3 0.073017 0.351601 0.460506
Si Si4 0.924364 0.864187 0.762701
Si Si5 0.204451 0.575677 0.428156
O O1 0.292489 0.192452 0.038820
O O2 0.379230 0.244500 0.363305
O O3 0.317387 0.317387 0.000000
O O4 0.409100 0.233422 0.863140
O O5 0.676366 0.923556 0.241002
O O6 0.798193 0.894428 0.113725
O O7 0.708855 0.913471 0.742445
O O8 0.126397 0.409246 0.425481
O O9 0.000000 0.380870 0.414132
O O10 0.884049 0.884049 0.500000
O O11 0.000000 0.855755 0.680828
O O12 0.917974 0.917974 0.000000
O O13 0.215143 0.500000 0.499114
#
# Coordination Sequence:
#
# PCOD8309303 Si02
#       5
#     8   8   8   8   8
#     4  10  20  36  58  82 109 141 179 220 262 308
#     4  10  21  36  55  78 102 130 174 229 275 312
#     4  10  19  33  54  78 108 145 180 214 256 314
#     4  12  25  39  55  72  95 129 171 224 284 343
#     4  10  21  35  53  81 117 149 177 217 260 307
#
# _framework density 19.360309999999998
#
# number of rings (size 3 to 8) (size 9 to 14) (size 15 to 20)
#    0.000    1.600    0.000    5.400    0.000    4.800 
#    0.000    0.000    0.000    7.200    0.000    0.000 
#    0.000   28.000    0.000    0.000    0.000    0.000 
#
# Total GULP energy -496121.924323 kJ/mol
# GULP energy per Si atom -12403.048108 kJ/mol
# Density = 1.931625 g / cm^3
# Si number density = 19.360310 Si / 1000 Ang^3
#
#
#
# Elastic Constant Matrix: (Units=GPa)
#
#
# Indices 1 2 3 4 5 6 
#
# 1 82.7203 40.9252 14.5530 0.0000 0.0000 0.0000
# 2 40.9252 82.7203 14.5530 0.0000 0.0000 0.0000
# 3 14.5530 14.5530 82.2384 0.0000 0.0000 0.0000
# 4 0.0000 0.0000 0.0000 15.7807 0.0000 0.0000
# 5 0.0000 0.0000 0.0000 0.0000 15.7807 0.0000
# 6 0.0000 0.0000 0.0000 0.0000 0.0000 12.8255
#
#
#
# Elastic Compliance Matrix: (Units=1/GPa)
#
#
# Indices 1 2 3 4 5 6 
#
# 1 0.016183 -0.007744 -0.001493 0.000000 0.000000 0.000000
# 2 -0.007744 0.016183 -0.001493 0.000000 0.000000 0.000000
# 3 -0.001493 -0.001493 0.012688 0.000000 0.000000 0.000000
# 4 0.000000 0.000000 0.000000 0.063368 0.000000 0.000000
# 5 0.000000 0.000000 0.000000 0.000000 0.063368 0.000000
# 6 0.000000 0.000000 0.000000 0.000000 0.000000 0.077970
#
#
# Mechanical properties :
#
#
# Convention : Reuss Voigt Hill
#
# Bulk Modulus (GPa) = 42.38535 43.08238 42.73387
# Shear Modulus (GPa) = 17.91566 20.72058 19.31812
#
# Velocity S-wave (km/s) = 3.04531 3.27503 3.16226
# Velocity P-wave (km/s) = 5.85710 6.04999 5.95433
#
# Compressibility (1/GPa) = 0.02359306
#
# Stress axis : x y z
#
# Youngs Moduli (GPa) = 61.79431 61.79431 78.81265
#
# Poissons Ratio (x) = 0.47851 0.11770
# Poissons Ratio (y) = 0.47851 0.11770
# Poissons Ratio (z) = 0.09228 0.09228
#
# Static dielectric constant tensor:
#      x y z
#    x 3.264790 0.000000 0.000000 
#    y 0.000000 3.264790 0.000000 
#    z 0.000000 0.000000 3.746880 
# 
# 
# High freq. dielectric constant tensor:
#      x y z
#    x 1.731280 0.000000 0.000000 
#    y 0.000000 1.731280 0.000000 
#    z 0.000000 0.000000 1.776480 
# 
# From -- ./inp_files/501.got.cif
#   From: 2010.03.12/outbox.cif.g09.slc.cpg/sg115_1_cif.got.tgz:501.got - 2010.04.14 02:11:21.
