data_PCOD8309333
_publ_section_title
;
Structure prediction by ZEFSAII (Michael W. Deem and Ramdas Pophale) SiO2 
 PCOD8309333
Probable space group: P -4 M 2
;
_chemical_formula_sum "Si O2"
_cell_formula_units_Z 40
_cell_length_a 9.381471
_cell_length_b 9.381471
_cell_length_c 26.207652
_cell_angle_alpha 90.000000
_cell_angle_beta 90.000000
_cell_angle_gamma 90.000000
_cell_volume 2306.587819
_symmetry_space_group_name_H-M "P -4 M 2"
_symmetry_group_IT_number 115
_symmetry_cell_setting 'tetragonal'
loop_
_space_group_symop_operation_xyz
x,y,z
y,-x,-z
-x,-y,z
-y,x,-z
y,x,-z
-y,-x,-z
-x,y,z
x,-y,z
loop_
_atom_site_type_symbol
_atom_site_label
_atom_site_fract_x
_atom_site_fract_y
_atom_site_fract_z
Si Si1 0.667021 0.331387 0.389502
Si Si2 0.334647 0.665354 0.500000
Si Si3 0.167945 0.834827 0.696892
Si Si4 0.334146 0.334146 0.000000
Si Si5 0.658882 0.169566 0.206796
Si Si6 0.158642 0.669718 0.904677
O O1 0.500000 0.295619 0.382238
O O2 0.691888 0.500000 0.383374
O O3 0.724134 0.276610 0.445613
O O4 0.759373 0.247049 0.349173
O O5 0.500000 0.696801 0.499119
O O6 0.223859 0.766160 0.749705
O O7 0.000000 0.810864 0.690125
O O8 0.208921 0.000000 0.697655
O O9 0.270679 0.258363 0.050303
O O10 0.301990 0.500000 0.006606
O O11 0.500000 0.230169 0.218160
O O12 0.715159 0.220558 0.151003
O O13 0.651974 0.000000 0.205560
O O14 0.154020 0.500000 0.905950
O O15 0.000000 0.731953 0.913019
#
# Coordination Sequence:
#
# PCOD8309333 Si02
#       6
#     8   4   8   4   8   8
#     4   9  17  31  52  74  93 117 152 192 231 271
#     4   7  12  26  48  71  92 114 146 189 230 267
#     4  10  20  32  46  67  96 127 155 186 229 277
#     4   9  16  26  42  65  90 112 136 173 220 264
#     4   8  14  27  47  65  81 110 154 194 221 254
#     4   8  14  26  44  63  83 111 146 180 216 260
#
# _framework density 17.341635
#
# number of rings (size 3 to 8) (size 9 to 14) (size 15 to 20)
#    0.000    3.400    0.000    3.000    0.000    1.600 
#    0.000    3.000    0.000    9.900    0.000    0.000 
#    0.000    0.000    0.000    0.000    0.000    0.000 
#
# Total GULP energy -495540.061165 kJ/mol
# GULP energy per Si atom -12388.501529 kJ/mol
# Density = 1.730216 g / cm^3
# Si number density = 17.341635 Si / 1000 Ang^3
#
#
#
# Elastic Constant Matrix: (Units=GPa)
#
#
# Indices 1 2 3 4 5 6 
#
# 1 55.7483 32.6372 65.9209 0.0000 0.0000 0.0000
# 2 32.6372 55.7480 65.9209 0.0000 0.0000 0.0000
# 3 65.9209 65.9209 214.0199 0.0000 0.0000 0.0000
# 4 0.0000 0.0000 0.0000 -5.7371 0.0000 0.0000
# 5 0.0000 0.0000 0.0000 0.0000 -5.7399 0.0000
# 6 0.0000 0.0000 0.0000 0.0000 0.0000 18.0213
#
#
#
# Elastic Compliance Matrix: (Units=1/GPa)
#
#
# Indices 1 2 3 4 5 6 
#
# 1 0.032100 -0.011169 -0.006447 0.000000 0.000000 0.000000
# 2 -0.011169 0.032100 -0.006447 0.000000 0.000000 0.000000
# 3 -0.006447 -0.006447 0.008644 0.000000 0.000000 0.000000
# 4 0.000000 0.000000 0.000000 -0.174303 0.000000 0.000000
# 5 0.000000 0.000000 0.000000 0.000000 -0.174219 0.000000
# 6 0.000000 0.000000 0.000000 0.000000 0.000000 0.055490
#
#
# Mechanical properties :
#
#
# Convention : Reuss Voigt Hill
#
# Bulk Modulus (GPa) = 40.45671 72.71936 56.58803
# Shear Modulus (GPa) = -30.52100 12.04467 -9.23817
#
# Velocity S-wave (km/s) = -4.19977 2.63829 -2.31057
# Velocity P-wave (km/s) = 0.37083 7.16277 5.05805
#
# Compressibility (1/GPa) = 0.02471778
#
# Stress axis : x y z
#
# Youngs Moduli (GPa) = 31.15258 31.15226 115.68762
#
# Poissons Ratio (x) = 0.34795 0.74583
# Poissons Ratio (y) = 0.34795 0.74584
# Poissons Ratio (z) = 0.20084 0.20084
#
# Static dielectric constant tensor:
#      x y z
#    x 2.961860 0.000000 0.000000 
#    y 0.000000 2.961860 0.000000 
#    z 0.000000 0.000000 3.851770 
# 
# 
# High freq. dielectric constant tensor:
#      x y z
#    x 1.632290 0.000000 0.000000 
#    y 0.000000 1.632290 0.000000 
#    z 0.000000 0.000000 1.696320 
# 
# From -- ./inp_files/5529.got.cif
#   From: 2010.03.12/outbox.cif.g09.slc.cpg/sg115_3_cif.got.tgz:5529.got - 2010.04.14 02:11:21.
