data_PCOD8309319
_publ_section_title
;
Structure prediction by ZEFSAII (Michael W. Deem and Ramdas Pophale) SiO2 
 PCOD8309319
Probable space group: P -4 M 2
;
_chemical_formula_sum "Si O2"
_cell_formula_units_Z 28
_cell_length_a 7.951312
_cell_length_b 7.951312
_cell_length_c 21.130773
_cell_angle_alpha 90.000000
_cell_angle_beta 90.000000
_cell_angle_gamma 90.000000
_cell_volume 1335.958522
_symmetry_space_group_name_H-M "P -4 M 2"
_symmetry_group_IT_number 115
_symmetry_cell_setting 'tetragonal'
loop_
_space_group_symop_operation_xyz
x,y,z
y,-x,-z
-x,-y,z
-y,x,-z
y,x,-z
-y,-x,-z
-x,y,z
x,-y,z
loop_
_atom_site_type_symbol
_atom_site_label
_atom_site_fract_x
_atom_site_fract_y
_atom_site_fract_z
Si Si1 0.305982 0.686615 0.628107
Si Si2 0.804128 0.689022 0.934503
Si Si3 0.188597 0.188597 0.500000
Si Si4 0.199953 0.000000 0.850951
Si Si5 0.804116 0.000000 0.710465
O O1 0.500000 0.717201 0.615872
O O2 0.269721 0.500000 0.656651
O O3 0.219366 0.691980 0.559583
O O4 0.243313 0.829110 0.675231
O O5 0.773905 0.500000 0.907177
O O6 0.000000 0.720889 0.948537
O O7 0.735987 0.829930 0.885663
O O8 0.704839 0.704839 0.000000
O O9 0.000000 0.217026 0.474812
O O10 0.278620 0.000000 0.780334
O O11 0.000000 0.000000 0.848457
O O12 0.000000 0.000000 0.718702
#
# Coordination Sequence:
#
# PCOD8309319 Si02
#       5
#     8   8   4   4   4
#     4  11  24  41  62  89 123 166 212 261 319 379
#     4  10  19  34  60  91 121 159 205 256 315 370
#     4  11  22  37  62  96 124 153 201 264 328 378
#     4   9  20  37  61  89 125 164 205 256 308 369
#     4  11  23  41  63  93 125 165 214 259 314 381
#
# _framework density 20.958732999999999
#
# number of rings (size 3 to 8) (size 9 to 14) (size 15 to 20)
#    0.000    1.571    2.857    2.143    0.000    6.000 
#    0.000    5.714    0.000    0.000    0.000    0.000 
#    0.000    0.000    0.000    0.000    0.000    0.000 
#
# Total GULP energy -347162.013026 kJ/mol
# GULP energy per Si atom -12398.643322 kJ/mol
# Density = 2.091103 g / cm^3
# Si number density = 20.958733 Si / 1000 Ang^3
#
#
#
# Elastic Constant Matrix: (Units=GPa)
#
#
# Indices 1 2 3 4 5 6 
#
# 1 92.9263 53.1700 53.1779 0.0000 0.0000 0.0000
# 2 53.1700 92.9263 53.1779 0.0000 0.0000 0.0000
# 3 53.1779 53.1779 151.6536 0.0000 0.0000 0.0000
# 4 0.0000 0.0000 0.0000 9.0743 0.0000 0.0000
# 5 0.0000 0.0000 0.0000 0.0000 9.0743 0.0000
# 6 0.0000 0.0000 0.0000 0.0000 0.0000 26.2116
#
#
#
# Elastic Compliance Matrix: (Units=1/GPa)
#
#
# Indices 1 2 3 4 5 6 
#
# 1 0.017172 -0.007981 -0.003223 0.000000 0.000000 0.000000
# 2 -0.007981 0.017172 -0.003223 0.000000 0.000000 0.000000
# 3 -0.003223 -0.003223 0.008854 0.000000 0.000000 0.000000
# 4 0.000000 0.000000 0.000000 0.110202 0.000000 0.000000
# 5 0.000000 0.000000 0.000000 0.000000 0.110202 0.000000
# 6 0.000000 0.000000 0.000000 0.000000 0.000000 0.038151
#
#
# Mechanical properties :
#
#
# Convention : Reuss Voigt Hill
#
# Bulk Modulus (GPa) = 69.71195 72.95087 71.33141
# Shear Modulus (GPa) = 14.90812 20.73739 17.82275
#
# Velocity S-wave (km/s) = 2.66993 3.14895 2.91928
# Velocity P-wave (km/s) = 6.54511 6.93568 6.74322
#
# Compressibility (1/GPa) = 0.01434474
#
# Stress axis : x y z
#
# Youngs Moduli (GPa) = 58.23397 58.23397 112.94092
#
# Poissons Ratio (x) = 0.46477 0.36399
# Poissons Ratio (y) = 0.46477 0.36399
# Poissons Ratio (z) = 0.18768 0.18768
#
# Static dielectric constant tensor:
#      x y z
#    x 3.836980 0.000000 0.000000 
#    y 0.000000 3.836980 0.000000 
#    z 0.000000 0.000000 4.674030 
# 
# 
# High freq. dielectric constant tensor:
#      x y z
#    x 1.823860 0.000000 0.000000 
#    y 0.000000 1.823860 0.000000 
#    z 0.000000 0.000000 1.805820 
# 
# From -- ./inp_files/4528.got.cif
#   From: 2010.03.12/outbox.cif.g09.slc.cpg/sg115_3_cif.got.tgz:4528.got - 2010.04.14 02:11:21.
