data_PCOD8309915
_publ_section_title
;
Structure prediction by ZEFSAII (Michael W. Deem and Ramdas Pophale) SiO2 
 PCOD8309915
Probable space group: P -4 M 2
;
_chemical_formula_sum "Si O2"
_cell_formula_units_Z 48
_cell_length_a 8.893702
_cell_length_b 8.893702
_cell_length_c 30.697865
_cell_angle_alpha 90.000000
_cell_angle_beta 90.000000
_cell_angle_gamma 90.000000
_cell_volume 2428.137739
_symmetry_space_group_name_H-M "P -4 M 2"
_symmetry_group_IT_number 115
_symmetry_cell_setting 'tetragonal'
loop_
_space_group_symop_operation_xyz
x,y,z
y,-x,-z
-x,-y,z
-y,x,-z
y,x,-z
-y,-x,-z
-x,y,z
x,-y,z
loop_
_atom_site_type_symbol
_atom_site_label
_atom_site_fract_x
_atom_site_fract_y
_atom_site_fract_z
Si Si1 0.672515 0.822825 0.297957
Si Si2 0.323701 0.827043 0.621494
Si Si3 0.822067 0.830835 0.128196
Si Si4 0.326231 0.824794 0.459513
Si Si5 0.826823 0.324224 0.040159
Si Si6 0.674070 0.673623 0.208523
O O1 0.500000 0.774641 0.307024
O O2 0.780917 0.749829 0.333202
O O3 0.725727 0.765734 0.250885
O O4 0.691780 0.000000 0.299888
O O5 0.500000 0.801335 0.625102
O O6 0.261632 0.722139 0.583565
O O7 0.284147 0.000000 0.611149
O O8 0.765612 0.760986 0.082807
O O9 0.765949 0.729424 0.167421
O O10 0.000000 0.829954 0.129455
O O11 0.758219 0.000000 0.132409
O O12 0.227989 0.772011 0.500000
O O13 0.500000 0.790057 0.469479
O O14 0.298301 0.000000 0.451648
O O15 0.806659 0.500000 0.048392
O O16 0.000000 0.282251 0.030531
O O17 0.725733 0.274268 0.000000
O O18 0.500000 0.701735 0.198636
O O19 0.710181 0.500000 0.217095
#
# Coordination Sequence:
#
# PCOD8309915 Si02
#       6
#     8   8   8   8   8   8
#     4  10  21  38  60  85 113 148 191 236 283 337
#     4  11  24  40  59  86 118 152 192 236 283 337
#     4  10  21  37  58  83 111 146 187 230 278 332
#     4  11  24  41  62  89 119 152 192 236 283 337
#     4  10  21  37  57  81 109 143 183 227 276 330
#     4  10  21  37  58  84 114 149 188 231 281 335
#
# _framework density 19.768234
#
# number of rings (size 3 to 8) (size 9 to 14) (size 15 to 20)
#    0.000    1.667    0.000    4.000    0.000   12.000 
#    0.000    0.000    0.000    0.000    0.000    0.000 
#    0.000    0.000    0.000    0.000    0.000    0.000 
#
# Total GULP energy -595502.180740 kJ/mol
# GULP energy per Si atom -12406.295432 kJ/mol
# Density = 1.972324 g / cm^3
# Si number density = 19.768234 Si / 1000 Ang^3
#
#
#
# Elastic Constant Matrix: (Units=GPa)
#
#
# Indices 1 2 3 4 5 6 
#
# 1 65.9190 32.8564 34.0610 0.0000 0.0000 0.0000
# 2 32.8564 65.9184 34.0604 0.0000 0.0000 0.0000
# 3 34.0610 34.0604 119.6757 0.0000 0.0000 0.0000
# 4 0.0000 0.0000 0.0000 41.1277 0.0000 0.0000
# 5 0.0000 0.0000 0.0000 0.0000 41.1277 0.0000
# 6 0.0000 0.0000 0.0000 0.0000 0.0000 31.4926
#
#
#
# Elastic Compliance Matrix: (Units=1/GPa)
#
#
# Indices 1 2 3 4 5 6 
#
# 1 0.021421 -0.008825 -0.003585 0.000000 0.000000 0.000000
# 2 -0.008825 0.021421 -0.003585 0.000000 0.000000 0.000000
# 3 -0.003585 -0.003585 0.010397 0.000000 0.000000 0.000000
# 4 0.000000 0.000000 0.000000 0.024315 0.000000 0.000000
# 5 0.000000 0.000000 0.000000 0.000000 0.024315 0.000000
# 6 0.000000 0.000000 0.000000 0.000000 0.000000 0.031753
#
#
# Mechanical properties :
#
#
# Convention : Reuss Voigt Hill
#
# Bulk Modulus (GPa) = 47.06037 50.38544 48.72290
# Shear Modulus (GPa) = 28.95288 32.78529 30.86908
#
# Velocity S-wave (km/s) = 3.83118 4.07687 3.95593
# Velocity P-wave (km/s) = 6.59002 6.90685 6.75029
#
# Compressibility (1/GPa) = 0.02124930
#
# Stress axis : x y z
#
# Youngs Moduli (GPa) = 46.68273 46.68259 96.18534
#
# Poissons Ratio (x) = 0.41196 0.34484
# Poissons Ratio (y) = 0.41196 0.34482
# Poissons Ratio (z) = 0.16736 0.16736
#
# Static dielectric constant tensor:
#      x y z
#    x 3.677750 0.000000 0.000000 
#    y 0.000000 3.677750 0.000000 
#    z 0.000000 0.000000 1.086470 
# 
# 
# High freq. dielectric constant tensor:
#      x y z
#    x 1.776140 0.000000 0.000000 
#    y 0.000000 1.776140 0.000000 
#    z 0.000000 0.000000 1.785130 
# 
# From -- ./inp_files/5905.got.cif
#   From: 2010.03.12/outbox.cif.g09.slc.cpg/sg115_3_cif.got.tgz:5905.got - 2010.04.14 02:11:21.
