data_PCOD8309181
_publ_section_title
;
Structure prediction by ZEFSAII (Michael W. Deem and Ramdas Pophale) SiO2 
 PCOD8309181
Probable space group: P -4 M 2
;
_chemical_formula_sum "Si O2"
_cell_formula_units_Z 64
_cell_length_a 21.250936
_cell_length_b 21.250936
_cell_length_c 9.281344
_cell_angle_alpha 90.000000
_cell_angle_beta 90.000000
_cell_angle_gamma 90.000000
_cell_volume 4191.476120
_symmetry_space_group_name_H-M "P -4 M 2"
_symmetry_group_IT_number 115
_symmetry_cell_setting 'tetragonal'
loop_
_space_group_symop_operation_xyz
x,y,z
y,-x,-z
-x,-y,z
-y,x,-z
y,x,-z
-y,-x,-z
-x,y,z
x,-y,z
loop_
_atom_site_type_symbol
_atom_site_label
_atom_site_fract_x
_atom_site_fract_y
_atom_site_fract_z
Si Si1 0.271375 0.568739 0.159628
Si Si2 0.334777 0.840493 0.166084
Si Si3 0.074326 0.571227 0.335298
Si Si4 0.649276 0.649276 0.659139
Si Si5 0.728625 0.568739 0.840372
Si Si6 0.755485 0.755485 0.665708
Si Si7 0.428773 0.925674 0.335298
Si Si8 0.665223 0.840493 0.833916
O O1 0.245437 0.500000 0.199985
O O2 0.327423 0.585934 0.266185
O O3 0.215138 0.616291 0.173729
O O4 0.299914 0.570767 1.000000
O O5 0.383709 0.784862 0.173729
O O6 0.271630 0.817888 0.251848
O O7 0.371553 0.898348 0.239793
O O8 0.317016 0.857069 1.000000
O O9 0.093610 0.500000 0.283373
O O10 0.097257 0.580343 0.500000
O O11 0.101652 0.628447 0.239794
O O12 0.000000 0.577926 0.325049
O O13 0.630753 0.630753 0.500000
O O14 0.672577 0.585934 0.733815
O O15 0.702491 0.702491 0.667508
O O16 0.754563 0.500000 0.800015
O O17 0.773020 0.773020 0.500000
O O18 0.728370 0.817888 0.748152
O O19 0.500000 0.906390 0.283373
O O20 0.422074 0.000000 0.325049
#
# Coordination Sequence:
#
# PCOD8309181 Si02
#       8
#     8   8   8   8   8   8   8   8
#     4   9  17  28  41  56  74  96 119 146 187 237
#     4  10  18  28  43  63  84 104 132 171 210 245
#     4   9  18  31  44  59  83 116 150 180 211 251
#     4   9  17  27  39  56  74  91 115 149 187 227
#     4   9  17  28  41  56  74  96 119 146 187 237
#     4   9  17  29  43  59  80 106 133 162 202 250
#     4   9  18  31  44  59  83 116 150 180 211 251
#     4  10  18  28  43  63  84 104 132 171 210 245
#
# _framework density 15.269083999999999
#
# number of rings (size 3 to 8) (size 9 to 14) (size 15 to 20)
#    0.000    2.750    0.000    3.000    0.000    6.500 
#    0.000    1.250    0.000    0.375    0.000    2.625 
#    0.000    0.000    0.000    0.000    0.000    0.625 
#
# Total GULP energy -792939.435882 kJ/mol
# GULP energy per Si atom -12389.678686 kJ/mol
# Density = 1.523433 g / cm^3
# Si number density = 15.269084 Si / 1000 Ang^3
#
#
#
# Elastic Constant Matrix: (Units=GPa)
#
#
# Indices 1 2 3 4 5 6 
#
# 1 40.3273 18.3591 31.3938 0.0000 0.0000 0.0000
# 2 18.3591 40.3273 31.3938 0.0000 0.0000 0.0000
# 3 31.3938 31.3938 99.4904 0.0000 0.0000 0.0000
# 4 0.0000 0.0000 0.0000 19.1001 0.0000 0.0000
# 5 0.0000 0.0000 0.0000 0.0000 19.1001 0.0000
# 6 0.0000 0.0000 0.0000 0.0000 0.0000 28.3318
#
#
#
# Elastic Compliance Matrix: (Units=1/GPa)
#
#
# Indices 1 2 3 4 5 6 
#
# 1 0.035622 -0.009898 -0.008117 0.000000 0.000000 0.000000
# 2 -0.009898 0.035622 -0.008117 0.000000 0.000000 0.000000
# 3 -0.008117 -0.008117 0.015174 0.000000 0.000000 0.000000
# 4 0.000000 0.000000 0.000000 0.052356 0.000000 0.000000
# 5 0.000000 0.000000 0.000000 0.000000 0.052356 0.000000
# 6 0.000000 0.000000 0.000000 0.000000 0.000000 0.035296
#
#
# Mechanical properties :
#
#
# Convention : Reuss Voigt Hill
#
# Bulk Modulus (GPa) = 29.27953 38.04870 33.66411
# Shear Modulus (GPa) = 17.23690 19.90628 18.57159
#
# Velocity S-wave (km/s) = 3.36352 3.61459 3.49131
# Velocity P-wave (km/s) = 5.85676 6.51101 6.19253
#
# Compressibility (1/GPa) = 0.03415356
#
# Stress axis : x y z
#
# Youngs Moduli (GPa) = 28.07235 28.07235 65.90267
#
# Poissons Ratio (x) = 0.27786 0.53494
# Poissons Ratio (y) = 0.27786 0.53494
# Poissons Ratio (z) = 0.22787 0.22787
#
# Static dielectric constant tensor:
#      x y z
#    x 2.753610 0.000000 0.000000 
#    y 0.000000 2.753610 0.000000 
#    z 0.000000 0.000000 3.238330 
# 
# 
# High freq. dielectric constant tensor:
#      x y z
#    x 1.550770 0.000000 0.000000 
#    y 0.000000 1.550770 0.000000 
#    z 0.000000 0.000000 1.600250 
# 
# From -- ./inp_files/2137.got.cif
#   From: 2010.03.12/outbox.cif.g09.slc.cpg/sg115_2_cif.got.tgz:2137.got - 2010.04.14 02:11:21.
