data_PCOD8309430
_publ_section_title
;
Structure prediction by ZEFSAII (Michael W. Deem and Ramdas Pophale) SiO2 
 PCOD8309430
Probable space group: P -4 M 2
;
_chemical_formula_sum "Si O2"
_cell_formula_units_Z 44
_cell_length_a 9.131486
_cell_length_b 9.131486
_cell_length_c 28.567918
_cell_angle_alpha 90.000000
_cell_angle_beta 90.000000
_cell_angle_gamma 90.000000
_cell_volume 2382.108319
_symmetry_space_group_name_H-M "P -4 M 2"
_symmetry_group_IT_number 115
_symmetry_cell_setting 'tetragonal'
loop_
_space_group_symop_operation_xyz
x,y,z
y,-x,-z
-x,-y,z
-y,x,-z
y,x,-z
-y,-x,-z
-x,y,z
x,-y,z
loop_
_atom_site_type_symbol
_atom_site_label
_atom_site_fract_x
_atom_site_fract_y
_atom_site_fract_z
Si Si1 0.163415 0.825266 0.051232
Si Si2 0.834896 0.325984 0.591703
Si Si3 0.669820 0.328025 0.315783
Si Si4 0.830865 0.827637 0.767507
Si Si5 0.336187 0.174084 0.139807
Si Si6 0.670807 0.329194 0.500000
O O1 0.266779 0.761546 0.092053
O O2 0.000000 0.763491 0.059661
O O3 0.158813 0.000000 0.052582
O O4 0.223593 0.776408 0.000000
O O5 0.832900 0.500000 0.590771
O O6 0.747734 0.270226 0.637092
O O7 0.756142 0.267018 0.545055
O O8 0.000000 0.264628 0.593642
O O9 0.500000 0.289102 0.306931
O O10 0.693838 0.500000 0.321104
O O11 0.764515 0.268513 0.273313
O O12 0.774156 0.758571 0.815973
O O13 0.000000 0.785980 0.757932
O O14 0.808926 0.000000 0.770880
O O15 0.500000 0.236642 0.145028
O O16 0.337264 0.000000 0.137158
O O17 0.500000 0.298903 0.508315
#
# Coordination Sequence:
#
# PCOD8309430 Si02
#       6
#     8   8   8   8   8   4
#     4   8  13  22  38  61  89 121 157 196 237 283
#     4   9  17  30  50  75 101 130 165 204 245 291
#     4  10  20  34  53  76 101 131 168 208 250 297
#     4  10  20  33  50  73 101 132 166 206 252 299
#     4   9  16  26  43  68  96 125 159 200 244 291
#     4   9  16  28  48  73 100 130 166 205 242 284
#
# _framework density 18.471034
#
# number of rings (size 3 to 8) (size 9 to 14) (size 15 to 20)
#    0.000    2.818    0.000    2.727    0.000    6.545 
#    0.000    0.909    0.000    4.636    0.000    2.545 
#    0.000    0.000    0.000    0.000    0.000    0.000 
#
# Total GULP energy -545539.611633 kJ/mol
# GULP energy per Si atom -12398.627537 kJ/mol
# Density = 1.842899 g / cm^3
# Si number density = 18.471034 Si / 1000 Ang^3
#
#
#
# Elastic Constant Matrix: (Units=GPa)
#
#
# Indices 1 2 3 4 5 6 
#
# 1 71.9119 32.1805 61.0307 0.0000 0.0000 0.0000
# 2 32.1805 71.9125 61.0307 0.0000 0.0000 0.0000
# 3 61.0307 61.0307 190.0499 0.0000 0.0000 0.0000
# 4 0.0000 0.0000 0.0000 23.9210 0.0000 0.0000
# 5 0.0000 0.0000 0.0000 0.0000 23.9220 0.0000
# 6 0.0000 0.0000 0.0000 0.0000 0.0000 15.5854
#
#
#
# Elastic Compliance Matrix: (Units=1/GPa)
#
#
# Indices 1 2 3 4 5 6 
#
# 1 0.020289 -0.004880 -0.004948 0.000000 0.000000 0.000000
# 2 -0.004880 0.020289 -0.004948 0.000000 0.000000 0.000000
# 3 -0.004948 -0.004948 0.008440 0.000000 0.000000 0.000000
# 4 0.000000 0.000000 0.000000 0.041804 0.000000 0.000000
# 5 0.000000 0.000000 0.000000 0.000000 0.041802 0.000000
# 6 0.000000 0.000000 0.000000 0.000000 0.000000 0.064162
#
#
# Mechanical properties :
#
#
# Convention : Reuss Voigt Hill
#
# Bulk Modulus (GPa) = 51.37393 71.37313 61.37353
# Shear Modulus (GPa) = 21.47500 24.66119 23.06810
#
# Velocity S-wave (km/s) = 3.41344 3.65790 3.53778
# Velocity P-wave (km/s) = 6.58855 7.52096 7.07014
#
# Compressibility (1/GPa) = 0.01946513
#
# Stress axis : x y z
#
# Youngs Moduli (GPa) = 49.28716 49.28775 118.48405
#
# Poissons Ratio (x) = 0.24051 0.58632
# Poissons Ratio (y) = 0.24051 0.58631
# Poissons Ratio (z) = 0.24390 0.24390
#
# Static dielectric constant tensor:
#      x y z
#    x 3.180360 0.000000 0.000000 
#    y 0.000000 3.180350 0.000000 
#    z 0.000000 0.000000 3.705630 
# 
# 
# High freq. dielectric constant tensor:
#      x y z
#    x 1.684910 0.000000 0.000000 
#    y 0.000000 1.684910 0.000000 
#    z 0.000000 0.000000 1.736910 
# 
# From -- ./inp_files/5782.got.cif
#   From: 2010.03.12/outbox.cif.g09.slc.cpg/sg115_3_cif.got.tgz:5782.got - 2010.04.14 02:11:21.
