data_PCOD8309313
_publ_section_title
;
Structure prediction by ZEFSAII (Michael W. Deem and Ramdas Pophale) SiO2 
 PCOD8309313
Probable space group: P -4 M 2
;
_chemical_formula_sum "Si O2"
_cell_formula_units_Z 44
_cell_length_a 8.204318
_cell_length_b 8.204318
_cell_length_c 31.305635
_cell_angle_alpha 90.000000
_cell_angle_beta 90.000000
_cell_angle_gamma 90.000000
_cell_volume 2107.208396
_symmetry_space_group_name_H-M "P -4 M 2"
_symmetry_group_IT_number 115
_symmetry_cell_setting 'tetragonal'
loop_
_space_group_symop_operation_xyz
x,y,z
y,-x,-z
-x,-y,z
-y,x,-z
y,x,-z
-y,-x,-z
-x,y,z
x,-y,z
loop_
_atom_site_type_symbol
_atom_site_label
_atom_site_fract_x
_atom_site_fract_y
_atom_site_fract_z
Si Si1 0.194212 0.679544 0.698214
Si Si2 0.187252 0.000000 0.651230
Si Si3 0.180853 0.192683 0.046303
Si Si4 0.823299 0.810849 0.215745
Si Si5 0.000000 0.684723 0.440635
Si Si6 0.678737 0.686778 0.868757
Si Si7 0.687798 0.687798 0.500000
O O1 0.259728 0.500000 0.683035
O O2 0.255917 0.703221 0.747334
O O3 0.000000 0.677359 0.694905
O O4 0.265054 0.831453 0.670147
O O5 0.200556 0.000000 0.600326
O O6 0.000000 0.000000 0.664900
O O7 0.297556 0.247011 0.084201
O O8 0.000000 0.264662 0.054728
O O9 0.171484 0.000000 0.044556
O O10 0.250977 0.250977 0.000000
O O11 0.766729 0.788220 0.167376
O O12 0.000000 0.727265 0.221708
O O13 0.841483 0.000000 0.223833
O O14 0.169166 0.719245 0.465706
O O15 0.000000 0.500000 0.424592
O O16 0.500000 0.767362 0.867777
O O17 0.667764 0.500000 0.857104
O O18 0.707163 0.500000 0.517939
#
# Coordination Sequence:
#
# PCOD8309313 Si02
#       7
#     8   4   8   8   4   8   4
#     4   9  17  32  54  81 115 150 187 237 295 347
#     4  10  20  34  54  86 118 150 194 246 290 345
#     4   9  19  37  59  80 101 128 168 218 270 328
#     4  10  19  34  58  82 105 138 185 237 283 334
#     4  10  22  38  60  88 120 162 208 247 305 370
#     4  11  24  37  49  74 110 142 177 219 268 332
#     4   9  20  39  60  86 124 163 206 263 312 364
#
# _framework density 20.880704999999999
#
# number of rings (size 3 to 8) (size 9 to 14) (size 15 to 20)
#    0.000    2.273    0.909    2.182    1.273    6.545 
#    0.000    3.636    0.000    1.091    0.000    0.000 
#    0.000    0.000    0.000    0.000    0.000    0.000 
#
# Total GULP energy -545090.859284 kJ/mol
# GULP energy per Si atom -12388.428620 kJ/mol
# Density = 2.083318 g / cm^3
# Si number density = 20.880705 Si / 1000 Ang^3
#
#
#
# Elastic Constant Matrix: (Units=GPa)
#
#
# Indices 1 2 3 4 5 6 
#
# 1 90.1749 23.6358 45.1960 0.0000 0.0000 0.0000
# 2 23.6358 90.1749 45.1960 0.0000 0.0000 0.0000
# 3 45.1960 45.1960 129.9244 0.0000 0.0000 0.0000
# 4 0.0000 0.0000 0.0000 12.5681 0.0000 0.0000
# 5 0.0000 0.0000 0.0000 0.0000 12.5681 0.0000
# 6 0.0000 0.0000 0.0000 0.0000 0.0000 15.9953
#
#
#
# Elastic Compliance Matrix: (Units=1/GPa)
#
#
# Indices 1 2 3 4 5 6 
#
# 1 0.013585 -0.001444 -0.004223 0.000000 0.000000 0.000000
# 2 -0.001444 0.013585 -0.004223 0.000000 0.000000 0.000000
# 3 -0.004223 -0.004223 0.010635 0.000000 0.000000 0.000000
# 4 0.000000 0.000000 0.000000 0.079566 0.000000 0.000000
# 5 0.000000 0.000000 0.000000 0.000000 0.079566 0.000000
# 6 0.000000 0.000000 0.000000 0.000000 0.000000 0.062518
#
#
# Mechanical properties :
#
#
# Convention : Reuss Voigt Hill
#
# Bulk Modulus (GPa) = 55.48362 59.81442 57.64902
# Shear Modulus (GPa) = 17.52879 21.30941 19.41910
#
# Velocity S-wave (km/s) = 2.90051 3.19804 3.05290
# Velocity P-wave (km/s) = 6.15197 6.50727 6.33211
#
# Compressibility (1/GPa) = 0.01802334
#
# Stress axis : x y z
#
# Youngs Moduli (GPa) = 73.61170 73.61170 94.02840
#
# Poissons Ratio (x) = 0.10629 0.39712
# Poissons Ratio (y) = 0.10629 0.39712
# Poissons Ratio (z) = 0.31089 0.31089
#
# Static dielectric constant tensor:
#      x y z
#    x 4.147520 0.000000 0.000000 
#    y 0.000000 4.147520 0.000000 
#    z 0.000000 0.000000 3.704580 
# 
# 
# High freq. dielectric constant tensor:
#      x y z
#    x 1.806920 0.000000 0.000000 
#    y 0.000000 1.806920 0.000000 
#    z 0.000000 0.000000 1.810740 
# 
# From -- ./inp_files/5871.got.cif
#   From: 2010.03.12/outbox.cif.g09.slc.cpg/sg115_3_cif.got.tgz:5871.got - 2010.04.14 02:11:21.
