data_PCOD8309753
_publ_section_title
;
Structure prediction by ZEFSAII (Michael W. Deem and Ramdas Pophale) SiO2 
 PCOD8309753
Probable space group: P -4 M 2
;
_chemical_formula_sum "Si O2"
_cell_formula_units_Z 48
_cell_length_a 9.398196
_cell_length_b 9.398196
_cell_length_c 30.748647
_cell_angle_alpha 90.000000
_cell_angle_beta 90.000000
_cell_angle_gamma 90.000000
_cell_volume 2715.907702
_symmetry_space_group_name_H-M "P -4 M 2"
_symmetry_group_IT_number 115
_symmetry_cell_setting 'tetragonal'
loop_
_space_group_symop_operation_xyz
x,y,z
y,-x,-z
-x,-y,z
-y,x,-z
y,x,-z
-y,-x,-z
-x,y,z
x,-y,z
loop_
_atom_site_type_symbol
_atom_site_label
_atom_site_fract_x
_atom_site_fract_y
_atom_site_fract_z
Si Si1 0.158031 0.829867 0.452620
Si Si2 0.668812 0.837873 0.277720
Si Si3 0.332838 0.164398 0.035964
Si Si4 0.168540 0.343288 0.625556
Si Si5 0.163378 0.163777 0.121815
Si Si6 0.834897 0.334133 0.206756
O O1 0.218483 0.781518 0.500000
O O2 0.249188 0.764719 0.413065
O O3 0.000000 0.769377 0.446062
O O4 0.156106 0.000000 0.451495
O O5 0.500000 0.822193 0.273423
O O6 0.718302 0.795867 0.326602
O O7 0.744568 0.729605 0.245773
O O8 0.714487 0.000000 0.266967
O O9 0.500000 0.194307 0.038633
O O10 0.263510 0.205607 0.081842
O O11 0.300558 0.000000 0.024430
O O12 0.264756 0.264756 0.000000
O O13 0.234833 0.500000 0.620716
O O14 0.000000 0.351346 0.620457
O O15 0.212017 0.260032 0.162023
O O16 0.000000 0.194367 0.108621
O O17 0.184542 0.000000 0.135337
O O18 0.801056 0.500000 0.202596
O O19 0.000000 0.304521 0.216294
#
# Coordination Sequence:
#
# PCOD8309753 Si02
#       6
#     8   8   8   8   8   8
#     4   8  13  21  35  58  86 113 144 184 228 274
#     4   9  18  32  50  72  96 124 162 205 244 286
#     4  10  21  36  55  80 108 137 169 206 247 289
#     4   8  14  25  41  62  88 117 150 189 232 277
#     4   9  18  34  55  76 100 133 171 207 243 287
#     4  10  21  35  51  74 103 132 162 199 245 295
#
# _framework density 17.673649999999999
#
# number of rings (size 3 to 8) (size 9 to 14) (size 15 to 20)
#    0.000    3.000    0.000    2.500    0.000    4.333 
#    0.000    5.000    0.000    1.000    0.000    2.333 
#    0.000    0.000    0.000    0.000    0.000    0.000 
#
# Total GULP energy -595051.294196 kJ/mol
# GULP energy per Si atom -12396.901962 kJ/mol
# Density = 1.763342 g / cm^3
# Si number density = 17.673650 Si / 1000 Ang^3
#
#
#
# Elastic Constant Matrix: (Units=GPa)
#
#
# Indices 1 2 3 4 5 6 
#
# 1 69.0923 38.4505 72.2515 0.0000 0.0000 0.0000
# 2 38.4505 69.0924 72.2515 0.0000 0.0000 0.0000
# 3 72.2515 72.2515 169.5859 0.0000 0.0000 0.0000
# 4 0.0000 0.0000 0.0000 -0.6705 0.0000 0.0000
# 5 0.0000 0.0000 0.0000 0.0000 -0.6705 0.0000
# 6 0.0000 0.0000 0.0000 0.0000 0.0000 20.6192
#
#
#
# Elastic Compliance Matrix: (Units=1/GPa)
#
#
# Indices 1 2 3 4 5 6 
#
# 1 0.027192 -0.005443 -0.009266 0.000000 0.000000 0.000000
# 2 -0.005443 0.027192 -0.009266 0.000000 0.000000 0.000000
# 3 -0.009266 -0.009266 0.013793 0.000000 0.000000 0.000000
# 4 0.000000 0.000000 0.000000 -1.491425 0.000000 0.000000
# 5 0.000000 0.000000 0.000000 0.000000 -1.491467 0.000000
# 6 0.000000 0.000000 0.000000 0.000000 0.000000 0.048498
#
#
# Mechanical properties :
#
#
# Convention : Reuss Voigt Hill
#
# Bulk Modulus (GPa) = 49.44050 74.85308 62.14679
# Shear Modulus (GPa) = -1.77840 12.17679 5.19920
#
# Velocity S-wave (km/s) = -1.00420 2.62769 1.71702
# Velocity P-wave (km/s) = 5.16626 7.18688 6.25865
#
# Compressibility (1/GPa) = 0.02022633
#
# Stress axis : x y z
#
# Youngs Moduli (GPa) = 36.77501 36.77512 72.50309
#
# Poissons Ratio (x) = 0.20016 0.67184
# Poissons Ratio (y) = 0.20016 0.67184
# Poissons Ratio (z) = 0.34077 0.34077
#
# Static dielectric constant tensor:
#      x y z
#    x 3.157800 0.000000 0.000000 
#    y 0.000000 3.157800 0.000000 
#    z 0.000000 0.000000 3.483580 
# 
# 
# High freq. dielectric constant tensor:
#      x y z
#    x 1.660760 0.000000 0.000000 
#    y 0.000000 1.660760 0.000000 
#    z 0.000000 0.000000 1.697690 
# 
# From -- ./inp_files/6118.got.cif
#   From: 2010.03.12/outbox.cif.g09.slc.cpg/sg115_4_cif.got.tgz:6118.got - 2010.04.14 02:11:21.
