data_PCOD8309216
_publ_section_title
;
Structure prediction by ZEFSAII (Michael W. Deem and Ramdas Pophale) SiO2 
 PCOD8309216
Probable space group: P -4 M 2
;
_chemical_formula_sum "Si O2"
_cell_formula_units_Z 48
_cell_length_a 23.734196
_cell_length_b 23.734196
_cell_length_c 7.762659
_cell_angle_alpha 90.000000
_cell_angle_beta 90.000000
_cell_angle_gamma 90.000000
_cell_volume 4372.799431
_symmetry_space_group_name_H-M "P -4 M 2"
_symmetry_group_IT_number 115
_symmetry_cell_setting 'tetragonal'
loop_
_space_group_symop_operation_xyz
x,y,z
y,-x,-z
-x,-y,z
-y,x,-z
y,x,-z
-y,-x,-z
-x,y,z
x,-y,z
loop_
_atom_site_type_symbol
_atom_site_label
_atom_site_fract_x
_atom_site_fract_y
_atom_site_fract_z
Si Si1 0.066835 0.765123 0.191263
Si Si2 0.765123 0.933165 0.191263
Si Si3 0.066986 0.360836 0.191472
Si Si4 0.360836 0.933014 0.191471
Si Si5 0.932671 0.436512 0.500000
Si Si6 0.156979 0.066934 0.500000
O O1 0.089354 0.702185 0.233182
O O2 0.088760 0.809035 0.332727
O O3 0.000000 0.763608 0.198010
O O4 0.087086 0.783815 1.000000
O O5 0.702185 0.910646 0.233182
O O6 0.809035 0.911239 0.332727
O O7 0.763608 0.000000 0.198011
O O8 0.091172 0.404676 0.331019
O O9 0.000000 0.360623 0.200296
O O10 0.086827 0.379328 0.000000
O O11 0.404676 0.908828 0.331019
O O12 0.360623 0.000000 0.200295
O O13 0.909078 0.500000 0.500000
O O14 0.000000 0.436564 0.500000
O O15 0.095900 0.095900 0.500000
O O16 0.147565 0.000000 0.500000
#
# Coordination Sequence:
#
# PCOD8309216 Si02
#       6
#     8   8   8   8   8   8
#     4   8  14  25  39  50  57  68  89 113 131 149
#     4   8  14  25  39  50  57  68  89 113 131 149
#     4   8  13  21  32  43  54  70  92 114 130 143
#     4   8  13  21  32  43  54  70  92 114 130 143
#     4   9  15  19  24  38  60  81  95 107 125 147
#     4  10  19  28  38  50  62  74  85 101 130 171
#
# _framework density 10.97695
#
# number of rings (size 3 to 8) (size 9 to 14) (size 15 to 20)
#    0.000    3.500    0.000    3.000    0.000    5.500 
#    0.000    3.333    0.000    0.000    0.000    4.667 
#    0.000    0.000    0.000    0.000    0.000    0.000 
#
# Total GULP energy -594730.413938 kJ/mol
# GULP energy per Si atom -12390.216957 kJ/mol
# Density = 1.095197 g / cm^3
# Si number density = 10.976950 Si / 1000 Ang^3
#
#
#
# Elastic Constant Matrix: (Units=GPa)
#
#
# Indices 1 2 3 4 5 6 
#
# 1 37.4689 18.6571 34.6099 0.0000 0.0000 0.0000
# 2 18.6571 37.4689 34.6099 0.0000 0.0000 0.0000
# 3 34.6099 34.6099 101.1962 0.0000 0.0000 0.0000
# 4 0.0000 0.0000 0.0000 7.3656 0.0000 0.0000
# 5 0.0000 0.0000 0.0000 0.0000 7.3656 0.0000
# 6 0.0000 0.0000 0.0000 0.0000 0.0000 0.4990
#
#
#
# Elastic Compliance Matrix: (Units=1/GPa)
#
#
# Indices 1 2 3 4 5 6 
#
# 1 0.041986 -0.011172 -0.010539 0.000000 0.000000 0.000000
# 2 -0.011172 0.041986 -0.010539 0.000000 0.000000 0.000000
# 3 -0.010539 -0.010539 0.017091 0.000000 0.000000 0.000000
# 4 0.000000 0.000000 0.000000 0.135766 0.000000 0.000000
# 5 0.000000 0.000000 0.000000 0.000000 0.135766 0.000000
# 6 0.000000 0.000000 0.000000 0.000000 0.000000 2.003981
#
#
# Mechanical properties :
#
#
# Convention : Reuss Voigt Hill
#
# Bulk Modulus (GPa) = 27.34910 39.09864 33.22387
# Shear Modulus (GPa) = 2.03810 8.92985 5.48398
#
# Velocity S-wave (km/s) = 1.36409 2.85530 2.23758
# Velocity P-wave (km/s) = 5.23929 6.82397 6.08345
#
# Compressibility (1/GPa) = 0.03656427
#
# Stress axis : x y z
#
# Youngs Moduli (GPa) = 23.81726 23.81726 58.51204
#
# Poissons Ratio (x) = 0.26608 0.61665
# Poissons Ratio (y) = 0.26608 0.61665
# Poissons Ratio (z) = 0.25101 0.25101
#
# Static dielectric constant tensor:
#      x y z
#    x 2.084830 0.000000 0.000000 
#    y 0.000000 2.084830 0.000000 
#    z 0.000000 0.000000 2.745480 
# 
# 
# High freq. dielectric constant tensor:
#      x y z
#    x 1.366890 0.000000 0.000000 
#    y 0.000000 1.366890 0.000000 
#    z 0.000000 0.000000 1.437890 
# 
# From -- ./inp_files/1990.got.cif
#   From: 2010.03.12/outbox.cif.g09.slc.cpg/sg115_1_cif.got.tgz:1990.got - 2010.04.14 02:11:21.
