data_PCOD8309450
_publ_section_title
;
Structure prediction by ZEFSAII (Michael W. Deem and Ramdas Pophale) SiO2 
 PCOD8309450
Probable space group: P -4 M 2
;
_chemical_formula_sum "Si O2"
_cell_formula_units_Z 48
_cell_length_a 8.966008
_cell_length_b 8.966008
_cell_length_c 31.092308
_cell_angle_alpha 90.000000
_cell_angle_beta 90.000000
_cell_angle_gamma 90.000000
_cell_volume 2499.488859
_symmetry_space_group_name_H-M "P -4 M 2"
_symmetry_group_IT_number 115
_symmetry_cell_setting 'tetragonal'
loop_
_space_group_symop_operation_xyz
x,y,z
y,-x,-z
-x,-y,z
-y,x,-z
y,x,-z
-y,-x,-z
-x,y,z
x,-y,z
loop_
_atom_site_type_symbol
_atom_site_label
_atom_site_fract_x
_atom_site_fract_y
_atom_site_fract_z
Si Si1 0.831942 0.177299 0.205635
Si Si2 0.333755 0.322382 0.453066
Si Si3 0.176823 0.328803 0.880038
Si Si4 0.673774 0.827008 0.291264
Si Si5 0.827288 0.675251 0.040051
Si Si6 0.167910 0.677084 0.369513
O O1 0.735303 0.234617 0.165391
O O2 0.758875 0.237341 0.249546
O O3 0.000000 0.239774 0.201931
O O4 0.831283 0.000000 0.206078
O O5 0.271587 0.271587 0.500000
O O6 0.500000 0.258030 0.444899
O O7 0.340722 0.500000 0.452960
O O8 0.225906 0.262537 0.415555
O O9 0.227937 0.500000 0.883997
O O10 0.250631 0.231249 0.916773
O O11 0.000000 0.314314 0.884364
O O12 0.500000 0.800214 0.283755
O O13 0.725788 0.737877 0.332689
O O14 0.711176 0.000000 0.298362
O O15 0.801900 0.500000 0.043066
O O16 0.000000 0.716236 0.033902
O O17 0.736154 0.736154 0.000000
O O18 0.174429 0.500000 0.368328
O O19 0.000000 0.735853 0.362649
#
# Coordination Sequence:
#
# PCOD8309450 Si02
#       6
#     8   8   8   8   8   8
#     4   9  17  31  53  79 107 140 176 216 264 315
#     4   8  14  27  48  70  92 124 167 211 253 300
#     4  10  20  35  57  84 111 140 177 219 262 312
#     4  10  20  34  53  77 104 136 176 220 264 311
#     4  11  24  40  58  82 111 143 180 221 265 314
#     4  10  20  33  50  74 104 137 171 209 257 312
#
# _framework density 19.203927
#
# number of rings (size 3 to 8) (size 9 to 14) (size 15 to 20)
#    0.000    2.333    0.000    3.500    0.000    8.333 
#    0.000    1.667    0.000    8.000    0.000    0.000 
#    0.000    0.000    0.000    0.000    0.000    0.000 
#
# Total GULP energy -595230.734130 kJ/mol
# GULP energy per Si atom -12400.640294 kJ/mol
# Density = 1.916022 g / cm^3
# Si number density = 19.203927 Si / 1000 Ang^3
#
#
#
# Elastic Constant Matrix: (Units=GPa)
#
#
# Indices 1 2 3 4 5 6 
#
# 1 7.2171 41.2653 13.9433 0.0000 0.0000 0.0000
# 2 41.2653 7.2171 13.9433 0.0000 0.0000 0.0000
# 3 13.9433 13.9433 126.4320 0.0000 0.0000 0.0000
# 4 0.0000 0.0000 0.0000 33.5969 0.0000 0.0000
# 5 0.0000 0.0000 0.0000 0.0000 33.5969 0.0000
# 6 0.0000 0.0000 0.0000 0.0000 0.0000 22.8378
#
#
#
# Elastic Compliance Matrix: (Units=1/GPa)
#
#
# Indices 1 2 3 4 5 6 
#
# 1 -0.003674 0.025697 -0.002429 0.000000 0.000000 0.000000
# 2 0.025697 -0.003674 -0.002429 0.000000 0.000000 0.000000
# 3 -0.002429 -0.002429 0.008445 0.000000 0.000000 0.000000
# 4 0.000000 0.000000 0.000000 0.029765 0.000000 0.000000
# 5 0.000000 0.000000 0.000000 0.000000 0.029765 0.000000
# 6 0.000000 0.000000 0.000000 0.000000 0.000000 0.043787
#
#
# Mechanical properties :
#
#
# Convention : Reuss Voigt Hill
#
# Bulk Modulus (GPa) = 23.37757 31.01891 27.19824
# Shear Modulus (GPa) = 64.93927 22.78727 43.86327
#
# Velocity S-wave (km/s) = 5.82143 3.44843 4.78439
# Velocity P-wave (km/s) = 7.57530 5.66066 6.68686
#
# Compressibility (1/GPa) = 0.04277604
#
# Stress axis : x y z
#
# Youngs Moduli (GPa) = -272.21570 -272.21570 118.41190
#
# Poissons Ratio (x) = 6.99501 0.28760
# Poissons Ratio (y) = 6.99501 0.28760
# Poissons Ratio (z) = -0.66115 -0.66115
#
# Static dielectric constant tensor:
#      x y z
#    x 3.415410 0.000000 0.000000 
#    y 0.000000 3.415410 0.000000 
#    z 0.000000 0.000000 4.133720 
# 
# 
# High freq. dielectric constant tensor:
#      x y z
#    x 1.730950 0.000000 0.000000 
#    y 0.000000 1.730950 0.000000 
#    z 0.000000 0.000000 1.767530 
# 
# From -- ./inp_files/6069.got.cif
#   From: 2010.03.12/outbox.cif.g09.slc.cpg/sg115_4_cif.got.tgz:6069.got - 2010.04.14 02:11:21.
