data_PCOD8309019
_publ_section_title
;
Structure prediction by ZEFSAII (Michael W. Deem and Ramdas Pophale) SiO2 
 PCOD8309019
Probable space group: P -4 21 C
;
_chemical_formula_sum "Si O2"
_cell_formula_units_Z 48
_cell_length_a 11.991616
_cell_length_b 11.991616
_cell_length_c 17.274023
_cell_angle_alpha 90.000000
_cell_angle_beta 90.000000
_cell_angle_gamma 90.000000
_cell_volume 2483.984716
_symmetry_space_group_name_H-M "P -4 21 C"
_symmetry_group_IT_number 114
_symmetry_cell_setting 'tetragonal'
loop_
_space_group_symop_operation_xyz
x,y,z
y,-x,-z
-x,-y,z
-y,x,-z
1/2+x,1/2-y,1/2-z
1/2-x,1/2+y,1/2-z
1/2-y,1/2-x,1/2+z
1/2+y,1/2+x,1/2+z
loop_
_atom_site_type_symbol
_atom_site_label
_atom_site_fract_x
_atom_site_fract_y
_atom_site_fract_z
Si Si1 0.375842 0.968201 0.446675
Si Si2 0.624020 0.722211 0.848209
Si Si3 0.876998 0.958125 0.193014
Si Si4 0.671262 0.663213 0.409168
Si Si5 0.730743 0.580002 0.575222
Si Si6 0.959449 0.844737 0.467199
O O1 0.394168 0.855844 0.397131
O O2 0.288376 0.954695 0.518035
O O3 0.500000 0.000000 0.478357
O O4 0.320818 0.055842 0.388915
O O5 0.573694 0.703435 0.763683
O O6 0.750673 0.763580 0.854208
O O7 0.620980 0.600807 0.887991
O O8 0.872518 0.849575 0.139955
O O9 0.822937 0.053069 0.141506
O O10 0.000000 0.000000 0.219124
O O11 0.726104 0.640278 0.491967
O O12 0.549759 0.705559 0.432733
O O13 0.087186 0.890182 0.465397
#
# Coordination Sequence:
#
# PCOD8309019 Si02
#       6
#     8   8   8   8   8   8
#     4  11  22  37  62  92 129 166 204 258 319 379
#     4  11  23  39  61  94 134 161 203 263 329 377
#     4  10  25  39  65  91 124 171 214 268 312 377
#     4  11  21  41  67  92 125 166 219 264 312 381
#     4  11  21  41  65  93 122 166 220 260 310 376
#     4   9  20  37  61  87 120 168 212 246 300 387
#
# _framework density 19.323789999999999
#
# number of rings (size 3 to 8) (size 9 to 14) (size 15 to 20)
#    0.000    1.500    5.000    0.000    7.000    0.000 
#    0.000    0.000    0.000    4.000    0.000    0.000 
#    0.000    0.000    0.000    0.000    0.000    0.000 
#
# Total GULP energy -594692.649304 kJ/mol
# GULP energy per Si atom -12389.430194 kJ/mol
# Density = 1.927981 g / cm^3
# Si number density = 19.323790 Si / 1000 Ang^3
#
#
#
# Elastic Constant Matrix: (Units=GPa)
#
#
# Indices 1 2 3 4 5 6 
#
# 1 100.5580 24.1345 12.5980 0.0000 0.0000 0.0000
# 2 24.1345 100.5580 12.5980 0.0000 0.0000 0.0000
# 3 12.5980 12.5980 45.8227 0.0000 0.0000 0.0000
# 4 0.0000 0.0000 0.0000 10.2701 0.0000 0.0000
# 5 0.0000 0.0000 0.0000 0.0000 10.2701 0.0000
# 6 0.0000 0.0000 0.0000 0.0000 0.0000 31.6652
#
#
#
# Elastic Compliance Matrix: (Units=1/GPa)
#
#
# Indices 1 2 3 4 5 6 
#
# 1 0.010788 -0.002297 -0.002335 0.000000 0.000000 0.000000
# 2 -0.002297 0.010788 -0.002335 0.000000 0.000000 0.000000
# 3 -0.002335 -0.002335 0.023107 0.000000 0.000000 0.000000
# 4 0.000000 0.000000 0.000000 0.097370 0.000000 0.000000
# 5 0.000000 0.000000 0.000000 0.000000 0.097370 0.000000
# 6 0.000000 0.000000 0.000000 0.000000 0.000000 0.031580
#
#
# Mechanical properties :
#
#
# Convention : Reuss Voigt Hill
#
# Bulk Modulus (GPa) = 32.51859 38.39995 35.45927
# Shear Modulus (GPa) = 16.93851 23.61498 20.27674
#
# Velocity S-wave (km/s) = 2.96389 3.49960 3.24283
# Velocity P-wave (km/s) = 5.34581 6.02035 5.69308
#
# Compressibility (1/GPa) = 0.03075164
#
# Stress axis : x y z
#
# Youngs Moduli (GPa) = 92.69370 92.69370 43.27711
#
# Poissons Ratio (x) = 0.21290 0.10103
# Poissons Ratio (y) = 0.21290 0.10103
# Poissons Ratio (z) = 0.21640 0.21640
#
# Static dielectric constant tensor:
#      x y z
#    x 4.796070 0.000000 0.000000 
#    y 0.000000 4.796070 0.000000 
#    z 0.000000 0.000000 3.203840 
# 
# 
# High freq. dielectric constant tensor:
#      x y z
#    x 1.766230 0.000000 0.000000 
#    y 0.000000 1.766230 0.000000 
#    z 0.000000 0.000000 1.717040 
# 
# From -- ./inp_files/2624.got.cif
#   From: 2010.03.12/outbox.cif.g09.slc.cpg/sg114_2_cif.got.tgz:2624.got - 2010.04.14 02:08:34.
