data_PCOD8309610
_publ_section_title
;
Structure prediction by ZEFSAII (Michael W. Deem and Ramdas Pophale) SiO2 
 PCOD8309610
Probable space group: P -4 M 2
;
_chemical_formula_sum "Si O2"
_cell_formula_units_Z 40
_cell_length_a 9.049136
_cell_length_b 9.049136
_cell_length_c 25.941932
_cell_angle_alpha 90.000000
_cell_angle_beta 90.000000
_cell_angle_gamma 90.000000
_cell_volume 2124.303415
_symmetry_space_group_name_H-M "P -4 M 2"
_symmetry_group_IT_number 115
_symmetry_cell_setting 'tetragonal'
loop_
_space_group_symop_operation_xyz
x,y,z
y,-x,-z
-x,-y,z
-y,x,-z
y,x,-z
-y,-x,-z
-x,y,z
x,-y,z
loop_
_atom_site_type_symbol
_atom_site_label
_atom_site_fract_x
_atom_site_fract_y
_atom_site_fract_z
Si Si1 0.824697 0.668480 0.343653
Si Si2 0.324697 0.168480 0.843653
Si Si3 0.327720 0.827720 0.250000
Si Si4 0.324273 0.335455 0.943743
Si Si5 0.164545 0.175727 0.556257
O O1 0.772935 0.500000 0.337024
O O2 0.753053 0.768043 0.300187
O O3 0.767860 0.726104 0.399155
O O4 0.000000 0.682837 0.338795
O O5 0.500000 0.182837 0.838795
O O6 0.253053 0.268043 0.800187
O O7 0.267860 0.226104 0.899155
O O8 0.272935 0.000000 0.837024
O O9 0.500000 0.793812 0.255138
O O10 0.293812 0.000000 0.244862
O O11 0.500000 0.343971 0.944010
O O12 0.259718 0.500000 0.933528
O O13 0.273929 0.273929 0.000000
O O14 0.226071 0.226071 0.500000
O O15 0.000000 0.240282 0.566472
O O16 0.156029 0.000000 0.555990
#
# Coordination Sequence:
#
# PCOD8309610 Si02
#       5
#     8   8   8   8   8
#     4  10  20  34  54  80 107 136 171 210 255 307
#     4  10  20  34  54  80 107 136 171 210 255 307
#     4  11  24  39  54  74 100 133 174 217 262 310
#     4   8  14  27  49  75 103 138 177 212 247 291
#     4   8  14  27  49  75 103 138 177 212 247 291
#
# _framework density 18.829701
#
# number of rings (size 3 to 8) (size 9 to 14) (size 15 to 20)
#    0.000    2.600    0.000    3.600    0.000    6.400 
#    0.000    2.000    0.000    7.200    0.000    0.000 
#    0.000    0.000    0.000    0.000    0.000    0.000 
#
# Total GULP energy -495905.048761 kJ/mol
# GULP energy per Si atom -12397.626219 kJ/mol
# Density = 1.878684 g / cm^3
# Si number density = 18.829701 Si / 1000 Ang^3
#
#
#
# Elastic Constant Matrix: (Units=GPa)
#
#
# Indices 1 2 3 4 5 6 
#
# 1 32.1902 27.5209 25.8920 0.0000 0.0000 0.0000
# 2 27.5209 32.1902 25.8920 0.0000 0.0000 0.0000
# 3 25.8920 25.8920 142.1510 0.0000 0.0000 0.0000
# 4 0.0000 0.0000 0.0000 30.2476 0.0000 0.0000
# 5 0.0000 0.0000 0.0000 0.0000 30.2476 0.0000
# 6 0.0000 0.0000 0.0000 0.0000 0.0000 21.4424
#
#
#
# Elastic Compliance Matrix: (Units=1/GPa)
#
#
# Indices 1 2 3 4 5 6 
#
# 1 0.117028 -0.097139 -0.003623 0.000000 0.000000 0.000000
# 2 -0.097139 0.117028 -0.003623 0.000000 0.000000 0.000000
# 3 -0.003623 -0.003623 0.008354 0.000000 0.000000 0.000000
# 4 0.000000 0.000000 0.000000 0.033060 0.000000 0.000000
# 5 0.000000 0.000000 0.000000 0.000000 0.033060 0.000000
# 6 0.000000 0.000000 0.000000 0.000000 0.000000 0.046637
#
#
# Mechanical properties :
#
#
# Convention : Reuss Voigt Hill
#
# Bulk Modulus (GPa) = 29.72490 40.57127 35.14809
# Shear Modulus (GPa) = 8.69338 24.86927 16.78132
#
# Velocity S-wave (km/s) = 2.15102 3.63815 2.98856
# Velocity P-wave (km/s) = 4.68931 6.26429 5.53313
#
# Compressibility (1/GPa) = 0.03364183
#
# Stress axis : x y z
#
# Youngs Moduli (GPa) = 8.54497 8.54497 119.69632
#
# Poissons Ratio (x) = 0.83005 0.43362
# Poissons Ratio (y) = 0.83005 0.43362
# Poissons Ratio (z) = 0.03096 0.03096
#
# Static dielectric constant tensor:
#      x y z
#    x 3.324500 0.000000 0.000000 
#    y 0.000000 3.324500 0.000000 
#    z 0.000000 0.000000 4.026180 
# 
# 
# High freq. dielectric constant tensor:
#      x y z
#    x 1.707990 0.000000 0.000000 
#    y 0.000000 1.707990 0.000000 
#    z 0.000000 0.000000 1.753880 
# 
# From -- ./inp_files/5441.got.cif
#   From: 2010.03.12/outbox.cif.g09.slc.cpg/sg115_3_cif.got.tgz:5441.got - 2010.04.14 02:11:21.
