data_PCOD8309422
_publ_section_title
;
Structure prediction by ZEFSAII (Michael W. Deem and Ramdas Pophale) SiO2 
 PCOD8309422
Probable space group: P -4 M 2
;
_chemical_formula_sum "Si O2"
_cell_formula_units_Z 44
_cell_length_a 9.187748
_cell_length_b 9.187748
_cell_length_c 28.505172
_cell_angle_alpha 90.000000
_cell_angle_beta 90.000000
_cell_angle_gamma 90.000000
_cell_volume 2406.255922
_symmetry_space_group_name_H-M "P -4 M 2"
_symmetry_group_IT_number 115
_symmetry_cell_setting 'tetragonal'
loop_
_space_group_symop_operation_xyz
x,y,z
y,-x,-z
-x,-y,z
-y,x,-z
y,x,-z
-y,-x,-z
-x,y,z
x,-y,z
loop_
_atom_site_type_symbol
_atom_site_label
_atom_site_fract_x
_atom_site_fract_y
_atom_site_fract_z
Si Si1 0.172834 0.164122 0.865485
Si Si2 0.669158 0.330843 0.500000
Si Si3 0.671218 0.168779 0.041232
Si Si4 0.169416 0.331379 0.408236
Si Si5 0.173511 0.664492 0.775558
Si Si6 0.167849 0.170604 0.315809
O O1 0.222847 0.251880 0.911294
O O2 0.236108 0.246117 0.819850
O O3 0.000000 0.159907 0.862552
O O4 0.235685 0.000000 0.867390
O O5 0.500000 0.297531 0.493224
O O6 0.730475 0.250309 0.545951
O O7 0.500000 0.193682 0.046736
O O8 0.707512 0.000000 0.030795
O O9 0.732276 0.267725 0.000000
O O10 0.205733 0.500000 0.400812
O O11 0.227429 0.247564 0.362546
O O12 0.000000 0.302161 0.415758
O O13 0.233195 0.500000 0.777723
O O14 0.229982 0.739958 0.728064
O O15 0.000000 0.665922 0.776850
O O16 0.000000 0.210693 0.306437
O O17 0.189427 0.000000 0.322673
#
# Coordination Sequence:
#
# PCOD8309422 Si02
#       6
#     8   4   8   8   8   8
#     4   9  16  27  46  71  98 128 161 199 243 289
#     4   9  18  32  48  65  86 114 148 185 226 274
#     4  10  20  33  50  73 100 130 165 204 246 293
#     4   9  18  32  48  66  90 120 152 187 229 276
#     4   9  16  26  42  67  98 127 156 194 239 283
#     4   9  17  29  45  66  92 121 153 189 230 276
#
# _framework density 18.28567
#
# number of rings (size 3 to 8) (size 9 to 14) (size 15 to 20)
#    0.000    2.818    0.000    1.636    0.000    6.909 
#    0.000    0.000    0.000    1.091    0.000    2.545 
#    0.000    0.000    0.000    0.000    0.000    0.000 
#
# Total GULP energy -545625.612333 kJ/mol
# GULP energy per Si atom -12400.582098 kJ/mol
# Density = 1.824405 g / cm^3
# Si number density = 18.285670 Si / 1000 Ang^3
#
#
#
# Elastic Constant Matrix: (Units=GPa)
#
#
# Indices 1 2 3 4 5 6 
#
# 1 69.5977 32.0448 68.0887 0.0000 0.0000 0.0000
# 2 32.0448 69.5973 68.0872 0.0000 0.0000 0.0000
# 3 68.0887 68.0872 201.8808 0.0000 0.0000 0.0000
# 4 0.0000 0.0000 0.0000 10.7259 0.0000 0.0000
# 5 0.0000 0.0000 0.0000 0.0000 10.7278 0.0000
# 6 0.0000 0.0000 0.0000 0.0000 0.0000 15.6270
#
#
#
# Elastic Compliance Matrix: (Units=1/GPa)
#
#
# Indices 1 2 3 4 5 6 
#
# 1 0.022289 -0.004340 -0.006054 0.000000 0.000000 0.000000
# 2 -0.004340 0.022289 -0.006053 0.000000 0.000000 0.000000
# 3 -0.006054 -0.006053 0.009037 0.000000 0.000000 0.000000
# 4 0.000000 0.000000 0.000000 0.093232 0.000000 0.000000
# 5 0.000000 0.000000 0.000000 0.000000 0.093216 0.000000
# 6 0.000000 0.000000 0.000000 0.000000 0.000000 0.063992
#
#
# Mechanical properties :
#
#
# Convention : Reuss Voigt Hill
#
# Bulk Modulus (GPa) = 48.26259 75.27969 61.77114
# Shear Modulus (GPa) = 14.54099 18.93982 16.74040
#
# Velocity S-wave (km/s) = 2.82301 3.22184 3.02899
# Velocity P-wave (km/s) = 6.08907 7.42283 6.78878
#
# Compressibility (1/GPa) = 0.02071998
#
# Stress axis : x y z
#
# Youngs Moduli (GPa) = 44.86502 44.86558 110.65959
#
# Poissons Ratio (x) = 0.19473 0.66989
# Poissons Ratio (y) = 0.19473 0.66986
# Poissons Ratio (z) = 0.27160 0.27159
#
# Static dielectric constant tensor:
#      x y z
#    x 3.183680 0.000000 0.000000 
#    y 0.000000 3.183670 0.000000 
#    z 0.000000 0.000000 3.636560 
# 
# 
# High freq. dielectric constant tensor:
#      x y z
#    x 1.684920 0.000000 0.000000 
#    y 0.000000 1.684920 0.000000 
#    z 0.000000 0.000000 1.725940 
# 
# From -- ./inp_files/5774.got.cif
#   From: 2010.03.12/outbox.cif.g09.slc.cpg/sg115_3_cif.got.tgz:5774.got - 2010.04.14 02:11:21.
