data_PCOD8309292
_publ_section_title
;
Structure prediction by ZEFSAII (Michael W. Deem and Ramdas Pophale) SiO2 
 PCOD8309292
Probable space group: P -4 M 2
;
_chemical_formula_sum "Si O2"
_cell_formula_units_Z 40
_cell_length_a 8.014863
_cell_length_b 8.014863
_cell_length_c 29.204130
_cell_angle_alpha 90.000000
_cell_angle_beta 90.000000
_cell_angle_gamma 90.000000
_cell_volume 1876.015747
_symmetry_space_group_name_H-M "P -4 M 2"
_symmetry_group_IT_number 115
_symmetry_cell_setting 'tetragonal'
loop_
_space_group_symop_operation_xyz
x,y,z
y,-x,-z
-x,-y,z
-y,x,-z
y,x,-z
-y,-x,-z
-x,y,z
x,-y,z
loop_
_atom_site_type_symbol
_atom_site_label
_atom_site_fract_x
_atom_site_fract_y
_atom_site_fract_z
Si Si1 0.194735 0.688205 0.547172
Si Si2 0.308019 0.180494 0.954847
Si Si3 0.318064 0.808625 0.236618
Si Si4 0.197657 0.000000 0.606830
Si Si5 0.000000 0.799783 0.289895
Si Si6 0.197961 0.309302 0.143506
O O1 0.294385 0.705615 0.500000
O O2 0.225292 0.500000 0.566709
O O3 0.000000 0.718119 0.537014
O O4 0.261176 0.830052 0.582199
O O5 0.500000 0.153992 0.943855
O O6 0.238419 0.256588 0.906874
O O7 0.225539 0.000000 0.965292
O O8 0.292084 0.292084 0.000000
O O9 0.500000 0.727231 0.248335
O O10 0.286279 0.798542 0.182353
O O11 0.165573 0.725145 0.264969
O O12 0.326029 0.000000 0.250969
O O13 0.267790 0.000000 0.658306
O O14 0.000000 0.000000 0.608133
O O15 0.000000 0.000000 0.286993
O O16 0.253408 0.500000 0.151144
O O17 0.000000 0.288793 0.147050
#
# Coordination Sequence:
#
# PCOD8309292 Si02
#       6
#     8   8   8   4   4   8
#     4  10  19  32  55  84 114 152 195 239 287 341
#     4   9  19  34  50  71 100 132 167 211 262 322
#     4  10  20  33  53  80 108 141 184 232 282 340
#     4   9  18  32  55  83 117 154 193 239 282 340
#     4   9  18  34  53  79 115 151 182 232 292 330
#     4   9  18  34  54  73  97 134 179 223 272 332
#
# _framework density 21.321781999999999
#
# number of rings (size 3 to 8) (size 9 to 14) (size 15 to 20)
#    0.000    2.600    2.000    1.200    0.000    3.400 
#    0.000   10.000    0.000    2.400    0.000    2.800 
#    0.000    0.000    0.000    0.000    0.000    0.000 
#
# Total GULP energy -495581.164257 kJ/mol
# GULP energy per Si atom -12389.529106 kJ/mol
# Density = 2.127325 g / cm^3
# Si number density = 21.321782 Si / 1000 Ang^3
#
#
#
# Elastic Constant Matrix: (Units=GPa)
#
#
# Indices 1 2 3 4 5 6 
#
# 1 82.5389 21.9568 47.1410 0.0000 0.0000 0.0000
# 2 21.9568 82.5389 47.1410 0.0000 0.0000 0.0000
# 3 47.1410 47.1410 168.7811 0.0000 0.0000 0.0000
# 4 0.0000 0.0000 0.0000 10.0769 0.0000 0.0000
# 5 0.0000 0.0000 0.0000 0.0000 10.0769 0.0000
# 6 0.0000 0.0000 0.0000 0.0000 0.0000 12.7081
#
#
#
# Elastic Compliance Matrix: (Units=1/GPa)
#
#
# Indices 1 2 3 4 5 6 
#
# 1 0.014650 -0.001856 -0.003573 0.000000 0.000000 0.000000
# 2 -0.001856 0.014650 -0.003573 0.000000 0.000000 0.000000
# 3 -0.003573 -0.003573 0.007921 0.000000 0.000000 0.000000
# 4 0.000000 0.000000 0.000000 0.099237 0.000000 0.000000
# 5 0.000000 0.000000 0.000000 0.000000 0.099237 0.000000
# 6 0.000000 0.000000 0.000000 0.000000 0.000000 0.078690
#
#
# Mechanical properties :
#
#
# Convention : Reuss Voigt Hill
#
# Bulk Modulus (GPa) = 52.04209 62.92627 57.48418
# Shear Modulus (GPa) = 14.75812 21.08038 17.91925
#
# Velocity S-wave (km/s) = 2.63375 3.14774 2.90214
# Velocity P-wave (km/s) = 5.80601 6.54123 6.18456
#
# Compressibility (1/GPa) = 0.01921522
#
# Stress axis : x y z
#
# Youngs Moduli (GPa) = 68.25845 68.25845 126.24789
#
# Poissons Ratio (x) = 0.12671 0.45113
# Poissons Ratio (y) = 0.12671 0.45113
# Poissons Ratio (z) = 0.24391 0.24391
#
# Static dielectric constant tensor:
#      x y z
#    x 3.691620 0.000000 0.000000 
#    y 0.000000 3.691620 0.000000 
#    z 0.000000 0.000000 3.897800 
# 
# 
# High freq. dielectric constant tensor:
#      x y z
#    x 1.812790 0.000000 0.000000 
#    y 0.000000 1.812790 0.000000 
#    z 0.000000 0.000000 1.833540 
# 
# From -- ./inp_files/5575.got.cif
#   From: 2010.03.12/outbox.cif.g09.slc.cpg/sg115_3_cif.got.tgz:5575.got - 2010.04.14 02:11:21.
