data_PCOD8309357
_publ_section_title
;
Structure prediction by ZEFSAII (Michael W. Deem and Ramdas Pophale) SiO2 
 PCOD8309357
Probable space group: P -4 M 2
;
_chemical_formula_sum "Si O2"
_cell_formula_units_Z 44
_cell_length_a 9.179739
_cell_length_b 9.179739
_cell_length_c 28.555189
_cell_angle_alpha 90.000000
_cell_angle_beta 90.000000
_cell_angle_gamma 90.000000
_cell_volume 2406.277476
_symmetry_space_group_name_H-M "P -4 M 2"
_symmetry_group_IT_number 115
_symmetry_cell_setting 'tetragonal'
loop_
_space_group_symop_operation_xyz
x,y,z
y,-x,-z
-x,-y,z
-y,x,-z
y,x,-z
-y,-x,-z
-x,y,z
x,-y,z
loop_
_atom_site_type_symbol
_atom_site_label
_atom_site_fract_x
_atom_site_fract_y
_atom_site_fract_z
Si Si1 0.671039 0.330457 0.583365
Si Si2 0.829234 0.829234 0.500000
Si Si3 0.827409 0.333211 0.958579
Si Si4 0.834205 0.329597 0.676778
Si Si5 0.835666 0.827206 0.233771
Si Si6 0.173241 0.163802 0.868882
O O1 0.500000 0.299047 0.582585
O O2 0.704440 0.500000 0.572943
O O3 0.748732 0.231953 0.545220
O O4 0.734444 0.282430 0.633405
O O5 0.000000 0.796756 0.504554
O O6 0.778739 0.500000 0.961930
O O7 0.767962 0.270698 0.909173
O O8 0.000000 0.314940 0.962457
O O9 0.756280 0.243721 0.000000
O O10 0.830610 0.500000 0.684563
O O11 0.764752 0.260717 0.723820
O O12 0.000000 0.275752 0.667559
O O13 0.782285 0.771273 0.182461
O O14 0.000000 0.774657 0.242091
O O15 0.824885 0.000000 0.234458
O O16 0.000000 0.163081 0.868941
O O17 0.230346 0.000000 0.878713
#
# Coordination Sequence:
#
# PCOD8309357 Si02
#       6
#     8   4   8   8   8   8
#     4  10  21  37  56  77 103 137 174 209 247 294
#     4  11  24  39  56  80 106 131 164 209 258 304
#     4  10  20  32  48  71  97 127 164 205 249 298
#     4   9  17  29  47  72 101 132 165 203 246 290
#     4   8  14  25  43  69  99 128 159 199 246 291
#     4   8  14  26  45  69  96 125 159 202 250 296
#
# _framework density 18.285506999999999
#
# number of rings (size 3 to 8) (size 9 to 14) (size 15 to 20)
#    0.000    2.818    0.000    2.727    0.000    5.455 
#    0.000    5.455    0.000    1.091    0.000    5.091 
#    0.000    0.000    0.000    0.000    0.000    0.000 
#
# Total GULP energy -545422.896159 kJ/mol
# GULP energy per Si atom -12395.974913 kJ/mol
# Density = 1.824389 g / cm^3
# Si number density = 18.285507 Si / 1000 Ang^3
#
#
#
# Elastic Constant Matrix: (Units=GPa)
#
#
# Indices 1 2 3 4 5 6 
#
# 1 54.6642 33.9278 56.5754 0.0000 0.0000 0.0000
# 2 33.9278 54.6687 56.5772 0.0000 0.0000 0.0000
# 3 56.5754 56.5772 174.4914 0.0000 0.0000 0.0000
# 4 0.0000 0.0000 0.0000 -8.7108 0.0000 0.0000
# 5 0.0000 0.0000 0.0000 0.0000 -8.7090 0.0000
# 6 0.0000 0.0000 0.0000 0.0000 0.0000 17.6067
#
#
#
# Elastic Compliance Matrix: (Units=1/GPa)
#
#
# Indices 1 2 3 4 5 6 
#
# 1 0.033744 -0.014477 -0.006247 0.000000 0.000000 0.000000
# 2 -0.014477 0.033741 -0.006246 0.000000 0.000000 0.000000
# 3 -0.006247 -0.006246 0.009782 0.000000 0.000000 0.000000
# 4 0.000000 0.000000 0.000000 -0.114801 0.000000 0.000000
# 5 0.000000 0.000000 0.000000 0.000000 -0.114823 0.000000
# 6 0.000000 0.000000 0.000000 0.000000 0.000000 0.056796
#
#
# Mechanical properties :
#
#
# Convention : Reuss Voigt Hill
#
# Bulk Modulus (GPa) = 42.86980 64.22058 53.54519
# Shear Modulus (GPa) = -147.72926 9.15365 -69.28781
#
# Velocity S-wave (km/s) = -8.99810 2.23983 -6.16234
# Velocity P-wave (km/s) = 9.19014 6.47197 4.61370
#
# Compressibility (1/GPa) = 0.02332644
#
# Stress axis : x y z
#
# Youngs Moduli (GPa) = 29.63499 29.63766 102.23213
#
# Poissons Ratio (x) = 0.42906 0.63862
# Poissons Ratio (y) = 0.42902 0.63858
# Poissons Ratio (z) = 0.18512 0.18513
#
# Static dielectric constant tensor:
#      x y z
#    x 3.230420 0.000000 0.000000 
#    y 0.000000 3.230420 0.000000 
#    z 0.000000 0.000000 3.904510 
# 
# 
# High freq. dielectric constant tensor:
#      x y z
#    x 1.683410 0.000000 0.000000 
#    y 0.000000 1.683410 0.000000 
#    z 0.000000 0.000000 1.730190 
# 
# From -- ./inp_files/5805.got.cif
#   From: 2010.03.12/outbox.cif.g09.slc.cpg/sg115_3_cif.got.tgz:5805.got - 2010.04.14 02:11:21.
