data_PCOD8309617
_publ_section_title
;
Structure prediction by ZEFSAII (Michael W. Deem and Ramdas Pophale) SiO2 
 PCOD8309617
Probable space group: P -4 M 2
;
_chemical_formula_sum "Si O2"
_cell_formula_units_Z 48
_cell_length_a 9.085521
_cell_length_b 9.085521
_cell_length_c 30.864509
_cell_angle_alpha 90.000000
_cell_angle_beta 90.000000
_cell_angle_gamma 90.000000
_cell_volume 2547.763113
_symmetry_space_group_name_H-M "P -4 M 2"
_symmetry_group_IT_number 115
_symmetry_cell_setting 'tetragonal'
loop_
_space_group_symop_operation_xyz
x,y,z
y,-x,-z
-x,-y,z
-y,x,-z
y,x,-z
-y,-x,-z
-x,y,z
x,-y,z
loop_
_atom_site_type_symbol
_atom_site_label
_atom_site_fract_x
_atom_site_fract_y
_atom_site_fract_z
Si Si1 0.825024 0.163883 0.047306
Si Si2 0.170574 0.830871 0.374831
Si Si3 0.331776 0.174532 0.868783
Si Si4 0.672219 0.171192 0.209575
Si Si5 0.326974 0.831522 0.461575
Si Si6 0.327098 0.170060 0.712461
O O1 0.769059 0.273397 0.084655
O O2 0.000000 0.155133 0.047092
O O3 0.760634 0.000000 0.055982
O O4 0.775001 0.225000 0.000000
O O5 0.260560 0.774982 0.416315
O O6 0.219128 0.732274 0.334305
O O7 0.000000 0.809005 0.385742
O O8 0.207492 0.000000 0.363730
O O9 0.500000 0.225121 0.863624
O O10 0.234220 0.247410 0.832154
O O11 0.316471 0.000000 0.864427
O O12 0.500000 0.200161 0.204746
O O13 0.728741 0.251686 0.252149
O O14 0.710195 0.000000 0.213553
O O15 0.267746 0.732255 0.500000
O O16 0.500000 0.813469 0.459011
O O17 0.279331 0.000000 0.469895
O O18 0.500000 0.196889 0.714005
O O19 0.287192 0.000000 0.721756
#
# Coordination Sequence:
#
# PCOD8309617 Si02
#       6
#     8   8   8   8   8   8
#     4   8  14  27  49  75 102 135 176 219 260 303
#     4   9  18  34  56  80 107 141 180 220 261 308
#     4  10  20  34  54  80 108 139 176 217 263 315
#     4  11  24  39  55  77 105 139 179 221 265 313
#     4  10  21  36  55  80 110 144 182 224 268 314
#     4  10  21  37  58  84 111 139 173 214 262 317
#
# _framework density 18.840055
#
# number of rings (size 3 to 8) (size 9 to 14) (size 15 to 20)
#    0.000    2.333    0.000    3.000    0.000    7.667 
#    0.000    4.167    0.000    3.000    0.000    0.000 
#    0.000    0.000    0.000    0.000    0.000    0.000 
#
# Total GULP energy -595292.102154 kJ/mol
# GULP energy per Si atom -12401.918795 kJ/mol
# Density = 1.879717 g / cm^3
# Si number density = 18.840055 Si / 1000 Ang^3
#
#
#
# Elastic Constant Matrix: (Units=GPa)
#
#
# Indices 1 2 3 4 5 6 
#
# 1 62.1437 31.8335 51.0736 0.0000 0.0000 0.0000
# 2 31.8335 62.1445 51.0750 0.0000 0.0000 0.0000
# 3 51.0736 51.0750 149.1132 0.0000 0.0000 0.0000
# 4 0.0000 0.0000 0.0000 -27.2778 0.0000 0.0000
# 5 0.0000 0.0000 0.0000 0.0000 -27.2802 0.0000
# 6 0.0000 0.0000 0.0000 0.0000 0.0000 23.1209
#
#
#
# Elastic Compliance Matrix: (Units=1/GPa)
#
#
# Indices 1 2 3 4 5 6 
#
# 1 0.024972 -0.008020 -0.005806 0.000000 0.000000 0.000000
# 2 -0.008020 0.024972 -0.005807 0.000000 0.000000 0.000000
# 3 -0.005806 -0.005807 0.010684 0.000000 0.000000 0.000000
# 4 0.000000 0.000000 0.000000 -0.036660 0.000000 0.000000
# 5 0.000000 0.000000 0.000000 0.000000 -0.036657 0.000000
# 6 0.000000 0.000000 0.000000 0.000000 0.000000 0.043251
#
#
# Mechanical properties :
#
#
# Convention : Reuss Voigt Hill
#
# Bulk Modulus (GPa) = 46.81112 60.15175 53.48143
# Shear Modulus (GPa) = 64.97850 3.00720 33.99285
#
# Velocity S-wave (km/s) = 5.87915 1.26477 4.25230
# Velocity P-wave (km/s) = 8.42534 5.84207 7.24970
#
# Compressibility (1/GPa) = 0.02136244
#
# Stress axis : x y z
#
# Youngs Moduli (GPa) = 40.04497 40.04490 93.59812
#
# Poissons Ratio (x) = 0.32115 0.54346
# Poissons Ratio (y) = 0.32115 0.54349
# Poissons Ratio (z) = 0.23251 0.23253
#
# Static dielectric constant tensor:
#      x y z
#    x 3.396390 0.000000 0.000000 
#    y 0.000000 3.396390 0.000000 
#    z 0.000000 0.000000 3.764620 
# 
# 
# High freq. dielectric constant tensor:
#      x y z
#    x 1.720950 0.000000 0.000000 
#    y 0.000000 1.720950 0.000000 
#    z 0.000000 0.000000 1.749180 
# 
# From -- ./inp_files/5936.got.cif
#   From: 2010.03.12/outbox.cif.g09.slc.cpg/sg115_3_cif.got.tgz:5936.got - 2010.04.14 02:11:21.
