data_PCOD8309247
_publ_section_title
;
Structure prediction by ZEFSAII (Michael W. Deem and Ramdas Pophale) SiO2 
 PCOD8309247
Probable space group: P -4 M 2
;
_chemical_formula_sum "Si O2"
_cell_formula_units_Z 48
_cell_length_a 13.756017
_cell_length_b 13.756017
_cell_length_c 14.815032
_cell_angle_alpha 90.000000
_cell_angle_beta 90.000000
_cell_angle_gamma 90.000000
_cell_volume 2803.418930
_symmetry_space_group_name_H-M "P -4 M 2"
_symmetry_group_IT_number 115
_symmetry_cell_setting 'tetragonal'
loop_
_space_group_symop_operation_xyz
x,y,z
y,-x,-z
-x,-y,z
-y,x,-z
y,x,-z
-y,-x,-z
-x,y,z
x,-y,z
loop_
_atom_site_type_symbol
_atom_site_label
_atom_site_fract_x
_atom_site_fract_y
_atom_site_fract_z
Si Si1 0.237279 0.613535 0.041843
Si Si2 0.113636 0.394111 0.870099
Si Si3 0.706220 0.114079 0.796888
Si Si4 0.222476 0.114538 0.255860
Si Si5 0.750928 0.887088 0.460190
Si Si6 0.884914 0.392709 0.391433
O O1 0.263641 0.500000 0.061580
O O2 0.189418 0.664044 0.129500
O O3 0.332108 0.667893 0.000000
O O4 0.153675 0.623542 0.968837
O O5 0.145436 0.500000 0.832796
O O6 0.150845 0.314005 0.801356
O O7 0.000000 0.386176 0.880299
O O8 0.821871 0.131495 0.779896
O O9 0.653962 0.142638 0.704033
O O10 0.690418 0.000000 0.823139
O O11 0.255798 0.142804 0.356293
O O12 0.196673 0.000000 0.246094
O O13 0.853936 0.853936 0.500000
O O14 0.666472 0.840158 0.523199
O O15 0.745824 0.000000 0.472043
O O16 0.839142 0.500000 0.395367
O O17 0.000000 0.397439 0.400756
#
# Coordination Sequence:
#
# PCOD8309247 Si02
#       6
#     8   8   8   8   8   8
#     4  11  22  37  58  82 105 134 172 217 268 320
#     4   9  18  34  55  77 101 130 168 213 260 314
#     4  11  21  35  55  79 109 144 181 219 260 316
#     4  10  20  33  52  78 108 142 179 216 262 318
#     4  10  19  31  48  72 102 138 176 213 255 309
#     4   9  18  32  50  74 103 135 175 223 266 303
#
# _framework density 17.121949999999998
#
# number of rings (size 3 to 8) (size 9 to 14) (size 15 to 20)
#    0.000    2.000    3.333    1.000    0.000    3.000 
#    0.000    5.000    0.000    0.000    0.000    0.000 
#    0.000    1.667    0.000    0.000    0.000    0.000 
#
# Total GULP energy -594749.906883 kJ/mol
# GULP energy per Si atom -12390.623060 kJ/mol
# Density = 1.708298 g / cm^3
# Si number density = 17.121950 Si / 1000 Ang^3
#
#
#
# Elastic Constant Matrix: (Units=GPa)
#
#
# Indices 1 2 3 4 5 6 
#
# 1 -553.9390 649.1802 46.7389 0.0000 0.0000 0.0000
# 2 649.1802 -553.9858 46.7311 0.0000 0.0000 0.0000
# 3 46.7389 46.7311 93.4995 0.0000 0.0000 0.0000
# 4 0.0000 0.0000 0.0000 18.9857 0.0000 0.0000
# 5 0.0000 0.0000 0.0000 0.0000 18.9817 0.0000
# 6 0.0000 0.0000 0.0000 0.0000 0.0000 20.1407
#
#
#
# Elastic Compliance Matrix: (Units=1/GPa)
#
#
# Indices 1 2 3 4 5 6 
#
# 1 0.009895 0.010725 -0.010307 0.000000 0.000000 0.000000
# 2 0.010725 0.009894 -0.010306 0.000000 0.000000 0.000000
# 3 -0.010307 -0.010306 0.020999 0.000000 0.000000 0.000000
# 4 0.000000 0.000000 0.000000 0.052671 0.000000 0.000000
# 5 0.000000 0.000000 0.000000 0.000000 0.052682 0.000000
# 6 0.000000 0.000000 0.000000 0.000000 0.000000 0.049651
#
#
# Mechanical properties :
#
#
# Convention : Reuss Voigt Hill
#
# Bulk Modulus (GPa) = 47.59289 52.31946 49.95617
# Shear Modulus (GPa) = 22.46483 -105.51672 -41.52595
#
# Velocity S-wave (km/s) = 3.62615 -7.85878 -4.93008
# Velocity P-wave (km/s) = 6.73712 7.19193 1.77977
#
# Compressibility (1/GPa) = 0.02101154
#
# Stress axis : x y z
#
# Youngs Moduli (GPa) = 101.06585 101.07269 47.62241
#
# Poissons Ratio (x) = -1.08404 0.49083
# Poissons Ratio (y) = -1.08397 0.49082
# Poissons Ratio (z) = 1.04165 1.04169
#
# Static dielectric constant tensor:
#      x y z
#    x 3.299280 0.000000 0.000000 
#    y 0.000000 3.299280 0.000000 
#    z 0.000000 0.000000 3.457290 
# 
# 
# High freq. dielectric constant tensor:
#      x y z
#    x 1.648670 0.000000 0.000000 
#    y 0.000000 1.648670 0.000000 
#    z 0.000000 0.000000 1.674060 
# 
# From -- ./inp_files/2987.got.cif
#   From: 2010.03.12/outbox.cif.g09.slc.cpg/sg115_2_cif.got.tgz:2987.got - 2010.04.14 02:11:21.
