data_PCOD8309758
_publ_section_title
;
Structure prediction by ZEFSAII (Michael W. Deem and Ramdas Pophale) SiO2 
 PCOD8309758
Probable space group: P -4 M 2
;
_chemical_formula_sum "Si O2"
_cell_formula_units_Z 29
_cell_length_a 8.026561
_cell_length_b 8.026561
_cell_length_c 21.080735
_cell_angle_alpha 90.000000
_cell_angle_beta 90.000000
_cell_angle_gamma 90.000000
_cell_volume 1358.140719
_symmetry_space_group_name_H-M "P -4 M 2"
_symmetry_group_IT_number 115
_symmetry_cell_setting 'tetragonal'
loop_
_space_group_symop_operation_xyz
x,y,z
y,-x,-z
-x,-y,z
-y,x,-z
y,x,-z
-y,-x,-z
-x,y,z
x,-y,z
loop_
_atom_site_type_symbol
_atom_site_label
_atom_site_fract_x
_atom_site_fract_y
_atom_site_fract_z
Si Si1 0.309033 0.193441 0.671643
Si Si2 0.500000 0.811738 0.407485
Si Si3 0.183457 0.308985 0.935973
Si Si4 0.500000 0.500000 0.500000
Si Si5 0.184040 0.806958 0.805285
O O1 0.500000 0.209275 0.650813
O O2 0.203964 0.328094 0.632224
O O3 0.293897 0.249674 0.745344
O O4 0.248123 0.000000 0.660733
O O5 0.500000 0.670978 0.460872
O O6 0.500000 0.000000 0.436160
O O7 0.167213 0.500000 0.921348
O O8 0.271857 0.232444 0.873147
O O9 0.000000 0.227932 0.945203
O O10 0.286515 0.286515 0.000000
O O11 0.000000 0.721105 0.803071
O O12 0.159606 0.000000 0.799200
#
# Coordination Sequence:
#
# PCOD8309758 Si02
#       5
#     8   4   8   1   8
#     4  10  21  40  67 101 140 177 222 277 332 394
#     4  12  26  46  76 104 142 187 221 274 327 382
#     4  10  21  35  51  74 108 152 205 262 320 385
#     4  12  28  52  68 112 148 176 234 260 324 388
#     4   9  18  33  55  85 118 156 207 263 322 389
#
# _framework density 21.352720000000001
#
# number of rings (size 3 to 8) (size 9 to 14) (size 15 to 20)
#    0.000    1.931    1.379    1.655    1.931    5.517 
#    0.000    2.759    0.000    0.000    0.000    0.000 
#    0.000    0.000    0.000    0.000    0.000    0.000 
#
# Total GULP energy -359288.495735 kJ/mol
# GULP energy per Si atom -12389.258474 kJ/mol
# Density = 2.130412 g / cm^3
# Si number density = 21.352720 Si / 1000 Ang^3
#
#
#
# Elastic Constant Matrix: (Units=GPa)
#
#
# Indices 1 2 3 4 5 6 
#
# 1 87.0462 33.9272 45.2380 0.0000 0.0000 0.0000
# 2 33.9272 87.0462 45.2380 0.0000 0.0000 0.0000
# 3 45.2380 45.2380 126.2224 0.0000 0.0000 0.0000
# 4 0.0000 0.0000 0.0000 31.8486 0.0000 0.0000
# 5 0.0000 0.0000 0.0000 0.0000 31.8486 0.0000
# 6 0.0000 0.0000 0.0000 0.0000 0.0000 20.5612
#
#
#
# Elastic Compliance Matrix: (Units=1/GPa)
#
#
# Indices 1 2 3 4 5 6 
#
# 1 0.015060 -0.003766 -0.004048 0.000000 0.000000 0.000000
# 2 -0.003766 0.015060 -0.004048 0.000000 0.000000 0.000000
# 3 -0.004048 -0.004048 0.010824 0.000000 0.000000 0.000000
# 4 0.000000 0.000000 0.000000 0.031399 0.000000 0.000000
# 5 0.000000 0.000000 0.000000 0.000000 0.031399 0.000000
# 6 0.000000 0.000000 0.000000 0.000000 0.000000 0.048635
#
#
# Mechanical properties :
#
#
# Convention : Reuss Voigt Hill
#
# Bulk Modulus (GPa) = 58.07048 61.01349 59.54198
# Shear Modulus (GPa) = 27.49702 28.57912 28.03807
#
# Velocity S-wave (km/s) = 3.59242 3.66242 3.62759
# Velocity P-wave (km/s) = 6.66800 6.82060 6.74473
#
# Compressibility (1/GPa) = 0.01722045
#
# Stress axis : x y z
#
# Youngs Moduli (GPa) = 66.40303 66.40303 92.38881
#
# Poissons Ratio (x) = 0.25008 0.37395
# Poissons Ratio (y) = 0.25008 0.37395
# Poissons Ratio (z) = 0.26877 0.26877
#
# Static dielectric constant tensor:
#      x y z
#    x 4.012440 0.000000 0.000000 
#    y 0.000000 4.012440 0.000000 
#    z 0.000000 0.000000 3.907050 
# 
# 
# High freq. dielectric constant tensor:
#      x y z
#    x 1.828230 0.000000 0.000000 
#    y 0.000000 1.828230 0.000000 
#    z 0.000000 0.000000 1.833680 
# 
# From -- ./inp_files/4599.got.cif
#   From: 2010.03.12/outbox.cif.g09.slc.cpg/sg115_3_cif.got.tgz:4599.got - 2010.04.14 02:11:21.
