data_PCOD8309659
_publ_section_title
;
Structure prediction by ZEFSAII (Michael W. Deem and Ramdas Pophale) SiO2 
 PCOD8309659
Probable space group: P -4 M 2
;
_chemical_formula_sum "Si O2"
_cell_formula_units_Z 37
_cell_length_a 8.236362
_cell_length_b 8.236362
_cell_length_c 25.830549
_cell_angle_alpha 90.000000
_cell_angle_beta 90.000000
_cell_angle_gamma 90.000000
_cell_volume 1752.283975
_symmetry_space_group_name_H-M "P -4 M 2"
_symmetry_group_IT_number 115
_symmetry_cell_setting 'tetragonal'
loop_
_space_group_symop_operation_xyz
x,y,z
y,-x,-z
-x,-y,z
-y,x,-z
y,x,-z
-y,-x,-z
-x,y,z
x,-y,z
loop_
_atom_site_type_symbol
_atom_site_label
_atom_site_fract_x
_atom_site_fract_y
_atom_site_fract_z
Si Si1 0.311299 0.681427 0.357902
Si Si2 0.000000 0.000000 0.500000
Si Si3 0.694304 0.000000 0.424889
Si Si4 0.818119 0.317176 0.949707
Si Si5 0.822273 0.809593 0.743728
Si Si6 0.322814 0.188241 0.848331
O O1 0.500000 0.689547 0.347570
O O2 0.264398 0.500000 0.380422
O O3 0.226451 0.698373 0.302483
O O4 0.262817 0.832980 0.394450
O O5 0.000000 0.826996 0.529690
O O6 0.500000 0.000000 0.441568
O O7 0.796319 0.500000 0.930332
O O8 0.777016 0.206266 0.900947
O O9 0.000000 0.277992 0.967654
O O10 0.708049 0.291951 0.000000
O O11 0.762598 0.731444 0.798090
O O12 0.000000 0.735240 0.730708
O O13 0.837538 0.000000 0.750637
O O14 0.500000 0.269001 0.855529
O O15 0.342486 0.000000 0.836766
#
# Coordination Sequence:
#
# PCOD8309659 Si02
#       6
#     8   1   4   8   8   8
#     4  10  21  38  62  91 127 172 214 260 324 383
#     4  12  28  44  76 104 132 180 236 264 330 392
#     4  10  24  46  66  98 140 172 220 281 321 378
#     4  11  24  40  58  80 105 140 187 239 298 364
#     4  10  20  34  57  88 123 160 204 254 308 372
#     4  10  21  37  56  82 115 150 193 245 301 365
#
# _framework density 21.115299
#
# number of rings (size 3 to 8) (size 9 to 14) (size 15 to 20)
#    0.000    1.730    1.081    2.595    1.514    8.649 
#    0.000    0.000    0.000    0.000    0.000    0.000 
#    0.000    0.000    0.000    0.000    0.000    0.000 
#
# Total GULP energy -458522.798780 kJ/mol
# GULP energy per Si atom -12392.508075 kJ/mol
# Density = 2.106724 g / cm^3
# Si number density = 21.115299 Si / 1000 Ang^3
#
#
#
# Elastic Constant Matrix: (Units=GPa)
#
#
# Indices 1 2 3 4 5 6 
#
# 1 85.6778 41.6270 44.9607 0.0000 0.0000 0.0000
# 2 41.6270 85.6766 44.9607 0.0000 0.0000 0.0000
# 3 44.9607 44.9607 127.2079 0.0000 0.0000 0.0000
# 4 0.0000 0.0000 0.0000 18.5870 0.0000 0.0000
# 5 0.0000 0.0000 0.0000 0.0000 18.5871 0.0000
# 6 0.0000 0.0000 0.0000 0.0000 0.0000 23.1577
#
#
#
# Elastic Compliance Matrix: (Units=1/GPa)
#
#
# Indices 1 2 3 4 5 6 
#
# 1 0.016585 -0.006116 -0.003700 0.000000 0.000000 0.000000
# 2 -0.006116 0.016585 -0.003700 0.000000 0.000000 0.000000
# 3 -0.003700 -0.003700 0.010477 0.000000 0.000000 0.000000
# 4 0.000000 0.000000 0.000000 0.053801 0.000000 0.000000
# 5 0.000000 0.000000 0.000000 0.000000 0.053801 0.000000
# 6 0.000000 0.000000 0.000000 0.000000 0.000000 0.043182
#
#
# Mechanical properties :
#
#
# Convention : Reuss Voigt Hill
#
# Bulk Modulus (GPa) = 60.19091 62.40658 61.29875
# Shear Modulus (GPa) = 22.02627 23.20063 22.61345
#
# Velocity S-wave (km/s) = 3.23328 3.31835 3.27609
# Velocity P-wave (km/s) = 6.51970 6.65592 6.58816
#
# Compressibility (1/GPa) = 0.01661380
#
# Stress axis : x y z
#
# Youngs Moduli (GPa) = 60.29566 60.29469 95.44985
#
# Poissons Ratio (x) = 0.36878 0.35317
# Poissons Ratio (y) = 0.36879 0.35318
# Poissons Ratio (z) = 0.22310 0.22310
#
# Static dielectric constant tensor:
#      x y z
#    x 4.032300 0.000000 0.000000 
#    y 0.000000 4.032310 0.000000 
#    z 0.000000 0.000000 3.577990 
# 
# 
# High freq. dielectric constant tensor:
#      x y z
#    x 1.830110 0.000000 0.000000 
#    y 0.000000 1.830110 0.000000 
#    z 0.000000 0.000000 1.815020 
# 
# From -- ./inp_files/5162.got.cif
#   From: 2010.03.12/outbox.cif.g09.slc.cpg/sg115_3_cif.got.tgz:5162.got - 2010.04.14 02:11:21.
