data_PCOD8309170
_publ_section_title
;
Structure prediction by ZEFSAII (Michael W. Deem and Ramdas Pophale) SiO2 
 PCOD8309170
Probable space group: P -4 M 2
;
_chemical_formula_sum "Si O2"
_cell_formula_units_Z 48
_cell_length_a 17.811128
_cell_length_b 17.811128
_cell_length_c 9.997856
_cell_angle_alpha 90.000000
_cell_angle_beta 90.000000
_cell_angle_gamma 90.000000
_cell_volume 3171.682652
_symmetry_space_group_name_H-M "P -4 M 2"
_symmetry_group_IT_number 115
_symmetry_cell_setting 'tetragonal'
loop_
_space_group_symop_operation_xyz
x,y,z
y,-x,-z
-x,-y,z
-y,x,-z
y,x,-z
-y,-x,-z
-x,y,z
x,-y,z
loop_
_atom_site_type_symbol
_atom_site_label
_atom_site_fract_x
_atom_site_fract_y
_atom_site_fract_z
Si Si1 0.585769 0.301375 0.522393
Si Si2 0.915241 0.586000 0.343247
Si Si3 0.084488 0.413734 0.658625
Si Si4 0.654328 0.773429 0.769000
Si Si5 0.586922 0.295823 0.020044
Si Si6 0.770821 0.656705 0.726099
O O1 0.612995 0.387006 0.500000
O O2 0.500000 0.294644 0.484463
O O3 0.600060 0.275957 0.674234
O O4 0.633175 0.248159 0.424922
O O5 0.892476 0.500000 0.307874
O O6 0.908818 0.598244 0.500676
O O7 0.861017 0.645395 0.268346
O O8 0.000000 0.602106 0.294586
O O9 0.105872 0.500000 0.693976
O O10 0.139065 0.355010 0.736437
O O11 0.000000 0.396303 0.706819
O O12 0.740506 0.742085 0.752200
O O13 0.628109 0.762785 0.921204
O O14 0.500000 0.299872 0.986862
O O15 0.600446 0.269350 0.171116
O O16 0.621377 0.378624 0.000000
#
# Coordination Sequence:
#
# PCOD8309170 Si02
#       6
#     8   8   8   8   8   8
#     4  10  18  27  41  57  75 103 136 172 210 244
#     4   9  16  26  43  65  86 108 135 171 213 257
#     4   9  16  26  43  65  86 108 135 171 213 257
#     4  10  19  30  44  61  82 109 140 175 213 253
#     4  10  20  31  43  59  81 113 148 182 218 250
#     4  10  19  30  44  61  82 109 140 175 213 253
#
# _framework density 15.133922999999999
#
# number of rings (size 3 to 8) (size 9 to 14) (size 15 to 20)
#    0.000    2.333    1.667    4.000    0.000    0.333 
#    0.000    0.833    0.000    9.000    0.000    0.000 
#    0.000    0.667    0.000    3.667    0.000    9.333 
#
# Total GULP energy -594907.578933 kJ/mol
# GULP energy per Si atom -12393.907894 kJ/mol
# Density = 1.509948 g / cm^3
# Si number density = 15.133923 Si / 1000 Ang^3
#
#
#
# Elastic Constant Matrix: (Units=GPa)
#
#
# Indices 1 2 3 4 5 6 
#
# 1 92.8085 49.5378 10.8611 0.0000 0.0000 0.0000
# 2 49.5378 92.8066 10.8608 0.0000 0.0000 0.0000
# 3 10.8611 10.8608 39.4972 0.0000 0.0000 0.0000
# 4 0.0000 0.0000 0.0000 15.4517 0.0000 0.0000
# 5 0.0000 0.0000 0.0000 0.0000 15.4522 0.0000
# 6 0.0000 0.0000 0.0000 0.0000 0.0000 21.6239
#
#
#
# Elastic Compliance Matrix: (Units=1/GPa)
#
#
# Indices 1 2 3 4 5 6 
#
# 1 0.015222 -0.007889 -0.002016 0.000000 0.000000 0.000000
# 2 -0.007889 0.015222 -0.002016 0.000000 0.000000 0.000000
# 3 -0.002016 -0.002016 0.026427 0.000000 0.000000 0.000000
# 4 0.000000 0.000000 0.000000 0.064718 0.000000 0.000000
# 5 0.000000 0.000000 0.000000 0.000000 0.064716 0.000000
# 6 0.000000 0.000000 0.000000 0.000000 0.000000 0.046245
#
#
# Mechanical properties :
#
#
# Convention : Reuss Voigt Hill
#
# Bulk Modulus (GPa) = 30.27792 40.84797 35.56294
# Shear Modulus (GPa) = 18.69841 20.76239 19.73040
#
# Velocity S-wave (km/s) = 3.51882 3.70795 3.61462
# Velocity P-wave (km/s) = 6.04645 6.73658 6.40082
#
# Compressibility (1/GPa) = 0.03302737
#
# Stress axis : x y z
#
# Youngs Moduli (GPa) = 65.69566 65.69436 37.83979
#
# Poissons Ratio (x) = 0.51826 0.07630
# Poissons Ratio (y) = 0.51827 0.07630
# Poissons Ratio (z) = 0.13247 0.13246
#
# Static dielectric constant tensor:
#      x y z
#    x 2.913740 0.000000 0.000000 
#    y 0.000000 2.913740 0.000000 
#    z 0.000000 0.000000 2.861350 
# 
# 
# High freq. dielectric constant tensor:
#      x y z
#    x 1.554700 0.000000 0.000000 
#    y 0.000000 1.554710 0.000000 
#    z 0.000000 0.000000 1.580300 
# 
# From -- ./inp_files/1834.got.cif
#   From: 2010.03.12/outbox.cif.g09.slc.cpg/sg115_1_cif.got.tgz:1834.got - 2010.04.14 02:11:21.
