data_PCOD8309805
_publ_section_title
;
Structure prediction by ZEFSAII (Michael W. Deem and Ramdas Pophale) SiO2 
 PCOD8309805
Probable space group: P -4 M 2
;
_chemical_formula_sum "Si O2"
_cell_formula_units_Z 40
_cell_length_a 9.166728
_cell_length_b 9.166728
_cell_length_c 25.787755
_cell_angle_alpha 90.000000
_cell_angle_beta 90.000000
_cell_angle_gamma 90.000000
_cell_volume 2166.916744
_symmetry_space_group_name_H-M "P -4 M 2"
_symmetry_group_IT_number 115
_symmetry_cell_setting 'tetragonal'
loop_
_space_group_symop_operation_xyz
x,y,z
y,-x,-z
-x,-y,z
-y,x,-z
y,x,-z
-y,-x,-z
-x,y,z
x,-y,z
loop_
_atom_site_type_symbol
_atom_site_label
_atom_site_fract_x
_atom_site_fract_y
_atom_site_fract_z
Si Si1 0.331301 0.171438 0.454216
Si Si2 0.172112 0.668677 0.137477
Si Si3 0.333114 0.329127 0.648287
Si Si4 0.326890 0.839107 0.747080
Si Si5 0.170546 0.671170 0.953173
O O1 0.235630 0.235630 0.500000
O O2 0.500000 0.212976 0.463759
O O3 0.274057 0.239797 0.400484
O O4 0.307595 0.000000 0.451496
O O5 0.212662 0.500000 0.126735
O O6 0.217986 0.716717 0.195787
O O7 0.263189 0.772697 0.100443
O O8 0.000000 0.691735 0.128797
O O9 0.500000 0.279686 0.639272
O O10 0.320116 0.500000 0.654948
O O11 0.266296 0.262322 0.701092
O O12 0.500000 0.845250 0.744793
O O13 0.261490 0.000000 0.738260
O O14 0.202735 0.500000 0.954230
O O15 0.000000 0.704759 0.958910
O O16 0.254669 0.745332 0.000000
#
# Coordination Sequence:
#
# PCOD8309805 Si02
#       5
#     8   8   8   8   8
#     4  10  21  36  53  74 101 134 171 212 260 310
#     4   9  18  34  56  81 108 138 173 212 253 300
#     4   9  17  30  50  75 101 131 169 210 251 299
#     4   8  15  29  50  76 104 133 167 207 249 295
#     4  11  24  39  55  78 106 136 173 215 259 308
#
# _framework density 18.459406999999999
#
# number of rings (size 3 to 8) (size 9 to 14) (size 15 to 20)
#    0.000    2.600    0.000    3.000    0.000    7.200 
#    0.000    5.000    0.000    3.600    0.000    0.000 
#    0.000    0.000    0.000    0.000    0.000    0.000 
#
# Total GULP energy -495950.622317 kJ/mol
# GULP energy per Si atom -12398.765558 kJ/mol
# Density = 1.841739 g / cm^3
# Si number density = 18.459407 Si / 1000 Ang^3
#
#
#
# Elastic Constant Matrix: (Units=GPa)
#
#
# Indices 1 2 3 4 5 6 
#
# 1 71.5526 48.8727 68.6779 0.0000 0.0000 0.0000
# 2 48.8727 71.5554 68.6793 0.0000 0.0000 0.0000
# 3 68.6779 68.6793 181.6891 0.0000 0.0000 0.0000
# 4 0.0000 0.0000 0.0000 -21.6873 0.0000 0.0000
# 5 0.0000 0.0000 0.0000 0.0000 -21.6833 0.0000
# 6 0.0000 0.0000 0.0000 0.0000 0.0000 23.6914
#
#
#
# Elastic Compliance Matrix: (Units=1/GPa)
#
#
# Indices 1 2 3 4 5 6 
#
# 1 0.029344 -0.014746 -0.005518 0.000000 0.000000 0.000000
# 2 -0.014746 0.029343 -0.005518 0.000000 0.000000 0.000000
# 3 -0.005518 -0.005518 0.009675 0.000000 0.000000 0.000000
# 4 0.000000 0.000000 0.000000 -0.046110 0.000000 0.000000
# 5 0.000000 0.000000 0.000000 0.000000 -0.046118 0.000000
# 6 0.000000 0.000000 0.000000 0.000000 0.000000 0.042209
#
#
# Mechanical properties :
#
#
# Convention : Reuss Voigt Hill
#
# Bulk Modulus (GPa) = 59.52791 77.47298 68.50044
# Shear Modulus (GPa) = 66.22029 5.30197 35.76113
#
# Velocity S-wave (km/s) = 5.99594 1.69661 4.40623
# Velocity P-wave (km/s) = 8.95841 6.77484 7.94203
#
# Compressibility (1/GPa) = 0.01679884
#
# Stress axis : x y z
#
# Youngs Moduli (GPa) = 34.07875 34.08003 103.35517
#
# Poissons Ratio (x) = 0.50254 0.57030
# Poissons Ratio (y) = 0.50252 0.57029
# Poissons Ratio (z) = 0.18804 0.18805
#
# Static dielectric constant tensor:
#      x y z
#    x 3.343200 0.000000 0.000000 
#    y 0.000000 3.343200 0.000000 
#    z 0.000000 0.000000 3.748200 
# 
# 
# High freq. dielectric constant tensor:
#      x y z
#    x 1.700850 0.000000 0.000000 
#    y 0.000000 1.700850 0.000000 
#    z 0.000000 0.000000 1.735090 
# 
# From -- ./inp_files/5112.got.cif
#   From: 2010.03.12/outbox.cif.g09.slc.cpg/sg115_3_cif.got.tgz:5112.got - 2010.04.14 02:11:21.
