data_PCOD8309788
_publ_section_title
;
Structure prediction by ZEFSAII (Michael W. Deem and Ramdas Pophale) SiO2 
 PCOD8309788
Probable space group: P -4 M 2
;
_chemical_formula_sum "Si O2"
_cell_formula_units_Z 29
_cell_length_a 12.018998
_cell_length_b 12.018998
_cell_length_c 11.443621
_cell_angle_alpha 90.000000
_cell_angle_beta 90.000000
_cell_angle_gamma 90.000000
_cell_volume 1653.103296
_symmetry_space_group_name_H-M "P -4 M 2"
_symmetry_group_IT_number 115
_symmetry_cell_setting 'tetragonal'
loop_
_space_group_symop_operation_xyz
x,y,z
y,-x,-z
-x,-y,z
-y,x,-z
y,x,-z
-y,-x,-z
-x,y,z
x,-y,z
loop_
_atom_site_type_symbol
_atom_site_label
_atom_site_fract_x
_atom_site_fract_y
_atom_site_fract_z
Si Si1 0.127488 0.126643 0.863594
Si Si2 0.371974 0.125320 0.516749
Si Si3 0.721569 0.742907 0.310054
Si Si4 0.500000 0.376339 0.224903
Si Si5 0.500000 0.500000 0.000000
O O1 0.206547 0.212109 0.797889
O O2 0.000000 0.150494 0.829647
O O3 0.158577 0.000000 0.829605
O O4 0.146281 0.146281 0.000000
O O5 0.500000 0.134221 0.482336
O O6 0.301946 0.160806 0.403679
O O7 0.350779 0.203423 0.628303
O O8 0.337186 0.000000 0.549764
O O9 0.608485 0.689179 0.264569
O O10 0.500000 0.500000 0.283178
O O11 0.500000 0.390281 0.083194
#
# Coordination Sequence:
#
# PCOD8309788 Si02
#       5
#     8   8   8   4   1
#     4   9  19  35  56  83 111 140 179 227 278 338
#     4  10  21  36  52  79 113 142 179 227 274 323
#     4  11  20  35  58  80 105 151 184 226 274 338
#     4  10  22  38  54  80 108 146 192 236 273 324
#     4   8  24  40  52  74 112 148 184 244 278 312
#
# _framework density 17.542763000000001
#
# number of rings (size 3 to 8) (size 9 to 14) (size 15 to 20)
#    0.414    1.655    1.379    3.310    1.931    0.000 
#    0.000    0.000    0.000    6.621    0.000    0.000 
#    0.000    0.000    0.000    0.000    0.000    0.000 
#
# Total GULP energy -359564.626133 kJ/mol
# GULP energy per Si atom -12398.780211 kJ/mol
# Density = 1.750284 g / cm^3
# Si number density = 17.542763 Si / 1000 Ang^3
#
#
#
# Elastic Constant Matrix: (Units=GPa)
#
#
# Indices 1 2 3 4 5 6 
#
# 1 114.4838 59.4212 50.4880 0.0000 0.0000 0.0000
# 2 59.4212 114.4838 50.4880 0.0000 0.0000 0.0000
# 3 50.4880 50.4880 88.1768 0.0000 0.0000 0.0000
# 4 0.0000 0.0000 0.0000 27.6436 0.0000 0.0000
# 5 0.0000 0.0000 0.0000 0.0000 27.6436 0.0000
# 6 0.0000 0.0000 0.0000 0.0000 0.0000 31.5792
#
#
#
# Elastic Compliance Matrix: (Units=1/GPa)
#
#
# Indices 1 2 3 4 5 6 
#
# 1 0.013388 -0.004774 -0.004932 0.000000 0.000000 0.000000
# 2 -0.004774 0.013388 -0.004932 0.000000 0.000000 0.000000
# 3 -0.004932 -0.004932 0.016989 0.000000 0.000000 0.000000
# 4 0.000000 0.000000 0.000000 0.036175 0.000000 0.000000
# 5 0.000000 0.000000 0.000000 0.000000 0.036175 0.000000
# 6 0.000000 0.000000 0.000000 0.000000 0.000000 0.031666
#
#
# Mechanical properties :
#
#
# Convention : Reuss Voigt Hill
#
# Bulk Modulus (GPa) = 69.02130 70.88211 69.95171
# Shear Modulus (GPa) = 27.48978 27.82307 27.65643
#
# Velocity S-wave (km/s) = 3.96285 3.98680 3.97484
# Velocity P-wave (km/s) = 7.76974 7.85403 7.81200
#
# Compressibility (1/GPa) = 0.01448828
#
# Stress axis : x y z
#
# Youngs Moduli (GPa) = 74.69579 74.69579 58.86150
#
# Poissons Ratio (x) = 0.35656 0.29032
# Poissons Ratio (y) = 0.35656 0.29032
# Poissons Ratio (z) = 0.36842 0.36842
#
# Static dielectric constant tensor:
#      x y z
#    x 3.238510 0.000000 0.000000 
#    y 0.000000 3.238510 0.000000 
#    z 0.000000 0.000000 3.153610 
# 
# 
# High freq. dielectric constant tensor:
#      x y z
#    x 1.681270 0.000000 0.000000 
#    y 0.000000 1.681270 0.000000 
#    z 0.000000 0.000000 1.676660 
# 
# From -- ./inp_files/2460.got.cif
#   From: 2010.03.12/outbox.cif.g09.slc.cpg/sg115_2_cif.got.tgz:2460.got - 2010.04.14 02:11:21.
