data_PCOD8309395
_publ_section_title
;
Structure prediction by ZEFSAII (Michael W. Deem and Ramdas Pophale) SiO2 
 PCOD8309395
Probable space group: P -4 M 2
;
_chemical_formula_sum "Si O2"
_cell_formula_units_Z 56
_cell_length_a 13.653460
_cell_length_b 13.653460
_cell_length_c 18.723166
_cell_angle_alpha 90.000000
_cell_angle_beta 90.000000
_cell_angle_gamma 90.000000
_cell_volume 3490.315874
_symmetry_space_group_name_H-M "P -4 M 2"
_symmetry_group_IT_number 115
_symmetry_cell_setting 'tetragonal'
loop_
_space_group_symop_operation_xyz
x,y,z
y,-x,-z
-x,-y,z
-y,x,-z
y,x,-z
-y,-x,-z
-x,y,z
x,-y,z
loop_
_atom_site_type_symbol
_atom_site_label
_atom_site_fract_x
_atom_site_fract_y
_atom_site_fract_z
Si Si1 0.886750 0.271138 0.175619
Si Si2 0.268456 0.608038 0.097725
Si Si3 0.886590 0.747970 0.340846
Si Si4 0.195781 0.885909 0.074331
Si Si5 0.885107 0.392208 0.465839
Si Si6 0.608765 0.784087 0.066855
Si Si7 0.784439 0.113305 0.440194
O O1 0.825045 0.360142 0.143597
O O2 0.861774 0.268851 0.258890
O O3 0.859935 0.167607 0.139002
O O4 0.000000 0.294317 0.161774
O O5 0.303313 0.500000 0.122045
O O6 0.357550 0.684476 0.107306
O O7 0.233918 0.606265 0.016753
O O8 0.863033 0.650718 0.386933
O O9 0.814040 0.833462 0.367165
O O10 0.000000 0.779344 0.351541
O O11 0.312799 0.869745 0.082841
O O12 0.170428 0.000000 0.077534
O O13 0.160127 0.839874 0.000000
O O14 0.835869 0.500000 0.472920
O O15 0.845727 0.318734 0.527487
O O16 0.000000 0.402025 0.476257
O O17 0.500000 0.813545 0.094498
O O18 0.867649 0.132352 0.500000
O O19 0.777340 0.000000 0.422272
#
# Coordination Sequence:
#
# PCOD8309395 Si02
#       7
#     8   8   8   8   8   8   8
#     4  10  20  33  45  65  96 129 166 202 240 292
#     4   9  17  30  48  71  95 118 147 189 243 298
#     4   9  18  29  43  65  96 127 154 189 233 280
#     4  11  21  34  49  66  91 125 167 212 250 289
#     4   8  14  26  44  66  91 118 148 182 223 272
#     4   9  17  32  51  71  92 113 146 196 250 301
#     4   9  16  26  42  64  89 119 153 191 230 272
#
# _framework density 16.044391999999998
#
# number of rings (size 3 to 8) (size 9 to 14) (size 15 to 20)
#    0.000    2.714    2.857    1.714    0.000    4.000 
#    0.000    5.714    0.000    3.429    0.000    4.000 
#    0.000   23.143    0.000    0.000    0.000    0.000 
#
# Total GULP energy -694050.950918 kJ/mol
# GULP energy per Si atom -12393.766981 kJ/mol
# Density = 1.600787 g / cm^3
# Si number density = 16.044392 Si / 1000 Ang^3
#
#
#
# Elastic Constant Matrix: (Units=GPa)
#
#
# Indices 1 2 3 4 5 6 
#
# 1 89.8942 29.2961 42.0046 0.0000 0.0000 0.0000
# 2 29.2961 89.8951 42.0045 0.0000 0.0000 0.0000
# 3 42.0046 42.0045 61.6390 0.0000 0.0000 0.0000
# 4 0.0000 0.0000 0.0000 12.0027 0.0000 0.0000
# 5 0.0000 0.0000 0.0000 0.0000 12.0029 0.0000
# 6 0.0000 0.0000 0.0000 0.0000 0.0000 13.7670
#
#
#
# Elastic Compliance Matrix: (Units=1/GPa)
#
#
# Indices 1 2 3 4 5 6 
#
# 1 0.016323 -0.000179 -0.011002 0.000000 0.000000 0.000000
# 2 -0.000179 0.016323 -0.011002 0.000000 0.000000 0.000000
# 3 -0.011002 -0.011002 0.031218 0.000000 0.000000 0.000000
# 4 0.000000 0.000000 0.000000 0.083314 0.000000 0.000000
# 5 0.000000 0.000000 0.000000 0.000000 0.083313 0.000000
# 6 0.000000 0.000000 0.000000 0.000000 0.000000 0.072637
#
#
# Mechanical properties :
#
#
# Convention : Reuss Voigt Hill
#
# Bulk Modulus (GPa) = 51.28281 52.00430 51.64356
# Shear Modulus (GPa) = 14.12457 16.09608 15.11032
#
# Velocity S-wave (km/s) = 2.97028 3.17080 3.07218
# Velocity P-wave (km/s) = 6.61784 6.77410 6.69643
#
# Compressibility (1/GPa) = 0.01949971
#
# Stress axis : x y z
#
# Youngs Moduli (GPa) = 61.26241 61.26335 32.03300
#
# Poissons Ratio (x) = 0.01096 0.35242
# Poissons Ratio (y) = 0.01096 0.35241
# Poissons Ratio (z) = 0.67399 0.67399
#
# Static dielectric constant tensor:
#      x y z
#    x 3.224400 0.000000 0.000000 
#    y 0.000000 3.224400 0.000000 
#    z 0.000000 0.000000 2.910130 
# 
# 
# High freq. dielectric constant tensor:
#      x y z
#    x 1.606840 0.000000 0.000000 
#    y 0.000000 1.606840 0.000000 
#    z 0.000000 0.000000 1.596460 
# 
# From -- ./inp_files/4353.got.cif
#   From: 2010.03.12/outbox.cif.g09.slc.cpg/sg115_3_cif.got.tgz:4353.got - 2010.04.14 02:11:21.
