data_PCOD8309848
_publ_section_title
;
Structure prediction by ZEFSAII (Michael W. Deem and Ramdas Pophale) SiO2 
 PCOD8309848
Probable space group: P -4 M 2
;
_chemical_formula_sum "Si O2"
_cell_formula_units_Z 40
_cell_length_a 9.294253
_cell_length_b 9.294253
_cell_length_c 25.536124
_cell_angle_alpha 90.000000
_cell_angle_beta 90.000000
_cell_angle_gamma 90.000000
_cell_volume 2205.890545
_symmetry_space_group_name_H-M "P -4 M 2"
_symmetry_group_IT_number 115
_symmetry_cell_setting 'tetragonal'
loop_
_space_group_symop_operation_xyz
x,y,z
y,-x,-z
-x,-y,z
-y,x,-z
y,x,-z
-y,-x,-z
-x,y,z
x,-y,z
loop_
_atom_site_type_symbol
_atom_site_label
_atom_site_fract_x
_atom_site_fract_y
_atom_site_fract_z
Si Si1 0.833047 0.333023 0.398469
Si Si2 0.332861 0.667140 0.500000
Si Si3 0.167501 0.834664 0.703582
Si Si4 0.165196 0.165196 0.000000
Si Si5 0.331050 0.833482 0.193070
Si Si6 0.331017 0.834114 0.896054
O O1 0.800288 0.500000 0.389493
O O2 0.749206 0.273875 0.449028
O O3 0.776852 0.250609 0.347260
O O4 0.000000 0.301905 0.408041
O O5 0.500000 0.699360 0.491302
O O6 0.217008 0.739603 0.752616
O O7 0.000000 0.816163 0.692079
O O8 0.207965 0.000000 0.715681
O O9 0.210161 0.264848 0.048287
O O10 0.000000 0.191240 0.983603
O O11 0.500000 0.806432 0.196706
O O12 0.266856 0.737287 0.147402
O O13 0.294372 0.000000 0.181732
O O14 0.500000 0.806263 0.898247
O O15 0.294604 0.000000 0.883054
#
# Coordination Sequence:
#
# PCOD8309848 Si02
#       6
#     8   4   8   4   8   8
#     4   9  18  32  49  70  96 126 161 201 245 293
#     4   9  18  32  48  67  94 128 162 195 238 294
#     4   9  18  33  52  73  98 129 165 206 252 300
#     4   9  18  34  56  79 104 138 178 215 252 299
#     4  10  21  36  54  77 105 137 173 213 257 305
#     4  10  21  36  55  80 108 138 173 212 255 304
#
# _framework density 18.133264
#
# number of rings (size 3 to 8) (size 9 to 14) (size 15 to 20)
#    0.000    2.600    0.000    1.200    0.000    5.600 
#    0.000    4.000    0.000    0.000    0.000    0.000 
#    0.000    0.000    0.000    0.000    0.000    0.000 
#
# Total GULP energy -496140.676394 kJ/mol
# GULP energy per Si atom -12403.516910 kJ/mol
# Density = 1.809199 g / cm^3
# Si number density = 18.133264 Si / 1000 Ang^3
#
#
#
# Elastic Constant Matrix: (Units=GPa)
#
#
# Indices 1 2 3 4 5 6 
#
# 1 74.6061 47.5247 81.3137 0.0000 0.0000 0.0000
# 2 47.5247 74.6056 81.3138 0.0000 0.0000 0.0000
# 3 81.3137 81.3138 181.1323 0.0000 0.0000 0.0000
# 4 0.0000 0.0000 0.0000 -1.5885 0.0000 0.0000
# 5 0.0000 0.0000 0.0000 0.0000 -1.5958 0.0000
# 6 0.0000 0.0000 0.0000 0.0000 0.0000 23.2334
#
#
#
# Elastic Compliance Matrix: (Units=1/GPa)
#
#
# Indices 1 2 3 4 5 6 
#
# 1 0.028641 -0.008285 -0.009138 0.000000 0.000000 0.000000
# 2 -0.008285 0.028642 -0.009139 0.000000 0.000000 0.000000
# 3 -0.009138 -0.009139 0.013726 0.000000 0.000000 0.000000
# 4 0.000000 0.000000 0.000000 -0.629521 0.000000 0.000000
# 5 0.000000 0.000000 0.000000 0.000000 -0.626628 0.000000
# 6 0.000000 0.000000 0.000000 0.000000 0.000000 0.043041
#
#
# Mechanical properties :
#
#
# Convention : Reuss Voigt Hill
#
# Bulk Modulus (GPa) = 55.91254 83.40537 69.65895
# Shear Modulus (GPa) = -4.61675 12.02260 3.70293
#
# Velocity S-wave (km/s) = -1.59735 2.57770 1.43056
# Velocity P-wave (km/s) = 5.24396 7.41316 6.42083
#
# Compressibility (1/GPa) = 0.01788508
#
# Stress axis : x y z
#
# Youngs Moduli (GPa) = 34.91478 34.91434 72.85591
#
# Poissons Ratio (x) = 0.28925 0.66579
# Poissons Ratio (y) = 0.28926 0.66580
# Poissons Ratio (z) = 0.31907 0.31907
#
# Static dielectric constant tensor:
#      x y z
#    x 3.309960 0.000000 0.000000 
#    y 0.000000 3.309970 0.000000 
#    z 0.000000 0.000000 3.488160 
# 
# 
# High freq. dielectric constant tensor:
#      x y z
#    x 1.696890 0.000000 0.000000 
#    y 0.000000 1.696890 0.000000 
#    z 0.000000 0.000000 1.712400 
# 
# From -- ./inp_files/5527.got.cif
#   From: 2010.03.12/outbox.cif.g09.slc.cpg/sg115_3_cif.got.tgz:5527.got - 2010.04.14 02:11:21.
