data_PCOD8309747
_publ_section_title
;
Structure prediction by ZEFSAII (Michael W. Deem and Ramdas Pophale) SiO2 
 PCOD8309747
Probable space group: P -4 M 2
;
_chemical_formula_sum "Si O2"
_cell_formula_units_Z 44
_cell_length_a 8.153711
_cell_length_b 8.153711
_cell_length_c 31.721431
_cell_angle_alpha 90.000000
_cell_angle_beta 90.000000
_cell_angle_gamma 90.000000
_cell_volume 2108.935995
_symmetry_space_group_name_H-M "P -4 M 2"
_symmetry_group_IT_number 115
_symmetry_cell_setting 'tetragonal'
loop_
_space_group_symop_operation_xyz
x,y,z
y,-x,-z
-x,-y,z
-y,x,-z
y,x,-z
-y,-x,-z
-x,y,z
x,-y,z
loop_
_atom_site_type_symbol
_atom_site_label
_atom_site_fract_x
_atom_site_fract_y
_atom_site_fract_z
Si Si1 0.304621 0.500000 0.734081
Si Si2 0.186162 0.186162 0.500000
Si Si3 0.183513 0.688448 0.410723
Si Si4 0.809117 0.183020 0.127349
Si Si5 0.695482 0.500000 0.637691
Si Si6 0.809989 0.678490 0.958692
Si Si7 0.816188 0.689489 0.216970
O O1 0.500000 0.500000 0.738977
O O2 0.247406 0.500000 0.685888
O O3 0.232878 0.668151 0.755135
O O4 0.297320 0.231512 0.540055
O O5 0.000000 0.215888 0.514470
O O6 0.170759 0.500000 0.398155
O O7 0.332487 0.767935 0.383537
O O8 0.000000 0.768200 0.402593
O O9 0.740778 0.271718 0.084937
O O10 0.765238 0.290249 0.168183
O O11 0.000000 0.172214 0.120035
O O12 0.737074 0.000000 0.134591
O O13 0.500000 0.500000 0.632749
O O14 0.738537 0.500000 0.969398
O O15 0.000000 0.675025 0.948350
O O16 0.787718 0.787718 0.000000
O O17 0.829426 0.500000 0.228100
O O18 0.000000 0.768183 0.225501
#
# Coordination Sequence:
#
# PCOD8309747 Si02
#       7
#     4   4   8   8   4   8   8
#     4   9  18  32  51  75 105 135 171 215 267 319
#     4   9  18  32  49  70  98 134 171 210 258 309
#     4   9  18  31  48  73 101 132 174 218 263 316
#     4   9  18  33  53  75  99 129 164 206 256 306
#     4   9  18  32  49  75 105 137 173 217 269 317
#     4  10  21  35  51  73 100 132 169 205 248 305
#     4   9  18  32  51  76 101 130 171 215 262 316
#
# _framework density 20.863603999999999
#
# number of rings (size 3 to 8) (size 9 to 14) (size 15 to 20)
#    0.000    2.818    0.000    0.545    2.545    2.545 
#    0.000    5.455    0.000    2.182    0.000    5.091 
#    0.000    0.000    0.000    0.000    0.000    0.000 
#
# Total GULP energy -545086.655250 kJ/mol
# GULP energy per Si atom -12388.333074 kJ/mol
# Density = 2.081612 g / cm^3
# Si number density = 20.863604 Si / 1000 Ang^3
#
#
#
# Elastic Constant Matrix: (Units=GPa)
#
#
# Indices 1 2 3 4 5 6 
#
# 1 64.8579 28.2372 48.2057 0.0000 0.0000 0.0000
# 2 28.2372 64.8579 48.2057 0.0000 0.0000 0.0000
# 3 48.2057 48.2057 154.3132 0.0000 0.0000 0.0000
# 4 0.0000 0.0000 0.0000 14.3595 0.0000 0.0000
# 5 0.0000 0.0000 0.0000 0.0000 14.3595 0.0000
# 6 0.0000 0.0000 0.0000 0.0000 0.0000 11.1065
#
#
#
# Elastic Compliance Matrix: (Units=1/GPa)
#
#
# Indices 1 2 3 4 5 6 
#
# 1 0.021593 -0.005714 -0.004960 0.000000 0.000000 0.000000
# 2 -0.005714 0.021593 -0.004960 0.000000 0.000000 0.000000
# 3 -0.004960 -0.004960 0.009579 0.000000 0.000000 0.000000
# 4 0.000000 0.000000 0.000000 0.069640 0.000000 0.000000
# 5 0.000000 0.000000 0.000000 0.000000 0.069640 0.000000
# 6 0.000000 0.000000 0.000000 0.000000 0.000000 0.090038
#
#
# Mechanical properties :
#
#
# Convention : Reuss Voigt Hill
#
# Bulk Modulus (GPa) = 46.52120 59.25846 52.88983
# Shear Modulus (GPa) = 15.59976 18.59046 17.09511
#
# Velocity S-wave (km/s) = 2.73738 2.98828 2.86558
# Velocity P-wave (km/s) = 5.68658 6.35381 6.02943
#
# Compressibility (1/GPa) = 0.02149558
#
# Stress axis : x y z
#
# Youngs Moduli (GPa) = 46.31156 46.31156 104.39016
#
# Poissons Ratio (x) = 0.26463 0.51781
# Poissons Ratio (y) = 0.26463 0.51781
# Poissons Ratio (z) = 0.22972 0.22972
#
# Static dielectric constant tensor:
#      x y z
#    x 3.777120 0.000000 0.000000 
#    y 0.000000 3.777120 0.000000 
#    z 0.000000 0.000000 3.699550 
# 
# 
# High freq. dielectric constant tensor:
#      x y z
#    x 1.796030 0.000000 0.000000 
#    y 0.000000 1.796030 0.000000 
#    z 0.000000 0.000000 1.813640 
# 
# From -- ./inp_files/5866.got.cif
#   From: 2010.03.12/outbox.cif.g09.slc.cpg/sg115_3_cif.got.tgz:5866.got - 2010.04.14 02:11:21.
