data_PCOD8309896
_publ_section_title
;
Structure prediction by ZEFSAII (Michael W. Deem and Ramdas Pophale) SiO2 
 PCOD8309896
Probable space group: P -4 M 2
;
_chemical_formula_sum "Si O2"
_cell_formula_units_Z 48
_cell_length_a 8.998497
_cell_length_b 8.998497
_cell_length_c 31.054080
_cell_angle_alpha 90.000000
_cell_angle_beta 90.000000
_cell_angle_gamma 90.000000
_cell_volume 2514.540413
_symmetry_space_group_name_H-M "P -4 M 2"
_symmetry_group_IT_number 115
_symmetry_cell_setting 'tetragonal'
loop_
_space_group_symop_operation_xyz
x,y,z
y,-x,-z
-x,-y,z
-y,x,-z
y,x,-z
-y,-x,-z
-x,y,z
x,-y,z
loop_
_atom_site_type_symbol
_atom_site_label
_atom_site_fract_x
_atom_site_fract_y
_atom_site_fract_z
Si Si1 0.824994 0.672505 0.380317
Si Si2 0.323765 0.165505 0.962350
Si Si3 0.177048 0.664965 0.131236
Si Si4 0.173022 0.326008 0.698285
Si Si5 0.827258 0.674612 0.539928
Si Si6 0.174212 0.832064 0.784880
O O1 0.785900 0.500000 0.387781
O O2 0.761879 0.725056 0.334896
O O3 0.750980 0.771316 0.416925
O O4 0.000000 0.699536 0.381270
O O5 0.500000 0.161308 0.961015
O O6 0.268495 0.225906 0.915442
O O7 0.260952 0.000000 0.971106
O O8 0.273020 0.273020 0.000000
O O9 0.242146 0.500000 0.137395
O O10 0.237333 0.761875 0.170980
O O11 0.000000 0.661511 0.131512
O O12 0.204130 0.500000 0.693934
O O13 0.222966 0.272016 0.745444
O O14 0.000000 0.288932 0.689661
O O15 0.735277 0.735277 0.500000
O O16 0.800224 0.500000 0.544004
O O17 0.000000 0.711898 0.533014
O O18 0.000000 0.833184 0.790269
O O19 0.233407 0.000000 0.776700
#
# Coordination Sequence:
#
# PCOD8309896 Si02
#       6
#     8   8   8   8   8   8
#     4  11  24  40  59  85 114 145 185 229 271 318
#     4   9  18  32  49  71  99 131 168 210 257 309
#     4   8  15  29  48  69  95 127 164 208 256 306
#     4  10  21  37  56  79 109 144 179 216 263 318
#     4  11  24  41  62  89 119 151 188 228 271 320
#     4   9  17  30  50  75 101 131 169 212 258 309
#
# _framework density 19.088977
#
# number of rings (size 3 to 8) (size 9 to 14) (size 15 to 20)
#    0.000    2.333    0.000    3.500    0.000    9.333 
#    0.000    4.167    0.000    3.000    0.000    0.000 
#    0.000    0.000    0.000    0.000    0.000    0.000 
#
# Total GULP energy -595144.801773 kJ/mol
# GULP energy per Si atom -12398.850037 kJ/mol
# Density = 1.904553 g / cm^3
# Si number density = 19.088977 Si / 1000 Ang^3
#
#
#
# Elastic Constant Matrix: (Units=GPa)
#
#
# Indices 1 2 3 4 5 6 
#
# 1 57.4682 36.8908 39.8667 0.0000 0.0000 0.0000
# 2 36.8908 57.4682 39.8667 0.0000 0.0000 0.0000
# 3 39.8667 39.8667 142.3696 0.0000 0.0000 0.0000
# 4 0.0000 0.0000 0.0000 60.3997 0.0000 0.0000
# 5 0.0000 0.0000 0.0000 0.0000 60.3997 0.0000
# 6 0.0000 0.0000 0.0000 0.0000 0.0000 24.8031
#
#
#
# Elastic Compliance Matrix: (Units=1/GPa)
#
#
# Indices 1 2 3 4 5 6 
#
# 1 0.031240 -0.017357 -0.003887 0.000000 0.000000 0.000000
# 2 -0.017357 0.031240 -0.003887 0.000000 0.000000 0.000000
# 3 -0.003887 -0.003887 0.009201 0.000000 0.000000 0.000000
# 4 0.000000 0.000000 0.000000 0.016556 0.000000 0.000000
# 5 0.000000 0.000000 0.000000 0.000000 0.016556 0.000000
# 6 0.000000 0.000000 0.000000 0.000000 0.000000 0.040318
#
#
# Mechanical properties :
#
#
# Convention : Reuss Voigt Hill
#
# Bulk Modulus (GPa) = 46.69254 54.50604 50.59929
# Shear Modulus (GPa) = 24.68964 38.49929 31.59447
#
# Velocity S-wave (km/s) = 3.60029 4.49579 4.07273
# Velocity P-wave (km/s) = 6.46501 7.45420 6.97716
#
# Compressibility (1/GPa) = 0.02141670
#
# Stress axis : x y z
#
# Youngs Moduli (GPa) = 32.01044 32.01044 108.68221
#
# Poissons Ratio (x) = 0.55561 0.42250
# Poissons Ratio (y) = 0.55561 0.42250
# Poissons Ratio (z) = 0.12444 0.12444
#
# Static dielectric constant tensor:
#      x y z
#    x 3.424320 0.000000 0.000000 
#    y 0.000000 3.424320 0.000000 
#    z 0.000000 0.000000 3.969420 
# 
# 
# High freq. dielectric constant tensor:
#      x y z
#    x 1.730400 0.000000 0.000000 
#    y 0.000000 1.730400 0.000000 
#    z 0.000000 0.000000 1.762640 
# 
# From -- ./inp_files/6011.got.cif
#   From: 2010.03.12/outbox.cif.g09.slc.cpg/sg115_4_cif.got.tgz:6011.got - 2010.04.14 02:11:21.
