data_PCOD8309295
_publ_section_title
;
Structure prediction by ZEFSAII (Michael W. Deem and Ramdas Pophale) SiO2 
 PCOD8309295
Probable space group: P -4 M 2
;
_chemical_formula_sum "Si O2"
_cell_formula_units_Z 64
_cell_length_a 13.392641
_cell_length_b 13.392641
_cell_length_c 21.253844
_cell_angle_alpha 90.000000
_cell_angle_beta 90.000000
_cell_angle_gamma 90.000000
_cell_volume 3812.149671
_symmetry_space_group_name_H-M "P -4 M 2"
_symmetry_group_IT_number 115
_symmetry_cell_setting 'tetragonal'
loop_
_space_group_symop_operation_xyz
x,y,z
y,-x,-z
-x,-y,z
-y,x,-z
y,x,-z
-y,-x,-z
-x,y,z
x,-y,z
loop_
_atom_site_type_symbol
_atom_site_label
_atom_site_fract_x
_atom_site_fract_y
_atom_site_fract_z
Si Si1 0.885167 0.114843 0.572464
Si Si2 0.618582 0.111471 0.999993
Si Si3 0.776907 0.615206 0.124327
Si Si4 0.750086 0.750074 0.659435
Si Si5 0.384799 0.223092 0.124308
Si Si6 0.385230 0.885209 0.747043
Si Si7 0.615370 0.384584 0.571852
Si Si8 0.114805 0.614755 0.747058
O O1 0.861616 0.138385 0.500000
O O2 0.816849 0.183124 0.614772
O O3 0.000000 0.138845 0.587633
O O4 0.861220 0.000000 0.587633
O O5 0.500000 0.104233 0.000001
O O6 0.655885 0.169588 0.061660
O O7 0.664477 0.000000 0.999992
O O8 0.655870 0.169581 0.938322
O O9 0.745335 0.500000 0.117451
O O10 0.675965 0.675971 0.136835
O O11 0.853742 0.631247 0.181009
O O12 0.682452 0.820062 0.701920
O O13 0.680574 0.680429 0.618097
O O14 0.820102 0.682549 0.701971
O O15 0.500000 0.254675 0.117412
O O16 0.368795 0.146243 0.180986
O O17 0.500000 0.869616 0.727111
O O18 0.353163 0.000000 0.740456
O O19 0.642281 0.357720 0.500000
O O20 0.500000 0.361088 0.585161
O O21 0.638581 0.500000 0.585158
O O22 0.130488 0.500000 0.727102
O O23 0.000000 0.646744 0.740465
#
# Coordination Sequence:
#
# PCOD8309295 Si02
#       8
#     8   8   8   8   8   8   8   8
#     4   9  19  35  53  75 102 130 164 209 258 306
#     4   9  17  30  51  73  95 129 173 213 247 291
#     4  10  19  33  50  74 103 135 172 212 257 304
#     4  12  19  32  54  79 100 130 174 208 252 303
#     4  10  19  33  50  74 103 135 172 212 257 304
#     4  10  21  35  50  72 105 137 168 212 260 305
#     4   9  19  35  53  75 104 136 168 203 244 294
#     4  10  21  35  50  72 105 137 168 212 260 305
#
# _framework density 16.788426999999999
#
# number of rings (size 3 to 8) (size 9 to 14) (size 15 to 20)
#    0.000    2.125    1.250    3.750    0.000    3.250 
#    0.000    0.000    0.000    2.250    0.000   10.500 
#    0.000    2.000    0.000    0.000    0.000    0.000 
#
# Total GULP energy -793695.989054 kJ/mol
# GULP energy per Si atom -12401.499829 kJ/mol
# Density = 1.675022 g / cm^3
# Si number density = 16.788427 Si / 1000 Ang^3
#
#
#
# Elastic Constant Matrix: (Units=GPa)
#
#
# Indices 1 2 3 4 5 6 
#
# 1 104.7094 78.2896 71.7301 0.0000 0.0000 0.0000
# 2 78.2896 104.7084 71.7292 0.0000 0.0000 0.0000
# 3 71.7301 71.7292 121.7506 0.0000 0.0000 0.0000
# 4 0.0000 0.0000 0.0000 31.1602 0.0000 0.0000
# 5 0.0000 0.0000 0.0000 0.0000 31.1602 0.0000
# 6 0.0000 0.0000 0.0000 0.0000 0.0000 29.4220
#
#
#
# Elastic Compliance Matrix: (Units=1/GPa)
#
#
# Indices 1 2 3 4 5 6 
#
# 1 0.024003 -0.013848 -0.005983 0.000000 0.000000 0.000000
# 2 -0.013848 0.024003 -0.005982 0.000000 0.000000 0.000000
# 3 -0.005983 -0.005982 0.015263 0.000000 0.000000 0.000000
# 4 0.000000 0.000000 0.000000 0.032092 0.000000 0.000000
# 5 0.000000 0.000000 0.000000 0.000000 0.032092 0.000000
# 6 0.000000 0.000000 0.000000 0.000000 0.000000 0.033988
#
#
# Mechanical properties :
#
#
# Convention : Reuss Voigt Hill
#
# Bulk Modulus (GPa) = 85.89908 86.07400 85.98654
# Shear Modulus (GPa) = 23.04700 25.64313 24.34507
#
# Velocity S-wave (km/s) = 3.70914 3.91247 3.81216
# Velocity P-wave (km/s) = 8.34388 8.47296 8.40867
#
# Compressibility (1/GPa) = 0.01164157
#
# Stress axis : x y z
#
# Youngs Moduli (GPa) = 41.66186 41.66192 65.51912
#
# Poissons Ratio (x) = 0.57695 0.39198
# Poissons Ratio (y) = 0.57695 0.39196
# Poissons Ratio (z) = 0.24925 0.24924
#
# Static dielectric constant tensor:
#      x y z
#    x 3.123490 0.000000 0.000000 
#    y 0.000000 3.123490 0.000000 
#    z 0.000000 0.000000 3.235240 
# 
# 
# High freq. dielectric constant tensor:
#      x y z
#    x 1.643500 0.000000 0.000000 
#    y 0.000000 1.643500 0.000000 
#    z 0.000000 0.000000 1.659750 
# 
# From -- ./inp_files/5382.got.cif
#   From: 2010.03.12/outbox.cif.g09.slc.cpg/sg115_3_cif.got.tgz:5382.got - 2010.04.14 02:11:21.
