data_PCOD8309464
_publ_section_title
;
Structure prediction by ZEFSAII (Michael W. Deem and Ramdas Pophale) SiO2 
 PCOD8309464
Probable space group: P -4 M 2
;
_chemical_formula_sum "Si O2"
_cell_formula_units_Z 40
_cell_length_a 9.211428
_cell_length_b 9.211428
_cell_length_c 25.609310
_cell_angle_alpha 90.000000
_cell_angle_beta 90.000000
_cell_angle_gamma 90.000000
_cell_volume 2172.960346
_symmetry_space_group_name_H-M "P -4 M 2"
_symmetry_group_IT_number 115
_symmetry_cell_setting 'tetragonal'
loop_
_space_group_symop_operation_xyz
x,y,z
y,-x,-z
-x,-y,z
-y,x,-z
y,x,-z
-y,-x,-z
-x,y,z
x,-y,z
loop_
_atom_site_type_symbol
_atom_site_label
_atom_site_fract_x
_atom_site_fract_y
_atom_site_fract_z
Si Si1 0.332955 0.330556 0.149638
Si Si2 0.332114 0.829332 0.954500
Si Si3 0.839271 0.827697 0.355359
Si Si4 0.829682 0.833068 0.761151
Si Si5 0.171987 0.334052 0.545723
O O1 0.500000 0.288563 0.140519
O O2 0.312188 0.500000 0.159340
O O3 0.243059 0.279586 0.099240
O O4 0.274614 0.250370 0.200275
O O5 0.500000 0.791397 0.966008
O O6 0.306401 0.000000 0.950014
O O7 0.233462 0.766538 0.000000
O O8 0.792368 0.776703 0.297458
O O9 0.726799 0.770707 0.398710
O O10 0.000000 0.767063 0.368721
O O11 0.844920 0.000000 0.355465
O O12 0.000000 0.807843 0.767308
O O13 0.789523 0.000000 0.773624
O O14 0.243495 0.243495 0.500000
O O15 0.221323 0.500000 0.541634
O O16 0.000000 0.316492 0.540961
#
# Coordination Sequence:
#
# PCOD8309464 Si02
#       5
#     8   8   8   8   8
#     4  10  21  36  54  77 106 141 178 212 250 301
#     4  10  21  37  57  79 103 134 172 213 258 306
#     4   8  15  30  52  76 101 131 169 212 256 302
#     4   9  18  33  54  80 107 134 168 212 259 305
#     4  10  20  33  51  75 101 131 169 211 256 307
#
# _framework density 18.408066999999999
#
# number of rings (size 3 to 8) (size 9 to 14) (size 15 to 20)
#    0.000    2.600    0.000    3.000    0.000    5.600 
#    0.000    3.000    0.000    1.200    0.000    0.000 
#    0.000    0.000    0.000    0.000    0.000    0.000 
#
# Total GULP energy -495994.252050 kJ/mol
# GULP energy per Si atom -12399.856301 kJ/mol
# Density = 1.836617 g / cm^3
# Si number density = 18.408067 Si / 1000 Ang^3
#
#
#
# Elastic Constant Matrix: (Units=GPa)
#
#
# Indices 1 2 3 4 5 6 
#
# 1 63.7353 40.2061 56.0866 0.0000 0.0000 0.0000
# 2 40.2061 63.7353 56.0866 0.0000 0.0000 0.0000
# 3 56.0866 56.0866 146.1263 0.0000 0.0000 0.0000
# 4 0.0000 0.0000 0.0000 -38.5730 0.0000 0.0000
# 5 0.0000 0.0000 0.0000 0.0000 -38.5730 0.0000
# 6 0.0000 0.0000 0.0000 0.0000 0.0000 26.8760
#
#
#
# Elastic Compliance Matrix: (Units=1/GPa)
#
#
# Indices 1 2 3 4 5 6 
#
# 1 0.029462 -0.013038 -0.006304 0.000000 0.000000 0.000000
# 2 -0.013038 0.029462 -0.006304 0.000000 0.000000 0.000000
# 3 -0.006304 -0.006304 0.011683 0.000000 0.000000 0.000000
# 4 0.000000 0.000000 0.000000 -0.025925 0.000000 0.000000
# 5 0.000000 0.000000 0.000000 0.000000 -0.025925 0.000000
# 6 0.000000 0.000000 0.000000 0.000000 0.000000 0.037208
#
#
# Mechanical properties :
#
#
# Convention : Reuss Voigt Hill
#
# Bulk Modulus (GPa) = 51.77358 64.26174 58.01766
# Shear Modulus (GPa) = 43.97720 -1.97284 21.00218
#
# Velocity S-wave (km/s) = 4.89306 -1.03637 3.38142
# Velocity P-wave (km/s) = 7.75302 5.79252 6.84334
#
# Compressibility (1/GPa) = 0.01931487
#
# Stress axis : x y z
#
# Youngs Moduli (GPa) = 33.94188 33.94188 85.59784
#
# Poissons Ratio (x) = 0.44254 0.53960
# Poissons Ratio (y) = 0.44254 0.53960
# Poissons Ratio (z) = 0.21397 0.21397
#
# Static dielectric constant tensor:
#      x y z
#    x 3.367990 0.000000 0.000000 
#    y 0.000000 3.367990 0.000000 
#    z 0.000000 0.000000 3.629470 
# 
# 
# High freq. dielectric constant tensor:
#      x y z
#    x 1.700830 0.000000 0.000000 
#    y 0.000000 1.700830 0.000000 
#    z 0.000000 0.000000 1.728880 
# 
# From -- ./inp_files/5064.got.cif
#   From: 2010.03.12/outbox.cif.g09.slc.cpg/sg115_3_cif.got.tgz:5064.got - 2010.04.14 02:11:21.
