data_PCOD8309030
_publ_section_title
;
Structure prediction by ZEFSAII (Michael W. Deem and Ramdas Pophale) SiO2 
 PCOD8309030
Probable space group: P -4 21 C
;
_chemical_formula_sum "Si O2"
_cell_formula_units_Z 26
_cell_length_a 9.703030
_cell_length_b 9.703030
_cell_length_c 12.312169
_cell_angle_alpha 90.000000
_cell_angle_beta 90.000000
_cell_angle_gamma 90.000000
_cell_volume 1159.175828
_symmetry_space_group_name_H-M "P -4 21 C"
_symmetry_group_IT_number 114
_symmetry_cell_setting 'tetragonal'
loop_
_space_group_symop_operation_xyz
x,y,z
y,-x,-z
-x,-y,z
-y,x,-z
1/2+x,1/2-y,1/2-z
1/2-x,1/2+y,1/2-z
1/2-y,1/2-x,1/2+z
1/2+y,1/2+x,1/2+z
loop_
_atom_site_type_symbol
_atom_site_label
_atom_site_fract_x
_atom_site_fract_y
_atom_site_fract_z
Si Si1 0.513445 0.275730 0.821177
Si Si2 0.062845 0.361286 0.037313
Si Si3 0.284142 0.689366 0.635320
Si Si4 0.500000 0.500000 0.000000
O O1 0.593585 0.135417 0.850222
O O2 0.588505 0.341478 0.716648
O O3 0.351289 0.244696 0.799925
O O4 0.533504 0.371082 0.925064
O O5 0.000000 0.500000 0.983353
O O6 0.948527 0.248505 0.068135
O O7 0.169901 0.303534 0.950481
#
# Coordination Sequence:
#
# PCOD8309030 Si02
#       4
#     8   8   8   2
#     4  11  26  45  72 107 143 192 244 301 365 436
#     4  10  25  47  70 108 149 187 240 309 360 436
#     4  11  26  45  76 105 147 194 244 300 369 436
#     4  12  24  44  72  98 140 188 240 296 364 434
#
# _framework density 22.429728000000001
#
# number of rings (size 3 to 8) (size 9 to 14) (size 15 to 20)
#    0.000    1.231    3.077    0.000    8.615    4.308 
#    0.000    0.000    0.000    0.000    0.000    0.000 
#    0.000    0.000    0.000    0.000    0.000    0.000 
#
# Total GULP energy -322451.452688 kJ/mol
# GULP energy per Si atom -12401.978950 kJ/mol
# Density = 2.237868 g / cm^3
# Si number density = 22.429728 Si / 1000 Ang^3
#
#
#
# Elastic Constant Matrix: (Units=GPa)
#
#
# Indices 1 2 3 4 5 6 
#
# 1 109.0365 51.8662 36.4258 0.0000 0.0000 0.0000
# 2 51.8662 109.0365 36.4258 0.0000 0.0000 0.0000
# 3 36.4258 36.4258 72.6059 0.0000 0.0000 0.0000
# 4 0.0000 0.0000 0.0000 24.2507 0.0000 0.0000
# 5 0.0000 0.0000 0.0000 0.0000 24.2507 0.0000
# 6 0.0000 0.0000 0.0000 0.0000 0.0000 51.0681
#
#
#
# Elastic Compliance Matrix: (Units=1/GPa)
#
#
# Indices 1 2 3 4 5 6 
#
# 1 0.012767 -0.004725 -0.004034 0.000000 0.000000 0.000000
# 2 -0.004725 0.012767 -0.004034 0.000000 0.000000 0.000000
# 3 -0.004034 -0.004034 0.017821 0.000000 0.000000 0.000000
# 4 0.000000 0.000000 0.000000 0.041236 0.000000 0.000000
# 5 0.000000 0.000000 0.000000 0.000000 0.041236 0.000000
# 6 0.000000 0.000000 0.000000 0.000000 0.000000 0.019582
#
#
# Mechanical properties :
#
#
# Convention : Reuss Voigt Hill
#
# Bulk Modulus (GPa) = 56.28538 60.01275 58.14907
# Shear Modulus (GPa) = 28.26177 30.97798 29.61987
#
# Velocity S-wave (km/s) = 3.55352 3.72036 3.63790
# Velocity P-wave (km/s) = 6.47960 6.72821 6.60507
#
# Compressibility (1/GPa) = 0.01776660
#
# Stress axis : x y z
#
# Youngs Moduli (GPa) = 78.32943 78.32943 56.11347
#
# Poissons Ratio (x) = 0.37011 0.22638
# Poissons Ratio (y) = 0.37011 0.22638
# Poissons Ratio (z) = 0.31601 0.31601
#
# Static dielectric constant tensor:
#      x y z
#    x 4.252240 0.000000 0.000000 
#    y 0.000000 4.252240 0.000000 
#    z 0.000000 0.000000 3.647020 
# 
# 
# High freq. dielectric constant tensor:
#      x y z
#    x 1.897070 0.000000 0.000000 
#    y 0.000000 1.897070 0.000000 
#    z 0.000000 0.000000 1.863270 
# 
# From -- ./inp_files/503.got.cif
#   From: 2010.03.12/outbox.cif.g09.slc.cpg/sg114_1_cif.got.tgz:503.got - 2010.04.14 02:08:34.
