data_PCOD8309974
_publ_section_title
;
Structure prediction by ZEFSAII (Michael W. Deem and Ramdas Pophale) SiO2 
 PCOD8309974
Probable space group: P -4 M 2
;
_chemical_formula_sum "Si O2"
_cell_formula_units_Z 34
_cell_length_a 7.716760
_cell_length_b 7.716760
_cell_length_c 27.484893
_cell_angle_alpha 90.000000
_cell_angle_beta 90.000000
_cell_angle_gamma 90.000000
_cell_volume 1636.680987
_symmetry_space_group_name_H-M "P -4 M 2"
_symmetry_group_IT_number 115
_symmetry_cell_setting 'tetragonal'
loop_
_space_group_symop_operation_xyz
x,y,z
y,-x,-z
-x,-y,z
-y,x,-z
y,x,-z
-y,-x,-z
-x,y,z
x,-y,z
loop_
_atom_site_type_symbol
_atom_site_label
_atom_site_fract_x
_atom_site_fract_y
_atom_site_fract_z
Si Si1 0.500000 0.500000 0.500000
Si Si2 0.204886 0.189452 0.853290
Si Si3 0.500000 0.790806 0.578563
Si Si4 0.205545 0.693897 0.750714
Si Si5 0.808738 0.198286 0.646181
Si Si6 0.500000 0.500000 0.000000
Si Si7 0.207425 0.500000 0.921765
O O1 0.500000 0.680163 0.529546
O O2 0.283388 0.216158 0.799073
O O3 0.268660 0.332858 0.891148
O O4 0.000000 0.204004 0.849528
O O5 0.263430 0.000000 0.872206
O O6 0.330712 0.726855 0.608437
O O7 0.500000 0.000000 0.568918
O O8 0.276733 0.500000 0.749684
O O9 0.266071 0.785228 0.701003
O O10 0.000000 0.700259 0.753646
O O11 0.000000 0.289476 0.640938
O O12 0.832770 0.000000 0.633570
O O13 0.320455 0.500000 0.970299
O O14 0.000000 0.500000 0.933320
#
# Coordination Sequence:
#
# PCOD8309974 Si02
#       7
#     1   8   4   8   8   1   4
#     4  12  28  44  64  86 104 144 192 244 312 354
#     4   9  16  30  56  87 120 156 191 230 277 335
#     4  10  24  44  61  85 116 144 190 246 293 348
#     4   9  15  25  48  86 125 159 193 225 265 326
#     4   9  18  34  57  85 118 155 191 229 277 335
#     4  12  28  44  64  86 108 144 188 252 312 346
#     4  10  22  42  61  83 113 144 189 242 293 348
#
# _framework density 20.773747
#
# number of rings (size 3 to 8) (size 9 to 14) (size 15 to 20)
#    0.000    2.588    1.176    0.706    1.647    4.706 
#    0.000    1.176    0.000    0.000    0.000    0.000 
#    0.000    0.000    0.000    0.000    0.000    0.000 
#
# Total GULP energy -421281.519737 kJ/mol
# GULP energy per Si atom -12390.632933 kJ/mol
# Density = 2.072646 g / cm^3
# Si number density = 20.773747 Si / 1000 Ang^3
#
#
#
# Elastic Constant Matrix: (Units=GPa)
#
#
# Indices 1 2 3 4 5 6 
#
# 1 94.0396 31.9139 61.5590 0.0000 0.0000 0.0000
# 2 31.9139 94.0396 61.5590 0.0000 0.0000 0.0000
# 3 61.5590 61.5590 153.3540 0.0000 0.0000 0.0000
# 4 0.0000 0.0000 0.0000 12.4111 0.0000 0.0000
# 5 0.0000 0.0000 0.0000 0.0000 12.4111 0.0000
# 6 0.0000 0.0000 0.0000 0.0000 0.0000 8.9075
#
#
#
# Elastic Compliance Matrix: (Units=1/GPa)
#
#
# Indices 1 2 3 4 5 6 
#
# 1 0.014581 -0.001515 -0.005245 0.000000 0.000000 0.000000
# 2 -0.001515 0.014581 -0.005245 0.000000 0.000000 0.000000
# 3 -0.005245 -0.005245 0.010732 0.000000 0.000000 0.000000
# 4 0.000000 0.000000 0.000000 0.080573 0.000000 0.000000
# 5 0.000000 0.000000 0.000000 0.000000 0.080573 0.000000
# 6 0.000000 0.000000 0.000000 0.000000 0.000000 0.112265
#
#
# Mechanical properties :
#
#
# Convention : Reuss Voigt Hill
#
# Bulk Modulus (GPa) = 62.95520 72.38858 67.67189
# Shear Modulus (GPa) = 14.59381 19.17267 16.88324
#
# Velocity S-wave (km/s) = 2.65337 3.04127 2.85392
# Velocity P-wave (km/s) = 6.30540 6.87417 6.59592
#
# Compressibility (1/GPa) = 0.01588431
#
# Stress axis : x y z
#
# Youngs Moduli (GPa) = 68.58030 68.58030 93.18076
#
# Poissons Ratio (x) = 0.10390 0.48874
# Poissons Ratio (y) = 0.10390 0.48874
# Poissons Ratio (z) = 0.35971 0.35971
#
# Static dielectric constant tensor:
#      x y z
#    x 3.779080 0.000000 0.000000 
#    y 0.000000 3.779080 0.000000 
#    z 0.000000 0.000000 3.680860 
# 
# 
# High freq. dielectric constant tensor:
#      x y z
#    x 1.802470 0.000000 0.000000 
#    y 0.000000 1.802470 0.000000 
#    z 0.000000 0.000000 1.796260 
# 
# From -- ./inp_files/4754.got.cif
#   From: 2010.03.12/outbox.cif.g09.slc.cpg/sg115_3_cif.got.tgz:4754.got - 2010.04.14 02:11:21.
