data_PCOD8309437
_publ_section_title
;
Structure prediction by ZEFSAII (Michael W. Deem and Ramdas Pophale) SiO2 
 PCOD8309437
Probable space group: P -4 M 2
;
_chemical_formula_sum "Si O2"
_cell_formula_units_Z 48
_cell_length_a 9.058995
_cell_length_b 9.058995
_cell_length_c 30.755288
_cell_angle_alpha 90.000000
_cell_angle_beta 90.000000
_cell_angle_gamma 90.000000
_cell_volume 2523.944717
_symmetry_space_group_name_H-M "P -4 M 2"
_symmetry_group_IT_number 115
_symmetry_cell_setting 'tetragonal'
loop_
_space_group_symop_operation_xyz
x,y,z
y,-x,-z
-x,-y,z
-y,x,-z
y,x,-z
-y,-x,-z
-x,y,z
x,-y,z
loop_
_atom_site_type_symbol
_atom_site_label
_atom_site_fract_x
_atom_site_fract_y
_atom_site_fract_z
Si Si1 0.831286 0.826111 0.624979
Si Si2 0.166545 0.324138 0.789684
Si Si3 0.671804 0.672080 0.296610
Si Si4 0.666238 0.675588 0.874043
Si Si5 0.668907 0.329143 0.550157
Si Si6 0.826533 0.670220 0.960946
O O1 0.729337 0.757924 0.661878
O O2 0.778567 0.769689 0.578194
O O3 0.000000 0.777176 0.632504
O O4 0.813754 0.000000 0.626221
O O5 0.168536 0.500000 0.791081
O O6 0.246571 0.267145 0.746262
O O7 0.251305 0.259959 0.831691
O O8 0.000000 0.263207 0.790022
O O9 0.500000 0.705857 0.303804
O O10 0.701947 0.500000 0.290474
O O11 0.500000 0.738029 0.875058
O O12 0.665707 0.500000 0.871900
O O13 0.750856 0.729168 0.917011
O O14 0.703673 0.296328 0.500000
O O15 0.500000 0.287510 0.561046
O O16 0.696580 0.500000 0.561137
O O17 0.784308 0.500000 0.970000
O O18 0.000000 0.690454 0.955479
O O19 0.769615 0.769615 0.000000
#
# Coordination Sequence:
#
# PCOD8309437 Si02
#       6
#     8   8   8   8   8   8
#     4  11  24  38  52  75 108 143 178 217 262 313
#     4   9  16  27  46  74 107 139 171 211 260 312
#     4  10  20  34  54  79 105 136 178 224 266 311
#     4   9  16  27  46  73 104 135 169 212 259 306
#     4   9  19  37  60  84 108 135 171 215 261 311
#     4  10  20  33  50  73 101 134 172 213 258 309
#
# _framework density 19.017848000000001
#
# number of rings (size 3 to 8) (size 9 to 14) (size 15 to 20)
#    0.000    2.333    0.000    3.500    0.000   10.333 
#    0.000    2.500    0.000    1.000    0.000    0.000 
#    0.000    0.000    0.000    0.000    0.000    0.000 
#
# Total GULP energy -595327.976888 kJ/mol
# GULP energy per Si atom -12402.666185 kJ/mol
# Density = 1.897456 g / cm^3
# Si number density = 19.017848 Si / 1000 Ang^3
#
#
#
# Elastic Constant Matrix: (Units=GPa)
#
#
# Indices 1 2 3 4 5 6 
#
# 1 79.9918 40.2517 51.9793 0.0000 0.0000 0.0000
# 2 40.2517 79.9919 51.9793 0.0000 0.0000 0.0000
# 3 51.9793 51.9793 140.3612 0.0000 0.0000 0.0000
# 4 0.0000 0.0000 0.0000 5.1342 0.0000 0.0000
# 5 0.0000 0.0000 0.0000 0.0000 5.1342 0.0000
# 6 0.0000 0.0000 0.0000 0.0000 0.0000 22.6071
#
#
#
# Elastic Compliance Matrix: (Units=1/GPa)
#
#
# Indices 1 2 3 4 5 6 
#
# 1 0.018698 -0.006465 -0.004530 0.000000 0.000000 0.000000
# 2 -0.006465 0.018698 -0.004530 0.000000 0.000000 0.000000
# 3 -0.004530 -0.004530 0.010480 0.000000 0.000000 0.000000
# 4 0.000000 0.000000 0.000000 0.194772 0.000000 0.000000
# 5 0.000000 0.000000 0.000000 0.000000 0.194773 0.000000
# 6 0.000000 0.000000 0.000000 0.000000 0.000000 0.044234
#
#
# Mechanical properties :
#
#
# Convention : Reuss Voigt Hill
#
# Bulk Modulus (GPa) = 59.43487 65.41836 62.42662
# Shear Modulus (GPa) = 9.64666 16.98408 13.31537
#
# Velocity S-wave (km/s) = 2.25465 2.99165 2.64891
# Velocity P-wave (km/s) = 6.17235 6.81222 6.50017
#
# Compressibility (1/GPa) = 0.01682514
#
# Stress axis : x y z
#
# Youngs Moduli (GPa) = 53.48072 53.48083 95.42159
#
# Poissons Ratio (x) = 0.34576 0.43228
# Poissons Ratio (y) = 0.34576 0.43228
# Poissons Ratio (z) = 0.24228 0.24228
#
# Static dielectric constant tensor:
#      x y z
#    x 3.343320 0.000000 0.000000 
#    y 0.000000 3.343320 0.000000 
#    z 0.000000 0.000000 3.633170 
# 
# 
# High freq. dielectric constant tensor:
#      x y z
#    x 1.722150 0.000000 0.000000 
#    y 0.000000 1.722150 0.000000 
#    z 0.000000 0.000000 1.756880 
# 
# From -- ./inp_files/6000.got.cif
#   From: 2010.03.12/outbox.cif.g09.slc.cpg/sg115_3_cif.got.tgz:6000.got - 2010.04.14 02:11:21.
