data_PCOD8309846
_publ_section_title
;
Structure prediction by ZEFSAII (Michael W. Deem and Ramdas Pophale) SiO2 
 PCOD8309846
Probable space group: P -4 M 2
;
_chemical_formula_sum "Si O2"
_cell_formula_units_Z 44
_cell_length_a 9.291212
_cell_length_b 9.291212
_cell_length_c 28.249901
_cell_angle_alpha 90.000000
_cell_angle_beta 90.000000
_cell_angle_gamma 90.000000
_cell_volume 2438.718481
_symmetry_space_group_name_H-M "P -4 M 2"
_symmetry_group_IT_number 115
_symmetry_cell_setting 'tetragonal'
loop_
_space_group_symop_operation_xyz
x,y,z
y,-x,-z
-x,-y,z
-y,x,-z
y,x,-z
-y,-x,-z
-x,y,z
x,-y,z
loop_
_atom_site_type_symbol
_atom_site_label
_atom_site_fract_x
_atom_site_fract_y
_atom_site_fract_z
Si Si1 0.670841 0.663568 0.214334
Si Si2 0.330922 0.166326 0.959734
Si Si3 0.658949 0.670780 0.319328
Si Si4 0.667255 0.167299 0.591734
Si Si5 0.167011 0.833390 0.135227
Si Si6 0.167452 0.832549 0.500000
O O1 0.500000 0.672643 0.209308
O O2 0.722652 0.500000 0.203888
O O3 0.718007 0.712421 0.267272
O O4 0.743083 0.774567 0.178955
O O5 0.500000 0.194923 0.954694
O O6 0.255240 0.211609 0.911087
O O7 0.297993 0.000000 0.972125
O O8 0.267611 0.267611 0.000000
O O9 0.500000 0.736102 0.326899
O O10 0.651516 0.500000 0.321973
O O11 0.759785 0.731372 0.360956
O O12 0.500000 0.202721 0.584833
O O13 0.749786 0.227536 0.545887
O O14 0.697029 0.000000 0.597949
O O15 0.000000 0.811660 0.146916
O O16 0.205204 0.000000 0.126697
O O17 0.000000 0.800648 0.507765
#
# Coordination Sequence:
#
# PCOD8309846 Si02
#       6
#     8   8   8   8   8   4
#     4   9  18  33  53  76 102 133 168 206 249 297
#     4  10  21  37  57  80 105 135 171 209 251 298
#     4   8  15  29  48  70  96 124 155 194 240 287
#     4   9  17  29  46  68  91 117 154 196 234 278
#     4  10  21  36  54  77 105 137 172 209 249 294
#     4   9  18  32  46  61  88 124 154 185 234 288
#
# _framework density 18.042262999999998
#
# number of rings (size 3 to 8) (size 9 to 14) (size 15 to 20)
#    0.000    2.818    0.000    2.182    0.000    4.727 
#    0.000    2.727    0.000    3.273    0.000    0.000 
#    0.000    0.000    0.000    0.000    0.000    0.000 
#
# Total GULP energy -545559.699029 kJ/mol
# GULP energy per Si atom -12399.084069 kJ/mol
# Density = 1.800120 g / cm^3
# Si number density = 18.042263 Si / 1000 Ang^3
#
#
#
# Elastic Constant Matrix: (Units=GPa)
#
#
# Indices 1 2 3 4 5 6 
#
# 1 66.1918 39.2084 68.4774 0.0000 0.0000 0.0000
# 2 39.2084 66.1922 68.4773 0.0000 0.0000 0.0000
# 3 68.4774 68.4773 174.5327 0.0000 0.0000 0.0000
# 4 0.0000 0.0000 0.0000 20.1100 0.0000 0.0000
# 5 0.0000 0.0000 0.0000 0.0000 20.1158 0.0000
# 6 0.0000 0.0000 0.0000 0.0000 0.0000 24.2413
#
#
#
# Elastic Compliance Matrix: (Units=1/GPa)
#
#
# Indices 1 2 3 4 5 6 
#
# 1 0.028207 -0.008852 -0.007594 0.000000 0.000000 0.000000
# 2 -0.008852 0.028207 -0.007594 0.000000 0.000000 0.000000
# 3 -0.007594 -0.007594 0.011688 0.000000 0.000000 0.000000
# 4 0.000000 0.000000 0.000000 0.049726 0.000000 0.000000
# 5 0.000000 0.000000 0.000000 0.000000 0.049712 0.000000
# 6 0.000000 0.000000 0.000000 0.000000 0.000000 0.041252
#
#
# Mechanical properties :
#
#
# Convention : Reuss Voigt Hill
#
# Bulk Modulus (GPa) = 49.94295 73.24922 61.59609
# Shear Modulus (GPa) = 18.97191 21.61034 20.29113
#
# Velocity S-wave (km/s) = 3.24624 3.46462 3.35721
# Velocity P-wave (km/s) = 6.46467 7.52939 7.01725
#
# Compressibility (1/GPa) = 0.02002285
#
# Stress axis : x y z
#
# Youngs Moduli (GPa) = 35.45177 35.45212 85.55484
#
# Poissons Ratio (x) = 0.31383 0.64969
# Poissons Ratio (y) = 0.31383 0.64968
# Poissons Ratio (z) = 0.26922 0.26921
#
# Static dielectric constant tensor:
#      x y z
#    x 3.251340 0.000000 0.000000 
#    y 0.000000 3.251340 0.000000 
#    z 0.000000 0.000000 3.627070 
# 
# 
# High freq. dielectric constant tensor:
#      x y z
#    x 1.684410 0.000000 0.000000 
#    y 0.000000 1.684410 0.000000 
#    z 0.000000 0.000000 1.712630 
# 
# From -- ./inp_files/5714.got.cif
#   From: 2010.03.12/outbox.cif.g09.slc.cpg/sg115_3_cif.got.tgz:5714.got - 2010.04.14 02:11:21.
