data_PCOD8309925
_publ_section_title
;
Structure prediction by ZEFSAII (Michael W. Deem and Ramdas Pophale) SiO2 
 PCOD8309925
Probable space group: P -4 M 2
;
_chemical_formula_sum "Si O2"
_cell_formula_units_Z 48
_cell_length_a 8.913986
_cell_length_b 8.913986
_cell_length_c 30.628416
_cell_angle_alpha 90.000000
_cell_angle_beta 90.000000
_cell_angle_gamma 90.000000
_cell_volume 2433.707791
_symmetry_space_group_name_H-M "P -4 M 2"
_symmetry_group_IT_number 115
_symmetry_cell_setting 'tetragonal'
loop_
_space_group_symop_operation_xyz
x,y,z
y,-x,-z
-x,-y,z
-y,x,-z
y,x,-z
-y,-x,-z
-x,y,z
x,-y,z
loop_
_atom_site_type_symbol
_atom_site_label
_atom_site_fract_x
_atom_site_fract_y
_atom_site_fract_z
Si Si1 0.825836 0.174646 0.742035
Si Si2 0.173754 0.173754 0.000000
Si Si3 0.826390 0.327671 0.168557
Si Si4 0.674094 0.674094 0.500000
Si Si5 0.323532 0.672665 0.337851
Si Si6 0.823180 0.171846 0.418985
Si Si7 0.677470 0.330267 0.919241
O O1 0.775334 0.218109 0.790648
O O2 0.727653 0.273497 0.709510
O O3 0.000000 0.213961 0.736199
O O4 0.794274 0.000000 0.732610
O O5 0.256284 0.229903 0.957160
O O6 0.000000 0.208506 0.994148
O O7 0.788279 0.500000 0.180083
O O8 0.731340 0.268907 0.127538
O O9 0.000000 0.309218 0.156347
O O10 0.706108 0.500000 0.508242
O O11 0.725905 0.763577 0.542225
O O12 0.500000 0.692598 0.342875
O O13 0.275908 0.500000 0.344293
O O14 0.243681 0.774877 0.373479
O O15 0.000000 0.189212 0.416525
O O16 0.776029 0.000000 0.427464
O O17 0.500000 0.320206 0.922780
O O18 0.734955 0.500000 0.924429
#
# Coordination Sequence:
#
# PCOD8309925 Si02
#       7
#     8   4   8   4   8   8   8
#     4  10  21  37  58  85 116 150 189 233 281 335
#     4  11  24  39  56  80 110 145 186 231 278 330
#     4   9  18  34  56  81 112 151 190 228 274 329
#     4  11  24  41  62  90 122 155 194 237 282 336
#     4  11  24  40  59  85 116 151 193 239 286 338
#     4  11  24  41  62  89 119 152 193 238 285 340
#     4  10  21  37  58  84 113 145 183 228 278 333
#
# _framework density 19.722992000000001
#
# number of rings (size 3 to 8) (size 9 to 14) (size 15 to 20)
#    0.000    1.667    0.000    4.000    0.000   13.333 
#    0.000    3.333    0.000    0.000    0.000    0.000 
#    0.000    0.000    0.000    0.000    0.000    0.000 
#
# Total GULP energy -595488.468535 kJ/mol
# GULP energy per Si atom -12406.009761 kJ/mol
# Density = 1.967810 g / cm^3
# Si number density = 19.722992 Si / 1000 Ang^3
#
#
#
# Elastic Constant Matrix: (Units=GPa)
#
#
# Indices 1 2 3 4 5 6 
#
# 1 37.8683 56.7571 30.7626 0.0000 0.0000 0.0000
# 2 56.7571 37.8683 30.7626 0.0000 0.0000 0.0000
# 3 30.7626 30.7626 106.2575 0.0000 0.0000 0.0000
# 4 0.0000 0.0000 0.0000 42.0012 0.0000 0.0000
# 5 0.0000 0.0000 0.0000 0.0000 42.0012 0.0000
# 6 0.0000 0.0000 0.0000 0.0000 0.0000 29.8405
#
#
#
# Elastic Compliance Matrix: (Units=1/GPa)
#
#
# Indices 1 2 3 4 5 6 
#
# 1 -0.019961 0.032980 -0.003769 0.000000 0.000000 0.000000
# 2 0.032980 -0.019961 -0.003769 0.000000 0.000000 0.000000
# 3 -0.003769 -0.003769 0.011593 0.000000 0.000000 0.000000
# 4 0.000000 0.000000 0.000000 0.023809 0.000000 0.000000
# 5 0.000000 0.000000 0.000000 0.000000 0.023809 0.000000
# 6 0.000000 0.000000 0.000000 0.000000 0.000000 0.033511
#
#
# Mechanical properties :
#
#
# Convention : Reuss Voigt Hill
#
# Bulk Modulus (GPa) = 44.33694 46.50654 45.42174
# Shear Modulus (GPa) = 529.99595 27.01605 278.50600
#
# Velocity S-wave (km/s) = 16.41046 3.70506 11.89602
# Velocity P-wave (km/s) = 19.53457 6.47567 14.55222
#
# Compressibility (1/GPa) = 0.02255456
#
# Stress axis : x y z
#
# Youngs Moduli (GPa) = -50.09670 -50.09670 86.25567
#
# Poissons Ratio (x) = 1.65219 0.32510
# Poissons Ratio (y) = 1.65219 0.32510
# Poissons Ratio (z) = -0.18882 -0.18882
#
# Static dielectric constant tensor:
#      x y z
#    x 3.673390 0.000000 0.000000 
#    y 0.000000 3.673390 0.000000 
#    z 0.000000 0.000000 3.848110 
# 
# 
# High freq. dielectric constant tensor:
#      x y z
#    x 1.773990 0.000000 0.000000 
#    y 0.000000 1.773990 0.000000 
#    z 0.000000 0.000000 1.784080 
# 
# From -- ./inp_files/6245.got.cif
#   From: 2010.03.12/outbox.cif.g09.slc.cpg/sg115_4_cif.got.tgz:6245.got - 2010.04.14 02:11:21.
