data_PCOD8309389
_publ_section_title
;
Structure prediction by ZEFSAII (Michael W. Deem and Ramdas Pophale) SiO2 
 PCOD8309389
Probable space group: P -4 M 2
;
_chemical_formula_sum "Si O2"
_cell_formula_units_Z 44
_cell_length_a 9.387423
_cell_length_b 9.387423
_cell_length_c 27.902841
_cell_angle_alpha 90.000000
_cell_angle_beta 90.000000
_cell_angle_gamma 90.000000
_cell_volume 2458.901885
_symmetry_space_group_name_H-M "P -4 M 2"
_symmetry_group_IT_number 115
_symmetry_cell_setting 'tetragonal'
loop_
_space_group_symop_operation_xyz
x,y,z
y,-x,-z
-x,-y,z
-y,x,-z
y,x,-z
-y,-x,-z
-x,y,z
x,-y,z
loop_
_atom_site_type_symbol
_atom_site_label
_atom_site_fract_x
_atom_site_fract_y
_atom_site_fract_z
Si Si1 0.162780 0.831286 0.368094
Si Si2 0.331774 0.162619 0.172300
Si Si3 0.835422 0.164579 0.000000
Si Si4 0.663819 0.336814 0.555456
Si Si5 0.831099 0.657407 0.720671
Si Si6 0.665765 0.834125 0.906288
O O1 0.235051 0.764474 0.414404
O O2 0.235544 0.771738 0.319533
O O3 0.000000 0.782714 0.366504
O O4 0.178819 0.000000 0.371962
O O5 0.500000 0.175309 0.164569
O O6 0.290199 0.211676 0.226182
O O7 0.252537 0.269238 0.137351
O O8 0.282173 0.000000 0.162799
O O9 0.785681 0.258197 0.044876
O O10 0.000000 0.192313 0.987091
O O11 0.694537 0.305464 0.500000
O O12 0.500000 0.304340 0.567798
O O13 0.700674 0.500000 0.567715
O O14 0.767418 0.500000 0.710675
O O15 0.000000 0.648870 0.718213
O O16 0.500000 0.797901 0.910878
O O17 0.693076 0.000000 0.896583
#
# Coordination Sequence:
#
# PCOD8309389 Si02
#       6
#     8   8   4   8   8   8
#     4  10  20  32  49  77 108 133 161 202 251 300
#     4   9  18  33  54  78 101 129 169 212 249 291
#     4   9  18  34  54  73  96 132 176 213 246 291
#     4   9  19  36  55  73  95 128 171 212 248 293
#     4   8  15  30  51  73  98 131 171 209 244 288
#     4  10  21  35  51  75 106 135 164 203 251 300
#
# _framework density 17.894168000000001
#
# number of rings (size 3 to 8) (size 9 to 14) (size 15 to 20)
#    0.000    2.818    0.000    2.727    0.000    5.091 
#    0.000    7.273    0.000    1.091    0.000    0.000 
#    0.000    0.000    0.000    0.000    0.000    0.000 
#
# Total GULP energy -545586.665557 kJ/mol
# GULP energy per Si atom -12399.696944 kJ/mol
# Density = 1.785344 g / cm^3
# Si number density = 17.894168 Si / 1000 Ang^3
#
#
#
# Elastic Constant Matrix: (Units=GPa)
#
#
# Indices 1 2 3 4 5 6 
#
# 1 76.2718 43.4390 66.7007 0.0000 0.0000 0.0000
# 2 43.4390 76.2713 66.7009 0.0000 0.0000 0.0000
# 3 66.7007 66.7009 139.5702 0.0000 0.0000 0.0000
# 4 0.0000 0.0000 0.0000 6.6874 0.0000 0.0000
# 5 0.0000 0.0000 0.0000 0.0000 6.6840 0.0000
# 6 0.0000 0.0000 0.0000 0.0000 0.0000 27.7835
#
#
#
# Elastic Compliance Matrix: (Units=1/GPa)
#
#
# Indices 1 2 3 4 5 6 
#
# 1 0.024164 -0.006293 -0.008540 0.000000 0.000000 0.000000
# 2 -0.006293 0.024164 -0.008541 0.000000 0.000000 0.000000
# 3 -0.008540 -0.008541 0.015328 0.000000 0.000000 0.000000
# 4 0.000000 0.000000 0.000000 0.149535 0.000000 0.000000
# 5 0.000000 0.000000 0.000000 0.000000 0.149611 0.000000
# 6 0.000000 0.000000 0.000000 0.000000 0.000000 0.035993
#
#
# Mechanical properties :
#
#
# Convention : Reuss Voigt Hill
#
# Bulk Modulus (GPa) = 59.14553 71.75495 65.45024
# Shear Modulus (GPa) = 11.08208 15.91583 13.49895
#
# Velocity S-wave (km/s) = 2.49130 2.98559 2.74957
# Velocity P-wave (km/s) = 6.43429 7.21607 6.83637
#
# Compressibility (1/GPa) = 0.01690745
#
# Stress axis : x y z
#
# Youngs Moduli (GPa) = 41.38404 41.38342 65.24096
#
# Poissons Ratio (x) = 0.26044 0.55718
# Poissons Ratio (y) = 0.26045 0.55719
# Poissons Ratio (z) = 0.35343 0.35344
#
# Static dielectric constant tensor:
#      x y z
#    x 3.288260 0.000000 0.000000 
#    y 0.000000 3.288260 0.000000 
#    z 0.000000 0.000000 3.446290 
# 
# 
# High freq. dielectric constant tensor:
#      x y z
#    x 1.679710 0.000000 0.000000 
#    y 0.000000 1.679710 0.000000 
#    z 0.000000 0.000000 1.704300 
# 
# From -- ./inp_files/5749.got.cif
#   From: 2010.03.12/outbox.cif.g09.slc.cpg/sg115_3_cif.got.tgz:5749.got - 2010.04.14 02:11:21.
