data_PCOD8309982
_publ_section_title
;
Structure prediction by ZEFSAII (Michael W. Deem and Ramdas Pophale) SiO2 
 PCOD8309982
Probable space group: P -4 M 2
;
_chemical_formula_sum "Si O2"
_cell_formula_units_Z 40
_cell_length_a 13.550038
_cell_length_b 13.550038
_cell_length_c 12.961047
_cell_angle_alpha 90.000000
_cell_angle_beta 90.000000
_cell_angle_gamma 90.000000
_cell_volume 2379.693979
_symmetry_space_group_name_H-M "P -4 M 2"
_symmetry_group_IT_number 115
_symmetry_cell_setting 'tetragonal'
loop_
_space_group_symop_operation_xyz
x,y,z
y,-x,-z
-x,-y,z
-y,x,-z
y,x,-z
-y,-x,-z
-x,y,z
x,-y,z
loop_
_atom_site_type_symbol
_atom_site_label
_atom_site_fract_x
_atom_site_fract_y
_atom_site_fract_z
Si Si1 0.612300 0.384288 0.118616
Si Si2 0.887281 0.389884 0.624562
Si Si3 0.250556 0.244775 0.246600
Si Si4 0.889880 0.110089 0.878205
Si Si5 0.113882 0.749038 0.438545
O O1 0.500000 0.347664 0.141776
O O2 0.618577 0.500000 0.138951
O O3 0.692706 0.335537 0.194058
O O4 0.639757 0.360244 0.000000
O O5 0.845253 0.500000 0.618916
O O6 0.827960 0.332521 0.710673
O O7 0.875209 0.345551 0.510921
O O8 0.000000 0.387369 0.660410
O O9 0.187729 0.188690 0.161280
O O10 0.176428 0.278314 0.337105
O O11 0.000000 0.137290 0.838319
O O12 0.862682 0.000000 0.838890
O O13 0.887328 0.112673 0.000000
O O14 0.155608 0.844393 0.500000
O O15 0.000000 0.770785 0.409658
#
# Coordination Sequence:
#
# PCOD8309982 Si02
#       5
#     8   8   8   8   8
#     4   9  19  35  52  71  96 125 159 202 252 301
#     4   9  18  32  47  65  92 122 151 188 236 285
#     4  11  18  29  51  75  92 118 162 203 235 275
#     4   9  18  31  46  68 100 132 156 183 226 278
#     4   9  19  32  46  68  97 128 160 193 233 280
#
# _framework density 16.808885
#
# number of rings (size 3 to 8) (size 9 to 14) (size 15 to 20)
#    0.000    2.600    0.000    3.600    0.000    1.800 
#    0.000    0.000    0.000    1.800    0.000   21.000 
#    0.000    0.000    0.000    0.000    0.000    0.000 
#
# Total GULP energy -495875.069456 kJ/mol
# GULP energy per Si atom -12396.876736 kJ/mol
# Density = 1.677063 g / cm^3
# Si number density = 16.808885 Si / 1000 Ang^3
#
#
#
# Elastic Constant Matrix: (Units=GPa)
#
#
# Indices 1 2 3 4 5 6 
#
# 1 98.9619 49.3855 46.0256 0.0000 0.0000 0.0000
# 2 49.3855 98.9616 46.0256 0.0000 0.0000 0.0000
# 3 46.0256 46.0256 77.5036 0.0000 0.0000 0.0000
# 4 0.0000 0.0000 0.0000 25.7584 0.0000 0.0000
# 5 0.0000 0.0000 0.0000 0.0000 25.7584 0.0000
# 6 0.0000 0.0000 0.0000 0.0000 0.0000 31.5188
#
#
#
# Elastic Compliance Matrix: (Units=1/GPa)
#
#
# Indices 1 2 3 4 5 6 
#
# 1 0.015423 -0.004748 -0.006339 0.000000 0.000000 0.000000
# 2 -0.004748 0.015423 -0.006339 0.000000 0.000000 0.000000
# 3 -0.006339 -0.006339 0.020431 0.000000 0.000000 0.000000
# 4 0.000000 0.000000 0.000000 0.038822 0.000000 0.000000
# 5 0.000000 0.000000 0.000000 0.000000 0.038822 0.000000
# 6 0.000000 0.000000 0.000000 0.000000 0.000000 0.031727
#
#
# Mechanical properties :
#
#
# Convention : Reuss Voigt Hill
#
# Bulk Modulus (GPa) = 60.88562 62.03339 61.45951
# Shear Modulus (GPa) = 24.87862 25.53980 25.20921
#
# Velocity S-wave (km/s) = 3.85136 3.90221 3.87687
# Velocity P-wave (km/s) = 7.48854 7.56890 7.52883
#
# Compressibility (1/GPa) = 0.01642424
#
# Stress axis : x y z
#
# Youngs Moduli (GPa) = 64.83981 64.83950 48.94410
#
# Poissons Ratio (x) = 0.30788 0.31026
# Poissons Ratio (y) = 0.30788 0.31026
# Poissons Ratio (z) = 0.41102 0.41102
#
# Static dielectric constant tensor:
#      x y z
#    x 3.207500 0.000000 0.000000 
#    y 0.000000 3.207500 0.000000 
#    z 0.000000 0.000000 3.071830 
# 
# 
# High freq. dielectric constant tensor:
#      x y z
#    x 1.646890 0.000000 0.000000 
#    y 0.000000 1.646890 0.000000 
#    z 0.000000 0.000000 1.648120 
# 
# From -- ./inp_files/2768.got.cif
#   From: 2010.03.12/outbox.cif.g09.slc.cpg/sg115_2_cif.got.tgz:2768.got - 2010.04.14 02:11:21.
