data_PCOD8309838
_publ_section_title
;
Structure prediction by ZEFSAII (Michael W. Deem and Ramdas Pophale) SiO2 
 PCOD8309838
Probable space group: P -4 M 2
;
_chemical_formula_sum "Si O2"
_cell_formula_units_Z 44
_cell_length_a 9.224295
_cell_length_b 9.224295
_cell_length_c 28.427189
_cell_angle_alpha 90.000000
_cell_angle_beta 90.000000
_cell_angle_gamma 90.000000
_cell_volume 2418.801805
_symmetry_space_group_name_H-M "P -4 M 2"
_symmetry_group_IT_number 115
_symmetry_cell_setting 'tetragonal'
loop_
_space_group_symop_operation_xyz
x,y,z
y,-x,-z
-x,-y,z
-y,x,-z
y,x,-z
-y,-x,-z
-x,y,z
x,-y,z
loop_
_atom_site_type_symbol
_atom_site_label
_atom_site_fract_x
_atom_site_fract_y
_atom_site_fract_z
Si Si1 0.332924 0.829739 0.040615
Si Si2 0.163585 0.327581 0.225767
Si Si3 0.330985 0.330985 0.500000
Si Si4 0.668927 0.330886 0.682873
Si Si5 0.332369 0.668296 0.865292
Si Si6 0.327594 0.163638 0.408531
O O1 0.500000 0.791187 0.029709
O O2 0.283638 0.758912 0.089541
O O3 0.307612 0.000000 0.044187
O O4 0.233328 0.766673 0.000000
O O5 0.168426 0.500000 0.225796
O O6 0.246547 0.269911 0.271794
O O7 0.242528 0.270322 0.178929
O O8 0.000000 0.268193 0.226381
O O9 0.301192 0.500000 0.491204
O O10 0.270411 0.245474 0.454835
O O11 0.500000 0.300092 0.674191
O O12 0.698125 0.500000 0.691390
O O13 0.754536 0.270110 0.637746
O O14 0.500000 0.704905 0.875393
O O15 0.311101 0.500000 0.853474
O O16 0.500000 0.167359 0.408478
O O17 0.267846 0.000000 0.408551
#
# Coordination Sequence:
#
# PCOD8309838 Si02
#       6
#     8   8   4   8   8   8
#     4  10  21  36  54  77 104 134 169 208 250 297
#     4   9  17  29  47  72  98 123 156 198 239 280
#     4   9  16  28  48  71  92 116 150 191 232 274
#     4   9  16  28  48  71  93 119 153 192 233 277
#     4   9  17  31  52  75  98 126 161 201 244 289
#     4   9  17  29  46  69  94 119 151 191 232 274
#
# _framework density 18.190826000000001
#
# number of rings (size 3 to 8) (size 9 to 14) (size 15 to 20)
#    0.000    2.818    0.000    1.636    0.000    6.182 
#    0.000    3.636    0.000   11.727    0.000    0.000 
#    0.000    0.000    0.000    0.000    0.000    0.000 
#
# Total GULP energy -545645.749833 kJ/mol
# GULP energy per Si atom -12401.039769 kJ/mol
# Density = 1.814942 g / cm^3
# Si number density = 18.190826 Si / 1000 Ang^3
#
#
#
# Elastic Constant Matrix: (Units=GPa)
#
#
# Indices 1 2 3 4 5 6 
#
# 1 72.4357 36.2047 73.5390 0.0000 0.0000 0.0000
# 2 36.2047 72.4349 73.5373 0.0000 0.0000 0.0000
# 3 73.5390 73.5373 201.1661 0.0000 0.0000 0.0000
# 4 0.0000 0.0000 0.0000 4.8602 0.0000 0.0000
# 5 0.0000 0.0000 0.0000 0.0000 4.8606 0.0000
# 6 0.0000 0.0000 0.0000 0.0000 0.0000 12.6917
#
#
#
# Elastic Compliance Matrix: (Units=1/GPa)
#
#
# Indices 1 2 3 4 5 6 
#
# 1 0.022912 -0.004689 -0.006662 0.000000 0.000000 0.000000
# 2 -0.004689 0.022912 -0.006662 0.000000 0.000000 0.000000
# 3 -0.006662 -0.006662 0.009842 0.000000 0.000000 0.000000
# 4 0.000000 0.000000 0.000000 0.205753 0.000000 0.000000
# 5 0.000000 0.000000 0.000000 0.000000 0.205736 0.000000
# 6 0.000000 0.000000 0.000000 0.000000 0.000000 0.078792
#
#
# Mechanical properties :
#
#
# Convention : Reuss Voigt Hill
#
# Bulk Modulus (GPa) = 50.91311 79.17764 65.04538
# Shear Modulus (GPa) = 8.49592 15.33288 11.91440
#
# Velocity S-wave (km/s) = 2.16346 2.90641 2.56201
# Velocity P-wave (km/s) = 5.85576 7.40834 6.67733
#
# Compressibility (1/GPa) = 0.01964131
#
# Stress axis : x y z
#
# Youngs Moduli (GPa) = 43.64485 43.64517 101.61040
#
# Poissons Ratio (x) = 0.20464 0.67691
# Poissons Ratio (y) = 0.20464 0.67688
# Poissons Ratio (z) = 0.29076 0.29074
#
# Static dielectric constant tensor:
#      x y z
#    x 3.170930 0.000000 0.000000 
#    y 0.000000 3.170930 0.000000 
#    z 0.000000 0.000000 3.582050 
# 
# 
# High freq. dielectric constant tensor:
#      x y z
#    x 1.679920 0.000000 0.000000 
#    y 0.000000 1.679920 0.000000 
#    z 0.000000 0.000000 1.721550 
# 
# From -- ./inp_files/5731.got.cif
#   From: 2010.03.12/outbox.cif.g09.slc.cpg/sg115_3_cif.got.tgz:5731.got - 2010.04.14 02:11:21.
