data_PCOD8309263
_publ_section_title
;
Structure prediction by ZEFSAII (Michael W. Deem and Ramdas Pophale) SiO2 
 PCOD8309263
Probable space group: P -4 M 2
;
_chemical_formula_sum "Si O2"
_cell_formula_units_Z 60
_cell_length_a 14.558168
_cell_length_b 14.558168
_cell_length_c 14.901854
_cell_angle_alpha 90.000000
_cell_angle_beta 90.000000
_cell_angle_gamma 90.000000
_cell_volume 3158.302744
_symmetry_space_group_name_H-M "P -4 M 2"
_symmetry_group_IT_number 115
_symmetry_cell_setting 'tetragonal'
loop_
_space_group_symop_operation_xyz
x,y,z
y,-x,-z
-x,-y,z
-y,x,-z
y,x,-z
-y,-x,-z
-x,y,z
x,-y,z
loop_
_atom_site_type_symbol
_atom_site_label
_atom_site_fract_x
_atom_site_fract_y
_atom_site_fract_z
Si Si1 0.101832 0.752761 0.415945
Si Si2 0.392403 0.900595 0.917920
Si Si3 0.140175 0.396143 0.274803
Si Si4 0.257844 0.890650 0.379670
Si Si5 0.601745 0.345929 0.687743
Si Si6 0.602347 0.602347 0.500000
Si Si7 0.787085 0.397554 0.755170
Si Si8 0.744019 0.390414 0.955647
O O1 0.103101 0.662053 0.356672
O O2 0.163583 0.832831 0.370983
O O3 0.126878 0.716162 0.516112
O O4 0.000000 0.795530 0.418456
O O5 0.500000 0.880798 0.909906
O O6 0.352305 0.897690 0.817283
O O7 0.371625 0.000000 0.960642
O O8 0.349812 0.824928 0.982490
O O9 0.105416 0.500000 0.290216
O O10 0.249350 0.392472 0.263355
O O11 0.332178 0.847683 0.309869
O O12 0.245665 0.000000 0.358526
O O13 0.500000 0.390598 0.702210
O O14 0.619086 0.327380 0.581342
O O15 0.682357 0.410594 0.722153
O O16 0.614672 0.500000 0.540453
O O17 0.831845 0.500000 0.755145
O O18 0.775037 0.358047 0.856089
O O19 0.731432 0.500000 0.956913
O O20 0.651996 0.348005 0.000000
#
# Coordination Sequence:
#
# PCOD8309263 Si02
#       8
#     8   8   8   8   8   4   8   8
#     4  10  21  38  61  86 114 150 191 237 294 354
#     4   9  18  34  55  78 106 139 177 225 278 331
#     4  10  19  31  54  87 117 143 175 226 289 345
#     4  10  23  41  58  82 117 153 195 244 287 341
#     4  10  20  33  51  77 112 151 187 231 275 321
#     4   9  18  30  44  68 102 148 201 230 252 306
#     4  11  23  37  57  83 116 158 198 236 286 347
#     4  10  22  38  57  84 114 149 193 238 285 342
#
# _framework density 18.997547000000001
#
# number of rings (size 3 to 8) (size 9 to 14) (size 15 to 20)
#    0.000    2.067    1.333    1.600    1.867    4.933 
#    0.000    5.333    0.000    0.000    0.000    0.000 
#    0.000    0.267    0.000    0.000    0.000    0.000 
#
# Total GULP energy -743328.161971 kJ/mol
# GULP energy per Si atom -12388.802700 kJ/mol
# Density = 1.895431 g / cm^3
# Si number density = 18.997547 Si / 1000 Ang^3
#
#
#
# Elastic Constant Matrix: (Units=GPa)
#
#
# Indices 1 2 3 4 5 6 
#
# 1 88.4692 33.9017 52.3365 0.0000 0.0000 0.0000
# 2 33.9017 88.4672 52.3363 0.0000 0.0000 0.0000
# 3 52.3365 52.3363 121.4882 0.0000 0.0000 0.0000
# 4 0.0000 0.0000 0.0000 23.6344 0.0000 0.0000
# 5 0.0000 0.0000 0.0000 0.0000 23.6347 0.0000
# 6 0.0000 0.0000 0.0000 0.0000 0.0000 13.7004
#
#
#
# Elastic Compliance Matrix: (Units=1/GPa)
#
#
# Indices 1 2 3 4 5 6 
#
# 1 0.015633 -0.002693 -0.005575 0.000000 0.000000 0.000000
# 2 -0.002693 0.015634 -0.005575 0.000000 0.000000 0.000000
# 3 -0.005575 -0.005575 0.013034 0.000000 0.000000 0.000000
# 4 0.000000 0.000000 0.000000 0.042311 0.000000 0.000000
# 5 0.000000 0.000000 0.000000 0.000000 0.042311 0.000000
# 6 0.000000 0.000000 0.000000 0.000000 0.000000 0.072991
#
#
# Mechanical properties :
#
#
# Convention : Reuss Voigt Hill
#
# Bulk Modulus (GPa) = 60.18114 63.95262 62.06688
# Shear Modulus (GPa) = 21.26423 22.85058 22.05740
#
# Velocity S-wave (km/s) = 3.34925 3.47193 3.41114
# Velocity P-wave (km/s) = 6.83401 7.05755 6.94668
#
# Compressibility (1/GPa) = 0.01661650
#
# Stress axis : x y z
#
# Youngs Moduli (GPa) = 63.96676 63.96502 76.72060
#
# Poissons Ratio (x) = 0.17225 0.42768
# Poissons Ratio (y) = 0.17226 0.42770
# Poissons Ratio (z) = 0.35659 0.35659
#
# Static dielectric constant tensor:
#      x y z
#    x 3.408470 0.000000 0.000000 
#    y 0.000000 3.408470 0.000000 
#    z 0.000000 0.000000 3.634590 
# 
# 
# High freq. dielectric constant tensor:
#      x y z
#    x 1.723380 0.000000 0.000000 
#    y 0.000000 1.723380 0.000000 
#    z 0.000000 0.000000 1.745450 
# 
# From -- ./inp_files/3928.got.cif
#   From: 2010.03.12/outbox.cif.g09.slc.cpg/sg115_2_cif.got.tgz:3928.got - 2010.04.14 02:11:21.
