data_PCOD8309761
_publ_section_title
;
Structure prediction by ZEFSAII (Michael W. Deem and Ramdas Pophale) SiO2 
 PCOD8309761
Probable space group: P -4 M 2
;
_chemical_formula_sum "Si O2"
_cell_formula_units_Z 44
_cell_length_a 9.317339
_cell_length_b 9.317339
_cell_length_c 28.230139
_cell_angle_alpha 90.000000
_cell_angle_beta 90.000000
_cell_angle_gamma 90.000000
_cell_volume 2450.737582
_symmetry_space_group_name_H-M "P -4 M 2"
_symmetry_group_IT_number 115
_symmetry_cell_setting 'tetragonal'
loop_
_space_group_symop_operation_xyz
x,y,z
y,-x,-z
-x,-y,z
-y,x,-z
y,x,-z
-y,-x,-z
-x,y,z
x,-y,z
loop_
_atom_site_type_symbol
_atom_site_label
_atom_site_fract_x
_atom_site_fract_y
_atom_site_fract_z
Si Si1 0.331207 0.166540 0.040419
Si Si2 0.170343 0.341547 0.222751
Si Si3 0.166787 0.667232 0.592976
Si Si4 0.166086 0.833915 0.500000
Si Si5 0.329877 0.163490 0.672231
Si Si6 0.832500 0.835641 0.866289
O O1 0.500000 0.194413 0.043059
O O2 0.261115 0.216159 0.089723
O O3 0.295854 0.000000 0.029970
O O4 0.263849 0.263849 0.000000
O O5 0.234861 0.500000 0.214329
O O6 0.214204 0.284290 0.274819
O O7 0.228311 0.239972 0.181046
O O8 0.000000 0.348776 0.221119
O O9 0.199896 0.500000 0.588232
O O10 0.218627 0.742889 0.544851
O O11 0.254473 0.729431 0.636540
O O12 0.000000 0.698685 0.602015
O O13 0.000000 0.804782 0.488393
O O14 0.500000 0.174513 0.666410
O O15 0.279239 0.000000 0.662619
O O16 0.000000 0.824626 0.857424
O O17 0.785527 0.000000 0.876334
#
# Coordination Sequence:
#
# PCOD8309761 Si02
#       6
#     8   8   8   4   8   8
#     4  10  21  36  53  74 101 133 168 206 250 299
#     4   8  15  29  49  73  99 127 163 205 245 288
#     4  10  21  35  51  75 105 133 164 205 252 300
#     4   9  18  34  54  73  96 130 170 209 250 297
#     4   9  18  33  53  76 102 134 171 208 246 291
#     4   9  17  30  50  75 100 127 162 204 248 294
#
# _framework density 17.953779000000001
#
# number of rings (size 3 to 8) (size 9 to 14) (size 15 to 20)
#    0.000    2.818    0.000    2.182    0.000    4.727 
#    0.000    6.364    0.000    3.273    0.000    0.000 
#    0.000    0.000    0.000    0.000    0.000    0.000 
#
# Total GULP energy -545565.897103 kJ/mol
# GULP energy per Si atom -12399.224934 kJ/mol
# Density = 1.791292 g / cm^3
# Si number density = 17.953779 Si / 1000 Ang^3
#
#
#
# Elastic Constant Matrix: (Units=GPa)
#
#
# Indices 1 2 3 4 5 6 
#
# 1 66.4578 39.7903 71.9525 0.0000 0.0000 0.0000
# 2 39.7903 66.4583 71.9524 0.0000 0.0000 0.0000
# 3 71.9525 71.9524 181.9383 0.0000 0.0000 0.0000
# 4 0.0000 0.0000 0.0000 -4.1687 0.0000 0.0000
# 5 0.0000 0.0000 0.0000 0.0000 -4.1671 0.0000
# 6 0.0000 0.0000 0.0000 0.0000 0.0000 22.3518
#
#
#
# Elastic Compliance Matrix: (Units=1/GPa)
#
#
# Indices 1 2 3 4 5 6 
#
# 1 0.028884 -0.008615 -0.008016 0.000000 0.000000 0.000000
# 2 -0.008615 0.028883 -0.008016 0.000000 0.000000 0.000000
# 3 -0.008016 -0.008016 0.011836 0.000000 0.000000 0.000000
# 4 0.000000 0.000000 0.000000 -0.239882 0.000000 0.000000
# 5 0.000000 0.000000 0.000000 0.000000 -0.239976 0.000000
# 6 0.000000 0.000000 0.000000 0.000000 0.000000 0.044739
#
#
# Mechanical properties :
#
#
# Convention : Reuss Voigt Hill
#
# Bulk Modulus (GPa) = 49.23531 75.80499 62.52015
# Shear Modulus (GPa) = -16.15758 11.54715 -2.30521
#
# Velocity S-wave (km/s) = -3.00318 2.53881 -1.13435
# Velocity P-wave (km/s) = 3.93160 7.13499 5.76045
#
# Compressibility (1/GPa) = 0.02031063
#
# Stress axis : x y z
#
# Youngs Moduli (GPa) = 34.62151 34.62199 84.48458
#
# Poissons Ratio (x) = 0.29827 0.67722
# Poissons Ratio (y) = 0.29826 0.67720
# Poissons Ratio (z) = 0.27752 0.27752
#
# Static dielectric constant tensor:
#      x y z
#    x 3.259220 0.000000 0.000000 
#    y 0.000000 3.259210 0.000000 
#    z 0.000000 0.000000 3.566820 
# 
# 
# High freq. dielectric constant tensor:
#      x y z
#    x 1.679640 0.000000 0.000000 
#    y 0.000000 1.679640 0.000000 
#    z 0.000000 0.000000 1.709140 
# 
# From -- ./inp_files/5803.got.cif
#   From: 2010.03.12/outbox.cif.g09.slc.cpg/sg115_3_cif.got.tgz:5803.got - 2010.04.14 02:11:21.
