data_PCOD8309060
_publ_section_title
;
Structure prediction by ZEFSAII (Michael W. Deem and Ramdas Pophale) SiO2 
 PCOD8309060
Probable space group: P -4 21 C
;
_chemical_formula_sum "Si O2"
_cell_formula_units_Z 48
_cell_length_a 9.542014
_cell_length_b 9.542014
_cell_length_c 28.280170
_cell_angle_alpha 90.000000
_cell_angle_beta 90.000000
_cell_angle_gamma 90.000000
_cell_volume 2574.910360
_symmetry_space_group_name_H-M "P -4 21 C"
_symmetry_group_IT_number 114
_symmetry_cell_setting 'tetragonal'
loop_
_space_group_symop_operation_xyz
x,y,z
y,-x,-z
-x,-y,z
-y,x,-z
1/2+x,1/2-y,1/2-z
1/2-x,1/2+y,1/2-z
1/2-y,1/2-x,1/2+z
1/2+y,1/2+x,1/2+z
loop_
_atom_site_type_symbol
_atom_site_label
_atom_site_fract_x
_atom_site_fract_y
_atom_site_fract_z
Si Si1 0.394626 0.793591 0.281398
Si Si2 0.119129 0.821974 0.517641
Si Si3 0.212868 0.408184 0.610759
Si Si4 0.896567 0.294711 0.719463
Si Si5 0.794913 0.407285 0.112199
Si Si6 0.833754 0.878426 0.020654
O O1 0.369941 0.746687 0.335472
O O2 0.560860 0.811415 0.272226
O O3 0.330046 0.668940 0.250236
O O4 0.318479 0.939987 0.268416
O O5 0.134982 0.825113 0.574740
O O6 0.187668 0.684007 0.496110
O O7 0.957963 0.808760 0.503268
O O8 0.194556 0.573652 0.604672
O O9 0.335600 0.360420 0.575209
O O10 0.066509 0.333841 0.599583
O O11 0.888233 0.241394 0.665438
O O12 0.954298 0.822951 0.984677
#
# Coordination Sequence:
#
# PCOD8309060 Si02
#       6
#     8   8   8   8   8   8
#     4   9  19  37  59  84 113 147 189 232 279 339
#     4  11  22  36  56  83 114 148 190 234 272 332
#     4   9  17  35  60  79 107 153 190 224 279 338
#     4   9  19  37  59  84 113 147 189 232 279 339
#     4   9  17  35  60  79 107 153 190 224 279 338
#     4  11  22  36  56  83 114 148 190 234 272 332
#
# _framework density 18.641425000000002
#
# number of rings (size 3 to 8) (size 9 to 14) (size 15 to 20)
#    0.000    2.333    3.333    2.000    0.000    1.333 
#    6.000    0.000    0.000    0.000    0.000    0.000 
#    0.000    0.000    0.000    0.000    0.000    0.000 
#
# Total GULP energy -594996.402869 kJ/mol
# GULP energy per Si atom -12395.758393 kJ/mol
# Density = 1.859900 g / cm^3
# Si number density = 18.641425 Si / 1000 Ang^3
#
#
#
# Elastic Constant Matrix: (Units=GPa)
#
#
# Indices 1 2 3 4 5 6 
#
# 1 41.4566 18.1682 37.5563 0.0000 0.0000 0.0000
# 2 18.1682 41.4566 37.5563 0.0000 0.0000 0.0000
# 3 37.5563 37.5563 129.0071 0.0000 0.0000 0.0000
# 4 0.0000 0.0000 0.0000 34.3018 0.0000 0.0000
# 5 0.0000 0.0000 0.0000 0.0000 34.3018 0.0000
# 6 0.0000 0.0000 0.0000 0.0000 0.0000 30.7112
#
#
#
# Elastic Compliance Matrix: (Units=1/GPa)
#
#
# Indices 1 2 3 4 5 6 
#
# 1 0.034712 -0.008228 -0.007710 0.000000 0.000000 0.000000
# 2 -0.008228 0.034712 -0.007710 0.000000 0.000000 0.000000
# 3 -0.007710 -0.007710 0.012241 0.000000 0.000000 0.000000
# 4 0.000000 0.000000 0.000000 0.029153 0.000000 0.000000
# 5 0.000000 0.000000 0.000000 0.000000 0.029153 0.000000
# 6 0.000000 0.000000 0.000000 0.000000 0.000000 0.032561
#
#
# Mechanical properties :
#
#
# Convention : Reuss Voigt Hill
#
# Bulk Modulus (GPa) = 29.09600 44.27575 36.68588
# Shear Modulus (GPa) = 21.61841 27.77225 24.69533
#
# Velocity S-wave (km/s) = 3.40913 3.86400 3.64367
# Velocity P-wave (km/s) = 5.58017 6.61136 6.11754
#
# Compressibility (1/GPa) = 0.03436899
#
# Stress axis : x y z
#
# Youngs Moduli (GPa) = 28.80839 28.80839 81.69549
#
# Poissons Ratio (x) = 0.23703 0.62988
# Poissons Ratio (y) = 0.23703 0.62988
# Poissons Ratio (z) = 0.22211 0.22211
#
# Static dielectric constant tensor:
#      x y z
#    x 3.236920 0.000000 0.000000 
#    y 0.000000 3.236920 0.000000 
#    z 0.000000 0.000000 3.508460 
# 
# 
# High freq. dielectric constant tensor:
#      x y z
#    x 1.709680 0.000000 0.000000 
#    y 0.000000 1.709680 0.000000 
#    z 0.000000 0.000000 1.729040 
# 
# From -- ./inp_files/3966.got.cif
#   From: 2010.03.12/outbox.cif.g09.slc.cpg/sg114_2_cif.got.tgz:3966.got - 2010.04.14 02:08:34.
