data_PCOD8309889
_publ_section_title
;
Structure prediction by ZEFSAII (Michael W. Deem and Ramdas Pophale) SiO2 
 PCOD8309889
Probable space group: P -4 M 2
;
_chemical_formula_sum "Si O2"
_cell_formula_units_Z 64
_cell_length_a 14.543365
_cell_length_b 14.543365
_cell_length_c 17.065436
_cell_angle_alpha 90.000000
_cell_angle_beta 90.000000
_cell_angle_gamma 90.000000
_cell_volume 3609.501247
_symmetry_space_group_name_H-M "P -4 M 2"
_symmetry_group_IT_number 115
_symmetry_cell_setting 'tetragonal'
loop_
_space_group_symop_operation_xyz
x,y,z
y,-x,-z
-x,-y,z
-y,x,-z
y,x,-z
-y,-x,-z
-x,y,z
x,-y,z
loop_
_atom_site_type_symbol
_atom_site_label
_atom_site_fract_x
_atom_site_fract_y
_atom_site_fract_z
Si Si1 0.103089 0.342971 0.550246
Si Si2 0.300486 0.394749 0.106629
Si Si3 0.397105 0.764318 0.322812
Si Si4 0.102376 0.300146 0.373974
Si Si5 0.897318 0.389972 0.813272
Si Si6 0.774900 0.395471 0.947453
Si Si7 0.137887 0.099706 0.410970
Si Si8 0.606917 0.739031 0.714547
O O1 0.181391 0.401702 0.594138
O O2 0.135304 0.328215 0.460960
O O3 0.100857 0.246907 0.594615
O O4 0.000000 0.387834 0.554175
O O5 0.333480 0.500000 0.092223
O O6 0.384950 0.325002 0.094556
O O7 0.258029 0.383168 0.191908
O O8 0.226549 0.364187 0.038872
O O9 0.500000 0.733876 0.300788
O O10 0.355312 0.833889 0.258235
O O11 0.338907 0.670068 0.325787
O O12 0.103201 0.188842 0.363026
O O13 0.163296 0.354969 0.312495
O O14 0.000000 0.335427 0.358975
O O15 0.900387 0.500000 0.812325
O O16 0.853854 0.348000 0.894024
O O17 0.000000 0.349690 0.803597
O O18 0.802225 0.500000 0.945054
O O19 0.104161 0.104161 0.500000
O O20 0.103111 0.000000 0.377077
O O21 0.500000 0.723889 0.690265
#
# Coordination Sequence:
#
# PCOD8309889 Si02
#       8
#     8   8   8   8   8   8   8   8
#     4   9  18  33  54  79 105 135 171 211 259 316
#     4   9  18  31  49  71  98 135 171 207 254 301
#     4  11  21  34  53  76 104 136 172 217 267 317
#     4  10  21  37  56  76 101 137 179 219 262 312
#     4   9  17  29  47  74 106 134 159 199 259 319
#     4   9  16  29  49  75 102 128 165 209 253 308
#     4   9  16  28  50  80 109 131 156 202 267 327
#     4  11  23  38  53  72 103 140 180 224 263 304
#
# _framework density 17.730981
#
# number of rings (size 3 to 8) (size 9 to 14) (size 15 to 20)
#    0.000    2.375    2.500    1.500    0.000    2.875 
#    0.000    4.375    0.000    2.250    0.000    1.750 
#    0.000    0.000    0.000    0.000    0.000    0.000 
#
# Total GULP energy -792870.396140 kJ/mol
# GULP energy per Si atom -12388.599940 kJ/mol
# Density = 1.769062 g / cm^3
# Si number density = 17.730981 Si / 1000 Ang^3
#
#
#
# Elastic Constant Matrix: (Units=GPa)
#
#
# Indices 1 2 3 4 5 6 
#
# 1 83.5054 27.4963 29.0676 0.0000 0.0000 0.0000
# 2 27.4963 83.5054 29.0676 0.0000 0.0000 0.0000
# 3 29.0676 29.0676 72.4230 0.0000 0.0000 0.0000
# 4 0.0000 0.0000 0.0000 20.4361 0.0000 0.0000
# 5 0.0000 0.0000 0.0000 0.0000 20.4361 0.0000
# 6 0.0000 0.0000 0.0000 0.0000 0.0000 8.6232
#
#
#
# Elastic Compliance Matrix: (Units=1/GPa)
#
#
# Indices 1 2 3 4 5 6 
#
# 1 0.014630 -0.003224 -0.004578 0.000000 0.000000 0.000000
# 2 -0.003224 0.014630 -0.004578 0.000000 0.000000 0.000000
# 3 -0.004578 -0.004578 0.017483 0.000000 0.000000 0.000000
# 4 0.000000 0.000000 0.000000 0.048933 0.000000 0.000000
# 5 0.000000 0.000000 0.000000 0.000000 0.048933 0.000000
# 6 0.000000 0.000000 0.000000 0.000000 0.000000 0.115967
#
#
# Mechanical properties :
#
#
# Convention : Reuss Voigt Hill
#
# Bulk Modulus (GPa) = 45.48899 45.63301 45.56100
# Shear Modulus (GPa) = 17.08442 20.15255 18.61849
#
# Velocity S-wave (km/s) = 3.10745 3.37497 3.24397
# Velocity P-wave (km/s) = 6.21175 6.40151 6.30734
#
# Compressibility (1/GPa) = 0.02198334
#
# Stress axis : x y z
#
# Youngs Moduli (GPa) = 68.35077 68.35077 57.19934
#
# Poissons Ratio (x) = 0.22035 0.26187
# Poissons Ratio (y) = 0.22035 0.26187
# Poissons Ratio (z) = 0.31292 0.31292
#
# Static dielectric constant tensor:
#      x y z
#    x 3.307020 0.000000 0.000000 
#    y 0.000000 3.307020 0.000000 
#    z 0.000000 0.000000 3.306210 
# 
# 
# High freq. dielectric constant tensor:
#      x y z
#    x 1.671010 0.000000 0.000000 
#    y 0.000000 1.671010 0.000000 
#    z 0.000000 0.000000 1.671090 
# 
# From -- ./inp_files/4460.got.cif
#   From: 2010.03.12/outbox.cif.g09.slc.cpg/sg115_3_cif.got.tgz:4460.got - 2010.04.14 02:11:21.
