data_PCOD8309519
_publ_section_title
;
Structure prediction by ZEFSAII (Michael W. Deem and Ramdas Pophale) SiO2 
 PCOD8309519
Probable space group: P -4 M 2
;
_chemical_formula_sum "Si O2"
_cell_formula_units_Z 48
_cell_length_a 9.120473
_cell_length_b 9.120473
_cell_length_c 30.649099
_cell_angle_alpha 90.000000
_cell_angle_beta 90.000000
_cell_angle_gamma 90.000000
_cell_volume 2549.484852
_symmetry_space_group_name_H-M "P -4 M 2"
_symmetry_group_IT_number 115
_symmetry_cell_setting 'tetragonal'
loop_
_space_group_symop_operation_xyz
x,y,z
y,-x,-z
-x,-y,z
-y,x,-z
y,x,-z
-y,-x,-z
-x,y,z
x,-y,z
loop_
_atom_site_type_symbol
_atom_site_label
_atom_site_fract_x
_atom_site_fract_y
_atom_site_fract_z
Si Si1 0.172385 0.668703 0.367690
Si Si2 0.663117 0.674360 0.452626
Si Si3 0.171353 0.669529 0.709710
Si Si4 0.332278 0.330545 0.949545
Si Si5 0.827117 0.831991 0.124484
Si Si6 0.670266 0.329066 0.202269
O O1 0.220121 0.500000 0.360200
O O2 0.232038 0.729024 0.413906
O O3 0.236481 0.768012 0.329835
O O4 0.000000 0.686315 0.368071
O O5 0.725878 0.725878 0.500000
O O6 0.500000 0.738195 0.444138
O O7 0.656129 0.500000 0.454006
O O8 0.206636 0.500000 0.700381
O O9 0.249585 0.722713 0.753779
O O10 0.000000 0.698993 0.715079
O O11 0.500000 0.289561 0.938279
O O12 0.304101 0.500000 0.938198
O O13 0.222755 0.231311 0.921964
O O14 0.299241 0.299241 0.000000
O O15 0.761363 0.732910 0.162341
O O16 0.000000 0.814338 0.124992
O O17 0.779130 0.000000 0.131445
O O18 0.500000 0.298190 0.193056
O O19 0.703533 0.500000 0.207493
#
# Coordination Sequence:
#
# PCOD8309519 Si02
#       6
#     8   8   8   8   8   8
#     4  10  20  33  51  77 108 141 175 212 259 314
#     4   8  14  27  49  74  99 132 176 223 265 304
#     4  10  21  37  57  80 105 136 175 217 263 315
#     4   9  19  37  60  84 109 140 182 229 272 315
#     4  11  24  38  53  79 115 150 181 216 262 316
#     4  10  21  38  61  85 106 133 174 222 268 315
#
# _framework density 18.827331999999998
#
# number of rings (size 3 to 8) (size 9 to 14) (size 15 to 20)
#    0.000    2.333    0.000    3.500    0.000    8.000 
#    0.000    3.333    0.000    3.000    0.000    0.000 
#    0.000    0.000    0.000    0.000    0.000    0.000 
#
# Total GULP energy -595289.925249 kJ/mol
# GULP energy per Si atom -12401.873443 kJ/mol
# Density = 1.878448 g / cm^3
# Si number density = 18.827332 Si / 1000 Ang^3
#
#
#
# Elastic Constant Matrix: (Units=GPa)
#
#
# Indices 1 2 3 4 5 6 
#
# 1 76.4127 46.2534 57.1659 0.0000 0.0000 0.0000
# 2 46.2534 76.4127 57.1659 0.0000 0.0000 0.0000
# 3 57.1659 57.1659 139.5038 0.0000 0.0000 0.0000
# 4 0.0000 0.0000 0.0000 -6.3262 0.0000 0.0000
# 5 0.0000 0.0000 0.0000 0.0000 -6.3262 0.0000
# 6 0.0000 0.0000 0.0000 0.0000 0.0000 27.8990
#
#
#
# Elastic Compliance Matrix: (Units=1/GPa)
#
#
# Indices 1 2 3 4 5 6 
#
# 1 0.023174 -0.009984 -0.005405 0.000000 0.000000 0.000000
# 2 -0.009984 0.023174 -0.005405 0.000000 0.000000 0.000000
# 3 -0.005405 -0.005405 0.011598 0.000000 0.000000 0.000000
# 4 0.000000 0.000000 0.000000 -0.158072 0.000000 0.000000
# 5 0.000000 0.000000 0.000000 0.000000 -0.158072 0.000000
# 6 0.000000 0.000000 0.000000 0.000000 0.000000 0.035844
#
#
# Mechanical properties :
#
#
# Convention : Reuss Voigt Hill
#
# Bulk Modulus (GPa) = 61.13230 68.16660 64.64945
# Shear Modulus (GPa) = -28.52017 11.83223 -8.34397
#
# Velocity S-wave (km/s) = -3.89630 2.50963 -2.10748
# Velocity P-wave (km/s) = 3.50698 6.68449 5.33767
#
# Compressibility (1/GPa) = 0.01635796
#
# Stress axis : x y z
#
# Youngs Moduli (GPa) = 43.15249 43.15249 86.22199
#
# Poissons Ratio (x) = 0.43082 0.46603
# Poissons Ratio (y) = 0.43082 0.46603
# Poissons Ratio (z) = 0.23324 0.23324
#
# Static dielectric constant tensor:
#      x y z
#    x 3.381230 0.000000 0.000000 
#    y 0.000000 3.381230 0.000000 
#    z 0.000000 0.000000 3.692350 
# 
# 
# High freq. dielectric constant tensor:
#      x y z
#    x 1.720520 0.000000 0.000000 
#    y 0.000000 1.720520 0.000000 
#    z 0.000000 0.000000 1.748430 
# 
# From -- ./inp_files/6047.got.cif
#   From: 2010.03.12/outbox.cif.g09.slc.cpg/sg115_4_cif.got.tgz:6047.got - 2010.04.14 02:11:21.
