data_PCOD8309176
_publ_section_title
;
Structure prediction by ZEFSAII (Michael W. Deem and Ramdas Pophale) SiO2 
 PCOD8309176
Probable space group: P -4 M 2
;
_chemical_formula_sum "Si O2"
_cell_formula_units_Z 32
_cell_length_a 14.732476
_cell_length_b 14.732476
_cell_length_c 10.154313
_cell_angle_alpha 90.000000
_cell_angle_beta 90.000000
_cell_angle_gamma 90.000000
_cell_volume 2203.951487
_symmetry_space_group_name_H-M "P -4 M 2"
_symmetry_group_IT_number 115
_symmetry_cell_setting 'tetragonal'
loop_
_space_group_symop_operation_xyz
x,y,z
y,-x,-z
-x,-y,z
-y,x,-z
y,x,-z
-y,-x,-z
-x,y,z
x,-y,z
loop_
_atom_site_type_symbol
_atom_site_label
_atom_site_fract_x
_atom_site_fract_y
_atom_site_fract_z
Si Si1 0.604753 0.750522 0.460254
Si Si2 0.770989 0.395690 0.113463
Si Si3 0.899390 0.392310 0.335140
Si Si4 0.603004 0.722457 0.167773
O O1 0.662786 0.662786 0.500000
O O2 0.500000 0.727735 0.493339
O O3 0.638286 0.838716 0.540307
O O4 0.616759 0.774877 0.305536
O O5 0.766253 0.500000 0.149817
O O6 0.852480 0.353660 0.201050
O O7 0.673311 0.359500 0.159104
O O8 0.789325 0.378781 0.957496
O O9 0.908258 0.500000 0.330722
O O10 0.000000 0.349021 0.347364
O O11 0.500000 0.683722 0.158192
#
# Coordination Sequence:
#
# PCOD8309176 Si02
#       4
#     8   8   8   8
#     4  10  18  28  41  61  87 115 143 173 209 246
#     4   9  16  27  40  57  81 112 146 173 202 242
#     4   9  17  29  43  57  78 112 149 177 205 246
#     4   9  17  26  39  59  84 110 137 172 212 245
#
# _framework density 14.519375
#
# number of rings (size 3 to 8) (size 9 to 14) (size 15 to 20)
#    0.000    2.750    2.500    0.000    0.000    0.750 
#    0.000    6.250    0.000    7.500    0.000    0.000 
#    0.000    0.500    0.000    0.500    0.000    0.000 
#
# Total GULP energy -396458.816828 kJ/mol
# GULP energy per Si atom -12389.338026 kJ/mol
# Density = 1.448633 g / cm^3
# Si number density = 14.519375 Si / 1000 Ang^3
#
#
#
# Elastic Constant Matrix: (Units=GPa)
#
#
# Indices 1 2 3 4 5 6 
#
# 1 68.9883 28.9043 46.7540 0.0000 0.0000 0.0000
# 2 28.9043 68.9883 46.7540 0.0000 0.0000 0.0000
# 3 46.7540 46.7540 144.3265 0.0000 0.0000 0.0000
# 4 0.0000 0.0000 0.0000 12.8466 0.0000 0.0000
# 5 0.0000 0.0000 0.0000 0.0000 12.8466 0.0000
# 6 0.0000 0.0000 0.0000 0.0000 0.0000 2.5752
#
#
#
# Elastic Compliance Matrix: (Units=1/GPa)
#
#
# Indices 1 2 3 4 5 6 
#
# 1 0.019870 -0.005077 -0.004792 0.000000 0.000000 0.000000
# 2 -0.005077 0.019870 -0.004792 0.000000 0.000000 0.000000
# 3 -0.004792 -0.004792 0.010033 0.000000 0.000000 0.000000
# 4 0.000000 0.000000 0.000000 0.077841 0.000000 0.000000
# 5 0.000000 0.000000 0.000000 0.000000 0.077841 0.000000
# 6 0.000000 0.000000 0.000000 0.000000 0.000000 0.388327
#
#
# Mechanical properties :
#
#
# Convention : Reuss Voigt Hill
#
# Bulk Modulus (GPa) = 48.89810 58.56972 53.73391
# Shear Modulus (GPa) = 7.93748 16.31308 12.12528
#
# Velocity S-wave (km/s) = 2.34066 3.35556 2.89296
# Velocity P-wave (km/s) = 6.40748 7.44578 6.94606
#
# Compressibility (1/GPa) = 0.02045069
#
# Stress axis : x y z
#
# Youngs Moduli (GPa) = 50.32678 50.32678 99.66669
#
# Poissons Ratio (x) = 0.25553 0.47760
# Poissons Ratio (y) = 0.25553 0.47760
# Poissons Ratio (z) = 0.24117 0.24117
#
# Static dielectric constant tensor:
#      x y z
#    x 2.670160 0.000000 0.000000 
#    y 0.000000 2.670160 0.000000 
#    z 0.000000 0.000000 3.295430 
# 
# 
# High freq. dielectric constant tensor:
#      x y z
#    x 1.514570 0.000000 0.000000 
#    y 0.000000 1.514570 0.000000 
#    z 0.000000 0.000000 1.582970 
# 
# From -- ./inp_files/1302.got.cif
#   From: 2010.03.12/outbox.cif.g09.slc.cpg/sg115_1_cif.got.tgz:1302.got - 2010.04.14 02:11:21.
