data_PCOD8309800
_publ_section_title
;
Structure prediction by ZEFSAII (Michael W. Deem and Ramdas Pophale) SiO2 
 PCOD8309800
Probable space group: P -4 M 2
;
_chemical_formula_sum "Si O2"
_cell_formula_units_Z 40
_cell_length_a 13.222389
_cell_length_b 13.222389
_cell_length_c 12.665949
_cell_angle_alpha 90.000000
_cell_angle_beta 90.000000
_cell_angle_gamma 90.000000
_cell_volume 2214.407760
_symmetry_space_group_name_H-M "P -4 M 2"
_symmetry_group_IT_number 115
_symmetry_cell_setting 'tetragonal'
loop_
_space_group_symop_operation_xyz
x,y,z
y,-x,-z
-x,-y,z
-y,x,-z
y,x,-z
-y,-x,-z
-x,y,z
x,-y,z
loop_
_atom_site_type_symbol
_atom_site_label
_atom_site_fract_x
_atom_site_fract_y
_atom_site_fract_z
Si Si1 0.779090 0.616034 0.620373
Si Si2 0.717992 0.116751 0.805855
Si Si3 0.216947 0.382922 0.000000
Si Si4 0.616034 0.779090 0.620372
Si Si5 0.282008 0.116751 0.194145
O O1 0.759882 0.500000 0.650089
O O2 0.673161 0.673161 0.640031
O O3 0.816263 0.628312 0.500000
O O4 0.865569 0.663499 0.693751
O O5 0.663499 0.134431 0.693751
O O6 0.822924 0.177076 0.814045
O O7 0.745103 0.000000 0.818342
O O8 0.641934 0.150925 0.897315
O O9 0.245845 0.500000 1.000000
O O10 0.150925 0.358066 0.897315
O O11 0.321383 0.321383 0.000000
O O12 0.500000 0.759882 0.650089
O O13 0.254897 0.000000 0.181658
#
# Coordination Sequence:
#
# PCOD8309800 Si02
#       5
#     8   8   8   8   8
#     4   9  18  32  50  74 103 133 166 204 246 295
#     4  10  21  36  53  74 100 130 167 210 252 295
#     4  10  21  36  54  78 106 134 165 200 240 290
#     4   9  18  32  50  74 103 133 166 204 246 295
#     4  10  21  36  53  74 100 130 167 210 252 295
#
# _framework density 18.063521999999999
#
# number of rings (size 3 to 8) (size 9 to 14) (size 15 to 20)
#    0.000    2.400    0.000    1.800    0.000    5.800 
#    0.000    4.000    0.000   10.800    0.000    5.600 
#    0.000    0.000    0.000    0.000    0.000    0.000 
#
# Total GULP energy -496122.289476 kJ/mol
# GULP energy per Si atom -12403.057237 kJ/mol
# Density = 1.802241 g / cm^3
# Si number density = 18.063522 Si / 1000 Ang^3
#
#
#
# Elastic Constant Matrix: (Units=GPa)
#
#
# Indices 1 2 3 4 5 6 
#
# 1 129.6178 53.3518 51.4294 0.0000 0.0000 0.0000
# 2 53.3518 129.6178 51.4294 0.0000 0.0000 0.0000
# 3 51.4294 51.4294 101.1648 0.0000 0.0000 0.0000
# 4 0.0000 0.0000 0.0000 20.3487 0.0000 0.0000
# 5 0.0000 0.0000 0.0000 0.0000 20.3487 0.0000
# 6 0.0000 0.0000 0.0000 0.0000 0.0000 10.5085
#
#
#
# Elastic Compliance Matrix: (Units=1/GPa)
#
#
# Indices 1 2 3 4 5 6 
#
# 1 0.010382 -0.002730 -0.003890 0.000000 0.000000 0.000000
# 2 -0.002730 0.010382 -0.003890 0.000000 0.000000 0.000000
# 3 -0.003890 -0.003890 0.013840 0.000000 0.000000 0.000000
# 4 0.000000 0.000000 0.000000 0.049143 0.000000 0.000000
# 5 0.000000 0.000000 0.000000 0.000000 0.049143 0.000000
# 6 0.000000 0.000000 0.000000 0.000000 0.000000 0.095161
#
#
# Mechanical properties :
#
#
# Convention : Reuss Voigt Hill
#
# Bulk Modulus (GPa) = 73.61620 74.75795 74.18707
# Shear Modulus (GPa) = 19.71603 23.85383 21.78493
#
# Velocity S-wave (km/s) = 3.30734 3.63788 3.47654
# Velocity P-wave (km/s) = 7.44495 7.68906 7.56799
#
# Compressibility (1/GPa) = 0.01358397
#
# Stress axis : x y z
#
# Youngs Moduli (GPa) = 96.31898 96.31898 72.25305
#
# Poissons Ratio (x) = 0.26293 0.28108
# Poissons Ratio (y) = 0.26293 0.28108
# Poissons Ratio (z) = 0.37470 0.37470
#
# Static dielectric constant tensor:
#      x y z
#    x 3.171370 0.000000 0.000000 
#    y 0.000000 3.171370 0.000000 
#    z 0.000000 0.000000 3.616530 
# 
# 
# High freq. dielectric constant tensor:
#      x y z
#    x 1.691020 0.000000 0.000000 
#    y 0.000000 1.691020 0.000000 
#    z 0.000000 0.000000 1.720060 
# 
# From -- ./inp_files/3597.got.cif
#   From: 2010.03.12/outbox.cif.g09.slc.cpg/sg115_2_cif.got.tgz:3597.got - 2010.04.14 02:11:21.
