data_PCOD8309412
_publ_section_title
;
Structure prediction by ZEFSAII (Michael W. Deem and Ramdas Pophale) SiO2 
 PCOD8309412
Probable space group: P -4 M 2
;
_chemical_formula_sum "Si O2"
_cell_formula_units_Z 48
_cell_length_a 9.278990
_cell_length_b 9.278990
_cell_length_c 31.038453
_cell_angle_alpha 90.000000
_cell_angle_beta 90.000000
_cell_angle_gamma 90.000000
_cell_volume 2672.400108
_symmetry_space_group_name_H-M "P -4 M 2"
_symmetry_group_IT_number 115
_symmetry_cell_setting 'tetragonal'
loop_
_space_group_symop_operation_xyz
x,y,z
y,-x,-z
-x,-y,z
-y,x,-z
y,x,-z
-y,-x,-z
-x,y,z
x,-y,z
loop_
_atom_site_type_symbol
_atom_site_label
_atom_site_fract_x
_atom_site_fract_y
_atom_site_fract_z
Si Si1 0.167270 0.165969 0.622527
Si Si2 0.160320 0.171306 0.119766
Si Si3 0.830758 0.332521 0.962538
Si Si4 0.833661 0.330740 0.536761
Si Si5 0.828370 0.160682 0.214041
Si Si6 0.661785 0.828312 0.705697
O O1 0.213429 0.260415 0.581756
O O2 0.255060 0.225582 0.663338
O O3 0.000000 0.184186 0.633695
O O4 0.205324 0.000000 0.612349
O O5 0.269355 0.224777 0.082997
O O6 0.215654 0.223625 0.166903
O O7 0.000000 0.232631 0.109826
O O8 0.152970 0.000000 0.121212
O O9 0.792870 0.500000 0.963474
O O10 0.000000 0.303756 0.968815
O O11 0.746630 0.253371 0.000000
O O12 0.734219 0.265782 0.500000
O O13 0.806643 0.500000 0.539731
O O14 0.000000 0.294257 0.526451
O O15 0.765009 0.262402 0.251479
O O16 0.000000 0.154140 0.216453
O O17 0.765271 0.000000 0.220888
O O18 0.500000 0.767971 0.704078
O O19 0.664201 0.000000 0.707253
#
# Coordination Sequence:
#
# PCOD8309412 Si02
#       6
#     8   8   8   8   8   8
#     4   9  17  30  49  71  95 125 159 194 235 284
#     4   8  14  26  46  70  93 119 153 194 238 283
#     4  10  20  33  50  72  97 126 161 200 243 292
#     4  10  21  36  54  76 101 129 163 203 246 293
#     4   8  13  23  41  64  89 118 153 192 236 284
#     4   9  16  25  40  66  97 124 153 194 239 278
#
# _framework density 17.961382
#
# number of rings (size 3 to 8) (size 9 to 14) (size 15 to 20)
#    0.000    3.000    0.000    2.500    0.000    4.667 
#    0.000    2.500    0.000    4.000    0.000    4.667 
#    0.000    0.000    0.000    0.000    0.000    0.000 
#
# Total GULP energy -595070.186207 kJ/mol
# GULP energy per Si atom -12397.295546 kJ/mol
# Density = 1.792050 g / cm^3
# Si number density = 17.961382 Si / 1000 Ang^3
#
#
#
# Elastic Constant Matrix: (Units=GPa)
#
#
# Indices 1 2 3 4 5 6 
#
# 1 68.2507 35.9840 70.4971 0.0000 0.0000 0.0000
# 2 35.9840 68.2535 70.4967 0.0000 0.0000 0.0000
# 3 70.4971 70.4967 192.0925 0.0000 0.0000 0.0000
# 4 0.0000 0.0000 0.0000 0.8504 0.0000 0.0000
# 5 0.0000 0.0000 0.0000 0.0000 0.8514 0.0000
# 6 0.0000 0.0000 0.0000 0.0000 0.0000 14.0134
#
#
#
# Elastic Compliance Matrix: (Units=1/GPa)
#
#
# Indices 1 2 3 4 5 6 
#
# 1 0.025021 -0.005970 -0.006992 0.000000 0.000000 0.000000
# 2 -0.005970 0.025019 -0.006991 0.000000 0.000000 0.000000
# 3 -0.006992 -0.006991 0.010337 0.000000 0.000000 0.000000
# 4 0.000000 0.000000 0.000000 1.175965 0.000000 0.000000
# 5 0.000000 0.000000 0.000000 0.000000 1.174574 0.000000
# 6 0.000000 0.000000 0.000000 0.000000 0.000000 0.071360
#
#
# Mechanical properties :
#
#
# Convention : Reuss Voigt Hill
#
# Bulk Modulus (GPa) = 48.84553 75.83915 62.34234
# Shear Modulus (GPa) = 1.97706 13.25096 7.61401
#
# Velocity S-wave (km/s) = 1.05029 2.71910 2.06114
# Velocity P-wave (km/s) = 5.35953 7.22309 6.35994
#
# Compressibility (1/GPa) = 0.02047270
#
# Stress axis : x y z
#
# Youngs Moduli (GPa) = 39.96591 39.96883 96.73567
#
# Poissons Ratio (x) = 0.23861 0.67635
# Poissons Ratio (y) = 0.23859 0.67628
# Poissons Ratio (z) = 0.27943 0.27942
#
# Static dielectric constant tensor:
#      x y z
#    x 3.101480 0.000000 0.000000 
#    y 0.000000 3.101480 0.000000 
#    z 0.000000 0.000000 3.681640 
# 
# 
# High freq. dielectric constant tensor:
#      x y z
#    x 1.662670 0.000000 0.000000 
#    y 0.000000 1.662670 0.000000 
#    z 0.000000 0.000000 1.714490 
# 
# From -- ./inp_files/6100.got.cif
#   From: 2010.03.12/outbox.cif.g09.slc.cpg/sg115_4_cif.got.tgz:6100.got - 2010.04.14 02:11:21.
