data_PCOD8309931
_publ_section_title
;
Structure prediction by ZEFSAII (Michael W. Deem and Ramdas Pophale) SiO2 
 PCOD8309931
Probable space group: P -4 M 2
;
_chemical_formula_sum "Si O2"
_cell_formula_units_Z 20
_cell_length_a 8.983820
_cell_length_b 8.983820
_cell_length_c 12.753219
_cell_angle_alpha 90.000000
_cell_angle_beta 90.000000
_cell_angle_gamma 90.000000
_cell_volume 1029.299830
_symmetry_space_group_name_H-M "P -4 M 2"
_symmetry_group_IT_number 115
_symmetry_cell_setting 'tetragonal'
loop_
_space_group_symop_operation_xyz
x,y,z
y,-x,-z
-x,-y,z
-y,x,-z
y,x,-z
-y,-x,-z
-x,y,z
x,-y,z
loop_
_atom_site_type_symbol
_atom_site_label
_atom_site_fract_x
_atom_site_fract_y
_atom_site_fract_z
Si Si1 0.675099 0.670855 0.808998
Si Si2 0.826042 0.329484 0.594161
Si Si3 0.172703 0.827298 0.000000
O O1 0.500000 0.692076 0.802097
O O2 0.718435 0.500000 0.833638
O O3 0.744333 0.723343 0.699366
O O4 0.737193 0.775459 0.899074
O O5 0.773946 0.226055 0.500000
O O6 0.784888 0.500000 0.567830
O O7 0.000000 0.307958 0.611937
O O8 0.000000 0.794910 0.980330
#
# Coordination Sequence:
#
# PCOD8309931 Si02
#       3
#     8   8   4
#     4  10  21  38  61  86 111 144 188 234 279 330
#     4  10  21  37  58  84 114 149 188 230 278 331
#     4  11  24  39  56  82 116 151 186 227 278 334
#
# _framework density 19.430681
#
# number of rings (size 3 to 8) (size 9 to 14) (size 15 to 20)
#    0.000    1.800    0.000    3.600    0.000   10.400 
#    0.000    0.000    0.000    0.000    0.000    0.000 
#    0.000    0.000    0.000    0.000    0.000    0.000 
#
# Total GULP energy -248133.755912 kJ/mol
# GULP energy per Si atom -12406.687796 kJ/mol
# Density = 1.938646 g / cm^3
# Si number density = 19.430681 Si / 1000 Ang^3
#
#
#
# Elastic Constant Matrix: (Units=GPa)
#
#
# Indices 1 2 3 4 5 6 
#
# 1 77.9785 36.7605 53.2482 0.0000 0.0000 0.0000
# 2 36.7605 77.9806 53.2493 0.0000 0.0000 0.0000
# 3 53.2482 53.2493 139.2319 0.0000 0.0000 0.0000
# 4 0.0000 0.0000 0.0000 304.8694 0.0000 0.0000
# 5 0.0000 0.0000 0.0000 0.0000 305.0380 0.0000
# 6 0.0000 0.0000 0.0000 0.0000 0.0000 31.8064
#
#
#
# Elastic Compliance Matrix: (Units=1/GPa)
#
#
# Indices 1 2 3 4 5 6 
#
# 1 0.018886 -0.005375 -0.005167 0.000000 0.000000 0.000000
# 2 -0.005375 0.018886 -0.005167 0.000000 0.000000 0.000000
# 3 -0.005167 -0.005167 0.011135 0.000000 0.000000 0.000000
# 4 0.000000 0.000000 0.000000 0.003280 0.000000 0.000000
# 5 0.000000 0.000000 0.000000 0.000000 0.003278 0.000000
# 6 0.000000 0.000000 0.000000 0.000000 0.000000 0.031440
#
#
# Mechanical properties :
#
#
# Convention : Reuss Voigt Hill
#
# Bulk Modulus (GPa) = 57.18155 64.63414 60.90784
# Shear Modulus (GPa) = 40.27257 138.47161 89.37209
#
# Velocity S-wave (km/s) = 4.55755 8.45098 6.78934
# Velocity P-wave (km/s) = 7.56224 11.33850 9.63714
#
# Compressibility (1/GPa) = 0.01748816
#
# Stress axis : x y z
#
# Youngs Moduli (GPa) = 52.94833 52.94950 89.80829
#
# Poissons Ratio (x) = 0.28458 0.46408
# Poissons Ratio (y) = 0.28457 0.46408
# Poissons Ratio (z) = 0.27361 0.27362
#
# Static dielectric constant tensor:
#      x y z
#    x 3.461260 0.000000 0.000000 
#    y 0.000000 3.461390 0.000000 
#    z 0.000000 0.000000 3.762470 
# 
# 
# High freq. dielectric constant tensor:
#      x y z
#    x 1.760750 0.000000 0.000000 
#    y 0.000000 1.760750 0.000000 
#    z 0.000000 0.000000 1.769320 
# 
# From -- ./inp_files/2253.got.cif
#   From: 2010.03.12/outbox.cif.g09.slc.cpg/sg115_2_cif.got.tgz:2253.got - 2010.04.14 02:11:21.
