data_PCOD8309122
_publ_section_title
;
Structure prediction by ZEFSAII (Michael W. Deem and Ramdas Pophale) SiO2 
 PCOD8309122
Probable space group: P -4 21 C
;
_chemical_formula_sum "Si O2"
_cell_formula_units_Z 38
_cell_length_a 8.958952
_cell_length_b 8.958952
_cell_length_c 21.577910
_cell_angle_alpha 90.000000
_cell_angle_beta 90.000000
_cell_angle_gamma 90.000000
_cell_volume 1731.903927
_symmetry_space_group_name_H-M "P -4 21 C"
_symmetry_group_IT_number 114
_symmetry_cell_setting 'tetragonal'
loop_
_space_group_symop_operation_xyz
x,y,z
y,-x,-z
-x,-y,z
-y,x,-z
1/2+x,1/2-y,1/2-z
1/2-x,1/2+y,1/2-z
1/2-y,1/2-x,1/2+z
1/2+y,1/2+x,1/2+z
loop_
_atom_site_type_symbol
_atom_site_label
_atom_site_fract_x
_atom_site_fract_y
_atom_site_fract_z
Si Si1 0.002395 0.837670 0.205819
Si Si2 0.521374 0.762654 0.081668
Si Si3 0.500000 0.000000 0.985751
Si Si4 0.683425 0.115958 0.376554
Si Si5 0.000000 0.000000 0.500000
Si Si6 0.308564 0.299611 0.820428
O O1 0.921957 0.706099 0.169228
O O2 0.921992 0.863751 0.271441
O O3 0.175305 0.791103 0.213978
O O4 0.000000 0.000000 0.171780
O O5 0.664228 0.704761 0.117970
O O6 0.441827 0.633648 0.042047
O O7 0.388926 0.799021 0.130751
O O8 0.579823 0.890402 0.035180
O O9 0.610488 0.096380 0.942550
O O10 0.717838 0.949799 0.352203
#
# Coordination Sequence:
#
# PCOD8309122 Si02
#       6
#     8   8   4   8   2   8
#     4  12  27  44  71 105 143 179 238 299 367 425
#     4  12  24  43  73 100 135 185 243 291 351 427
#     4  12  26  44  72 104 140 188 242 296 352 420
#     4  12  25  48  70 101 145 192 235 293 363 435
#     4  12  20  40  76  92 128 180 244 272 338 440
#     4  12  24  48  73 103 139 192 237 297 362 443
#
# _framework density 21.941172999999999
#
# number of rings (size 3 to 8) (size 9 to 14) (size 15 to 20)
#    0.000    0.000    6.316    3.789    2.947    0.000 
#    3.789    0.000    0.000    0.000    0.000    0.000 
#    0.000    0.000    0.000    0.000    0.000    0.000 
#
# Total GULP energy -470919.389522 kJ/mol
# GULP energy per Si atom -12392.615514 kJ/mol
# Density = 2.189123 g / cm^3
# Si number density = 21.941173 Si / 1000 Ang^3
#
#
#
# Elastic Constant Matrix: (Units=GPa)
#
#
# Indices 1 2 3 4 5 6 
#
# 1 102.9843 49.6467 43.2229 0.0000 0.0000 0.0000
# 2 49.6467 102.9843 43.2229 0.0000 0.0000 0.0000
# 3 43.2229 43.2229 92.4741 0.0000 0.0000 0.0000
# 4 0.0000 0.0000 0.0000 -148.8280 0.0000 0.0000
# 5 0.0000 0.0000 0.0000 0.0000 -148.8280 0.0000
# 6 0.0000 0.0000 0.0000 0.0000 0.0000 27.1321
#
#
#
# Elastic Compliance Matrix: (Units=1/GPa)
#
#
# Indices 1 2 3 4 5 6 
#
# 1 0.013830 -0.004919 -0.004165 0.000000 0.000000 0.000000
# 2 -0.004919 0.013830 -0.004165 0.000000 0.000000 0.000000
# 3 -0.004165 -0.004165 0.014707 0.000000 0.000000 0.000000
# 4 0.000000 0.000000 0.000000 -0.006719 0.000000 0.000000
# 5 0.000000 0.000000 0.000000 0.000000 -0.006719 0.000000
# 6 0.000000 0.000000 0.000000 0.000000 0.000000 0.036857
#
#
# Mechanical properties :
#
#
# Convention : Reuss Voigt Hill
#
# Bulk Modulus (GPa) = 63.01613 63.40307 63.20960
# Shear Modulus (GPa) = 51.24437 -43.28142 3.98147
#
# Velocity S-wave (km/s) = 4.83798 -4.44623 1.34854
# Velocity P-wave (km/s) = 7.74538 1.61276 5.59428
#
# Compressibility (1/GPa) = 0.01586895
#
# Stress axis : x y z
#
# Youngs Moduli (GPa) = 72.30893 72.30893 67.99395
#
# Poissons Ratio (x) = 0.35568 0.28319
# Poissons Ratio (y) = 0.35568 0.28319
# Poissons Ratio (z) = 0.30116 0.30116
#
# Static dielectric constant tensor:
#      x y z
#    x 7.884790 0.000000 0.000000 
#    y 0.000000 7.884790 0.000000 
#    z 0.000000 0.000000 4.088950 
# 
# 
# High freq. dielectric constant tensor:
#      x y z
#    x 1.863440 0.000000 0.000000 
#    y 0.000000 1.863440 0.000000 
#    z 0.000000 0.000000 1.870990 
# 
# From -- ./inp_files/3408.got.cif
#   From: 2010.03.12/outbox.cif.g09.slc.cpg/sg114_2_cif.got.tgz:3408.got - 2010.04.14 02:08:34.
