data_PCOD8309190
_publ_section_title
;
Structure prediction by ZEFSAII (Michael W. Deem and Ramdas Pophale) SiO2 
 PCOD8309190
Probable space group: P -4 M 2
;
_chemical_formula_sum "Si O2"
_cell_formula_units_Z 64
_cell_length_a 14.148757
_cell_length_b 14.148757
_cell_length_c 20.166562
_cell_angle_alpha 90.000000
_cell_angle_beta 90.000000
_cell_angle_gamma 90.000000
_cell_volume 4037.090094
_symmetry_space_group_name_H-M "P -4 M 2"
_symmetry_group_IT_number 115
_symmetry_cell_setting 'tetragonal'
loop_
_space_group_symop_operation_xyz
x,y,z
y,-x,-z
-x,-y,z
-y,x,-z
y,x,-z
-y,-x,-z
-x,y,z
x,-y,z
loop_
_atom_site_type_symbol
_atom_site_label
_atom_site_fract_x
_atom_site_fract_y
_atom_site_fract_z
Si Si1 0.604465 0.110955 0.078773
Si Si2 0.606077 0.888385 0.702307
Si Si3 0.890696 0.253806 0.030882
Si Si4 0.891811 0.263760 0.565833
Si Si5 0.603740 0.888318 0.320477
Si Si6 0.109726 0.252217 0.183728
Si Si7 0.729759 0.887999 0.199907
Si Si8 0.741608 0.890765 0.584583
O O1 0.500000 0.157668 0.082720
O O2 0.673073 0.150142 0.135923
O O3 0.593906 0.000000 0.089511
O O4 0.650008 0.135175 0.007779
O O5 0.500000 0.843988 0.702244
O O6 0.660204 0.858180 0.769794
O O7 0.663565 0.853880 0.637069
O O8 0.597025 0.000000 0.699316
O O9 0.868692 0.276594 0.107301
O O10 0.000000 0.226261 0.020321
O O11 0.832766 0.167235 0.000000
O O12 0.858318 0.352901 0.609050
O O13 0.877082 0.296914 0.490114
O O14 0.836192 0.170828 0.589431
O O15 0.000000 0.237519 0.580375
O O16 0.500000 0.841849 0.314118
O O17 0.670731 0.850919 0.262438
O O18 0.594561 0.000000 0.314085
O O19 0.167351 0.158879 0.203415
O O20 0.000000 0.228387 0.195449
O O21 0.745231 0.000000 0.198896
O O22 0.768182 0.000000 0.598799
#
# Coordination Sequence:
#
# PCOD8309190 Si02
#       8
#     8   8   8   8   8   8   8   8
#     4   9  17  29  45  64  87 118 153 185 222 267
#     4   9  18  32  47  63  86 120 160 198 234 267
#     4  10  19  31  45  65  93 124 154 187 224 265
#     4   9  17  28  43  66  95 125 155 190 228 269
#     4   9  17  28  42  61  86 117 152 189 230 269
#     4  10  20  31  46  67  93 123 154 187 222 265
#     4  10  18  29  45  65  93 124 150 180 218 265
#     4   9  17  29  45  65  92 126 160 190 224 269
#
# _framework density 15.853002999999999
#
# number of rings (size 3 to 8) (size 9 to 14) (size 15 to 20)
#    0.000    2.625    1.250    1.125    0.000    3.125 
#    0.000    7.500    0.000    4.500    0.000    0.000 
#    0.000   13.750    0.000   11.000    0.000    1.000 
#
# Total GULP energy -793317.027551 kJ/mol
# GULP energy per Si atom -12395.578555 kJ/mol
# Density = 1.581692 g / cm^3
# Si number density = 15.853003 Si / 1000 Ang^3
#
#
#
# Elastic Constant Matrix: (Units=GPa)
#
#
# Indices 1 2 3 4 5 6 
#
# 1 76.5058 40.6933 50.6147 0.0000 0.0000 0.0000
# 2 40.6933 76.5066 50.6145 0.0000 0.0000 0.0000
# 3 50.6147 50.6145 131.1569 0.0000 0.0000 0.0000
# 4 0.0000 0.0000 0.0000 21.0769 0.0000 0.0000
# 5 0.0000 0.0000 0.0000 0.0000 21.0770 0.0000
# 6 0.0000 0.0000 0.0000 0.0000 0.0000 3.6583
#
#
#
# Elastic Compliance Matrix: (Units=1/GPa)
#
#
# Indices 1 2 3 4 5 6 
#
# 1 0.020361 -0.007562 -0.004939 0.000000 0.000000 0.000000
# 2 -0.007562 0.020361 -0.004939 0.000000 0.000000 0.000000
# 3 -0.004939 -0.004939 0.011437 0.000000 0.000000 0.000000
# 4 0.000000 0.000000 0.000000 0.047445 0.000000 0.000000
# 5 0.000000 0.000000 0.000000 0.000000 0.047445 0.000000
# 6 0.000000 0.000000 0.000000 0.000000 0.000000 0.273351
#
#
# Mechanical properties :
#
#
# Convention : Reuss Voigt Hill
#
# Bulk Modulus (GPa) = 57.87950 63.11271 60.49610
# Shear Modulus (GPa) = 10.84507 18.64557 14.74532
#
# Velocity S-wave (km/s) = 2.61837 3.43323 3.05311
# Velocity P-wave (km/s) = 6.76244 7.45746 7.11844
#
# Compressibility (1/GPa) = 0.01727727
#
# Stress axis : x y z
#
# Youngs Moduli (GPa) = 49.11377 49.11466 87.43931
#
# Poissons Ratio (x) = 0.37142 0.43188
# Poissons Ratio (y) = 0.37141 0.43186
# Poissons Ratio (z) = 0.24258 0.24258
#
# Static dielectric constant tensor:
#      x y z
#    x 2.903290 0.000000 0.000000 
#    y 0.000000 2.903290 0.000000 
#    z 0.000000 0.000000 3.296140 
# 
# 
# High freq. dielectric constant tensor:
#      x y z
#    x 1.579400 0.000000 0.000000 
#    y 0.000000 1.579400 0.000000 
#    z 0.000000 0.000000 1.630880 
# 
# From -- ./inp_files/4426.got.cif
#   From: 2010.03.12/outbox.cif.g09.slc.cpg/sg115_3_cif.got.tgz:4426.got - 2010.04.14 02:11:21.
