data_PCOD8309611
_publ_section_title
;
Structure prediction by ZEFSAII (Michael W. Deem and Ramdas Pophale) SiO2 
 PCOD8309611
Probable space group: P -4 M 2
;
_chemical_formula_sum "Si O2"
_cell_formula_units_Z 48
_cell_length_a 9.066463
_cell_length_b 9.066463
_cell_length_c 30.952526
_cell_angle_alpha 90.000000
_cell_angle_beta 90.000000
_cell_angle_gamma 90.000000
_cell_volume 2544.320893
_symmetry_space_group_name_H-M "P -4 M 2"
_symmetry_group_IT_number 115
_symmetry_cell_setting 'tetragonal'
loop_
_space_group_symop_operation_xyz
x,y,z
y,-x,-z
-x,-y,z
-y,x,-z
y,x,-z
-y,-x,-z
-x,y,z
x,-y,z
loop_
_atom_site_type_symbol
_atom_site_label
_atom_site_fract_x
_atom_site_fract_y
_atom_site_fract_z
Si Si1 0.827807 0.329427 0.835715
Si Si2 0.670878 0.329123 0.000000
Si Si3 0.167866 0.325777 0.086422
Si Si4 0.166388 0.324496 0.414588
Si Si5 0.675218 0.332145 0.670080
Si Si6 0.172219 0.171503 0.251633
Si Si7 0.328141 0.671860 0.500000
O O1 0.786627 0.500000 0.830170
O O2 0.743485 0.264795 0.876234
O O3 0.775076 0.244988 0.792903
O O4 0.000000 0.305468 0.843675
O O5 0.766316 0.275288 0.040601
O O6 0.500000 0.300359 0.010848
O O7 0.177939 0.500000 0.091153
O O8 0.000000 0.269518 0.089781
O O9 0.168368 0.500000 0.414371
O O10 0.257828 0.264018 0.373763
O O11 0.241482 0.266772 0.458454
O O12 0.000000 0.263406 0.411868
O O13 0.500000 0.325576 0.671602
O O14 0.732270 0.500000 0.671726
O O15 0.736225 0.242378 0.710147
O O16 0.000000 0.206412 0.249176
O O17 0.204375 0.000000 0.259894
O O18 0.500000 0.702178 0.491985
#
# Coordination Sequence:
#
# PCOD8309611 Si02
#       7
#     8   4   8   8   8   8   4
#     4  10  21  37  57  79 104 138 179 220 263 313
#     4   9  18  34  54  75 104 142 178 213 256 307
#     4  10  21  36  55  81 111 141 175 217 264 313
#     4   9  17  30  49  73 101 132 167 210 259 308
#     4  10  20  34  54  80 107 137 176 219 262 311
#     4  10  21  37  56  78 106 140 176 216 265 318
#     4   9  16  28  48  71  94 124 164 207 250 302
#
# _framework density 18.865544
#
# number of rings (size 3 to 8) (size 9 to 14) (size 15 to 20)
#    0.000    2.333    0.000    2.500    0.000    7.333 
#    0.000    2.500    0.000    3.250    0.000    0.000 
#    0.000    0.000    0.000    0.000    0.000    0.000 
#
# Total GULP energy -595351.236989 kJ/mol
# GULP energy per Si atom -12403.150771 kJ/mol
# Density = 1.882260 g / cm^3
# Si number density = 18.865544 Si / 1000 Ang^3
#
#
#
# Elastic Constant Matrix: (Units=GPa)
#
#
# Indices 1 2 3 4 5 6 
#
# 1 73.5740 29.3692 56.6284 0.0000 0.0000 0.0000
# 2 29.3692 73.5741 56.6284 0.0000 0.0000 0.0000
# 3 56.6284 56.6284 164.7357 0.0000 0.0000 0.0000
# 4 0.0000 0.0000 0.0000 -61.8525 0.0000 0.0000
# 5 0.0000 0.0000 0.0000 0.0000 -61.8532 0.0000
# 6 0.0000 0.0000 0.0000 0.0000 0.0000 24.0430
#
#
#
# Elastic Compliance Matrix: (Units=1/GPa)
#
#
# Indices 1 2 3 4 5 6 
#
# 1 0.019122 -0.003500 -0.005370 0.000000 0.000000 0.000000
# 2 -0.003500 0.019122 -0.005370 0.000000 0.000000 0.000000
# 3 -0.005370 -0.005370 0.009762 0.000000 0.000000 0.000000
# 4 0.000000 0.000000 0.000000 -0.016167 0.000000 0.000000
# 5 0.000000 0.000000 0.000000 0.000000 -0.016167 0.000000
# 6 0.000000 0.000000 0.000000 0.000000 0.000000 0.041592
#
#
# Mechanical properties :
#
#
# Convention : Reuss Voigt Hill
#
# Bulk Modulus (GPa) = 51.21334 66.34845 58.78089
# Shear Modulus (GPa) = 54.19865 -8.64868 22.77499
#
# Velocity S-wave (km/s) = 5.36575 -2.14344 3.47829
# Velocity P-wave (km/s) = 8.09900 5.39627 6.88162
#
# Compressibility (1/GPa) = 0.01952616
#
# Stress axis : x y z
#
# Youngs Moduli (GPa) = 52.29534 52.29546 102.43389
#
# Poissons Ratio (x) = 0.18302 0.55009
# Poissons Ratio (y) = 0.18302 0.55009
# Poissons Ratio (z) = 0.28084 0.28084
#
# Static dielectric constant tensor:
#      x y z
#    x 3.605250 0.000000 0.000000 
#    y 0.000000 3.605240 0.000000 
#    z 0.000000 0.000000 3.626310 
# 
# 
# High freq. dielectric constant tensor:
#      x y z
#    x 1.724740 0.000000 0.000000 
#    y 0.000000 1.724740 0.000000 
#    z 0.000000 0.000000 1.749510 
# 
# From -- ./inp_files/6192.got.cif
#   From: 2010.03.12/outbox.cif.g09.slc.cpg/sg115_4_cif.got.tgz:6192.got - 2010.04.14 02:11:21.
