data_PCOD8309324
_publ_section_title
;
Structure prediction by ZEFSAII (Michael W. Deem and Ramdas Pophale) SiO2 
 PCOD8309324
Probable space group: P -4 M 2
;
_chemical_formula_sum "Si O2"
_cell_formula_units_Z 21
_cell_length_a 7.821258
_cell_length_b 7.821258
_cell_length_c 16.039452
_cell_angle_alpha 90.000000
_cell_angle_beta 90.000000
_cell_angle_gamma 90.000000
_cell_volume 981.166588
_symmetry_space_group_name_H-M "P -4 M 2"
_symmetry_group_IT_number 115
_symmetry_cell_setting 'tetragonal'
loop_
_space_group_symop_operation_xyz
x,y,z
y,-x,-z
-x,-y,z
-y,x,-z
y,x,-z
-y,-x,-z
-x,y,z
x,-y,z
loop_
_atom_site_type_symbol
_atom_site_label
_atom_site_fract_x
_atom_site_fract_y
_atom_site_fract_z
Si Si1 0.296751 0.690400 0.089219
Si Si2 0.500000 0.811003 0.625491
Si Si3 0.500000 0.500000 0.500000
Si Si4 0.190766 0.299880 0.735063
O O1 0.500000 0.683916 0.082569
O O2 0.223583 0.500000 0.103880
O O3 0.238790 0.802709 0.168359
O O4 0.231719 0.768282 0.000000
O O5 0.500000 0.671045 0.553750
O O6 0.670243 0.798237 0.680870
O O7 0.500000 0.000000 0.584603
O O8 0.234179 0.500000 0.728868
O O9 0.000000 0.260144 0.701389
#
# Coordination Sequence:
#
# PCOD8309324 Si02
#       4
#     8   4   1   8
#     4   8  13  24  49  84 126 173 226 269 306 355
#     4  12  26  46  74 101 127 164 205 257 322 390
#     4  12  28  52  76 100 130 156 200 256 328 404
#     4  10  19  36  65  97 132 174 218 264 314 372
#
# _framework density 21.403091
#
# number of rings (size 3 to 8) (size 9 to 14) (size 15 to 20)
#    0.000    2.286    3.810    1.143    0.000    2.286 
#    0.000    1.905    0.000    0.000    0.000    0.000 
#    0.000    0.000    0.000    0.000    0.000    0.000 
#
# Total GULP energy -260234.627894 kJ/mol
# GULP energy per Si atom -12392.125138 kJ/mol
# Density = 2.135438 g / cm^3
# Si number density = 21.403091 Si / 1000 Ang^3
#
#
#
# Elastic Constant Matrix: (Units=GPa)
#
#
# Indices 1 2 3 4 5 6 
#
# 1 107.4037 34.3591 50.4439 0.0000 0.0000 0.0000
# 2 34.3591 107.4034 50.4439 0.0000 0.0000 0.0000
# 3 50.4439 50.4439 125.6418 0.0000 0.0000 0.0000
# 4 0.0000 0.0000 0.0000 0.2964 0.0000 0.0000
# 5 0.0000 0.0000 0.0000 0.0000 0.2965 0.0000
# 6 0.0000 0.0000 0.0000 0.0000 0.0000 8.1971
#
#
#
# Elastic Compliance Matrix: (Units=1/GPa)
#
#
# Indices 1 2 3 4 5 6 
#
# 1 0.011783 -0.001907 -0.003965 0.000000 0.000000 0.000000
# 2 -0.001907 0.011783 -0.003965 0.000000 0.000000 0.000000
# 3 -0.003965 -0.003965 0.011143 0.000000 0.000000 0.000000
# 4 0.000000 0.000000 0.000000 3.373709 0.000000 0.000000
# 5 0.000000 0.000000 0.000000 0.000000 3.372510 0.000000
# 6 0.000000 0.000000 0.000000 0.000000 0.000000 0.121995
#
#
# Mechanical properties :
#
#
# Convention : Reuss Voigt Hill
#
# Bulk Modulus (GPa) = 66.51382 67.88253 67.19818
# Shear Modulus (GPa) = 0.72175 15.43813 8.07994
#
# Velocity S-wave (km/s) = 0.58133 2.68862 1.94508
# Velocity P-wave (km/s) = 5.62093 6.43610 6.04227
#
# Compressibility (1/GPa) = 0.01503447
#
# Stress axis : x y z
#
# Youngs Moduli (GPa) = 84.86765 84.86742 89.74251
#
# Poissons Ratio (x) = 0.16186 0.35583
# Poissons Ratio (y) = 0.16186 0.35583
# Poissons Ratio (z) = 0.33650 0.33650
#
# Static dielectric constant tensor:
#      x y z
#    x 3.598670 0.000000 0.000000 
#    y 0.000000 3.598670 0.000000 
#    z 0.000000 0.000000 3.980850 
# 
# 
# High freq. dielectric constant tensor:
#      x y z
#    x 1.816010 0.000000 0.000000 
#    y 0.000000 1.816010 0.000000 
#    z 0.000000 0.000000 1.831540 
# 
# From -- ./inp_files/3347.got.cif
#   From: 2010.03.12/outbox.cif.g09.slc.cpg/sg115_2_cif.got.tgz:3347.got - 2010.04.14 02:11:21.
