data_PCOD8309773
_publ_section_title
;
Structure prediction by ZEFSAII (Michael W. Deem and Ramdas Pophale) SiO2 
 PCOD8309773
Probable space group: P -4 M 2
;
_chemical_formula_sum "Si O2"
_cell_formula_units_Z 40
_cell_length_a 9.366261
_cell_length_b 9.366261
_cell_length_c 25.276574
_cell_angle_alpha 90.000000
_cell_angle_beta 90.000000
_cell_angle_gamma 90.000000
_cell_volume 2217.434092
_symmetry_space_group_name_H-M "P -4 M 2"
_symmetry_group_IT_number 115
_symmetry_cell_setting 'tetragonal'
loop_
_space_group_symop_operation_xyz
x,y,z
y,-x,-z
-x,-y,z
-y,x,-z
y,x,-z
-y,-x,-z
-x,y,z
x,-y,z
loop_
_atom_site_type_symbol
_atom_site_label
_atom_site_fract_x
_atom_site_fract_y
_atom_site_fract_z
Si Si1 0.835118 0.835791 0.148907
Si Si2 0.332130 0.840679 0.541678
Si Si3 0.333229 0.836002 0.661445
Si Si4 0.833123 0.665172 0.748158
Si Si5 0.332250 0.164969 0.955841
O O1 0.742158 0.782721 0.198268
O O2 0.792050 0.737664 0.099745
O O3 0.000000 0.815749 0.164305
O O4 0.801309 0.000000 0.134219
O O5 0.265860 0.734141 0.500000
O O6 0.500000 0.835290 0.534452
O O7 0.291604 0.795849 0.601351
O O8 0.275295 0.000000 0.530401
O O9 0.500000 0.812121 0.671401
O O10 0.246722 0.730765 0.698472
O O11 0.292014 0.000000 0.673397
O O12 0.792809 0.500000 0.753058
O O13 0.000000 0.689442 0.739088
O O14 0.500000 0.194072 0.952419
O O15 0.298908 0.000000 0.969477
O O16 0.265060 0.265060 0.000000
#
# Coordination Sequence:
#
# PCOD8309773 Si02
#       5
#     8   8   8   8   8
#     4   9  18  34  55  76 101 137 178 215 252 300
#     4   9  19  35  53  75 103 134 170 212 257 305
#     4   9  19  36  55  74 100 136 175 213 254 303
#     4  10  21  35  52  78 109 137 168 210 259 307
#     4  10  21  36  55  80 108 138 173 213 257 304
#
# _framework density 18.038868000000001
#
# number of rings (size 3 to 8) (size 9 to 14) (size 15 to 20)
#    0.000    2.600    0.000    2.400    0.000    6.400 
#    0.000   10.000    0.000    0.000    0.000    0.000 
#    0.000    0.000    0.000    0.000    0.000    0.000 
#
# Total GULP energy -496075.673266 kJ/mol
# GULP energy per Si atom -12401.891832 kJ/mol
# Density = 1.799781 g / cm^3
# Si number density = 18.038868 Si / 1000 Ang^3
#
#
#
# Elastic Constant Matrix: (Units=GPa)
#
#
# Indices 1 2 3 4 5 6 
#
# 1 79.0979 48.8690 76.0925 0.0000 0.0000 0.0000
# 2 48.8690 79.1007 76.0939 0.0000 0.0000 0.0000
# 3 76.0925 76.0939 151.1094 0.0000 0.0000 0.0000
# 4 0.0000 0.0000 0.0000 -233.0055 0.0000 0.0000
# 5 0.0000 0.0000 0.0000 0.0000 -233.0539 0.0000
# 6 0.0000 0.0000 0.0000 0.0000 0.0000 30.1988
#
#
#
# Elastic Compliance Matrix: (Units=1/GPa)
#
#
# Indices 1 2 3 4 5 6 
#
# 1 0.026281 -0.006799 -0.009810 0.000000 0.000000 0.000000
# 2 -0.006799 0.026280 -0.009810 0.000000 0.000000 0.000000
# 3 -0.009810 -0.009810 0.016497 0.000000 0.000000 0.000000
# 4 0.000000 0.000000 0.000000 -0.004292 0.000000 0.000000
# 5 0.000000 0.000000 0.000000 0.000000 -0.004291 0.000000
# 6 0.000000 0.000000 0.000000 0.000000 0.000000 0.033114
#
#
# Mechanical properties :
#
#
# Convention : Reuss Voigt Hill
#
# Bulk Modulus (GPa) = 61.65323 79.04653 70.34988
# Shear Modulus (GPa) = 32.93088 -79.95526 -23.51219
#
# Velocity S-wave (km/s) = 4.27728 -6.66484 -3.61421
# Velocity P-wave (km/s) = 7.65805 3.91300 4.65479
#
# Compressibility (1/GPa) = 0.01621975
#
# Stress axis : x y z
#
# Youngs Moduli (GPa) = 38.05097 38.05237 60.61551
#
# Poissons Ratio (x) = 0.25873 0.59463
# Poissons Ratio (y) = 0.25872 0.59462
# Poissons Ratio (z) = 0.37328 0.37328
#
# Static dielectric constant tensor:
#      x y z
#    x 3.332680 0.000000 0.000000 
#    y 0.000000 3.332670 0.000000 
#    z 0.000000 0.000000 3.374720 
# 
# 
# High freq. dielectric constant tensor:
#      x y z
#    x 1.695470 0.000000 0.000000 
#    y 0.000000 1.695470 0.000000 
#    z 0.000000 0.000000 1.707430 
# 
# From -- ./inp_files/5076.got.cif
#   From: 2010.03.12/outbox.cif.g09.slc.cpg/sg115_3_cif.got.tgz:5076.got - 2010.04.14 02:11:21.
