data_PCOD8309701
_publ_section_title
;
Structure prediction by ZEFSAII (Michael W. Deem and Ramdas Pophale) SiO2 
 PCOD8309701
Probable space group: P -4 M 2
;
_chemical_formula_sum "Si O2"
_cell_formula_units_Z 60
_cell_length_a 13.149095
_cell_length_b 13.149095
_cell_length_c 19.147624
_cell_angle_alpha 90.000000
_cell_angle_beta 90.000000
_cell_angle_gamma 90.000000
_cell_volume 3310.599285
_symmetry_space_group_name_H-M "P -4 M 2"
_symmetry_group_IT_number 115
_symmetry_cell_setting 'tetragonal'
loop_
_space_group_symop_operation_xyz
x,y,z
y,-x,-z
-x,-y,z
-y,x,-z
y,x,-z
-y,-x,-z
-x,y,z
x,-y,z
loop_
_atom_site_type_symbol
_atom_site_label
_atom_site_fract_x
_atom_site_fract_y
_atom_site_fract_z
Si Si1 0.729572 0.729570 0.371788
Si Si2 0.110270 0.110269 0.418858
Si Si3 0.384363 0.216958 0.000001
Si Si4 0.884274 0.618500 0.726572
Si Si5 0.619984 0.380017 0.500000
Si Si6 0.884274 0.381499 0.273423
Si Si7 0.718875 0.116618 0.874582
Si Si8 0.116618 0.281131 0.874578
O O1 0.806560 0.806558 0.406339
O O2 0.651356 0.797581 0.327741
O O3 0.668269 0.668258 0.430483
O O4 0.797582 0.651359 0.327736
O O5 0.096853 0.096853 0.500000
O O6 0.000000 0.142287 0.386680
O O7 0.142290 0.000000 0.386681
O O8 0.500000 0.252345 0.999995
O O9 0.363930 0.150070 0.931351
O O10 0.318857 0.318857 0.000000
O O11 0.363941 0.150082 0.068659
O O12 0.871331 0.500000 0.740467
O O13 0.861927 0.675874 0.798148
O O14 0.000000 0.641919 0.700070
O O15 0.500000 0.357429 0.499995
O O16 0.871332 0.500000 0.259532
O O17 0.861922 0.324131 0.201845
O O18 0.000000 0.358075 0.299922
O O19 0.822840 0.177165 0.885840
O O20 0.746258 0.000000 0.885869
O O21 0.000000 0.253757 0.885874
#
# Coordination Sequence:
#
# PCOD8309701 Si02
#       8
#     8   8   8   8   4   8   8   8
#     4  12  20  38  60  81 109 143 183 225 275 336
#     4   9  18  33  54  81 111 139 167 206 260 321
#     4  10  21  36  58  84 112 152 195 238 286 334
#     4  10  21  36  56  83 114 146 182 228 278 328
#     4  11  26  44  60  81 106 140 188 239 288 338
#     4  10  21  36  56  83 114 146 182 228 278 328
#     4  10  20  36  56  83 116 150 189 231 276 333
#     4  10  20  36  56  83 116 150 189 231 276 333
#
# _framework density 18.123607
#
# number of rings (size 3 to 8) (size 9 to 14) (size 15 to 20)
#    0.000    1.800    2.000    3.200    0.000    2.533 
#    0.000    0.000    0.000    5.600    0.000    0.000 
#    0.000    0.000    0.000    0.000    0.000    0.000 
#
# Total GULP energy -743856.804238 kJ/mol
# GULP energy per Si atom -12397.613404 kJ/mol
# Density = 1.808236 g / cm^3
# Si number density = 18.123607 Si / 1000 Ang^3
#
#
#
# Elastic Constant Matrix: (Units=GPa)
#
#
# Indices 1 2 3 4 5 6 
#
# 1 113.1422 57.8210 45.3184 0.0000 0.0000 0.0000
# 2 57.8210 113.1431 45.3186 0.0000 0.0000 0.0000
# 3 45.3184 45.3186 87.4784 0.0000 0.0000 0.0000
# 4 0.0000 0.0000 0.0000 108.2329 0.0000 0.0000
# 5 0.0000 0.0000 0.0000 0.0000 108.2078 0.0000
# 6 0.0000 0.0000 0.0000 0.0000 0.0000 27.0815
#
#
#
# Elastic Compliance Matrix: (Units=1/GPa)
#
#
# Indices 1 2 3 4 5 6 
#
# 1 0.013070 -0.005006 -0.004178 0.000000 0.000000 0.000000
# 2 -0.005006 0.013070 -0.004178 0.000000 0.000000 0.000000
# 3 -0.004178 -0.004178 0.015760 0.000000 0.000000 0.000000
# 4 0.000000 0.000000 0.000000 0.009239 0.000000 0.000000
# 5 0.000000 0.000000 0.000000 0.000000 0.009241 0.000000
# 6 0.000000 0.000000 0.000000 0.000000 0.000000 0.036926
#
#
# Mechanical properties :
#
#
# Convention : Reuss Voigt Hill
#
# Bulk Modulus (GPa) = 65.88720 67.85330 66.87025
# Shear Modulus (GPa) = 38.73331 59.72480 49.22905
#
# Velocity S-wave (km/s) = 4.62797 5.74680 5.21746
# Velocity P-wave (km/s) = 8.06169 9.03076 8.55995
#
# Compressibility (1/GPa) = 0.01517746
#
# Stress axis : x y z
#
# Youngs Moduli (GPa) = 76.51063 76.51122 63.45259
#
# Poissons Ratio (x) = 0.38302 0.26508
# Poissons Ratio (y) = 0.38302 0.26508
# Poissons Ratio (z) = 0.31963 0.31963
#
# Static dielectric constant tensor:
#      x y z
#    x 3.435710 0.000000 0.000000 
#    y 0.000000 3.435700 0.000000 
#    z 0.000000 0.000000 3.531300 
# 
# 
# High freq. dielectric constant tensor:
#      x y z
#    x 1.709170 0.000000 0.000000 
#    y 0.000000 1.709170 0.000000 
#    z 0.000000 0.000000 1.704850 
# 
# From -- ./inp_files/4983.got.cif
#   From: 2010.03.12/outbox.cif.g09.slc.cpg/sg115_3_cif.got.tgz:4983.got - 2010.04.14 02:11:21.
