data_PCOD8309197
_publ_section_title
;
Structure prediction by ZEFSAII (Michael W. Deem and Ramdas Pophale) SiO2 
 PCOD8309197
Probable space group: P -4 M 2
;
_chemical_formula_sum "Si O2"
_cell_formula_units_Z 64
_cell_length_a 14.184490
_cell_length_b 14.184490
_cell_length_c 20.338050
_cell_angle_alpha 90.000000
_cell_angle_beta 90.000000
_cell_angle_gamma 90.000000
_cell_volume 4092.010709
_symmetry_space_group_name_H-M "P -4 M 2"
_symmetry_group_IT_number 115
_symmetry_cell_setting 'tetragonal'
loop_
_space_group_symop_operation_xyz
x,y,z
y,-x,-z
-x,-y,z
-y,x,-z
y,x,-z
-y,-x,-z
-x,y,z
x,-y,z
loop_
_atom_site_type_symbol
_atom_site_label
_atom_site_fract_x
_atom_site_fract_y
_atom_site_fract_z
Si Si1 0.398140 0.315521 0.938008
Si Si2 0.388291 0.720958 0.180870
Si Si3 0.691930 0.847090 0.991888
Si Si4 0.394934 0.611923 0.428593
Si Si5 0.106330 0.606862 0.233972
Si Si6 0.296525 0.390870 0.298494
Si Si7 0.102076 0.773623 0.136364
Si Si8 0.286650 0.893755 0.137064
O O1 0.500000 0.337742 0.906874
O O2 0.320621 0.334748 0.882228
O O3 0.399839 0.204639 0.961073
O O4 0.383937 0.383937 0.000000
O O5 0.500000 0.711390 0.173723
O O6 0.354934 0.670056 0.246622
O O7 0.357189 0.831032 0.181376
O O8 0.741030 0.914866 0.938966
O O9 0.755180 0.755180 0.000000
O O10 0.677051 0.898394 0.061296
O O11 0.354833 0.645168 0.500000
O O12 0.500000 0.652884 0.415069
O O13 0.400741 0.500000 0.431001
O O14 0.324777 0.645900 0.370990
O O15 0.115533 0.500000 0.205858
O O16 0.183543 0.622378 0.291345
O O17 0.131749 0.680832 0.177106
O O18 0.000000 0.623288 0.261558
O O19 0.325603 0.500000 0.288815
O O20 0.179848 0.854784 0.142624
O O21 0.000000 0.812820 0.160430
O O22 0.287782 0.000000 0.164910
#
# Coordination Sequence:
#
# PCOD8309197 Si02
#       8
#     8   8   8   8   8   8   8   8
#     4  11  20  32  49  65  89 118 148 187 235 280
#     4  12  23  35  47  67  93 122 160 193 228 280
#     4   9  17  33  47  65  83 111 141 184 235 290
#     4   8  14  25  42  68 102 134 161 189 222 263
#     4   9  17  29  47  73 102 128 152 182 229 288
#     4  10  18  30  49  73 101 130 158 192 234 276
#     4  10  18  32  52  71  90 112 145 194 246 291
#     4  11  22  37  50  63  85 115 154 200 246 285
#
# _framework density 15.640233
#
# number of rings (size 3 to 8) (size 9 to 14) (size 15 to 20)
#    0.000    2.000    5.000    1.875    0.000    4.125 
#    0.000    0.000    0.000    4.500    0.000    0.875 
#    0.000    3.000    0.000    0.000    0.000    0.125 
#
# Total GULP energy -793000.826676 kJ/mol
# GULP energy per Si atom -12390.637917 kJ/mol
# Density = 1.560463 g / cm^3
# Si number density = 15.640233 Si / 1000 Ang^3
#
#
#
# Elastic Constant Matrix: (Units=GPa)
#
#
# Indices 1 2 3 4 5 6 
#
# 1 82.4099 34.5285 33.7455 0.0000 0.0000 0.0000
# 2 34.5285 82.4099 33.7455 0.0000 0.0000 0.0000
# 3 33.7455 33.7455 97.4312 0.0000 0.0000 0.0000
# 4 0.0000 0.0000 0.0000 12.0109 0.0000 0.0000
# 5 0.0000 0.0000 0.0000 0.0000 12.0109 0.0000
# 6 0.0000 0.0000 0.0000 0.0000 0.0000 13.2520
#
#
#
# Elastic Compliance Matrix: (Units=1/GPa)
#
#
# Indices 1 2 3 4 5 6 
#
# 1 0.015786 -0.005098 -0.003702 0.000000 0.000000 0.000000
# 2 -0.005098 0.015786 -0.003702 0.000000 0.000000 0.000000
# 3 -0.003702 -0.003702 0.012828 0.000000 0.000000 0.000000
# 4 0.000000 0.000000 0.000000 0.083258 0.000000 0.000000
# 5 0.000000 0.000000 0.000000 0.000000 0.083258 0.000000
# 6 0.000000 0.000000 0.000000 0.000000 0.000000 0.075460
#
#
# Mechanical properties :
#
#
# Convention : Reuss Voigt Hill
#
# Bulk Modulus (GPa) = 51.55523 51.81001 51.68262
# Shear Modulus (GPa) = 15.73088 18.13686 16.93387
#
# Velocity S-wave (km/s) = 3.17487 3.40903 3.29403
# Velocity P-wave (km/s) = 6.81722 6.97806 6.89811
#
# Compressibility (1/GPa) = 0.01939668
#
# Stress axis : x y z
#
# Youngs Moduli (GPa) = 63.34538 63.34532 77.95492
#
# Poissons Ratio (x) = 0.32296 0.28858
# Poissons Ratio (y) = 0.32296 0.28858
# Poissons Ratio (z) = 0.23449 0.23449
#
# Static dielectric constant tensor:
#      x y z
#    x 2.988620 0.000000 0.000000 
#    y 0.000000 2.988620 0.000000 
#    z 0.000000 0.000000 2.969130 
# 
# 
# High freq. dielectric constant tensor:
#      x y z
#    x 1.590570 0.000000 0.000000 
#    y 0.000000 1.590570 0.000000 
#    z 0.000000 0.000000 1.564400 
# 
# From -- ./inp_files/4432.got.cif
#   From: 2010.03.12/outbox.cif.g09.slc.cpg/sg115_3_cif.got.tgz:4432.got - 2010.04.14 02:11:21.
