data_PCOD8309710
_publ_section_title
;
Structure prediction by ZEFSAII (Michael W. Deem and Ramdas Pophale) SiO2 
 PCOD8309710
Probable space group: P -4 M 2
;
_chemical_formula_sum "Si O2"
_cell_formula_units_Z 25
_cell_length_a 7.973318
_cell_length_b 7.973318
_cell_length_c 18.368025
_cell_angle_alpha 90.000000
_cell_angle_beta 90.000000
_cell_angle_gamma 90.000000
_cell_volume 1167.725146
_symmetry_space_group_name_H-M "P -4 M 2"
_symmetry_group_IT_number 115
_symmetry_cell_setting 'tetragonal'
loop_
_space_group_symop_operation_xyz
x,y,z
y,-x,-z
-x,-y,z
-y,x,-z
y,x,-z
-y,-x,-z
-x,y,z
x,-y,z
loop_
_atom_site_type_symbol
_atom_site_label
_atom_site_fract_x
_atom_site_fract_y
_atom_site_fract_z
Si Si1 0.188305 0.698813 0.298574
Si Si2 0.500000 0.190221 0.392002
Si Si3 0.691888 0.682259 0.852392
Si Si4 0.188479 0.188479 0.000000
Si Si5 0.500000 0.500000 0.500000
O O1 0.212685 0.500000 0.306767
O O2 0.330739 0.789633 0.345263
O O3 0.208052 0.762300 0.214708
O O4 0.000000 0.750204 0.324038
O O5 0.500000 0.328254 0.454914
O O6 0.500000 0.000000 0.424008
O O7 0.500000 0.652448 0.834452
O O8 0.782477 0.500000 0.855758
O O9 0.700773 0.772832 0.929911
O O10 0.000000 0.221350 0.974587
#
# Coordination Sequence:
#
# PCOD8309710 Si02
#       5
#     8   4   8   4   1
#     4  10  20  40  71 102 137 180 227 281 335 397
#     4  12  26  46  76 108 139 183 224 269 334 398
#     4  10  20  36  61  88 119 164 222 275 333 398
#     4  11  24  37  48  74 122 171 218 279 340 390
#     4  12  28  52  76 104 152 178 220 272 320 412
#
# _framework density 21.409147000000001
#
# number of rings (size 3 to 8) (size 9 to 14) (size 15 to 20)
#    0.000    1.440    3.200    1.920    0.000    8.320 
#    0.000    0.000    0.000    0.000    0.000    0.000 
#    0.000    0.000    0.000    0.000    0.000    0.000 
#
# Total GULP energy -309847.271721 kJ/mol
# GULP energy per Si atom -12393.890869 kJ/mol
# Density = 2.136042 g / cm^3
# Si number density = 21.409147 Si / 1000 Ang^3
#
#
#
# Elastic Constant Matrix: (Units=GPa)
#
#
# Indices 1 2 3 4 5 6 
#
# 1 104.2054 53.9622 45.9844 0.0000 0.0000 0.0000
# 2 53.9622 104.2054 45.9844 0.0000 0.0000 0.0000
# 3 45.9844 45.9844 125.3712 0.0000 0.0000 0.0000
# 4 0.0000 0.0000 0.0000 8.0133 0.0000 0.0000
# 5 0.0000 0.0000 0.0000 0.0000 8.0133 0.0000
# 6 0.0000 0.0000 0.0000 0.0000 0.0000 19.8741
#
#
#
# Elastic Compliance Matrix: (Units=1/GPa)
#
#
# Indices 1 2 3 4 5 6 
#
# 1 0.013970 -0.005933 -0.002948 0.000000 0.000000 0.000000
# 2 -0.005933 0.013970 -0.002948 0.000000 0.000000 0.000000
# 3 -0.002948 -0.002948 0.010139 0.000000 0.000000 0.000000
# 4 0.000000 0.000000 0.000000 0.124792 0.000000 0.000000
# 5 0.000000 0.000000 0.000000 0.000000 0.124792 0.000000
# 6 0.000000 0.000000 0.000000 0.000000 0.000000 0.050317
#
#
# Mechanical properties :
#
#
# Convention : Reuss Voigt Hill
#
# Bulk Modulus (GPa) = 69.34420 69.51600 69.43010
# Shear Modulus (GPa) = 13.64466 19.70355 16.67410
#
# Velocity S-wave (km/s) = 2.52728 3.03699 2.79378
# Velocity P-wave (km/s) = 6.40129 6.69615 6.55038
#
# Compressibility (1/GPa) = 0.01442082
#
# Stress axis : x y z
#
# Youngs Moduli (GPa) = 71.58310 71.58310 98.63288
#
# Poissons Ratio (x) = 0.42473 0.29073
# Poissons Ratio (y) = 0.42473 0.29073
# Poissons Ratio (z) = 0.21100 0.21100
#
# Static dielectric constant tensor:
#      x y z
#    x 3.906520 0.000000 0.000000 
#    y 0.000000 3.906520 0.000000 
#    z 0.000000 0.000000 3.669760 
# 
# 
# High freq. dielectric constant tensor:
#      x y z
#    x 1.838170 0.000000 0.000000 
#    y 0.000000 1.838170 0.000000 
#    z 0.000000 0.000000 1.826690 
# 
# From -- ./inp_files/4072.got.cif
#   From: 2010.03.12/outbox.cif.g09.slc.cpg/sg115_3_cif.got.tgz:4072.got - 2010.04.14 02:11:21.
