data_PCOD8309720
_publ_section_title
;
Structure prediction by ZEFSAII (Michael W. Deem and Ramdas Pophale) SiO2 
 PCOD8309720
Probable space group: P -4 M 2
;
_chemical_formula_sum "Si O2"
_cell_formula_units_Z 56
_cell_length_a 14.476833
_cell_length_b 14.476833
_cell_length_c 12.192258
_cell_angle_alpha 90.000000
_cell_angle_beta 90.000000
_cell_angle_gamma 90.000000
_cell_volume 2555.237505
_symmetry_space_group_name_H-M "P -4 M 2"
_symmetry_group_IT_number 115
_symmetry_cell_setting 'tetragonal'
loop_
_space_group_symop_operation_xyz
x,y,z
y,-x,-z
-x,-y,z
-y,x,-z
y,x,-z
-y,-x,-z
-x,y,z
x,-y,z
loop_
_atom_site_type_symbol
_atom_site_label
_atom_site_fract_x
_atom_site_fract_y
_atom_site_fract_z
Si Si1 0.896023 0.105762 0.198907
Si Si2 0.607935 0.226212 0.269510
Si Si3 0.273799 0.398416 0.274098
Si Si4 0.606363 0.894436 0.879548
Si Si5 0.787435 0.101042 0.583742
Si Si6 0.106573 0.290356 0.906256
Si Si7 0.829298 0.397077 0.483552
O O1 0.872296 0.178643 0.294675
O O2 0.820371 0.123457 0.104095
O O3 0.000000 0.123789 0.152041
O O4 0.888389 0.000000 0.242978
O O5 0.500000 0.228848 0.245393
O O6 0.648707 0.326231 0.238623
O O7 0.655636 0.151124 0.194067
O O8 0.630889 0.200896 0.394609
O O9 0.307004 0.500000 0.235410
O O10 0.173553 0.374949 0.221715
O O11 0.261062 0.396459 0.405648
O O12 0.500000 0.889991 0.918728
O O13 0.632409 0.000000 0.845082
O O14 0.672474 0.857023 0.977097
O O15 0.824384 0.175617 0.500000
O O16 0.676742 0.099578 0.568371
O O17 0.826992 0.000000 0.555530
O O18 0.000000 0.315895 0.897974
O O19 0.874654 0.500000 0.482659
#
# Coordination Sequence:
#
# PCOD8309720 Si02
#       7
#     8   8   8   8   8   8   8
#     4   9  18  32  53  85 121 155 194 240 290 347
#     4  11  23  38  59  88 120 151 189 240 293 349
#     4  10  21  39  62  85 115 155 194 236 289 348
#     4   9  19  37  62  91 119 151 197 248 293 341
#     4  11  21  33  52  79 115 156 196 238 284 340
#     4  10  20  37  61  86 117 157 197 239 292 351
#     4  10  22  39  58  83 116 152 191 238 291 345
#
# _framework density 21.915772
#
# number of rings (size 3 to 8) (size 9 to 14) (size 15 to 20)
#    0.000    2.000    0.000    3.857    0.000    5.000 
#    0.000    3.571    0.000    3.429    0.000    2.000 
#    0.000    6.857    0.000    0.286    0.000    0.000 
#
# Total GULP energy -694257.230135 kJ/mol
# GULP energy per Si atom -12397.450538 kJ/mol
# Density = 2.186589 g / cm^3
# Si number density = 21.915772 Si / 1000 Ang^3
#
#
#
# Elastic Constant Matrix: (Units=GPa)
#
#
# Indices 1 2 3 4 5 6 
#
# 1 82.4961 37.0301 33.1685 0.0000 0.0000 0.0000
# 2 37.0301 82.4992 33.1681 0.0000 0.0000 0.0000
# 3 33.1685 33.1681 81.6109 0.0000 0.0000 0.0000
# 4 0.0000 0.0000 0.0000 22.6381 0.0000 0.0000
# 5 0.0000 0.0000 0.0000 0.0000 22.6381 0.0000
# 6 0.0000 0.0000 0.0000 0.0000 0.0000 32.3210
#
#
#
# Elastic Compliance Matrix: (Units=1/GPa)
#
#
# Indices 1 2 3 4 5 6 
#
# 1 0.016399 -0.005595 -0.004391 0.000000 0.000000 0.000000
# 2 -0.005595 0.016398 -0.004390 0.000000 0.000000 0.000000
# 3 -0.004391 -0.004390 0.015822 0.000000 0.000000 0.000000
# 4 0.000000 0.000000 0.000000 0.044173 0.000000 0.000000
# 5 0.000000 0.000000 0.000000 0.000000 0.044173 0.000000
# 6 0.000000 0.000000 0.000000 0.000000 0.000000 0.030940
#
#
# Mechanical properties :
#
#
# Convention : Reuss Voigt Hill
#
# Bulk Modulus (GPa) = 50.33766 50.37105 50.35436
# Shear Modulus (GPa) = 24.59665 25.06875 24.83270
#
# Velocity S-wave (km/s) = 3.35375 3.38578 3.36980
# Velocity P-wave (km/s) = 6.16566 6.19019 6.17794
#
# Compressibility (1/GPa) = 0.01986584
#
# Stress axis : x y z
#
# Youngs Moduli (GPa) = 60.98035 60.98332 63.20288
#
# Poissons Ratio (x) = 0.34122 0.27751
# Poissons Ratio (y) = 0.34121 0.27748
# Poissons Ratio (z) = 0.26775 0.26774
#
# Static dielectric constant tensor:
#      x y z
#    x 4.024210 0.000000 0.000000 
#    y 0.000000 4.024220 0.000000 
#    z 0.000000 0.000000 3.827170 
# 
# 
# High freq. dielectric constant tensor:
#      x y z
#    x 1.862280 0.000000 0.000000 
#    y 0.000000 1.862280 0.000000 
#    z 0.000000 0.000000 1.855210 
# 
# From -- ./inp_files/3077.got.cif
#   From: 2010.03.12/outbox.cif.g09.slc.cpg/sg115_2_cif.got.tgz:3077.got - 2010.04.14 02:11:21.
