data_PCOD8309977
_publ_section_title
;
Structure prediction by ZEFSAII (Michael W. Deem and Ramdas Pophale) SiO2 
 PCOD8309977
Probable space group: P -4 M 2
;
_chemical_formula_sum "Si O2"
_cell_formula_units_Z 26
_cell_length_a 7.765653
_cell_length_b 7.765653
_cell_length_c 22.189095
_cell_angle_alpha 90.000000
_cell_angle_beta 90.000000
_cell_angle_gamma 90.000000
_cell_volume 1338.121507
_symmetry_space_group_name_H-M "P -4 M 2"
_symmetry_group_IT_number 115
_symmetry_cell_setting 'tetragonal'
loop_
_space_group_symop_operation_xyz
x,y,z
y,-x,-z
-x,-y,z
-y,x,-z
y,x,-z
-y,-x,-z
-x,y,z
x,-y,z
loop_
_atom_site_type_symbol
_atom_site_label
_atom_site_fract_x
_atom_site_fract_y
_atom_site_fract_z
Si Si1 0.687119 0.802978 0.815181
Si Si2 0.192512 0.000000 0.114793
Si Si3 0.700867 0.694033 0.316332
Si Si4 0.000000 0.000000 0.500000
Si Si5 0.703566 0.000000 0.404477
Si Si6 0.000000 0.000000 0.000000
O O1 0.500000 0.710890 0.823085
O O2 0.746677 0.792497 0.745826
O O3 0.828200 0.713534 0.859664
O O4 0.666416 0.000000 0.834372
O O5 0.000000 0.000000 0.144022
O O6 0.172825 0.000000 0.041737
O O7 0.500000 0.705927 0.303676
O O8 0.754406 0.500000 0.336625
O O9 0.754754 0.829009 0.367417
O O10 0.000000 0.177322 0.537143
O O11 0.500000 0.000000 0.421784
#
# Coordination Sequence:
#
# PCOD8309977 Si02
#       6
#     8   4   8   1   4   1
#     4   9  16  26  46  76  99 122 159 202 253 309
#     4   8  15  27  43  63  93 132 164 207 250 285
#     4   9  18  33  54  79 107 135 161 203 266 322
#     4  12  28  40  58  80 100 144 188 214 248 292
#     4  10  23  41  56  78 109 137 174 218 253 299
#     4   8  16  28  42  60  84 136 180 202 244 292
#
# _framework density 19.430225
#
# number of rings (size 3 to 8) (size 9 to 14) (size 15 to 20)
#    0.462    2.462    0.000    0.923    2.154    1.231 
#    0.000    0.000    0.000    3.692    0.000    0.000 
#    0.000    0.000    0.000    0.000    0.000    0.000 
#
# Total GULP energy -322103.855568 kJ/mol
# GULP energy per Si atom -12388.609830 kJ/mol
# Density = 1.938600 g / cm^3
# Si number density = 19.430225 Si / 1000 Ang^3
#
#
#
# Elastic Constant Matrix: (Units=GPa)
#
#
# Indices 1 2 3 4 5 6 
#
# 1 84.5373 32.7672 61.9292 0.0000 0.0000 0.0000
# 2 32.7672 84.5373 61.9292 0.0000 0.0000 0.0000
# 3 61.9292 61.9292 135.6992 0.0000 0.0000 0.0000
# 4 0.0000 0.0000 0.0000 -4.9116 0.0000 0.0000
# 5 0.0000 0.0000 0.0000 0.0000 -4.9116 0.0000
# 6 0.0000 0.0000 0.0000 0.0000 0.0000 9.5386
#
#
#
# Elastic Compliance Matrix: (Units=1/GPa)
#
#
# Indices 1 2 3 4 5 6 
#
# 1 0.017885 -0.001432 -0.007509 0.000000 0.000000 0.000000
# 2 -0.001432 0.017885 -0.007509 0.000000 0.000000 0.000000
# 3 -0.007509 -0.007509 0.014223 0.000000 0.000000 0.000000
# 4 0.000000 0.000000 0.000000 -0.203600 0.000000 0.000000
# 5 0.000000 0.000000 0.000000 0.000000 -0.203600 0.000000
# 6 0.000000 0.000000 0.000000 0.000000 0.000000 0.104837
#
#
# Mechanical properties :
#
#
# Convention : Reuss Voigt Hill
#
# Bulk Modulus (GPa) = 58.49992 68.66944 63.58468
# Shear Modulus (GPa) = -23.38915 9.81961 -6.78477
#
# Velocity S-wave (km/s) = -3.47328 2.25050 -1.87068
# Velocity P-wave (km/s) = 3.75342 6.49394 5.30375
#
# Compressibility (1/GPa) = 0.01709404
#
# Stress axis : x y z
#
# Youngs Moduli (GPa) = 55.91399 55.91399 70.30996
#
# Poissons Ratio (x) = 0.08005 0.52794
# Poissons Ratio (y) = 0.08005 0.52794
# Poissons Ratio (z) = 0.41984 0.41984
#
# Static dielectric constant tensor:
#      x y z
#    x 3.755330 0.000000 0.000000 
#    y 0.000000 3.755330 0.000000 
#    z 0.000000 0.000000 3.210870 
# 
# 
# High freq. dielectric constant tensor:
#      x y z
#    x 1.750360 0.000000 0.000000 
#    y 0.000000 1.750360 0.000000 
#    z 0.000000 0.000000 1.724500 
# 
# From -- ./inp_files/4079.got.cif
#   From: 2010.03.12/outbox.cif.g09.slc.cpg/sg115_3_cif.got.tgz:4079.got - 2010.04.14 02:11:21.
