data_PCOD8309751
_publ_section_title
;
Structure prediction by ZEFSAII (Michael W. Deem and Ramdas Pophale) SiO2 
 PCOD8309751
Probable space group: P -4 M 2
;
_chemical_formula_sum "Si O2"
_cell_formula_units_Z 48
_cell_length_a 9.511302
_cell_length_b 9.511302
_cell_length_c 30.434941
_cell_angle_alpha 90.000000
_cell_angle_beta 90.000000
_cell_angle_gamma 90.000000
_cell_volume 2753.292851
_symmetry_space_group_name_H-M "P -4 M 2"
_symmetry_group_IT_number 115
_symmetry_cell_setting 'tetragonal'
loop_
_space_group_symop_operation_xyz
x,y,z
y,-x,-z
-x,-y,z
-y,x,-z
y,x,-z
-y,-x,-z
-x,y,z
x,-y,z
loop_
_atom_site_type_symbol
_atom_site_label
_atom_site_fract_x
_atom_site_fract_y
_atom_site_fract_z
Si Si1 0.836927 0.162093 0.713207
Si Si2 0.342329 0.836381 0.967047
Si Si3 0.667476 0.343463 0.547953
Si Si4 0.663017 0.836873 0.628990
Si Si5 0.664726 0.839591 0.866647
Si Si6 0.336368 0.164205 0.201849
O O1 0.748232 0.213751 0.671488
O O2 0.789459 0.258030 0.753754
O O3 0.000000 0.183300 0.701950
O O4 0.803398 0.000000 0.724876
O O5 0.500000 0.780292 0.974604
O O6 0.296375 0.807497 0.917044
O O7 0.334580 0.000000 0.977510
O O8 0.239748 0.760253 0.000000
O O9 0.715268 0.284733 0.500000
O O10 0.500000 0.347575 0.547927
O O11 0.727701 0.500000 0.556176
O O12 0.724026 0.243619 0.586548
O O13 0.500000 0.801724 0.637232
O O14 0.687815 0.000000 0.619867
O O15 0.500000 0.816981 0.858235
O O16 0.751426 0.729621 0.838255
O O17 0.706563 0.000000 0.854629
O O18 0.500000 0.202443 0.206307
O O19 0.313370 0.000000 0.192685
#
# Coordination Sequence:
#
# PCOD8309751 Si02
#       6
#     8   8   8   8   8   8
#     4   9  18  33  50  66  90 126 160 189 231 287
#     4   9  19  35  53  75 103 133 166 204 244 287
#     4   8  14  26  44  64  87 117 150 182 221 272
#     4   9  17  29  46  68  91 115 149 193 233 270
#     4   9  19  36  55  74  99 132 168 204 242 287
#     4  10  21  35  51  74 102 129 160 201 247 293
#
# _framework density 17.433671
#
# number of rings (size 3 to 8) (size 9 to 14) (size 15 to 20)
#    0.000    3.000    0.000    2.000    0.000    4.333 
#    0.000    7.500    0.000    1.000    0.000    0.000 
#    0.000    0.000    0.000    0.000    0.000    0.000 
#
# Total GULP energy -595153.110549 kJ/mol
# GULP energy per Si atom -12399.023136 kJ/mol
# Density = 1.739399 g / cm^3
# Si number density = 17.433671 Si / 1000 Ang^3
#
#
#
# Elastic Constant Matrix: (Units=GPa)
#
#
# Indices 1 2 3 4 5 6 
#
# 1 66.9357 40.7911 70.3880 0.0000 0.0000 0.0000
# 2 40.7911 66.9337 70.3874 0.0000 0.0000 0.0000
# 3 70.3880 70.3874 150.4490 0.0000 0.0000 0.0000
# 4 0.0000 0.0000 0.0000 6.1763 0.0000 0.0000
# 5 0.0000 0.0000 0.0000 0.0000 6.1962 0.0000
# 6 0.0000 0.0000 0.0000 0.0000 0.0000 24.1052
#
#
#
# Elastic Compliance Matrix: (Units=1/GPa)
#
#
# Indices 1 2 3 4 5 6 
#
# 1 0.031068 -0.007182 -0.011175 0.000000 0.000000 0.000000
# 2 -0.007182 0.031069 -0.011176 0.000000 0.000000 0.000000
# 3 -0.011175 -0.011176 0.017104 0.000000 0.000000 0.000000
# 4 0.000000 0.000000 0.000000 0.161910 0.000000 0.000000
# 5 0.000000 0.000000 0.000000 0.000000 0.161389 0.000000
# 6 0.000000 0.000000 0.000000 0.000000 0.000000 0.041485
#
#
# Mechanical properties :
#
#
# Convention : Reuss Voigt Hill
#
# Bulk Modulus (GPa) = 49.56502 71.93905 60.75204
# Shear Modulus (GPa) = 9.80747 14.14566 11.97657
#
# Velocity S-wave (km/s) = 2.37441 2.85160 2.62387
# Velocity P-wave (km/s) = 6.00079 7.22469 6.64099
#
# Compressibility (1/GPa) = 0.02017552
#
# Stress axis : x y z
#
# Youngs Moduli (GPa) = 32.18753 32.18614 58.46667
#
# Poissons Ratio (x) = 0.23115 0.65338
# Poissons Ratio (y) = 0.23116 0.65341
# Poissons Ratio (z) = 0.35971 0.35971
#
# Static dielectric constant tensor:
#      x y z
#    x 3.341680 0.000000 0.000000 
#    y 0.000000 3.341820 0.000000 
#    z 0.000000 0.000000 3.381280 
# 
# 
# High freq. dielectric constant tensor:
#      x y z
#    x 1.661480 0.000000 0.000000 
#    y 0.000000 1.661480 0.000000 
#    z 0.000000 0.000000 1.682940 
# 
# From -- ./inp_files/6060.got.cif
#   From: 2010.03.12/outbox.cif.g09.slc.cpg/sg115_4_cif.got.tgz:6060.got - 2010.04.14 02:11:21.
