data_PCOD8309405
_publ_section_title
;
Structure prediction by ZEFSAII (Michael W. Deem and Ramdas Pophale) SiO2 
 PCOD8309405
Probable space group: P -4 M 2
;
_chemical_formula_sum "Si O2"
_cell_formula_units_Z 40
_cell_length_a 9.020081
_cell_length_b 9.020081
_cell_length_c 26.118689
_cell_angle_alpha 90.000000
_cell_angle_beta 90.000000
_cell_angle_gamma 90.000000
_cell_volume 2125.065150
_symmetry_space_group_name_H-M "P -4 M 2"
_symmetry_group_IT_number 115
_symmetry_cell_setting 'tetragonal'
loop_
_space_group_symop_operation_xyz
x,y,z
y,-x,-z
-x,-y,z
-y,x,-z
y,x,-z
-y,-x,-z
-x,y,z
x,-y,z
loop_
_atom_site_type_symbol
_atom_site_label
_atom_site_fract_x
_atom_site_fract_y
_atom_site_fract_z
Si Si1 0.676559 0.330190 0.389705
Si Si2 0.672132 0.672132 0.500000
Si Si3 0.172384 0.827842 0.702848
Si Si4 0.672806 0.327195 0.000000
Si Si5 0.823853 0.333056 0.196248
Si Si6 0.174713 0.828374 0.906201
O O1 0.500000 0.323488 0.387568
O O2 0.729589 0.500000 0.381066
O O3 0.732940 0.265657 0.445464
O O4 0.742925 0.224515 0.347185
O O5 0.704816 0.500000 0.496874
O O6 0.256538 0.762130 0.752380
O O7 0.000000 0.799680 0.711637
O O8 0.209073 0.000000 0.695317
O O9 0.728619 0.239320 0.049104
O O10 0.500000 0.294684 0.991855
O O11 0.761805 0.500000 0.193331
O O12 0.768722 0.243302 0.146780
O O13 0.000000 0.330597 0.197711
O O14 0.000000 0.806947 0.903507
O O15 0.216725 0.000000 0.916189
#
# Coordination Sequence:
#
# PCOD8309405 Si02
#       6
#     8   4   8   4   8   8
#     4   9  17  31  52  75  97 125 165 212 259 307
#     4   7  12  26  48  71  94 122 160 207 256 305
#     4  10  20  33  49  72 104 139 172 208 252 303
#     4  11  24  39  54  76 108 143 176 211 252 298
#     4   9  17  31  53  78 103 134 172 213 256 302
#     4  10  20  35  57  83 107 133 169 212 257 306
#
# _framework density 18.822951
#
# number of rings (size 3 to 8) (size 9 to 14) (size 15 to 20)
#    0.000    2.600    0.000    3.600    0.000    7.200 
#    0.000    2.000    0.000   10.800    0.000    0.000 
#    0.000    0.000    0.000    0.000    0.000    0.000 
#
# Total GULP energy -495807.501959 kJ/mol
# GULP energy per Si atom -12395.187549 kJ/mol
# Density = 1.878011 g / cm^3
# Si number density = 18.822951 Si / 1000 Ang^3
#
#
#
# Elastic Constant Matrix: (Units=GPa)
#
#
# Indices 1 2 3 4 5 6 
#
# 1 57.7383 26.0426 43.7650 0.0000 0.0000 0.0000
# 2 26.0426 57.7384 43.7648 0.0000 0.0000 0.0000
# 3 43.7650 43.7648 174.9022 0.0000 0.0000 0.0000
# 4 0.0000 0.0000 0.0000 33.2559 0.0000 0.0000
# 5 0.0000 0.0000 0.0000 0.0000 33.2561 0.0000
# 6 0.0000 0.0000 0.0000 0.0000 0.0000 24.4115
#
#
#
# Elastic Compliance Matrix: (Units=1/GPa)
#
#
# Indices 1 2 3 4 5 6 
#
# 1 0.023855 -0.007695 -0.004044 0.000000 0.000000 0.000000
# 2 -0.007695 0.023855 -0.004044 0.000000 0.000000 0.000000
# 3 -0.004044 -0.004044 0.007741 0.000000 0.000000 0.000000
# 4 0.000000 0.000000 0.000000 0.030070 0.000000 0.000000
# 5 0.000000 0.000000 0.000000 0.000000 0.030070 0.000000
# 6 0.000000 0.000000 0.000000 0.000000 0.000000 0.040964
#
#
# Mechanical properties :
#
#
# Convention : Reuss Voigt Hill
#
# Bulk Modulus (GPa) = 41.86332 57.50265 49.68298
# Shear Modulus (GPa) = 25.49946 29.97181 27.73564
#
# Velocity S-wave (km/s) = 3.68462 3.99469 3.84279
# Velocity P-wave (km/s) = 6.35537 7.20363 6.79276
#
# Compressibility (1/GPa) = 0.02388726
#
# Stress axis : x y z
#
# Youngs Moduli (GPa) = 41.91926 41.91953 129.17905
#
# Poissons Ratio (x) = 0.32256 0.52238
# Poissons Ratio (y) = 0.32256 0.52237
# Poissons Ratio (z) = 0.16951 0.16951
#
# Static dielectric constant tensor:
#      x y z
#    x 3.239830 0.000000 0.000000 
#    y 0.000000 3.239820 0.000000 
#    z 0.000000 0.000000 3.882540 
# 
# 
# High freq. dielectric constant tensor:
#      x y z
#    x 1.707910 0.000000 0.000000 
#    y 0.000000 1.707910 0.000000 
#    z 0.000000 0.000000 1.757380 
# 
# From -- ./inp_files/5530.got.cif
#   From: 2010.03.12/outbox.cif.g09.slc.cpg/sg115_3_cif.got.tgz:5530.got - 2010.04.14 02:11:21.
