data_PCOD8309653
_publ_section_title
;
Structure prediction by ZEFSAII (Michael W. Deem and Ramdas Pophale) SiO2 
 PCOD8309653
Probable space group: P -4 M 2
;
_chemical_formula_sum "Si O2"
_cell_formula_units_Z 25
_cell_length_a 7.962280
_cell_length_b 7.962280
_cell_length_c 18.097052
_cell_angle_alpha 90.000000
_cell_angle_beta 90.000000
_cell_angle_gamma 90.000000
_cell_volume 1147.315144
_symmetry_space_group_name_H-M "P -4 M 2"
_symmetry_group_IT_number 115
_symmetry_cell_setting 'tetragonal'
loop_
_space_group_symop_operation_xyz
x,y,z
y,-x,-z
-x,-y,z
-y,x,-z
y,x,-z
-y,-x,-z
-x,y,z
x,-y,z
loop_
_atom_site_type_symbol
_atom_site_label
_atom_site_fract_x
_atom_site_fract_y
_atom_site_fract_z
Si Si1 0.804993 0.195008 0.500000
Si Si2 0.307923 0.807000 0.655888
Si Si3 0.811904 0.308323 0.804702
Si Si4 0.500000 0.500000 0.000000
Si Si5 0.186693 0.500000 0.107837
O O1 0.717964 0.268810 0.573751
O O2 0.000000 0.235010 0.507917
O O3 0.500000 0.788558 0.679349
O O4 0.199000 0.707640 0.716002
O O5 0.247840 0.000000 0.655941
O O6 0.780262 0.500000 0.828003
O O7 0.668772 0.197068 0.843035
O O8 0.000000 0.252100 0.829417
O O9 0.329241 0.500000 0.046257
O O10 0.000000 0.500000 0.071794
#
# Coordination Sequence:
#
# PCOD8309653 Si02
#       5
#     4   8   8   1   4
#     4   9  18  32  48  73 118 172 226 285 341 398
#     4  10  20  34  55  85 123 170 227 286 342 398
#     4  11  23  41  68 101 138 181 230 282 335 397
#     4  12  28  52  76 112 152 178 212 272 320 412
#     4  12  26  48  78 108 143 183 220 271 332 394
#
# _framework density 21.790005000000001
#
# number of rings (size 3 to 8) (size 9 to 14) (size 15 to 20)
#    0.000    1.440    3.200    1.920    0.000    6.400 
#    0.000    3.200    0.000    0.000    0.000    0.000 
#    0.000    0.000    0.000    0.000    0.000    0.000 
#
# Total GULP energy -309988.502930 kJ/mol
# GULP energy per Si atom -12399.540117 kJ/mol
# Density = 2.174041 g / cm^3
# Si number density = 21.790005 Si / 1000 Ang^3
#
#
#
# Elastic Constant Matrix: (Units=GPa)
#
#
# Indices 1 2 3 4 5 6 
#
# 1 109.0829 45.4526 40.0432 0.0000 0.0000 0.0000
# 2 45.4526 109.0822 40.0433 0.0000 0.0000 0.0000
# 3 40.0432 40.0433 103.0034 0.0000 0.0000 0.0000
# 4 0.0000 0.0000 0.0000 27.1010 0.0000 0.0000
# 5 0.0000 0.0000 0.0000 0.0000 27.1006 0.0000
# 6 0.0000 0.0000 0.0000 0.0000 0.0000 19.7957
#
#
#
# Elastic Compliance Matrix: (Units=1/GPa)
#
#
# Indices 1 2 3 4 5 6 
#
# 1 0.011910 -0.003806 -0.003150 0.000000 0.000000 0.000000
# 2 -0.003806 0.011910 -0.003150 0.000000 0.000000 0.000000
# 3 -0.003150 -0.003150 0.012158 0.000000 0.000000 0.000000
# 4 0.000000 0.000000 0.000000 0.036899 0.000000 0.000000
# 5 0.000000 0.000000 0.000000 0.000000 0.036900 0.000000
# 6 0.000000 0.000000 0.000000 0.000000 0.000000 0.050516
#
#
# Mechanical properties :
#
#
# Convention : Reuss Voigt Hill
#
# Bulk Modulus (GPa) = 63.43658 63.58296 63.50977
# Shear Modulus (GPa) = 26.91641 27.84141 27.37891
#
# Velocity S-wave (km/s) = 3.51845 3.57839 3.54854
# Velocity P-wave (km/s) = 6.75883 6.80562 6.78227
#
# Compressibility (1/GPa) = 0.01576377
#
# Stress axis : x y z
#
# Youngs Moduli (GPa) = 83.96504 83.96431 82.25129
#
# Poissons Ratio (x) = 0.31958 0.25912
# Poissons Ratio (y) = 0.31958 0.25912
# Poissons Ratio (z) = 0.26452 0.26452
#
# Static dielectric constant tensor:
#      x y z
#    x 3.858210 0.000000 0.000000 
#    y 0.000000 3.858230 0.000000 
#    z 0.000000 0.000000 3.871380 
# 
# 
# High freq. dielectric constant tensor:
#      x y z
#    x 1.851500 0.000000 0.000000 
#    y 0.000000 1.851500 0.000000 
#    z 0.000000 0.000000 1.846700 
# 
# From -- ./inp_files/3987.got.cif
#   From: 2010.03.12/outbox.cif.g09.slc.cpg/sg115_2_cif.got.tgz:3987.got - 2010.04.14 02:11:21.
