data_PCOD8309888
_publ_section_title
;
Structure prediction by ZEFSAII (Michael W. Deem and Ramdas Pophale) SiO2 
 PCOD8309888
Probable space group: P -4 M 2
;
_chemical_formula_sum "Si O2"
_cell_formula_units_Z 40
_cell_length_a 9.203045
_cell_length_b 9.203045
_cell_length_c 25.590880
_cell_angle_alpha 90.000000
_cell_angle_beta 90.000000
_cell_angle_gamma 90.000000
_cell_volume 2167.446126
_symmetry_space_group_name_H-M "P -4 M 2"
_symmetry_group_IT_number 115
_symmetry_cell_setting 'tetragonal'
loop_
_space_group_symop_operation_xyz
x,y,z
y,-x,-z
-x,-y,z
-y,x,-z
y,x,-z
-y,-x,-z
-x,y,z
x,-y,z
loop_
_atom_site_type_symbol
_atom_site_label
_atom_site_fract_x
_atom_site_fract_y
_atom_site_fract_z
Si Si1 0.826690 0.838151 0.056698
Si Si2 0.171069 0.831810 0.647512
Si Si3 0.329750 0.166378 0.843191
Si Si4 0.669716 0.669762 0.740119
Si Si5 0.333556 0.667267 0.439311
O O1 0.768379 0.740050 0.104071
O O2 0.000000 0.840441 0.055913
O O3 0.765215 0.000000 0.065610
O O4 0.775539 0.775539 0.000000
O O5 0.242455 0.741192 0.693594
O O6 0.230285 0.774453 0.592408
O O7 0.000000 0.807803 0.649083
O O8 0.213173 0.000000 0.653779
O O9 0.500000 0.179552 0.850647
O O10 0.275608 0.260547 0.794273
O O11 0.281420 0.000000 0.833588
O O12 0.500000 0.701335 0.731177
O O13 0.703769 0.500000 0.741652
O O14 0.303871 0.696130 0.500000
O O15 0.500000 0.705181 0.425093
O O16 0.302115 0.500000 0.425022
#
# Coordination Sequence:
#
# PCOD8309888 Si02
#       5
#     8   8   8   8   8
#     4   8  14  26  45  68  94 126 163 201 243 294
#     4  11  24  38  53  78 110 140 172 213 259 305
#     4   9  17  30  49  72  97 126 162 205 252 302
#     4  10  21  37  56  76 100 133 173 215 259 310
#     4   9  19  37  60  84 109 139 176 214 252 299
#
# _framework density 18.454901
#
# number of rings (size 3 to 8) (size 9 to 14) (size 15 to 20)
#    0.000    2.600    0.000    3.000    0.000    7.200 
#    0.000    6.000    0.000    1.200    0.000    0.000 
#    0.000    0.000    0.000    0.000    0.000    0.000 
#
# Total GULP energy -495989.518490 kJ/mol
# GULP energy per Si atom -12399.737962 kJ/mol
# Density = 1.841290 g / cm^3
# Si number density = 18.454901 Si / 1000 Ang^3
#
#
#
# Elastic Constant Matrix: (Units=GPa)
#
#
# Indices 1 2 3 4 5 6 
#
# 1 73.6580 49.3841 62.0576 0.0000 0.0000 0.0000
# 2 49.3841 73.6580 62.0576 0.0000 0.0000 0.0000
# 3 62.0576 62.0576 146.0340 0.0000 0.0000 0.0000
# 4 0.0000 0.0000 0.0000 27.8447 0.0000 0.0000
# 5 0.0000 0.0000 0.0000 0.0000 27.8440 0.0000
# 6 0.0000 0.0000 0.0000 0.0000 0.0000 24.7033
#
#
#
# Elastic Compliance Matrix: (Units=1/GPa)
#
#
# Indices 1 2 3 4 5 6 
#
# 1 0.027711 -0.013486 -0.006045 0.000000 0.000000 0.000000
# 2 -0.013486 0.027711 -0.006045 0.000000 0.000000 0.000000
# 3 -0.006045 -0.006045 0.011985 0.000000 0.000000 0.000000
# 4 0.000000 0.000000 0.000000 0.035913 0.000000 0.000000
# 5 0.000000 0.000000 0.000000 0.000000 0.035914 0.000000
# 6 0.000000 0.000000 0.000000 0.000000 0.000000 0.040480
#
#
# Mechanical properties :
#
#
# Convention : Reuss Voigt Hill
#
# Bulk Modulus (GPa) = 61.51761 71.14985 66.33373
# Shear Modulus (GPa) = 21.16090 24.06846 22.61468
#
# Velocity S-wave (km/s) = 3.38986 3.61526 3.50437
# Velocity P-wave (km/s) = 6.98054 7.48758 7.23850
#
# Compressibility (1/GPa) = 0.01625551
#
# Stress axis : x y z
#
# Youngs Moduli (GPa) = 36.08713 36.08706 83.43523
#
# Poissons Ratio (x) = 0.48666 0.50436
# Poissons Ratio (y) = 0.48666 0.50436
# Poissons Ratio (z) = 0.21814 0.21814
#
# Static dielectric constant tensor:
#      x y z
#    x 3.320480 0.000000 0.000000 
#    y 0.000000 3.320480 0.000000 
#    z 0.000000 0.000000 3.673230 
# 
# 
# High freq. dielectric constant tensor:
#      x y z
#    x 1.701000 0.000000 0.000000 
#    y 0.000000 1.701000 0.000000 
#    z 0.000000 0.000000 1.734010 
# 
# From -- ./inp_files/5447.got.cif
#   From: 2010.03.12/outbox.cif.g09.slc.cpg/sg115_3_cif.got.tgz:5447.got - 2010.04.14 02:11:21.
