data_PCOD8309868
_publ_section_title
;
Structure prediction by ZEFSAII (Michael W. Deem and Ramdas Pophale) SiO2 
 PCOD8309868
Probable space group: P -4 M 2
;
_chemical_formula_sum "Si O2"
_cell_formula_units_Z 24
_cell_length_a 9.210205
_cell_length_b 9.210205
_cell_length_c 15.179614
_cell_angle_alpha 90.000000
_cell_angle_beta 90.000000
_cell_angle_gamma 90.000000
_cell_volume 1287.654416
_symmetry_space_group_name_H-M "P -4 M 2"
_symmetry_group_IT_number 115
_symmetry_cell_setting 'tetragonal'
loop_
_space_group_symop_operation_xyz
x,y,z
y,-x,-z
-x,-y,z
-y,x,-z
y,x,-z
-y,-x,-z
-x,y,z
x,-y,z
loop_
_atom_site_type_symbol
_atom_site_label
_atom_site_fract_x
_atom_site_fract_y
_atom_site_fract_z
Si Si1 0.832137 0.329333 0.423210
Si Si2 0.830622 0.166768 0.247869
Si Si3 0.336391 0.329986 0.899445
O O1 0.733964 0.266036 0.500000
O O2 0.806578 0.500000 0.416412
O O3 0.779238 0.258276 0.332197
O O4 0.000000 0.290741 0.442165
O O5 0.750355 0.222005 0.161495
O O6 0.000000 0.187673 0.231209
O O7 0.789175 0.000000 0.264725
O O8 0.500000 0.275318 0.879411
O O9 0.326029 0.500000 0.881327
O O10 0.294750 0.294750 0.000000
#
# Coordination Sequence:
#
# PCOD8309868 Si02
#       3
#     8   8   8
#     4  10  21  37  57  80 106 139 178 218 263 315
#     4  10  21  36  55  80 109 141 177 218 264 314
#     4   9  19  36  56  78 106 141 180 221 265 313
#
# _framework density 18.638541
#
# number of rings (size 3 to 8) (size 9 to 14) (size 15 to 20)
#    0.000    2.333    0.000    3.000    0.000    7.333 
#    0.000    5.000    0.000    0.000    0.000    0.000 
#    0.000    0.000    0.000    0.000    0.000    0.000 
#
# Total GULP energy -297691.168423 kJ/mol
# GULP energy per Si atom -12403.798684 kJ/mol
# Density = 1.859612 g / cm^3
# Si number density = 18.638541 Si / 1000 Ang^3
#
#
#
# Elastic Constant Matrix: (Units=GPa)
#
#
# Indices 1 2 3 4 5 6 
#
# 1 84.3724 53.4044 70.4577 0.0000 0.0000 0.0000
# 2 53.4044 84.3724 70.4577 0.0000 0.0000 0.0000
# 3 70.4577 70.4577 138.2501 0.0000 0.0000 0.0000
# 4 0.0000 0.0000 0.0000 47.9043 0.0000 0.0000
# 5 0.0000 0.0000 0.0000 0.0000 47.9043 0.0000
# 6 0.0000 0.0000 0.0000 0.0000 0.0000 33.4816
#
#
#
# Elastic Compliance Matrix: (Units=1/GPa)
#
#
# Indices 1 2 3 4 5 6 
#
# 1 0.023726 -0.008565 -0.007726 0.000000 0.000000 0.000000
# 2 -0.008565 0.023726 -0.007726 0.000000 0.000000 0.000000
# 3 -0.007726 -0.007726 0.015109 0.000000 0.000000 0.000000
# 4 0.000000 0.000000 0.000000 0.020875 0.000000 0.000000
# 5 0.000000 0.000000 0.000000 0.000000 0.020875 0.000000
# 6 0.000000 0.000000 0.000000 0.000000 0.000000 0.029867
#
#
# Mechanical properties :
#
#
# Convention : Reuss Voigt Hill
#
# Bulk Modulus (GPa) = 68.85119 77.29273 73.07196
# Shear Modulus (GPa) = 26.73005 33.36973 30.04989
#
# Velocity S-wave (km/s) = 3.79110 4.23586 4.01963
# Velocity P-wave (km/s) = 7.49557 8.09213 7.79956
#
# Compressibility (1/GPa) = 0.01452408
#
# Stress axis : x y z
#
# Youngs Moduli (GPa) = 42.14796 42.14796 66.18731
#
# Poissons Ratio (x) = 0.36101 0.51139
# Poissons Ratio (y) = 0.36101 0.51139
# Poissons Ratio (z) = 0.32565 0.32565
#
# Static dielectric constant tensor:
#      x y z
#    x 3.375850 0.000000 0.000000 
#    y 0.000000 3.375850 0.000000 
#    z 0.000000 0.000000 3.470070 
# 
# 
# High freq. dielectric constant tensor:
#      x y z
#    x 1.722750 0.000000 0.000000 
#    y 0.000000 1.722750 0.000000 
#    z 0.000000 0.000000 1.733240 
# 
# From -- ./inp_files/3369.got.cif
#   From: 2010.03.12/outbox.cif.g09.slc.cpg/sg115_2_cif.got.tgz:3369.got - 2010.04.14 02:11:21.
