data_PCOD8309219
_publ_section_title
;
Structure prediction by ZEFSAII (Michael W. Deem and Ramdas Pophale) SiO2 
 PCOD8309219
Probable space group: P -4 M 2
;
_chemical_formula_sum "Si O2"
_cell_formula_units_Z 64
_cell_length_a 31.361949
_cell_length_b 31.361949
_cell_length_c 5.176220
_cell_angle_alpha 90.000000
_cell_angle_beta 90.000000
_cell_angle_gamma 90.000000
_cell_volume 5091.184256
_symmetry_space_group_name_H-M "P -4 M 2"
_symmetry_group_IT_number 115
_symmetry_cell_setting 'tetragonal'
loop_
_space_group_symop_operation_xyz
x,y,z
y,-x,-z
-x,-y,z
-y,x,-z
y,x,-z
-y,-x,-z
-x,y,z
x,-y,z
loop_
_atom_site_type_symbol
_atom_site_label
_atom_site_fract_x
_atom_site_fract_y
_atom_site_fract_z
Si Si1 0.954462 0.548272 0.219327
Si Si2 0.811642 0.847660 0.751180
Si Si3 0.548375 0.904822 0.294124
Si Si4 0.741480 0.086174 0.754509
Si Si5 0.636288 0.126388 0.280988
Si Si6 0.774700 0.259349 0.249763
Si Si7 0.674176 0.159276 0.773995
Si Si8 0.950447 0.298367 0.737194
O O1 0.960170 0.500000 0.313218
O O2 0.941003 0.549491 0.922829
O O3 0.000000 0.572275 0.239193
O O4 0.921805 0.566823 0.430027
O O5 0.841436 0.841436 0.500000
O O6 0.789857 0.894931 0.754353
O O7 0.775284 0.812051 0.756000
O O8 0.842058 0.842058 0.000000
O O9 0.500000 0.885177 0.312220
O O10 0.585731 0.872729 0.213160
O O11 0.711583 0.126454 0.719840
O O12 0.732305 0.055638 0.510491
O O13 0.730728 0.060915 0.016020
O O14 0.639157 0.149933 0.555895
O O15 0.658988 0.079392 0.275611
O O16 0.656919 0.155594 0.062684
O O17 0.745553 0.254448 0.500000
O O18 0.793499 0.307009 0.255118
O O19 0.745114 0.254887 0.000000
O O20 0.000000 0.312974 0.752259
#
# Coordination Sequence:
#
# PCOD8309219 Si02
#       8
#     8   8   8   8   8   8   8   8
#     4   9  17  28  40  52  64  76  93 126 174 219
#     4   9  15  23  37  55  71  86 103 126 161 193
#     4  10  19  30  42  54  66  82 107 140 179 221
#     4   9  17  28  39  52  70  88 109 137 163 189
#     4  10  19  30  40  52  68  89 113 142 176 210
#     4   9  15  23  37  56  73  89 107 125 148 188
#     4   9  17  28  40  53  72  91 107 130 164 201
#     4  10  19  29  39  50  66  91 119 142 167 196
#
# _framework density 12.570748999999999
#
# number of rings (size 3 to 8) (size 9 to 14) (size 15 to 20)
#    0.000    2.625    0.000    3.000    0.000    8.500 
#    0.000    0.000    0.000    0.000    0.000    0.000 
#    0.000    0.000    0.000    0.000    0.000    0.000 
#
# Total GULP energy -792933.213780 kJ/mol
# GULP energy per Si atom -12389.581465 kJ/mol
# Density = 1.254214 g / cm^3
# Si number density = 12.570749 Si / 1000 Ang^3
#
#
#
# Elastic Constant Matrix: (Units=GPa)
#
#
# Indices 1 2 3 4 5 6 
#
# 1 38.6181 32.2523 16.3082 0.0000 0.0000 0.0000
# 2 32.2523 38.6177 16.3081 0.0000 0.0000 0.0000
# 3 16.3082 16.3081 83.6941 0.0000 0.0000 0.0000
# 4 0.0000 0.0000 0.0000 10.5412 0.0000 0.0000
# 5 0.0000 0.0000 0.0000 0.0000 10.5403 0.0000
# 6 0.0000 0.0000 0.0000 0.0000 0.0000 6.3944
#
#
#
# Elastic Compliance Matrix: (Units=1/GPa)
#
#
# Indices 1 2 3 4 5 6 
#
# 1 0.086297 -0.070797 -0.003020 0.000000 0.000000 0.000000
# 2 -0.070797 0.086297 -0.003020 0.000000 0.000000 0.000000
# 3 -0.003020 -0.003020 0.013125 0.000000 0.000000 0.000000
# 4 0.000000 0.000000 0.000000 0.094866 0.000000 0.000000
# 5 0.000000 0.000000 0.000000 0.000000 0.094874 0.000000
# 6 0.000000 0.000000 0.000000 0.000000 0.000000 0.156388
#
#
# Mechanical properties :
#
#
# Convention : Reuss Voigt Hill
#
# Bulk Modulus (GPa) = 31.20637 32.29636 31.75137
# Shear Modulus (GPa) = 7.18181 11.89925 9.54053
#
# Velocity S-wave (km/s) = 2.39281 3.08000 2.75789
# Velocity P-wave (km/s) = 5.70197 6.19645 5.95435
#
# Compressibility (1/GPa) = 0.03204473
#
# Stress axis : x y z
#
# Youngs Moduli (GPa) = 11.58795 11.58784 76.18864
#
# Poissons Ratio (x) = 0.82038 0.23011
# Poissons Ratio (y) = 0.82039 0.23011
# Poissons Ratio (z) = 0.03500 0.03500
#
# Static dielectric constant tensor:
#      x y z
#    x 2.407720 0.000000 0.000000 
#    y 0.000000 2.407720 0.000000 
#    z 0.000000 0.000000 2.765400 
# 
# 
# High freq. dielectric constant tensor:
#      x y z
#    x 1.434390 0.000000 0.000000 
#    y 0.000000 1.434390 0.000000 
#    z 0.000000 0.000000 1.504630 
# 
# From -- ./inp_files/837.got.cif
#   From: 2010.03.12/outbox.cif.g09.slc.cpg/sg115_1_cif.got.tgz:837.got - 2010.04.14 02:11:21.
