data_PCOD8309429
_publ_section_title
;
Structure prediction by ZEFSAII (Michael W. Deem and Ramdas Pophale) SiO2 
 PCOD8309429
Probable space group: P -4 M 2
;
_chemical_formula_sum "Si O2"
_cell_formula_units_Z 30
_cell_length_a 12.055540
_cell_length_b 12.055540
_cell_length_c 12.047831
_cell_angle_alpha 90.000000
_cell_angle_beta 90.000000
_cell_angle_gamma 90.000000
_cell_volume 1750.984105
_symmetry_space_group_name_H-M "P -4 M 2"
_symmetry_group_IT_number 115
_symmetry_cell_setting 'tetragonal'
loop_
_space_group_symop_operation_xyz
x,y,z
y,-x,-z
-x,-y,z
-y,x,-z
y,x,-z
-y,-x,-z
-x,y,z
x,-y,z
loop_
_atom_site_type_symbol
_atom_site_label
_atom_site_fract_x
_atom_site_fract_y
_atom_site_fract_z
Si Si1 0.227189 0.000000 0.856501
Si Si2 0.000000 0.000000 0.000000
Si Si3 0.372672 0.801062 0.825917
Si Si4 0.368658 0.784756 0.569076
Si Si5 0.239061 0.000000 0.592168
Si Si6 0.375800 0.624201 0.000000
Si Si7 0.000000 0.000000 0.500000
O O1 0.294961 0.890401 0.888098
O O2 0.236658 0.000000 0.723867
O O3 0.107057 0.000000 0.917594
O O4 0.500000 0.841357 0.836486
O O5 0.345559 0.770053 0.699489
O O6 0.344374 0.690303 0.890752
O O7 0.318452 0.681549 0.500000
O O8 0.500000 0.794483 0.543167
O O9 0.303384 0.896668 0.536162
O O10 0.109421 0.000000 0.572047
O O11 0.500000 0.647184 0.037611
#
# Coordination Sequence:
#
# PCOD8309429 Si02
#       7
#     4   1   8   8   4   4   1
#     4  10  20  33  50  73 101 131 162 205 249 304
#     4  12  22  32  48  78 112 132 154 204 272 306
#     4   9  18  33  53  73  97 133 172 207 246 296
#     4  10  20  34  52  77 106 137 172 215 263 311
#     4  10  20  35  54  76  99 132 177 217 255 300
#     4   9  17  30  49  73  98 126 164 207 247 292
#     4  12  18  32  60  74  92 124 174 220 244 282
#
# _framework density 17.133223000000001
#
# number of rings (size 3 to 8) (size 9 to 14) (size 15 to 20)
#    0.000    2.267    1.333    2.000    0.000    4.533 
#    0.000    2.667    0.000    0.000    0.000    3.733 
#    0.000    0.000    0.000    0.000    0.000    0.000 
#
# Total GULP energy -371683.201272 kJ/mol
# GULP energy per Si atom -12389.440042 kJ/mol
# Density = 1.709423 g / cm^3
# Si number density = 17.133223 Si / 1000 Ang^3
#
#
#
# Elastic Constant Matrix: (Units=GPa)
#
#
# Indices 1 2 3 4 5 6 
#
# 1 123.0147 62.7135 40.9161 0.0000 0.0000 0.0000
# 2 62.7135 123.0119 40.9183 0.0000 0.0000 0.0000
# 3 40.9161 40.9183 46.4427 0.0000 0.0000 0.0000
# 4 0.0000 0.0000 0.0000 27.8415 0.0000 0.0000
# 5 0.0000 0.0000 0.0000 0.0000 27.8418 0.0000
# 6 0.0000 0.0000 0.0000 0.0000 0.0000 33.4173
#
#
#
# Elastic Compliance Matrix: (Units=1/GPa)
#
#
# Indices 1 2 3 4 5 6 
#
# 1 0.012692 -0.003892 -0.007753 0.000000 0.000000 0.000000
# 2 -0.003892 0.012693 -0.007754 0.000000 0.000000 0.000000
# 3 -0.007753 -0.007754 0.035194 0.000000 0.000000 0.000000
# 4 0.000000 0.000000 0.000000 0.035918 0.000000 0.000000
# 5 0.000000 0.000000 0.000000 0.000000 0.035917 0.000000
# 6 0.000000 0.000000 0.000000 0.000000 0.000000 0.029925
#
#
# Mechanical properties :
#
#
# Convention : Reuss Voigt Hill
#
# Bulk Modulus (GPa) = 45.91146 64.61836 55.26491
# Shear Modulus (GPa) = 23.99281 27.68154 25.83717
#
# Velocity S-wave (km/s) = 3.74621 4.02389 3.88753
# Velocity P-wave (km/s) = 6.75033 7.70624 7.24407
#
# Compressibility (1/GPa) = 0.02178106
#
# Stress axis : x y z
#
# Youngs Moduli (GPa) = 78.79150 78.78545 28.41384
#
# Poissons Ratio (x) = 0.30660 0.22029
# Poissons Ratio (y) = 0.30663 0.22033
# Poissons Ratio (z) = 0.61085 0.61093
#
# Static dielectric constant tensor:
#      x y z
#    x 3.372640 0.000000 0.000000 
#    y 0.000000 3.372660 0.000000 
#    z 0.000000 0.000000 3.001920 
# 
# 
# High freq. dielectric constant tensor:
#      x y z
#    x 1.670000 0.000000 0.000000 
#    y 0.000000 1.670000 0.000000 
#    z 0.000000 0.000000 1.647430 
# 
# From -- ./inp_files/2614.got.cif
#   From: 2010.03.12/outbox.cif.g09.slc.cpg/sg115_2_cif.got.tgz:2614.got - 2010.04.14 02:11:21.
