data_PCOD8309885
_publ_section_title
;
Structure prediction by ZEFSAII (Michael W. Deem and Ramdas Pophale) SiO2 
 PCOD8309885
Probable space group: P -4 M 2
;
_chemical_formula_sum "Si O2"
_cell_formula_units_Z 37
_cell_length_a 8.204094
_cell_length_b 8.204094
_cell_length_c 25.797506
_cell_angle_alpha 90.000000
_cell_angle_beta 90.000000
_cell_angle_gamma 90.000000
_cell_volume 1736.356822
_symmetry_space_group_name_H-M "P -4 M 2"
_symmetry_group_IT_number 115
_symmetry_cell_setting 'tetragonal'
loop_
_space_group_symop_operation_xyz
x,y,z
y,-x,-z
-x,-y,z
-y,x,-z
y,x,-z
-y,-x,-z
-x,y,z
x,-y,z
loop_
_atom_site_type_symbol
_atom_site_label
_atom_site_fract_x
_atom_site_fract_y
_atom_site_fract_z
Si Si1 0.188449 0.500000 0.926156
Si Si2 0.811133 0.677090 0.650430
Si Si3 0.811728 0.817990 0.244149
Si Si4 0.188633 0.688010 0.133700
Si Si5 0.500000 0.500000 0.000000
Si Si6 0.180847 0.317799 0.450091
O O1 0.208645 0.329820 0.894656
O O2 0.000000 0.500000 0.947503
O O3 0.328801 0.500000 0.969427
O O4 0.738352 0.500000 0.636761
O O5 0.731524 0.738046 0.704320
O O6 0.790970 0.788083 0.600100
O O7 0.000000 0.669602 0.662999
O O8 0.776778 0.704607 0.194817
O O9 0.000000 0.832781 0.255986
O O10 0.741017 0.000000 0.233055
O O11 0.208281 0.500000 0.117488
O O12 0.000000 0.746473 0.121085
O O13 0.293399 0.293399 0.500000
O O14 0.204240 0.500000 0.429988
O O15 0.000000 0.281269 0.470326
#
# Coordination Sequence:
#
# PCOD8309885 Si02
#       6
#     4   8   8   8   1   8
#     4  12  26  46  76 104 142 190 232 289 347 400
#     4  10  21  36  55  83 118 154 197 248 302 367
#     4   9  18  33  55  87 126 167 212 260 314 381
#     4  10  21  40  67 101 142 183 230 285 340 406
#     4  12  28  52  68 112 148 180 244 288 342 404
#     4  11  24  40  58  79 104 139 188 244 304 372
#
# _framework density 21.308985
#
# number of rings (size 3 to 8) (size 9 to 14) (size 15 to 20)
#    0.000    1.730    1.081    2.595    1.514    8.649 
#    0.000    2.162    0.000    0.000    0.000    0.000 
#    0.000    0.000    0.000    0.000    0.000    0.000 
#
# Total GULP energy -458461.763822 kJ/mol
# GULP energy per Si atom -12390.858482 kJ/mol
# Density = 2.126048 g / cm^3
# Si number density = 21.308985 Si / 1000 Ang^3
#
#
#
# Elastic Constant Matrix: (Units=GPa)
#
#
# Indices 1 2 3 4 5 6 
#
# 1 84.0039 45.9981 41.0231 0.0000 0.0000 0.0000
# 2 45.9981 84.0039 41.0231 0.0000 0.0000 0.0000
# 3 41.0231 41.0231 111.8240 0.0000 0.0000 0.0000
# 4 0.0000 0.0000 0.0000 33.9929 0.0000 0.0000
# 5 0.0000 0.0000 0.0000 0.0000 33.9929 0.0000
# 6 0.0000 0.0000 0.0000 0.0000 0.0000 22.0236
#
#
#
# Elastic Compliance Matrix: (Units=1/GPa)
#
#
# Indices 1 2 3 4 5 6 
#
# 1 0.018161 -0.008151 -0.003672 0.000000 0.000000 0.000000
# 2 -0.008151 0.018161 -0.003672 0.000000 0.000000 0.000000
# 3 -0.003672 -0.003672 0.011637 0.000000 0.000000 0.000000
# 4 0.000000 0.000000 0.000000 0.029418 0.000000 0.000000
# 5 0.000000 0.000000 0.000000 0.000000 0.029418 0.000000
# 6 0.000000 0.000000 0.000000 0.000000 0.000000 0.045406
#
#
# Mechanical properties :
#
#
# Convention : Reuss Voigt Hill
#
# Bulk Modulus (GPa) = 58.93486 59.54670 59.24078
# Shear Modulus (GPa) = 26.47653 28.12104 27.29878
#
# Velocity S-wave (km/s) = 3.52874 3.63668 3.58312
# Velocity P-wave (km/s) = 6.65733 6.75566 6.70668
#
# Compressibility (1/GPa) = 0.01696789
#
# Stress axis : x y z
#
# Youngs Moduli (GPa) = 55.06384 55.06384 85.93369
#
# Poissons Ratio (x) = 0.44883 0.31556
# Poissons Ratio (y) = 0.44883 0.31556
# Poissons Ratio (z) = 0.20220 0.20220
#
# Static dielectric constant tensor:
#      x y z
#    x 3.922740 0.000000 0.000000 
#    y 0.000000 3.922740 0.000000 
#    z 0.000000 0.000000 3.656550 
# 
# 
# High freq. dielectric constant tensor:
#      x y z
#    x 1.832920 0.000000 0.000000 
#    y 0.000000 1.832920 0.000000 
#    z 0.000000 0.000000 1.831010 
# 
# From -- ./inp_files/5187.got.cif
#   From: 2010.03.12/outbox.cif.g09.slc.cpg/sg115_3_cif.got.tgz:5187.got - 2010.04.14 02:11:21.
