data_PCOD8309443
_publ_section_title
;
Structure prediction by ZEFSAII (Michael W. Deem and Ramdas Pophale) SiO2 
 PCOD8309443
Probable space group: P -4 M 2
;
_chemical_formula_sum "Si O2"
_cell_formula_units_Z 44
_cell_length_a 9.215067
_cell_length_b 9.215067
_cell_length_c 28.369534
_cell_angle_alpha 90.000000
_cell_angle_beta 90.000000
_cell_angle_gamma 90.000000
_cell_volume 2409.068763
_symmetry_space_group_name_H-M "P -4 M 2"
_symmetry_group_IT_number 115
_symmetry_cell_setting 'tetragonal'
loop_
_space_group_symop_operation_xyz
x,y,z
y,-x,-z
-x,-y,z
-y,x,-z
y,x,-z
-y,-x,-z
-x,y,z
x,-y,z
loop_
_atom_site_type_symbol
_atom_site_label
_atom_site_fract_x
_atom_site_fract_y
_atom_site_fract_z
Si Si1 0.828675 0.834625 0.235756
Si Si2 0.171879 0.333894 0.958677
Si Si3 0.670238 0.668112 0.316590
Si Si4 0.836095 0.327421 0.591873
Si Si5 0.160363 0.172017 0.130753
Si Si6 0.330829 0.669172 0.500000
O O1 0.748524 0.726626 0.270515
O O2 0.786660 0.782386 0.182916
O O3 0.000000 0.823287 0.243231
O O4 0.776560 0.000000 0.244681
O O5 0.220860 0.500000 0.961869
O O6 0.228845 0.271842 0.908668
O O7 0.000000 0.316251 0.963313
O O8 0.244381 0.244381 0.000000
O O9 0.500000 0.694422 0.310378
O O10 0.707404 0.500000 0.323419
O O11 0.731342 0.752756 0.362179
O O12 0.833169 0.500000 0.591975
O O13 0.755554 0.270717 0.545157
O O14 0.000000 0.267286 0.592547
O O15 0.000000 0.236851 0.120308
O O16 0.149908 0.000000 0.129469
O O17 0.500000 0.698691 0.509082
#
# Coordination Sequence:
#
# PCOD8309443 Si02
#       6
#     8   8   8   8   8   4
#     4   9  18  33  53  77 103 130 163 205 253 301
#     4  10  20  33  51  76 103 132 168 207 248 296
#     4  10  20  33  50  74 103 135 172 209 245 291
#     4   9  17  30  49  72  97 127 164 204 246 293
#     4   8  15  30  52  75  98 127 165 207 248 293
#     4   9  16  28  48  71  94 122 158 201 246 292
#
# _framework density 18.264316999999998
#
# number of rings (size 3 to 8) (size 9 to 14) (size 15 to 20)
#    0.000    2.818    0.000    2.727    0.000    5.455 
#    0.000    3.636    0.000    4.636    0.000    0.000 
#    0.000    0.000    0.000    0.000    0.000    0.000 
#
# Total GULP energy -545544.646458 kJ/mol
# GULP energy per Si atom -12398.741965 kJ/mol
# Density = 1.822275 g / cm^3
# Si number density = 18.264317 Si / 1000 Ang^3
#
#
#
# Elastic Constant Matrix: (Units=GPa)
#
#
# Indices 1 2 3 4 5 6 
#
# 1 60.0795 31.8789 55.1301 0.0000 0.0000 0.0000
# 2 31.8789 60.0790 55.1301 0.0000 0.0000 0.0000
# 3 55.1301 55.1301 167.0454 0.0000 0.0000 0.0000
# 4 0.0000 0.0000 0.0000 25.1473 0.0000 0.0000
# 5 0.0000 0.0000 0.0000 0.0000 25.1454 0.0000
# 6 0.0000 0.0000 0.0000 0.0000 0.0000 20.7420
#
#
#
# Elastic Compliance Matrix: (Units=1/GPa)
#
#
# Indices 1 2 3 4 5 6 
#
# 1 0.026728 -0.008732 -0.005939 0.000000 0.000000 0.000000
# 2 -0.008732 0.026728 -0.005939 0.000000 0.000000 0.000000
# 3 -0.005939 -0.005939 0.009907 0.000000 0.000000 0.000000
# 4 0.000000 0.000000 0.000000 0.039766 0.000000 0.000000
# 5 0.000000 0.000000 0.000000 0.000000 0.039769 0.000000
# 6 0.000000 0.000000 0.000000 0.000000 0.000000 0.048211
#
#
# Mechanical properties :
#
#
# Convention : Reuss Voigt Hill
#
# Bulk Modulus (GPa) = 45.16419 63.49802 54.33110
# Shear Modulus (GPa) = 20.85850 23.87792 22.36821
#
# Velocity S-wave (km/s) = 3.38307 3.61966 3.50336
# Velocity P-wave (km/s) = 6.32787 7.23262 6.79532
#
# Compressibility (1/GPa) = 0.02214144
#
# Stress axis : x y z
#
# Youngs Moduli (GPa) = 37.41406 37.41356 100.94294
#
# Poissons Ratio (x) = 0.32671 0.59951
# Poissons Ratio (y) = 0.32672 0.59952
# Poissons Ratio (z) = 0.22220 0.22221
#
# Static dielectric constant tensor:
#      x y z
#    x 3.310050 0.000000 0.000000 
#    y 0.000000 3.310030 0.000000 
#    z 0.000000 0.000000 3.655050 
# 
# 
# High freq. dielectric constant tensor:
#      x y z
#    x 1.685030 0.000000 0.000000 
#    y 0.000000 1.685030 0.000000 
#    z 0.000000 0.000000 1.725400 
# 
# From -- ./inp_files/5717.got.cif
#   From: 2010.03.12/outbox.cif.g09.slc.cpg/sg115_3_cif.got.tgz:5717.got - 2010.04.14 02:11:21.
