data_PCOD8309681
_publ_section_title
;
Structure prediction by ZEFSAII (Michael W. Deem and Ramdas Pophale) SiO2 
 PCOD8309681
Probable space group: P -4 M 2
;
_chemical_formula_sum "Si O2"
_cell_formula_units_Z 48
_cell_length_a 9.057322
_cell_length_b 9.057322
_cell_length_c 30.977378
_cell_angle_alpha 90.000000
_cell_angle_beta 90.000000
_cell_angle_gamma 90.000000
_cell_volume 2541.231739
_symmetry_space_group_name_H-M "P -4 M 2"
_symmetry_group_IT_number 115
_symmetry_cell_setting 'tetragonal'
loop_
_space_group_symop_operation_xyz
x,y,z
y,-x,-z
-x,-y,z
-y,x,-z
y,x,-z
-y,-x,-z
-x,y,z
x,-y,z
loop_
_atom_site_type_symbol
_atom_site_label
_atom_site_fract_x
_atom_site_fract_y
_atom_site_fract_z
Si Si1 0.673641 0.329294 0.827669
Si Si2 0.828541 0.171460 0.000000
Si Si3 0.672680 0.168372 0.085364
Si Si4 0.166313 0.324526 0.414997
Si Si5 0.671334 0.326410 0.670932
Si Si6 0.171379 0.826982 0.250413
Si Si7 0.327819 0.672182 0.500000
O O1 0.500000 0.303967 0.825887
O O2 0.714662 0.500000 0.818434
O O3 0.732533 0.278879 0.874248
O O4 0.749599 0.226127 0.792787
O O5 0.749566 0.233913 0.042694
O O6 0.000000 0.206221 0.005265
O O7 0.500000 0.177779 0.077353
O O8 0.723497 0.000000 0.094186
O O9 0.169317 0.500000 0.416073
O O10 0.254738 0.268540 0.373223
O O11 0.243707 0.264091 0.458229
O O12 0.000000 0.263146 0.412734
O O13 0.500000 0.287165 0.678982
O O14 0.695593 0.500000 0.667722
O O15 0.766590 0.263242 0.709612
O O16 0.000000 0.789965 0.257561
O O17 0.200046 0.000000 0.246013
O O18 0.500000 0.703248 0.492886
#
# Coordination Sequence:
#
# PCOD8309681 Si02
#       7
#     8   4   8   8   8   8   4
#     4  10  21  37  57  81 107 137 176 220 265 314
#     4   9  18  32  50  73 102 136 174 215 258 307
#     4   9  18  33  52  74 103 139 175 213 261 314
#     4   9  17  30  50  76 105 137 173 215 263 312
#     4  10  20  35  57  83 108 137 176 220 265 314
#     4  11  24  39  55  78 108 141 176 215 262 316
#     4   9  16  28  48  73 100 132 174 219 258 304
#
# _framework density 18.888477000000002
#
# number of rings (size 3 to 8) (size 9 to 14) (size 15 to 20)
#    0.000    2.333    0.000    2.500    0.000    8.667 
#    0.000    2.500    0.000    3.250    0.000    0.000 
#    0.000    0.000    0.000    0.000    0.000    0.000 
#
# Total GULP energy -595330.697526 kJ/mol
# GULP energy per Si atom -12402.722865 kJ/mol
# Density = 1.884549 g / cm^3
# Si number density = 18.888477 Si / 1000 Ang^3
#
#
#
# Elastic Constant Matrix: (Units=GPa)
#
#
# Indices 1 2 3 4 5 6 
#
# 1 69.9880 37.9975 56.8009 0.0000 0.0000 0.0000
# 2 37.9975 69.9871 56.8009 0.0000 0.0000 0.0000
# 3 56.8009 56.8009 165.7971 0.0000 0.0000 0.0000
# 4 0.0000 0.0000 0.0000 -43.5956 0.0000 0.0000
# 5 0.0000 0.0000 0.0000 0.0000 -43.6335 0.0000
# 6 0.0000 0.0000 0.0000 0.0000 0.0000 22.9070
#
#
#
# Elastic Compliance Matrix: (Units=1/GPa)
#
#
# Indices 1 2 3 4 5 6 
#
# 1 0.022869 -0.008390 -0.004960 0.000000 0.000000 0.000000
# 2 -0.008390 0.022870 -0.004960 0.000000 0.000000 0.000000
# 3 -0.004960 -0.004960 0.009430 0.000000 0.000000 0.000000
# 4 0.000000 0.000000 0.000000 -0.022938 0.000000 0.000000
# 5 0.000000 0.000000 0.000000 0.000000 -0.022918 0.000000
# 6 0.000000 0.000000 0.000000 0.000000 0.000000 0.043655
#
#
# Mechanical properties :
#
#
# Convention : Reuss Voigt Hill
#
# Bulk Modulus (GPa) = 53.91824 67.66341 60.79082
# Shear Modulus (GPa) = 52.20743 -2.58621 24.81061
#
# Velocity S-wave (km/s) = 5.26306 -1.17140 3.62820
# Velocity P-wave (km/s) = 8.09572 5.83702 7.05732
#
# Compressibility (1/GPa) = 0.01854660
#
# Stress axis : x y z
#
# Youngs Moduli (GPa) = 43.72708 43.72633 106.04175
#
# Poissons Ratio (x) = 0.36688 0.52600
# Poissons Ratio (y) = 0.36689 0.52601
# Poissons Ratio (z) = 0.21690 0.21690
#
# Static dielectric constant tensor:
#      x y z
#    x 3.425670 0.000000 0.000000 
#    y 0.000000 3.425670 0.000000 
#    z 0.000000 0.000000 3.739750 
# 
# 
# High freq. dielectric constant tensor:
#      x y z
#    x 1.723490 0.000000 0.000000 
#    y 0.000000 1.723490 0.000000 
#    z 0.000000 0.000000 1.751530 
# 
# From -- ./inp_files/6194.got.cif
#   From: 2010.03.12/outbox.cif.g09.slc.cpg/sg115_4_cif.got.tgz:6194.got - 2010.04.14 02:11:21.
