data_PCOD8309807
_publ_section_title
;
Structure prediction by ZEFSAII (Michael W. Deem and Ramdas Pophale) SiO2 
 PCOD8309807
Probable space group: P -4 M 2
;
_chemical_formula_sum "Si O2"
_cell_formula_units_Z 48
_cell_length_a 9.246077
_cell_length_b 9.246077
_cell_length_c 31.244523
_cell_angle_alpha 90.000000
_cell_angle_beta 90.000000
_cell_angle_gamma 90.000000
_cell_volume 2671.092393
_symmetry_space_group_name_H-M "P -4 M 2"
_symmetry_group_IT_number 115
_symmetry_cell_setting 'tetragonal'
loop_
_space_group_symop_operation_xyz
x,y,z
y,-x,-z
-x,-y,z
-y,x,-z
y,x,-z
-y,-x,-z
-x,y,z
x,-y,z
loop_
_atom_site_type_symbol
_atom_site_label
_atom_site_fract_x
_atom_site_fract_y
_atom_site_fract_z
Si Si1 0.169843 0.834421 0.122502
Si Si2 0.670046 0.167533 0.962993
Si Si3 0.341861 0.328903 0.710645
Si Si4 0.663322 0.672375 0.381118
Si Si5 0.161777 0.170939 0.547676
Si Si6 0.331425 0.329964 0.196423
O O1 0.217358 0.746366 0.080627
O O2 0.242745 0.763527 0.163299
O O3 0.000000 0.824271 0.129496
O O4 0.221083 0.000000 0.117372
O O5 0.500000 0.194849 0.958322
O O6 0.704496 0.000000 0.973292
O O7 0.732561 0.267440 0.000000
O O8 0.500000 0.256322 0.711427
O O9 0.360992 0.500000 0.709215
O O10 0.264621 0.283763 0.665702
O O11 0.267517 0.287851 0.756035
O O12 0.500000 0.723302 0.390808
O O13 0.672480 0.500000 0.379814
O O14 0.765333 0.729476 0.418034
O O15 0.214561 0.214561 0.500000
O O16 0.000000 0.230538 0.556029
O O17 0.162448 0.000000 0.551888
O O18 0.500000 0.305657 0.187440
O O19 0.293186 0.500000 0.192552
#
# Coordination Sequence:
#
# PCOD8309807 Si02
#       6
#     8   8   8   8   8   8
#     4  10  21  36  53  74 103 138 171 203 243 290
#     4  10  21  37  57  79 102 131 167 205 246 292
#     4   7  12  26  47  70  97 127 157 193 240 290
#     4   9  17  30  50  75  99 122 154 199 246 291
#     4   9  19  35  50  64  89 127 165 198 237 288
#     4   9  17  31  53  77  99 128 167 206 243 286
#
# _framework density 17.970174
#
# number of rings (size 3 to 8) (size 9 to 14) (size 15 to 20)
#    0.000    3.000    0.000    3.500    0.000    4.333 
#    0.000    4.167    0.000    8.000    0.000    0.000 
#    0.000    0.000    0.000    0.000    0.000    0.000 
#
# Total GULP energy -594734.014256 kJ/mol
# GULP energy per Si atom -12390.291964 kJ/mol
# Density = 1.792927 g / cm^3
# Si number density = 17.970174 Si / 1000 Ang^3
#
#
#
# Elastic Constant Matrix: (Units=GPa)
#
#
# Indices 1 2 3 4 5 6 
#
# 1 51.7781 28.9215 59.0628 0.0000 0.0000 0.0000
# 2 28.9215 51.7781 59.0617 0.0000 0.0000 0.0000
# 3 59.0628 59.0617 182.5793 0.0000 0.0000 0.0000
# 4 0.0000 0.0000 0.0000 306.3126 0.0000 0.0000
# 5 0.0000 0.0000 0.0000 0.0000 306.1955 0.0000
# 6 0.0000 0.0000 0.0000 0.0000 0.0000 27.6033
#
#
#
# Elastic Compliance Matrix: (Units=1/GPa)
#
#
# Indices 1 2 3 4 5 6 
#
# 1 0.033644 -0.010107 -0.007614 0.000000 0.000000 0.000000
# 2 -0.010107 0.033643 -0.007613 0.000000 0.000000 0.000000
# 3 -0.007614 -0.007613 0.010403 0.000000 0.000000 0.000000
# 4 0.000000 0.000000 0.000000 0.003265 0.000000 0.000000
# 5 0.000000 0.000000 0.000000 0.000000 0.003266 0.000000
# 6 0.000000 0.000000 0.000000 0.000000 0.000000 0.036228
#
#
# Mechanical properties :
#
#
# Convention : Reuss Voigt Hill
#
# Bulk Modulus (GPa) = 37.00873 64.46972 50.73922
# Shear Modulus (GPa) = 27.75854 137.29490 82.52672
#
# Velocity S-wave (km/s) = 3.93453 8.75028 6.78410
# Velocity P-wave (km/s) = 6.42495 11.74920 9.46899
#
# Compressibility (1/GPa) = 0.02702065
#
# Stress axis : x y z
#
# Youngs Moduli (GPa) = 29.72300 29.72366 96.12645
#
# Poissons Ratio (x) = 0.30043 0.73190
# Poissons Ratio (y) = 0.30042 0.73185
# Poissons Ratio (z) = 0.22631 0.22630
#
# Static dielectric constant tensor:
#      x y z
#    x 3.072700 0.000000 0.000000 
#    y 0.000000 3.072680 0.000000 
#    z 0.000000 0.000000 3.711320 
# 
# 
# High freq. dielectric constant tensor:
#      x y z
#    x 1.671410 0.000000 0.000000 
#    y 0.000000 1.671410 0.000000 
#    z 0.000000 0.000000 1.719730 
# 
# From -- ./inp_files/5991.got.cif
#   From: 2010.03.12/outbox.cif.g09.slc.cpg/sg115_3_cif.got.tgz:5991.got - 2010.04.14 02:11:21.
