data_PCOD8309491
_publ_section_title
;
Structure prediction by ZEFSAII (Michael W. Deem and Ramdas Pophale) SiO2 
 PCOD8309491
Probable space group: P -4 M 2
;
_chemical_formula_sum "Si O2"
_cell_formula_units_Z 28
_cell_length_a 9.197903
_cell_length_b 9.197903
_cell_length_c 18.040404
_cell_angle_alpha 90.000000
_cell_angle_beta 90.000000
_cell_angle_gamma 90.000000
_cell_volume 1526.243789
_symmetry_space_group_name_H-M "P -4 M 2"
_symmetry_group_IT_number 115
_symmetry_cell_setting 'tetragonal'
loop_
_space_group_symop_operation_xyz
x,y,z
y,-x,-z
-x,-y,z
-y,x,-z
y,x,-z
-y,-x,-z
-x,y,z
x,-y,z
loop_
_atom_site_type_symbol
_atom_site_label
_atom_site_fract_x
_atom_site_fract_y
_atom_site_fract_z
Si Si1 0.672970 0.338002 0.418892
Si Si2 0.330221 0.831327 0.852191
Si Si3 0.165351 0.327317 0.722417
Si Si4 0.167591 0.832410 0.000000
O O1 0.721706 0.278295 0.500000
O O2 0.500000 0.345562 0.418350
O O3 0.736137 0.500000 0.404202
O O4 0.731032 0.230759 0.355223
O O5 0.500000 0.797205 0.853467
O O6 0.257283 0.737198 0.788879
O O7 0.297238 0.000000 0.836896
O O8 0.264044 0.783083 0.930671
O O9 0.175672 0.500000 0.726911
O O10 0.000000 0.272890 0.727972
O O11 0.000000 0.804528 0.979222
#
# Coordination Sequence:
#
# PCOD8309491 Si02
#       4
#     8   8   8   4
#     4   8  14  27  48  71  96 130 171 213 256 300
#     4  10  21  36  54  77 104 134 169 208 251 300
#     4  10  20  33  51  76 105 137 172 209 251 300
#     4   9  18  34  54  73  98 134 170 205 250 303
#
# _framework density 18.345694999999999
#
# number of rings (size 3 to 8) (size 9 to 14) (size 15 to 20)
#    0.000    2.714    0.000    2.571    0.000    4.571 
#    0.000    4.286    0.000    5.143    0.000    0.000 
#    0.000    0.000    0.000    0.000    0.000    0.000 
#
# Total GULP energy -347183.770964 kJ/mol
# GULP energy per Si atom -12399.420392 kJ/mol
# Density = 1.830394 g / cm^3
# Si number density = 18.345695 Si / 1000 Ang^3
#
#
#
# Elastic Constant Matrix: (Units=GPa)
#
#
# Indices 1 2 3 4 5 6 
#
# 1 68.5853 29.9474 61.9504 0.0000 0.0000 0.0000
# 2 29.9474 68.5862 61.9500 0.0000 0.0000 0.0000
# 3 61.9504 61.9500 165.3054 0.0000 0.0000 0.0000
# 4 0.0000 0.0000 0.0000 -80.5162 0.0000 0.0000
# 5 0.0000 0.0000 0.0000 0.0000 -80.4381 0.0000
# 6 0.0000 0.0000 0.0000 0.0000 0.0000 23.0264
#
#
#
# Elastic Compliance Matrix: (Units=1/GPa)
#
#
# Indices 1 2 3 4 5 6 
#
# 1 0.022538 -0.003344 -0.007193 0.000000 0.000000 0.000000
# 2 -0.003344 0.022537 -0.007193 0.000000 0.000000 0.000000
# 3 -0.007193 -0.007193 0.011441 0.000000 0.000000 0.000000
# 4 0.000000 0.000000 0.000000 -0.012420 0.000000 0.000000
# 5 0.000000 0.000000 0.000000 0.000000 -0.012432 0.000000
# 6 0.000000 0.000000 0.000000 0.000000 0.000000 0.043428
#
#
# Mechanical properties :
#
#
# Convention : Reuss Voigt Hill
#
# Bulk Modulus (GPa) = 47.49227 67.79693 57.64460
# Shear Modulus (GPa) = 42.52758 -17.67697 12.42530
#
# Velocity S-wave (km/s) = 4.81991 -3.10748 2.60530
# Velocity P-wave (km/s) = 7.54447 4.91531 6.36707
#
# Compressibility (1/GPa) = 0.02105606
#
# Stress axis : x y z
#
# Youngs Moduli (GPa) = 44.36997 44.37119 87.40608
#
# Poissons Ratio (x) = 0.14836 0.62874
# Poissons Ratio (y) = 0.14835 0.62871
# Poissons Ratio (z) = 0.31917 0.31916
#
# Static dielectric constant tensor:
#      x y z
#    x 3.708990 0.000000 0.000000 
#    y 0.000000 3.709210 0.000000 
#    z 0.000000 0.000000 3.688390 
# 
# 
# High freq. dielectric constant tensor:
#      x y z
#    x 1.693970 0.000000 0.000000 
#    y 0.000000 1.693960 0.000000 
#    z 0.000000 0.000000 1.728030 
# 
# From -- ./inp_files/4508.got.cif
#   From: 2010.03.12/outbox.cif.g09.slc.cpg/sg115_3_cif.got.tgz:4508.got - 2010.04.14 02:11:21.
