data_PCOD8309937
_publ_section_title
;
Structure prediction by ZEFSAII (Michael W. Deem and Ramdas Pophale) SiO2 
 PCOD8309937
Probable space group: P -4 M 2
;
_chemical_formula_sum "Si O2"
_cell_formula_units_Z 28
_cell_length_a 8.913737
_cell_length_b 8.913737
_cell_length_c 17.829533
_cell_angle_alpha 90.000000
_cell_angle_beta 90.000000
_cell_angle_gamma 90.000000
_cell_volume 1416.640326
_symmetry_space_group_name_H-M "P -4 M 2"
_symmetry_group_IT_number 115
_symmetry_cell_setting 'tetragonal'
loop_
_space_group_symop_operation_xyz
x,y,z
y,-x,-z
-x,-y,z
-y,x,-z
y,x,-z
-y,-x,-z
-x,y,z
x,-y,z
loop_
_atom_site_type_symbol
_atom_site_label
_atom_site_fract_x
_atom_site_fract_y
_atom_site_fract_z
Si Si1 0.322857 0.329438 0.639420
Si Si2 0.174838 0.173865 0.777663
Si Si3 0.325939 0.172054 0.067756
Si Si4 0.825801 0.174200 0.500000
O O1 0.500000 0.320277 0.635774
O O2 0.266678 0.500000 0.629869
O O3 0.269649 0.267420 0.718714
O O4 0.258475 0.229214 0.573335
O O5 0.219557 0.231161 0.859777
O O6 0.000000 0.201172 0.761490
O O7 0.217600 0.000000 0.771150
O O8 0.500000 0.197108 0.085829
O O9 0.292102 0.000000 0.045873
O O10 0.278063 0.278063 0.000000
O O11 0.000000 0.207484 0.511237
#
# Coordination Sequence:
#
# PCOD8309937 Si02
#       4
#     8   8   8   4
#     4  11  24  40  59  86 119 153 190 233 283 338
#     4  10  21  38  61  87 114 148 192 238 284 338
#     4  10  21  37  58  84 114 150 191 235 286 341
#     4  11  24  41  62  88 116 149 192 237 282 336
#
# _framework density 19.765073999999998
#
# number of rings (size 3 to 8) (size 9 to 14) (size 15 to 20)
#    0.000    1.571    0.000    4.286    0.000   13.143 
#    0.000    0.000    0.000    0.000    0.000    0.000 
#    0.000    0.000    0.000    0.000    0.000    0.000 
#
# Total GULP energy -347391.532512 kJ/mol
# GULP energy per Si atom -12406.840447 kJ/mol
# Density = 1.972009 g / cm^3
# Si number density = 19.765074 Si / 1000 Ang^3
#
#
#
# Elastic Constant Matrix: (Units=GPa)
#
#
# Indices 1 2 3 4 5 6 
#
# 1 47.4120 54.4329 30.5617 0.0000 0.0000 0.0000
# 2 54.4329 47.4214 30.5658 0.0000 0.0000 0.0000
# 3 30.5617 30.5658 97.4472 0.0000 0.0000 0.0000
# 4 0.0000 0.0000 0.0000 54.2695 0.0000 0.0000
# 5 0.0000 0.0000 0.0000 0.0000 54.2667 0.0000
# 6 0.0000 0.0000 0.0000 0.0000 0.0000 32.0989
#
#
#
# Elastic Compliance Matrix: (Units=1/GPa)
#
#
# Indices 1 2 3 4 5 6 
#
# 1 -0.065222 0.077312 -0.003795 0.000000 0.000000 0.000000
# 2 0.077312 -0.065211 -0.003792 0.000000 0.000000 0.000000
# 3 -0.003795 -0.003792 0.012642 0.000000 0.000000 0.000000
# 4 0.000000 0.000000 0.000000 0.018427 0.000000 0.000000
# 5 0.000000 0.000000 0.000000 0.000000 0.018427 0.000000
# 6 0.000000 0.000000 0.000000 0.000000 0.000000 0.031154
#
#
# Mechanical properties :
#
#
# Convention : Reuss Voigt Hill
#
# Bulk Modulus (GPa) = 46.17296 47.04460 46.60878
# Shear Modulus (GPa) = -27.47056 33.24171 2.88558
#
# Velocity S-wave (km/s) = -3.73212 4.10547 1.20959
# Velocity P-wave (km/s) = 2.20000 6.80638 5.05800
#
# Compressibility (1/GPa) = 0.02165770
#
# Stress axis : x y z
#
# Youngs Moduli (GPa) = -15.33218 -15.33495 79.10369
#
# Poissons Ratio (x) = 1.18557 0.30017
# Poissons Ratio (y) = 1.18536 0.30000
# Poissons Ratio (z) = -0.05818 -0.05816
#
# Static dielectric constant tensor:
#      x y z
#    x 3.690330 0.000000 0.000000 
#    y 0.000000 3.690340 0.000000 
#    z 0.000000 0.000000 3.828010 
# 
# 
# High freq. dielectric constant tensor:
#      x y z
#    x 1.778350 0.000000 0.000000 
#    y 0.000000 1.778350 0.000000 
#    z 0.000000 0.000000 1.784580 
# 
# From -- ./inp_files/4011.got.cif
#   From: 2010.03.12/outbox.cif.g09.slc.cpg/sg115_3_cif.got.tgz:4011.got - 2010.04.14 02:11:21.
