data_PCOD8309866
_publ_section_title
;
Structure prediction by ZEFSAII (Michael W. Deem and Ramdas Pophale) SiO2 
 PCOD8309866
Probable space group: P -4 M 2
;
_chemical_formula_sum "Si O2"
_cell_formula_units_Z 48
_cell_length_a 9.177067
_cell_length_b 9.177067
_cell_length_c 30.527321
_cell_angle_alpha 90.000000
_cell_angle_beta 90.000000
_cell_angle_gamma 90.000000
_cell_volume 2570.966976
_symmetry_space_group_name_H-M "P -4 M 2"
_symmetry_group_IT_number 115
_symmetry_cell_setting 'tetragonal'
loop_
_space_group_symop_operation_xyz
x,y,z
y,-x,-z
-x,-y,z
-y,x,-z
y,x,-z
-y,-x,-z
-x,y,z
x,-y,z
loop_
_atom_site_type_symbol
_atom_site_label
_atom_site_fract_x
_atom_site_fract_y
_atom_site_fract_z
Si Si1 0.332320 0.829400 0.462065
Si Si2 0.828649 0.832138 0.296690
Si Si3 0.329508 0.667854 0.627042
Si Si4 0.327572 0.835495 0.865807
Si Si5 0.668360 0.830794 0.209015
Si Si6 0.661611 0.828225 0.963614
O O1 0.229253 0.770747 0.500000
O O2 0.500000 0.795405 0.474051
O O3 0.286768 0.749617 0.417578
O O4 0.304978 0.000000 0.455771
O O5 0.769314 0.731296 0.335009
O O6 0.756538 0.778938 0.251597
O O7 0.000000 0.809716 0.292526
O O8 0.787582 0.000000 0.306525
O O9 0.500000 0.696986 0.621163
O O10 0.296619 0.500000 0.638808
O O11 0.500000 0.829018 0.860527
O O12 0.255645 0.722749 0.832964
O O13 0.282848 0.786646 0.914935
O O14 0.272266 0.000000 0.856219
O O15 0.500000 0.794667 0.217140
O O16 0.695224 0.000000 0.199904
O O17 0.500000 0.763764 0.971355
O O18 0.656726 0.000000 0.967865
O O19 0.768864 0.768864 0.000000
#
# Coordination Sequence:
#
# PCOD8309866 Si02
#       6
#     8   8   8   8   8   8
#     4  10  21  37  58  83 111 145 183 223 268 316
#     4  10  21  37  57  80 107 141 179 218 263 315
#     4  10  21  37  58  83 110 142 180 221 266 316
#     4   9  19  36  55  75 103 139 176 215 261 312
#     4  10  21  36  55  80 108 138 174 217 264 314
#     4   9  19  35  53  75 104 137 174 216 261 311
#
# _framework density 18.670019
#
# number of rings (size 3 to 8) (size 9 to 14) (size 15 to 20)
#    0.000    2.333    0.000    3.000    0.000    7.333 
#    0.000    5.000    0.000    0.000    0.000    0.000 
#    0.000    0.000    0.000    0.000    0.000    0.000 
#
# Total GULP energy -595342.151014 kJ/mol
# GULP energy per Si atom -12402.961479 kJ/mol
# Density = 1.862752 g / cm^3
# Si number density = 18.670019 Si / 1000 Ang^3
#
#
#
# Elastic Constant Matrix: (Units=GPa)
#
#
# Indices 1 2 3 4 5 6 
#
# 1 76.9157 43.3430 67.7871 0.0000 0.0000 0.0000
# 2 43.3430 76.9157 67.7871 0.0000 0.0000 0.0000
# 3 67.7871 67.7871 152.4751 0.0000 0.0000 0.0000
# 4 0.0000 0.0000 0.0000 33.7164 0.0000 0.0000
# 5 0.0000 0.0000 0.0000 0.0000 33.7164 0.0000
# 6 0.0000 0.0000 0.0000 0.0000 0.0000 32.0510
#
#
#
# Elastic Compliance Matrix: (Units=1/GPa)
#
#
# Indices 1 2 3 4 5 6 
#
# 1 0.023228 -0.006558 -0.007411 0.000000 0.000000 0.000000
# 2 -0.006558 0.023228 -0.007411 0.000000 0.000000 0.000000
# 3 -0.007411 -0.007411 0.013148 0.000000 0.000000 0.000000
# 4 0.000000 0.000000 0.000000 0.029659 0.000000 0.000000
# 5 0.000000 0.000000 0.000000 0.000000 0.029659 0.000000
# 6 0.000000 0.000000 0.000000 0.000000 0.000000 0.031200
#
#
# Mechanical properties :
#
#
# Convention : Reuss Voigt Hill
#
# Bulk Modulus (GPa) = 59.36807 73.79342 66.58074
# Shear Modulus (GPa) = 25.18896 28.38939 26.78918
#
# Velocity S-wave (km/s) = 3.67709 3.90370 3.79209
# Velocity P-wave (km/s) = 7.06368 7.74141 7.41030
#
# Compressibility (1/GPa) = 0.01684407
#
# Stress axis : x y z
#
# Youngs Moduli (GPa) = 43.05068 43.05068 76.05506
#
# Poissons Ratio (x) = 0.28231 0.56368
# Poissons Ratio (y) = 0.28231 0.56368
# Poissons Ratio (z) = 0.31907 0.31907
#
# Static dielectric constant tensor:
#      x y z
#    x 3.405270 0.000000 0.000000 
#    y 0.000000 3.405270 0.000000 
#    z 0.000000 0.000000 3.536920 
# 
# 
# High freq. dielectric constant tensor:
#      x y z
#    x 1.723120 0.000000 0.000000 
#    y 0.000000 1.723120 0.000000 
#    z 0.000000 0.000000 1.735620 
# 
# From -- ./inp_files/5898.got.cif
#   From: 2010.03.12/outbox.cif.g09.slc.cpg/sg115_3_cif.got.tgz:5898.got - 2010.04.14 02:11:21.
