data_PCOD8309771
_publ_section_title
;
Structure prediction by ZEFSAII (Michael W. Deem and Ramdas Pophale) SiO2 
 PCOD8309771
Probable space group: P -4 M 2
;
_chemical_formula_sum "Si O2"
_cell_formula_units_Z 44
_cell_length_a 9.549085
_cell_length_b 9.549085
_cell_length_c 27.481524
_cell_angle_alpha 90.000000
_cell_angle_beta 90.000000
_cell_angle_gamma 90.000000
_cell_volume 2505.903435
_symmetry_space_group_name_H-M "P -4 M 2"
_symmetry_group_IT_number 115
_symmetry_cell_setting 'tetragonal'
loop_
_space_group_symop_operation_xyz
x,y,z
y,-x,-z
-x,-y,z
-y,x,-z
y,x,-z
-y,-x,-z
-x,y,z
x,-y,z
loop_
_atom_site_type_symbol
_atom_site_label
_atom_site_fract_x
_atom_site_fract_y
_atom_site_fract_z
Si Si1 0.658322 0.835575 0.853197
Si Si2 0.840418 0.663496 0.668510
Si Si3 0.836773 0.662838 0.405920
Si Si4 0.342301 0.837542 0.219632
Si Si5 0.838731 0.161270 0.500000
Si Si6 0.335269 0.841146 0.962873
O O1 0.500000 0.784376 0.844606
O O2 0.756475 0.761917 0.814804
O O3 0.706071 0.797634 0.907967
O O4 0.669691 0.000000 0.844803
O O5 0.817596 0.500000 0.658009
O O6 0.730069 0.751391 0.637916
O O7 0.809926 0.698830 0.724582
O O8 0.000000 0.705758 0.655093
O O9 0.797341 0.500000 0.410898
O O10 0.794388 0.740584 0.455482
O O11 0.000000 0.683818 0.394703
O O12 0.500000 0.785165 0.209986
O O13 0.329418 0.000000 0.207192
O O14 0.000000 0.186365 0.515101
O O15 0.500000 0.826040 0.970277
O O16 0.287720 0.000000 0.973149
O O17 0.260126 0.739875 0.000000
#
# Coordination Sequence:
#
# PCOD8309771 Si02
#       6
#     8   8   8   8   4   8
#     4   9  19  35  52  72 101 134 166 203 249 299
#     4   9  19  36  55  74 100 135 171 207 249 296
#     4  10  21  35  52  78 108 134 165 207 252 298
#     4   9  19  35  53  75 102 131 167 209 250 295
#     4   9  18  34  54  73  98 136 176 209 244 291
#     4   9  19  35  52  72 100 132 166 205 249 297
#
# _framework density 17.558536
#
# number of rings (size 3 to 8) (size 9 to 14) (size 15 to 20)
#    0.000    2.818    0.000    2.727    0.000    6.182 
#    0.000   12.727    0.000    0.000    0.000    0.000 
#    0.000    0.000    0.000    0.000    0.000    0.000 
#
# Total GULP energy -545608.543431 kJ/mol
# GULP energy per Si atom -12400.194169 kJ/mol
# Density = 1.751857 g / cm^3
# Si number density = 17.558536 Si / 1000 Ang^3
#
#
#
# Elastic Constant Matrix: (Units=GPa)
#
#
# Indices 1 2 3 4 5 6 
#
# 1 68.1994 41.7611 63.5522 0.0000 0.0000 0.0000
# 2 41.7611 68.2016 63.5535 0.0000 0.0000 0.0000
# 3 63.5522 63.5535 116.9830 0.0000 0.0000 0.0000
# 4 0.0000 0.0000 0.0000 39.2258 0.0000 0.0000
# 5 0.0000 0.0000 0.0000 0.0000 39.2250 0.0000
# 6 0.0000 0.0000 0.0000 0.0000 0.0000 28.6502
#
#
#
# Elastic Compliance Matrix: (Units=1/GPa)
#
#
# Indices 1 2 3 4 5 6 
#
# 1 0.031134 -0.006689 -0.013280 0.000000 0.000000 0.000000
# 2 -0.006689 0.031133 -0.013280 0.000000 0.000000 0.000000
# 3 -0.013280 -0.013280 0.022977 0.000000 0.000000 0.000000
# 4 0.000000 0.000000 0.000000 0.025493 0.000000 0.000000
# 5 0.000000 0.000000 0.000000 0.000000 0.025494 0.000000
# 6 0.000000 0.000000 0.000000 0.000000 0.000000 0.034904
#
#
# Mechanical properties :
#
#
# Convention : Reuss Voigt Hill
#
# Bulk Modulus (GPa) = 53.34277 65.67973 59.51125
# Shear Modulus (GPa) = 20.50182 27.05467 23.77824
#
# Velocity S-wave (km/s) = 3.42076 3.92960 3.68397
# Velocity P-wave (km/s) = 6.78587 7.62078 7.21541
#
# Compressibility (1/GPa) = 0.01874668
#
# Stress axis : x y z
#
# Youngs Moduli (GPa) = 32.11959 32.12026 43.52166
#
# Poissons Ratio (x) = 0.21486 0.57795
# Poissons Ratio (y) = 0.21485 0.57796
# Poissons Ratio (z) = 0.42654 0.42655
#
# Static dielectric constant tensor:
#      x y z
#    x 3.206400 0.000000 0.000000 
#    y 0.000000 3.206400 0.000000 
#    z 0.000000 0.000000 3.243570 
# 
# 
# High freq. dielectric constant tensor:
#      x y z
#    x 1.677150 0.000000 0.000000 
#    y 0.000000 1.677150 0.000000 
#    z 0.000000 0.000000 1.684820 
# 
# From -- ./inp_files/5728.got.cif
#   From: 2010.03.12/outbox.cif.g09.slc.cpg/sg115_3_cif.got.tgz:5728.got - 2010.04.14 02:11:21.
