data_PCOD8309828
_publ_section_title
;
Structure prediction by ZEFSAII (Michael W. Deem and Ramdas Pophale) SiO2 
 PCOD8309828
Probable space group: P -4 M 2
;
_chemical_formula_sum "Si O2"
_cell_formula_units_Z 44
_cell_length_a 9.239513
_cell_length_b 9.239513
_cell_length_c 28.376886
_cell_angle_alpha 90.000000
_cell_angle_beta 90.000000
_cell_angle_gamma 90.000000
_cell_volume 2422.495044
_symmetry_space_group_name_H-M "P -4 M 2"
_symmetry_group_IT_number 115
_symmetry_cell_setting 'tetragonal'
loop_
_space_group_symop_operation_xyz
x,y,z
y,-x,-z
-x,-y,z
-y,x,-z
y,x,-z
-y,-x,-z
-x,y,z
x,-y,z
loop_
_atom_site_type_symbol
_atom_site_label
_atom_site_fract_x
_atom_site_fract_y
_atom_site_fract_z
Si Si1 0.169926 0.666749 0.540496
Si Si2 0.327655 0.163409 0.726311
Si Si3 0.167838 0.832163 0.000000
Si Si4 0.667310 0.667685 0.634722
Si Si5 0.672499 0.663563 0.816198
Si Si6 0.669455 0.832934 0.907490
O O1 0.233433 0.766568 0.500000
O O2 0.207855 0.500000 0.529307
O O3 0.240398 0.714752 0.589651
O O4 0.000000 0.692650 0.543994
O O5 0.500000 0.164558 0.727974
O O6 0.273817 0.240109 0.678657
O O7 0.265370 0.250378 0.771135
O O8 0.267623 0.000000 0.727713
O O9 0.224951 0.747239 0.045633
O O10 0.000000 0.800330 0.991273
O O11 0.500000 0.701973 0.623839
O O12 0.689510 0.500000 0.647377
O O13 0.500000 0.665423 0.815013
O O14 0.731904 0.500000 0.814911
O O15 0.728681 0.741089 0.863482
O O16 0.500000 0.810057 0.914738
O O17 0.707708 0.000000 0.897710
#
# Coordination Sequence:
#
# PCOD8309828 Si02
#       6
#     8   8   4   8   8   8
#     4  10  21  36  54  76 102 133 168 206 249 297
#     4   9  16  26  43  68  96 125 158 196 236 280
#     4   9  18  32  48  65  88 120 154 187 226 274
#     4   9  17  30  49  72  97 125 158 198 243 288
#     4   9  16  26  42  66  95 123 151 188 235 281
#     4   9  17  29  45  65  89 117 149 186 228 273
#
# _framework density 18.163091000000001
#
# number of rings (size 3 to 8) (size 9 to 14) (size 15 to 20)
#    0.000    2.818    0.000    1.636    0.000    6.909 
#    0.000    1.818    0.000    1.091    0.000    0.000 
#    0.000    0.000    0.000    0.000    0.000    0.000 
#
# Total GULP energy -545651.034034 kJ/mol
# GULP energy per Si atom -12401.159864 kJ/mol
# Density = 1.812175 g / cm^3
# Si number density = 18.163091 Si / 1000 Ang^3
#
#
#
# Elastic Constant Matrix: (Units=GPa)
#
#
# Indices 1 2 3 4 5 6 
#
# 1 73.5313 34.3240 74.3185 0.0000 0.0000 0.0000
# 2 34.3240 73.5308 74.3167 0.0000 0.0000 0.0000
# 3 74.3185 74.3167 196.1395 0.0000 0.0000 0.0000
# 4 0.0000 0.0000 0.0000 8.7857 0.0000 0.0000
# 5 0.0000 0.0000 0.0000 0.0000 8.7875 0.0000
# 6 0.0000 0.0000 0.0000 0.0000 0.0000 14.2619
#
#
#
# Elastic Compliance Matrix: (Units=1/GPa)
#
#
# Indices 1 2 3 4 5 6 
#
# 1 0.022455 -0.003051 -0.007352 0.000000 0.000000 0.000000
# 2 -0.003051 0.022454 -0.007352 0.000000 0.000000 0.000000
# 3 -0.007352 -0.007352 0.010670 0.000000 0.000000 0.000000
# 4 0.000000 0.000000 0.000000 0.113822 0.000000 0.000000
# 5 0.000000 0.000000 0.000000 0.000000 0.113798 0.000000
# 6 0.000000 0.000000 0.000000 0.000000 0.000000 0.070117
#
#
# Mechanical properties :
#
#
# Convention : Reuss Voigt Hill
#
# Bulk Modulus (GPa) = 49.82869 78.79110 64.30989
# Shear Modulus (GPa) = 12.64173 17.04984 14.84579
#
# Velocity S-wave (km/s) = 2.64107 3.06716 2.86205
# Velocity P-wave (km/s) = 6.06580 7.48447 6.81216
#
# Compressibility (1/GPa) = 0.02006876
#
# Stress axis : x y z
#
# Youngs Moduli (GPa) = 44.53397 44.53475 93.72239
#
# Poissons Ratio (x) = 0.13588 0.68907
# Poissons Ratio (y) = 0.13587 0.68903
# Poissons Ratio (z) = 0.32742 0.32741
#
# Static dielectric constant tensor:
#      x y z
#    x 3.172020 0.000000 0.000000 
#    y 0.000000 3.172020 0.000000 
#    z 0.000000 0.000000 3.556890 
# 
# 
# High freq. dielectric constant tensor:
#      x y z
#    x 1.680040 0.000000 0.000000 
#    y 0.000000 1.680040 0.000000 
#    z 0.000000 0.000000 1.719250 
# 
# From -- ./inp_files/5702.got.cif
#   From: 2010.03.12/outbox.cif.g09.slc.cpg/sg115_3_cif.got.tgz:5702.got - 2010.04.14 02:11:21.
