data_PCOD8309500
_publ_section_title
;
Structure prediction by ZEFSAII (Michael W. Deem and Ramdas Pophale) SiO2 
 PCOD8309500
Probable space group: P -4 M 2
;
_chemical_formula_sum "Si O2"
_cell_formula_units_Z 48
_cell_length_a 9.031085
_cell_length_b 9.031085
_cell_length_c 30.917316
_cell_angle_alpha 90.000000
_cell_angle_beta 90.000000
_cell_angle_gamma 90.000000
_cell_volume 2521.631637
_symmetry_space_group_name_H-M "P -4 M 2"
_symmetry_group_IT_number 115
_symmetry_cell_setting 'tetragonal'
loop_
_space_group_symop_operation_xyz
x,y,z
y,-x,-z
-x,-y,z
-y,x,-z
y,x,-z
-y,-x,-z
-x,y,z
x,-y,z
loop_
_atom_site_type_symbol
_atom_site_label
_atom_site_fract_x
_atom_site_fract_y
_atom_site_fract_z
Si Si1 0.669203 0.674326 0.284195
Si Si2 0.170584 0.674018 0.882013
Si Si3 0.665201 0.323202 0.547180
Si Si4 0.827957 0.170248 0.207037
Si Si5 0.834496 0.323809 0.629925
Si Si6 0.672391 0.826894 0.960256
O O1 0.500000 0.725281 0.275598
O O2 0.680519 0.500000 0.288330
O O3 0.772171 0.727987 0.245608
O O4 0.731059 0.742152 0.328770
O O5 0.198983 0.500000 0.881323
O O6 0.215063 0.739130 0.835739
O O7 0.277426 0.746979 0.916787
O O8 0.000000 0.711130 0.893368
O O9 0.727243 0.272758 0.500000
O O10 0.500000 0.261157 0.554567
O O11 0.661842 0.500000 0.547975
O O12 0.766308 0.258479 0.585605
O O13 0.000000 0.200681 0.198525
O O14 0.797670 0.000000 0.219345
O O15 0.831541 0.500000 0.627771
O O16 0.000000 0.262046 0.634529
O O17 0.500000 0.795024 0.968497
O O18 0.704933 0.000000 0.955676
O O19 0.764810 0.764810 0.000000
#
# Coordination Sequence:
#
# PCOD8309500 Si02
#       6
#     8   8   8   8   8   8
#     4  10  20  33  51  76 105 137 174 217 264 312
#     4  10  21  38  61  87 113 143 181 223 267 317
#     4   8  13  22  38  61  89 121 158 201 249 302
#     4  10  21  37  57  80 107 141 179 218 264 318
#     4   9  16  26  43  68  97 128 164 208 256 306
#     4  11  24  40  59  85 116 150 188 228 271 319
#
# _framework density 19.035291999999998
#
# number of rings (size 3 to 8) (size 9 to 14) (size 15 to 20)
#    0.000    2.333    0.000    3.500    0.000    9.000 
#    0.000    0.000    0.000    1.000    0.000    2.333 
#    0.000    0.000    0.000    0.000    0.000    0.000 
#
# Total GULP energy -595260.862536 kJ/mol
# GULP energy per Si atom -12401.267969 kJ/mol
# Density = 1.899197 g / cm^3
# Si number density = 19.035292 Si / 1000 Ang^3
#
#
#
# Elastic Constant Matrix: (Units=GPa)
#
#
# Indices 1 2 3 4 5 6 
#
# 1 76.6315 35.4886 54.4867 0.0000 0.0000 0.0000
# 2 35.4886 76.6316 54.4868 0.0000 0.0000 0.0000
# 3 54.4867 54.4868 149.7862 0.0000 0.0000 0.0000
# 4 0.0000 0.0000 0.0000 203.5390 0.0000 0.0000
# 5 0.0000 0.0000 0.0000 0.0000 203.5521 0.0000
# 6 0.0000 0.0000 0.0000 0.0000 0.0000 22.8987
#
#
#
# Elastic Compliance Matrix: (Units=1/GPa)
#
#
# Indices 1 2 3 4 5 6 
#
# 1 0.019051 -0.005254 -0.005019 0.000000 0.000000 0.000000
# 2 -0.005254 0.019051 -0.005019 0.000000 0.000000 0.000000
# 3 -0.005019 -0.005019 0.010328 0.000000 0.000000 0.000000
# 4 0.000000 0.000000 0.000000 0.004913 0.000000 0.000000
# 5 0.000000 0.000000 0.000000 0.000000 0.004913 0.000000
# 6 0.000000 0.000000 0.000000 0.000000 0.000000 0.043671
#
#
# Mechanical properties :
#
#
# Convention : Reuss Voigt Hill
#
# Bulk Modulus (GPa) = 56.03451 65.77483 60.90467
# Shear Modulus (GPa) = 36.11179 96.57044 66.34111
#
# Velocity S-wave (km/s) = 4.36029 7.13039 5.90993
# Velocity P-wave (km/s) = 7.40612 10.12023 8.86763
#
# Compressibility (1/GPa) = 0.01784615
#
# Stress axis : x y z
#
# Youngs Moduli (GPa) = 52.48994 52.49004 96.82866
#
# Poissons Ratio (x) = 0.27580 0.48597
# Poissons Ratio (y) = 0.27580 0.48597
# Poissons Ratio (z) = 0.26344 0.26344
#
# Static dielectric constant tensor:
#      x y z
#    x 3.306850 0.000000 0.000000 
#    y 0.000000 3.306860 0.000000 
#    z 0.000000 0.000000 3.825620 
# 
# 
# High freq. dielectric constant tensor:
#      x y z
#    x 1.723000 0.000000 0.000000 
#    y 0.000000 1.723000 0.000000 
#    z 0.000000 0.000000 1.758250 
# 
# From -- ./inp_files/6053.got.cif
#   From: 2010.03.12/outbox.cif.g09.slc.cpg/sg115_4_cif.got.tgz:6053.got - 2010.04.14 02:11:21.
