data_PCOD8309485
_publ_section_title
;
Structure prediction by ZEFSAII (Michael W. Deem and Ramdas Pophale) SiO2 
 PCOD8309485
Probable space group: P -4 M 2
;
_chemical_formula_sum "Si O2"
_cell_formula_units_Z 48
_cell_length_a 9.099362
_cell_length_b 9.099362
_cell_length_c 30.743686
_cell_angle_alpha 90.000000
_cell_angle_beta 90.000000
_cell_angle_gamma 90.000000
_cell_volume 2545.527667
_symmetry_space_group_name_H-M "P -4 M 2"
_symmetry_group_IT_number 115
_symmetry_cell_setting 'tetragonal'
loop_
_space_group_symop_operation_xyz
x,y,z
y,-x,-z
-x,-y,z
-y,x,-z
y,x,-z
-y,-x,-z
-x,y,z
x,-y,z
loop_
_atom_site_type_symbol
_atom_site_label
_atom_site_fract_x
_atom_site_fract_y
_atom_site_fract_z
Si Si1 0.665997 0.174518 0.461455
Si Si2 0.171659 0.170777 0.281400
Si Si3 0.837602 0.825600 0.378638
Si Si4 0.828737 0.829536 0.126791
Si Si5 0.168950 0.672212 0.961615
Si Si6 0.668507 0.326593 0.204779
O O1 0.762889 0.237112 0.500000
O O2 0.500000 0.230525 0.466329
O O3 0.726462 0.234275 0.415211
O O4 0.676291 0.000000 0.463417
O O5 0.213261 0.221623 0.330381
O O6 0.271652 0.266802 0.250179
O O7 0.000000 0.199791 0.272051
O O8 0.208310 0.000000 0.273981
O O9 0.000000 0.761599 0.388501
O O10 0.845363 0.000000 0.379941
O O11 0.750444 0.780160 0.082510
O O12 0.764316 0.736174 0.165808
O O13 0.000000 0.795091 0.122035
O O14 0.799139 0.000000 0.136808
O O15 0.192922 0.500000 0.955588
O O16 0.000000 0.710971 0.972407
O O17 0.271055 0.728945 0.000000
O O18 0.500000 0.277250 0.198931
O O19 0.684756 0.500000 0.204842
#
# Coordination Sequence:
#
# PCOD8309485 Si02
#       6
#     8   8   8   8   8   8
#     4  10  20  33  51  76 104 135 173 214 258 311
#     4   9  18  34  57  83 107 133 171 217 264 316
#     4   8  15  30  53  79 104 131 168 216 264 309
#     4  10  21  38  61  85 107 137 181 229 272 315
#     4  10  21  37  58  84 113 145 180 218 264 317
#     4  11  24  38  52  76 111 147 181 217 261 315
#
# _framework density 18.856598999999999
#
# number of rings (size 3 to 8) (size 9 to 14) (size 15 to 20)
#    0.000    2.333    0.000    3.500    0.000    8.000 
#    0.000    2.500    0.000    1.000    0.000    0.000 
#    0.000    0.000    0.000    0.000    0.000    0.000 
#
# Total GULP energy -595267.202149 kJ/mol
# GULP energy per Si atom -12401.400045 kJ/mol
# Density = 1.881368 g / cm^3
# Si number density = 18.856599 Si / 1000 Ang^3
#
#
#
# Elastic Constant Matrix: (Units=GPa)
#
#
# Indices 1 2 3 4 5 6 
#
# 1 67.9737 40.6023 53.8991 0.0000 0.0000 0.0000
# 2 40.6023 67.9764 53.8997 0.0000 0.0000 0.0000
# 3 53.8991 53.8997 145.6995 0.0000 0.0000 0.0000
# 4 0.0000 0.0000 0.0000 -13.6020 0.0000 0.0000
# 5 0.0000 0.0000 0.0000 0.0000 -13.6002 0.0000
# 6 0.0000 0.0000 0.0000 0.0000 0.0000 26.5668
#
#
#
# Elastic Compliance Matrix: (Units=1/GPa)
#
#
# Indices 1 2 3 4 5 6 
#
# 1 0.025545 -0.010988 -0.005385 0.000000 0.000000 0.000000
# 2 -0.010988 0.025544 -0.005385 0.000000 0.000000 0.000000
# 3 -0.005385 -0.005385 0.010848 0.000000 0.000000 0.000000
# 4 0.000000 0.000000 0.000000 -0.073519 0.000000 0.000000
# 5 0.000000 0.000000 0.000000 0.000000 -0.073529 0.000000
# 6 0.000000 0.000000 0.000000 0.000000 0.000000 0.037641
#
#
# Mechanical properties :
#
#
# Convention : Reuss Voigt Hill
#
# Bulk Modulus (GPa) = 54.28702 64.27242 59.27972
# Shear Modulus (GPa) = 2286.74919 8.75616 1147.75268
#
# Velocity S-wave (km/s) = 34.86169 2.15723 24.69809
# Velocity P-wave (km/s) = 40.61160 6.35324 29.06601
#
# Compressibility (1/GPa) = 0.01842061
#
# Stress axis : x y z
#
# Youngs Moduli (GPa) = 39.14643 39.14824 92.18656
#
# Poissons Ratio (x) = 0.43017 0.49643
# Poissons Ratio (y) = 0.43015 0.49640
# Poissons Ratio (z) = 0.21080 0.21080
#
# Static dielectric constant tensor:
#      x y z
#    x 3.400040 0.000000 0.000000 
#    y 0.000000 3.400040 0.000000 
#    z 0.000000 0.000000 3.688800 
# 
# 
# High freq. dielectric constant tensor:
#      x y z
#    x 1.722230 0.000000 0.000000 
#    y 0.000000 1.722230 0.000000 
#    z 0.000000 0.000000 1.749250 
# 
# From -- ./inp_files/6077.got.cif
#   From: 2010.03.12/outbox.cif.g09.slc.cpg/sg115_4_cif.got.tgz:6077.got - 2010.04.14 02:11:21.
