data_PCOD8309312
_publ_section_title
;
Structure prediction by ZEFSAII (Michael W. Deem and Ramdas Pophale) SiO2 
 PCOD8309312
Probable space group: P -4 M 2
;
_chemical_formula_sum "Si O2"
_cell_formula_units_Z 48
_cell_length_a 8.116786
_cell_length_b 8.116786
_cell_length_c 34.264200
_cell_angle_alpha 90.000000
_cell_angle_beta 90.000000
_cell_angle_gamma 90.000000
_cell_volume 2257.401390
_symmetry_space_group_name_H-M "P -4 M 2"
_symmetry_group_IT_number 115
_symmetry_cell_setting 'tetragonal'
loop_
_space_group_symop_operation_xyz
x,y,z
y,-x,-z
-x,-y,z
-y,x,-z
y,x,-z
-y,-x,-z
-x,y,z
x,-y,z
loop_
_atom_site_type_symbol
_atom_site_label
_atom_site_fract_x
_atom_site_fract_y
_atom_site_fract_z
Si Si1 0.303841 0.816790 0.657264
Si Si2 0.191588 0.191588 0.000000
Si Si3 0.687428 0.684559 0.423070
Si Si4 0.695922 0.500000 0.704450
Si Si5 0.806388 0.686169 0.918985
Si Si6 0.815853 0.815853 0.500000
Si Si7 0.805929 0.500000 0.792717
Si Si8 0.803635 0.182160 0.838547
O O1 0.500000 0.805475 0.656993
O O2 0.239817 0.792484 0.612764
O O3 0.234775 0.668112 0.684227
O O4 0.246326 0.000000 0.671767
O O5 0.273487 0.267742 0.960823
O O6 0.000000 0.230861 0.001666
O O7 0.500000 0.685722 0.408560
O O8 0.747651 0.500000 0.432557
O O9 0.700136 0.785872 0.462938
O O10 0.500000 0.500000 0.703634
O O11 0.761257 0.500000 0.747859
O O12 0.762912 0.500000 0.908147
O O13 0.739333 0.795799 0.883089
O O14 0.000000 0.715481 0.923036
O O15 0.000000 0.785886 0.484879
O O16 0.732283 0.331698 0.811980
O O17 0.000000 0.500000 0.798985
O O18 0.000000 0.190923 0.837785
O O19 0.744424 0.000000 0.823836
#
# Coordination Sequence:
#
# PCOD8309312 Si02
#       8
#     8   4   8   4   8   4   4   8
#     4   9  17  32  56  82 107 138 177 225 276 328
#     4   9  16  24  38  65  94 116 148 199 250 294
#     4  10  19  34  57  82 104 132 179 231 274 323
#     4  10  20  36  56  80 108 140 180 222 268 338
#     4   9  15  25  42  65  94 127 165 208 254 306
#     4  11  24  37  48  72 112 151 184 219 264 324
#     4  10  20  34  52  78 108 136 174 222 276 332
#     4   9  16  28  48  73 102 136 173 217 271 328
#
# _framework density 21.263389
#
# number of rings (size 3 to 8) (size 9 to 14) (size 15 to 20)
#    0.000    2.500    1.667    1.500    0.000    5.333 
#    0.000    0.833    0.000    2.250    0.000    0.000 
#    0.000    0.000    0.000    0.000    0.000    0.000 
#
# Total GULP energy -594821.775902 kJ/mol
# GULP energy per Si atom -12392.120331 kJ/mol
# Density = 2.121499 g / cm^3
# Si number density = 21.263389 Si / 1000 Ang^3
#
#
#
# Elastic Constant Matrix: (Units=GPa)
#
#
# Indices 1 2 3 4 5 6 
#
# 1 3.0795 94.4955 43.3803 0.0000 0.0000 0.0000
# 2 94.4955 3.0795 43.3803 0.0000 0.0000 0.0000
# 3 43.3803 43.3803 149.0933 0.0000 0.0000 0.0000
# 4 0.0000 0.0000 0.0000 27.0097 0.0000 0.0000
# 5 0.0000 0.0000 0.0000 0.0000 27.0097 0.0000
# 6 0.0000 0.0000 0.0000 0.0000 0.0000 8.8560
#
#
#
# Elastic Compliance Matrix: (Units=1/GPa)
#
#
# Indices 1 2 3 4 5 6 
#
# 1 0.001443 0.012382 -0.004023 0.000000 0.000000 0.000000
# 2 0.012382 0.001443 -0.004023 0.000000 0.000000 0.000000
# 3 -0.004023 -0.004023 0.009048 0.000000 0.000000 0.000000
# 4 0.000000 0.000000 0.000000 0.037024 0.000000 0.000000
# 5 0.000000 0.000000 0.000000 0.000000 0.037024 0.000000
# 6 0.000000 0.000000 0.000000 0.000000 0.000000 0.112918
#
#
# Mechanical properties :
#
#
# Convention : Reuss Voigt Hill
#
# Bulk Modulus (GPa) = 48.52438 57.52940 53.02689
# Shear Modulus (GPa) = 25.36845 10.84149 18.10497
#
# Velocity S-wave (km/s) = 3.45781 2.26047 2.92115
# Velocity P-wave (km/s) = 6.22994 5.82472 6.03073
#
# Compressibility (1/GPa) = 0.02060820
#
# Stress axis : x y z
#
# Youngs Moduli (GPa) = 692.92676 692.92676 110.52090
#
# Poissons Ratio (x) = -8.57994 0.44458
# Poissons Ratio (y) = -8.57994 0.44458
# Poissons Ratio (z) = 2.78739 2.78739
#
# Static dielectric constant tensor:
#      x y z
#    x 3.672320 0.000000 0.000000 
#    y 0.000000 3.672320 0.000000 
#    z 0.000000 0.000000 4.043470 
# 
# 
# High freq. dielectric constant tensor:
#      x y z
#    x 1.806320 0.000000 0.000000 
#    y 0.000000 1.806320 0.000000 
#    z 0.000000 0.000000 1.836120 
# 
# From -- ./inp_files/6296.got.cif
#   From: 2010.03.12/outbox.cif.g09.slc.cpg/sg115_4_cif.got.tgz:6296.got - 2010.04.14 02:11:21.
