data_PCOD8309199
_publ_section_title
;
Structure prediction by ZEFSAII (Michael W. Deem and Ramdas Pophale) SiO2 
 PCOD8309199
Probable space group: P -4 M 2
;
_chemical_formula_sum "Si O2"
_cell_formula_units_Z 48
_cell_length_a 16.493227
_cell_length_b 16.493227
_cell_length_c 10.418622
_cell_angle_alpha 90.000000
_cell_angle_beta 90.000000
_cell_angle_gamma 90.000000
_cell_volume 2834.141662
_symmetry_space_group_name_H-M "P -4 M 2"
_symmetry_group_IT_number 115
_symmetry_cell_setting 'tetragonal'
loop_
_space_group_symop_operation_xyz
x,y,z
y,-x,-z
-x,-y,z
-y,x,-z
y,x,-z
-y,-x,-z
-x,y,z
x,-y,z
loop_
_atom_site_type_symbol
_atom_site_label
_atom_site_fract_x
_atom_site_fract_y
_atom_site_fract_z
Si Si1 0.912592 0.147226 0.625887
Si Si2 0.222090 0.282224 0.629228
Si Si3 0.286661 0.217951 0.879321
Si Si4 0.908314 0.404990 0.017435
Si Si5 0.595536 0.092864 0.277607
Si Si6 0.913050 0.148610 0.124087
O O1 0.908057 0.091944 0.500000
O O2 0.840862 0.210279 0.627251
O O3 0.906926 0.090645 0.750145
O O4 0.000000 0.191890 0.627547
O O5 0.277574 0.277574 0.500000
O O6 0.284979 0.271300 0.748517
O O7 0.165000 0.362410 0.639808
O O8 0.365461 0.160447 0.892075
O O9 0.211095 0.159163 0.877497
O O10 0.279378 0.279378 0.000000
O O11 0.895117 0.500000 0.027854
O O12 0.000000 0.382280 0.062280
O O13 0.896582 0.376067 0.870190
O O14 0.500000 0.106168 0.291395
O O15 0.617279 0.000000 0.322227
O O16 0.000000 0.194054 0.122417
O O17 0.908299 0.091702 0.000000
#
# Coordination Sequence:
#
# PCOD8309199 Si02
#       6
#     8   8   8   8   8   8
#     4  10  20  31  43  57  79 117 159 197 234 271
#     4  10  20  33  48  70  99 129 162 200 243 298
#     4  10  18  31  48  68  94 123 158 199 245 296
#     4   9  17  30  51  77 102 130 167 212 258 302
#     4   9  17  31  53  77 100 130 169 210 251 301
#     4  10  20  29  39  57  80 111 149 193 238 273
#
# _framework density 16.936343999999998
#
# number of rings (size 3 to 8) (size 9 to 14) (size 15 to 20)
#    0.000    2.333    1.667    3.000    0.000    2.000 
#    0.000    3.333    0.000    2.000    0.000    0.000 
#    0.000    4.000    0.000    0.000    0.000    0.000 
#
# Total GULP energy -594650.980466 kJ/mol
# GULP energy per Si atom -12388.562093 kJ/mol
# Density = 1.689780 g / cm^3
# Si number density = 16.936344 Si / 1000 Ang^3
#
#
#
# Elastic Constant Matrix: (Units=GPa)
#
#
# Indices 1 2 3 4 5 6 
#
# 1 59.2973 18.6258 30.9470 0.0000 0.0000 0.0000
# 2 18.6258 59.2976 30.9473 0.0000 0.0000 0.0000
# 3 30.9470 30.9473 120.7283 0.0000 0.0000 0.0000
# 4 0.0000 0.0000 0.0000 224.1369 0.0000 0.0000
# 5 0.0000 0.0000 0.0000 0.0000 223.9562 0.0000
# 6 0.0000 0.0000 0.0000 0.0000 0.0000 30.4128
#
#
#
# Elastic Compliance Matrix: (Units=1/GPa)
#
#
# Indices 1 2 3 4 5 6 
#
# 1 0.020351 -0.004237 -0.004131 0.000000 0.000000 0.000000
# 2 -0.004237 0.020351 -0.004131 0.000000 0.000000 0.000000
# 3 -0.004131 -0.004131 0.010401 0.000000 0.000000 0.000000
# 4 0.000000 0.000000 0.000000 0.004462 0.000000 0.000000
# 5 0.000000 0.000000 0.000000 0.000000 0.004465 0.000000
# 6 0.000000 0.000000 0.000000 0.000000 0.000000 0.032881
#
#
# Mechanical properties :
#
#
# Convention : Reuss Voigt Hill
#
# Bulk Modulus (GPa) = 38.30482 44.48483 41.39483
# Shear Modulus (GPa) = 39.49219 106.28805 72.89012
#
# Velocity S-wave (km/s) = 4.83411 7.93055 6.56743
# Velocity P-wave (km/s) = 7.33650 10.49672 9.05553
#
# Compressibility (1/GPa) = 0.02610637
#
# Stress axis : x y z
#
# Youngs Moduli (GPa) = 49.13848 49.13859 96.14697
#
# Poissons Ratio (x) = 0.20818 0.39715
# Poissons Ratio (y) = 0.20818 0.39715
# Poissons Ratio (z) = 0.20297 0.20298
#
# Static dielectric constant tensor:
#      x y z
#    x 2.922600 0.000000 0.000000 
#    y 0.000000 2.922590 0.000000 
#    z 0.000000 0.000000 3.718690 
# 
# 
# High freq. dielectric constant tensor:
#      x y z
#    x 1.626680 0.000000 0.000000 
#    y 0.000000 1.626680 0.000000 
#    z 0.000000 0.000000 1.652150 
# 
# From -- ./inp_files/1842.got.cif
#   From: 2010.03.12/outbox.cif.g09.slc.cpg/sg115_1_cif.got.tgz:1842.got - 2010.04.14 02:11:21.
