data_PCOD8309494
_publ_section_title
;
Structure prediction by ZEFSAII (Michael W. Deem and Ramdas Pophale) SiO2 
 PCOD8309494
Probable space group: P -4 M 2
;
_chemical_formula_sum "Si O2"
_cell_formula_units_Z 40
_cell_length_a 9.221644
_cell_length_b 9.221644
_cell_length_c 25.677598
_cell_angle_alpha 90.000000
_cell_angle_beta 90.000000
_cell_angle_gamma 90.000000
_cell_volume 2183.590017
_symmetry_space_group_name_H-M "P -4 M 2"
_symmetry_group_IT_number 115
_symmetry_cell_setting 'tetragonal'
loop_
_space_group_symop_operation_xyz
x,y,z
y,-x,-z
-x,-y,z
-y,x,-z
y,x,-z
-y,-x,-z
-x,y,z
x,-y,z
loop_
_atom_site_type_symbol
_atom_site_label
_atom_site_fract_x
_atom_site_fract_y
_atom_site_fract_z
Si Si1 0.667124 0.332661 0.148656
Si Si2 0.661375 0.327576 0.556692
Si Si3 0.667000 0.829681 0.044983
Si Si4 0.830039 0.332324 0.252229
Si Si5 0.830139 0.331615 0.656959
O O1 0.500000 0.303592 0.163001
O O2 0.694530 0.500000 0.134529
O O3 0.717083 0.238186 0.099602
O O4 0.763284 0.282931 0.197335
O O5 0.722622 0.277379 0.500000
O O6 0.500000 0.264356 0.566987
O O7 0.654070 0.500000 0.555581
O O8 0.766478 0.272680 0.602356
O O9 0.500000 0.789579 0.033465
O O10 0.691665 0.000000 0.048034
O O11 0.765938 0.765938 0.000000
O O12 0.793189 0.500000 0.263234
O O13 0.760475 0.236710 0.296912
O O14 0.000000 0.303034 0.250401
O O15 0.790493 0.500000 0.665422
O O16 0.000000 0.305408 0.655803
#
# Coordination Sequence:
#
# PCOD8309494 Si02
#       5
#     8   8   8   8   8
#     4   9  18  34  56  79 103 134 173 216 259 303
#     4   8  14  27  49  74  98 128 169 215 258 299
#     4  10  21  36  55  80 109 140 174 212 254 302
#     4  10  21  36  54  77 104 135 172 213 258 307
#     4  10  20  33  51  76 105 137 172 210 254 305
#
# _framework density 18.318456000000001
#
# number of rings (size 3 to 8) (size 9 to 14) (size 15 to 20)
#    0.000    2.600    0.000    2.400    0.000    5.200 
#    0.000    5.000    0.000    3.600    0.000    0.000 
#    0.000    0.000    0.000    0.000    0.000    0.000 
#
# Total GULP energy -496041.842230 kJ/mol
# GULP energy per Si atom -12401.046056 kJ/mol
# Density = 1.827676 g / cm^3
# Si number density = 18.318456 Si / 1000 Ang^3
#
#
#
# Elastic Constant Matrix: (Units=GPa)
#
#
# Indices 1 2 3 4 5 6 
#
# 1 74.7523 47.2752 77.0668 0.0000 0.0000 0.0000
# 2 47.2752 74.7525 77.0669 0.0000 0.0000 0.0000
# 3 77.0668 77.0669 180.5834 0.0000 0.0000 0.0000
# 4 0.0000 0.0000 0.0000 -6.6738 0.0000 0.0000
# 5 0.0000 0.0000 0.0000 0.0000 -6.6737 0.0000
# 6 0.0000 0.0000 0.0000 0.0000 0.0000 22.0902
#
#
#
# Elastic Compliance Matrix: (Units=1/GPa)
#
#
# Indices 1 2 3 4 5 6 
#
# 1 0.027086 -0.009308 -0.007587 0.000000 0.000000 0.000000
# 2 -0.009308 0.027086 -0.007587 0.000000 0.000000 0.000000
# 3 -0.007587 -0.007587 0.012013 0.000000 0.000000 0.000000
# 4 0.000000 0.000000 0.000000 -0.149840 0.000000 0.000000
# 5 0.000000 0.000000 0.000000 0.000000 -0.149842 0.000000
# 6 0.000000 0.000000 0.000000 0.000000 0.000000 0.045269
#
#
# Mechanical properties :
#
#
# Convention : Reuss Voigt Hill
#
# Bulk Modulus (GPa) = 58.06743 81.43401 69.75072
# Shear Modulus (GPa) = -37.44668 10.32717 -13.55975
#
# Velocity S-wave (km/s) = -4.52619 2.37693 -2.72366
# Velocity P-wave (km/s) = 2.11008 7.21694 5.31680
#
# Compressibility (1/GPa) = 0.01722136
#
# Stress axis : x y z
#
# Youngs Moduli (GPa) = 36.91940 36.91951 83.23990
#
# Poissons Ratio (x) = 0.34364 0.63155
# Poissons Ratio (y) = 0.34364 0.63155
# Poissons Ratio (z) = 0.28011 0.28011
#
# Static dielectric constant tensor:
#      x y z
#    x 3.278570 0.000000 0.000000 
#    y 0.000000 3.278570 0.000000 
#    z 0.000000 0.000000 3.638050 
# 
# 
# High freq. dielectric constant tensor:
#      x y z
#    x 1.694820 0.000000 0.000000 
#    y 0.000000 1.694820 0.000000 
#    z 0.000000 0.000000 1.725760 
# 
# From -- ./inp_files/5083.got.cif
#   From: 2010.03.12/outbox.cif.g09.slc.cpg/sg115_3_cif.got.tgz:5083.got - 2010.04.14 02:11:21.
