data_PCOD8309714
_publ_section_title
;
Structure prediction by ZEFSAII (Michael W. Deem and Ramdas Pophale) SiO2 
 PCOD8309714
Probable space group: P -4 M 2
;
_chemical_formula_sum "Si O2"
_cell_formula_units_Z 33
_cell_length_a 8.117757
_cell_length_b 8.117757
_cell_length_c 23.257647
_cell_angle_alpha 90.000000
_cell_angle_beta 90.000000
_cell_angle_gamma 90.000000
_cell_volume 1532.631927
_symmetry_space_group_name_H-M "P -4 M 2"
_symmetry_group_IT_number 115
_symmetry_cell_setting 'tetragonal'
loop_
_space_group_symop_operation_xyz
x,y,z
y,-x,-z
-x,-y,z
-y,x,-z
y,x,-z
-y,-x,-z
-x,y,z
x,-y,z
loop_
_atom_site_type_symbol
_atom_site_label
_atom_site_fract_x
_atom_site_fract_y
_atom_site_fract_z
Si Si1 0.690065 0.000000 0.916407
Si Si2 0.314109 0.683641 0.613064
Si Si3 0.184159 0.184159 0.500000
Si Si4 0.821234 0.189437 0.271773
Si Si5 0.686140 0.804636 0.153705
Si Si6 0.000000 0.000000 0.000000
O O1 0.713072 0.169087 0.880736
O O2 0.500000 0.000000 0.939931
O O3 0.828195 0.000000 0.965617
O O4 0.500000 0.693284 0.635182
O O5 0.258963 0.500000 0.597135
O O6 0.299771 0.786753 0.554651
O O7 0.204524 0.745275 0.665261
O O8 0.000000 0.213375 0.522522
O O9 0.703790 0.253278 0.220454
O O10 0.000000 0.279141 0.269512
O O11 0.849894 0.000000 0.259548
O O12 0.500000 0.753723 0.133770
O O13 0.709637 0.000000 0.145613
#
# Coordination Sequence:
#
# PCOD8309714 Si02
#       6
#     4   8   4   8   8   1
#     4  12  26  46  76 108 142 192 237 285 346 403
#     4  11  24  39  55  81 118 157 201 258 322 387
#     4  11  24  41  60  80 104 143 202 261 320 392
#     4  10  20  36  62  93 127 167 215 264 323 393
#     4  10  20  40  71 103 141 186 231 286 348 409
#     4  12  28  52  76 104 156 188 240 290 336 400
#
# _framework density 21.531590000000001
#
# number of rings (size 3 to 8) (size 9 to 14) (size 15 to 20)
#    0.000    1.333    2.424    2.909    0.000   11.152 
#    0.000    0.000    0.000    0.000    0.000    0.000 
#    0.000    0.000    0.000    0.000    0.000    0.000 
#
# Total GULP energy -408995.803099 kJ/mol
# GULP energy per Si atom -12393.812215 kJ/mol
# Density = 2.148258 g / cm^3
# Si number density = 21.531590 Si / 1000 Ang^3
#
#
#
# Elastic Constant Matrix: (Units=GPa)
#
#
# Indices 1 2 3 4 5 6 
#
# 1 94.5385 56.2207 39.5223 0.0000 0.0000 0.0000
# 2 56.2207 94.5385 39.5223 0.0000 0.0000 0.0000
# 3 39.5223 39.5223 118.6634 0.0000 0.0000 0.0000
# 4 0.0000 0.0000 0.0000 16.2777 0.0000 0.0000
# 5 0.0000 0.0000 0.0000 0.0000 16.2777 0.0000
# 6 0.0000 0.0000 0.0000 0.0000 0.0000 23.7735
#
#
#
# Elastic Compliance Matrix: (Units=1/GPa)
#
#
# Indices 1 2 3 4 5 6 
#
# 1 0.017067 -0.009031 -0.002677 0.000000 0.000000 0.000000
# 2 -0.009031 0.017067 -0.002677 0.000000 0.000000 0.000000
# 3 -0.002677 -0.002677 0.010210 0.000000 0.000000 0.000000
# 4 0.000000 0.000000 0.000000 0.061434 0.000000 0.000000
# 5 0.000000 0.000000 0.000000 0.000000 0.061434 0.000000
# 6 0.000000 0.000000 0.000000 0.000000 0.000000 0.042064
#
#
# Mechanical properties :
#
#
# Convention : Reuss Voigt Hill
#
# Bulk Modulus (GPa) = 64.19908 64.25237 64.22572
# Shear Modulus (GPa) = 20.55622 22.76411 21.66017
#
# Velocity S-wave (km/s) = 3.09318 3.25505 3.17515
# Velocity P-wave (km/s) = 6.52977 6.63573 6.58297
#
# Compressibility (1/GPa) = 0.01557655
#
# Stress axis : x y z
#
# Youngs Moduli (GPa) = 58.59252 58.59252 97.94144
#
# Poissons Ratio (x) = 0.52912 0.26216
# Poissons Ratio (y) = 0.52912 0.26216
# Poissons Ratio (z) = 0.15683 0.15683
#
# Static dielectric constant tensor:
#      x y z
#    x 3.942560 0.000000 0.000000 
#    y 0.000000 3.942560 0.000000 
#    z 0.000000 0.000000 3.664690 
# 
# 
# High freq. dielectric constant tensor:
#      x y z
#    x 1.845320 0.000000 0.000000 
#    y 0.000000 1.845320 0.000000 
#    z 0.000000 0.000000 1.834990 
# 
# From -- ./inp_files/4720.got.cif
#   From: 2010.03.12/outbox.cif.g09.slc.cpg/sg115_3_cif.got.tgz:4720.got - 2010.04.14 02:11:21.
