data_PCOD8309979
_publ_section_title
;
Structure prediction by ZEFSAII (Michael W. Deem and Ramdas Pophale) SiO2 
 PCOD8309979
Probable space group: P -4 M 2
;
_chemical_formula_sum "Si O2"
_cell_formula_units_Z 37
_cell_length_a 12.185963
_cell_length_b 12.185963
_cell_length_c 14.060802
_cell_angle_alpha 90.000000
_cell_angle_beta 90.000000
_cell_angle_gamma 90.000000
_cell_volume 2087.996676
_symmetry_space_group_name_H-M "P -4 M 2"
_symmetry_group_IT_number 115
_symmetry_cell_setting 'tetragonal'
loop_
_space_group_symop_operation_xyz
x,y,z
y,-x,-z
-x,-y,z
-y,x,-z
y,x,-z
-y,-x,-z
-x,y,z
x,-y,z
loop_
_atom_site_type_symbol
_atom_site_label
_atom_site_fract_x
_atom_site_fract_y
_atom_site_fract_z
Si Si1 0.622297 0.870439 0.585020
Si Si2 0.500000 0.622974 0.818350
Si Si3 0.280080 0.741938 0.752280
Si Si4 0.628033 0.119831 0.377674
Si Si5 0.500000 0.500000 0.000000
Si Si6 0.873690 0.875356 0.111337
O O1 0.500000 0.820765 0.599610
O O2 0.700323 0.827503 0.667870
O O3 0.670519 0.837081 0.480950
O O4 0.618054 0.000000 0.593206
O O5 0.500000 0.500000 0.771205
O O6 0.392184 0.689576 0.789599
O O7 0.500000 0.608614 0.933262
O O8 0.203398 0.648487 0.707869
O O9 0.215147 0.800264 0.836890
O O10 0.500000 0.104416 0.390056
O O11 0.680572 0.000000 0.354147
O O12 0.000000 0.856597 0.139682
O O13 0.838773 0.000000 0.138825
O O14 0.856677 0.856677 0.000000
#
# Coordination Sequence:
#
# PCOD8309979 Si02
#       6
#     8   4   8   8   1   8
#     4   9  18  33  50  75 110 141 171 213 266 314
#     4  10  24  38  55  74 107 144 182 232 285 315
#     4  12  19  33  57  83 100 141 187 223 262 323
#     4   9  19  34  52  74 108 146 177 215 261 314
#     4   8  24  48  48  64 110 148 176 232 288 328
#     4   9  20  37  56  81 110 137 170 222 282 331
#
# _framework density 17.720333
#
# number of rings (size 3 to 8) (size 9 to 14) (size 15 to 20)
#    0.324    1.946    1.081    4.541    1.514    0.000 
#    0.000    0.000    0.000    0.000    0.000    9.081 
#    0.000    0.000    0.000    0.000    0.000    0.000 
#
# Total GULP energy -458527.792919 kJ/mol
# GULP energy per Si atom -12392.643052 kJ/mol
# Density = 1.768000 g / cm^3
# Si number density = 17.720333 Si / 1000 Ang^3
#
#
#
# Elastic Constant Matrix: (Units=GPa)
#
#
# Indices 1 2 3 4 5 6 
#
# 1 91.6264 53.6056 55.0316 0.0000 0.0000 0.0000
# 2 53.6056 91.6264 55.0316 0.0000 0.0000 0.0000
# 3 55.0316 55.0316 106.4745 0.0000 0.0000 0.0000
# 4 0.0000 0.0000 0.0000 31.1959 0.0000 0.0000
# 5 0.0000 0.0000 0.0000 0.0000 31.1959 0.0000
# 6 0.0000 0.0000 0.0000 0.0000 0.0000 27.8261
#
#
#
# Elastic Compliance Matrix: (Units=1/GPa)
#
#
# Indices 1 2 3 4 5 6 
#
# 1 0.018810 -0.007491 -0.005850 0.000000 0.000000 0.000000
# 2 -0.007491 0.018810 -0.005850 0.000000 0.000000 0.000000
# 3 -0.005850 -0.005850 0.015439 0.000000 0.000000 0.000000
# 4 0.000000 0.000000 0.000000 0.032055 0.000000 0.000000
# 5 0.000000 0.000000 0.000000 0.000000 0.032055 0.000000
# 6 0.000000 0.000000 0.000000 0.000000 0.000000 0.035937
#
#
# Mechanical properties :
#
#
# Convention : Reuss Voigt Hill
#
# Bulk Modulus (GPa) = 68.13644 68.56275 68.34960
# Shear Modulus (GPa) = 25.46031 26.44750 25.95390
#
# Velocity S-wave (km/s) = 3.79461 3.86747 3.83121
# Velocity P-wave (km/s) = 7.59824 7.66281 7.63059
#
# Compressibility (1/GPa) = 0.01467643
#
# Stress axis : x y z
#
# Youngs Moduli (GPa) = 53.16240 53.16240 64.76913
#
# Poissons Ratio (x) = 0.39824 0.37892
# Poissons Ratio (y) = 0.39824 0.37892
# Poissons Ratio (z) = 0.31102 0.31102
#
# Static dielectric constant tensor:
#      x y z
#    x 3.248110 0.000000 0.000000 
#    y 0.000000 3.248110 0.000000 
#    z 0.000000 0.000000 3.296720 
# 
# 
# High freq. dielectric constant tensor:
#      x y z
#    x 1.679380 0.000000 0.000000 
#    y 0.000000 1.679380 0.000000 
#    z 0.000000 0.000000 1.689120 
# 
# From -- ./inp_files/3634.got.cif
#   From: 2010.03.12/outbox.cif.g09.slc.cpg/sg115_2_cif.got.tgz:3634.got - 2010.04.14 02:11:21.
