data_PCOD8309967
_publ_section_title
;
Structure prediction by ZEFSAII (Michael W. Deem and Ramdas Pophale) SiO2 
 PCOD8309967
Probable space group: P -4 M 2
;
_chemical_formula_sum "Si O2"
_cell_formula_units_Z 13
_cell_length_a 7.524234
_cell_length_b 7.524234
_cell_length_c 11.340114
_cell_angle_alpha 90.000000
_cell_angle_beta 90.000000
_cell_angle_gamma 90.000000
_cell_volume 642.010317
_symmetry_space_group_name_H-M "P -4 M 2"
_symmetry_group_IT_number 115
_symmetry_cell_setting 'tetragonal'
loop_
_space_group_symop_operation_xyz
x,y,z
y,-x,-z
-x,-y,z
-y,x,-z
y,x,-z
-y,-x,-z
-x,y,z
x,-y,z
loop_
_atom_site_type_symbol
_atom_site_label
_atom_site_fract_x
_atom_site_fract_y
_atom_site_fract_z
Si Si1 0.303625 0.710665 0.870876
Si Si2 0.000000 0.288415 0.695386
Si Si3 0.000000 0.000000 0.500000
O O1 0.500000 0.791038 0.845735
O O2 0.314610 0.500000 0.872591
O O3 0.171988 0.774547 0.768857
O O4 0.230592 0.769409 0.000000
O O5 0.000000 0.500000 0.669985
O O6 0.000000 0.181264 0.574401
#
# Coordination Sequence:
#
# PCOD8309967 Si02
#       3
#     8   4   1
#     4   8  15  31  57  86 110 132 164 210 268 329
#     4  10  22  39  55  75 107 142 177 220 262 302
#     4  12  28  40  50  76 104 140 200 230 236 296
#
# _framework density 20.248895999999998
#
# number of rings (size 3 to 8) (size 9 to 14) (size 15 to 20)
#    0.000    3.077    0.000    1.846    0.000    4.923 
#    0.000    3.077    0.000    0.000    0.000    0.000 
#    0.000    0.000    0.000    0.000    0.000    0.000 
#
# Total GULP energy -161114.615373 kJ/mol
# GULP energy per Si atom -12393.431952 kJ/mol
# Density = 2.020281 g / cm^3
# Si number density = 20.248896 Si / 1000 Ang^3
#
#
#
# Elastic Constant Matrix: (Units=GPa)
#
#
# Indices 1 2 3 4 5 6 
#
# 1 100.3843 32.6796 69.5906 0.0000 0.0000 0.0000
# 2 32.6796 100.3839 69.5905 0.0000 0.0000 0.0000
# 3 69.5906 69.5905 165.7201 0.0000 0.0000 0.0000
# 4 0.0000 0.0000 0.0000 32.8827 0.0000 0.0000
# 5 0.0000 0.0000 0.0000 0.0000 32.8844 0.0000
# 6 0.0000 0.0000 0.0000 0.0000 0.0000 11.2840
#
#
#
# Elastic Compliance Matrix: (Units=1/GPa)
#
#
# Indices 1 2 3 4 5 6 
#
# 1 0.014086 -0.000684 -0.005628 0.000000 0.000000 0.000000
# 2 -0.000684 0.014086 -0.005628 0.000000 0.000000 0.000000
# 3 -0.005628 -0.005628 0.010761 0.000000 0.000000 0.000000
# 4 0.000000 0.000000 0.000000 0.030411 0.000000 0.000000
# 5 0.000000 0.000000 0.000000 0.000000 0.030410 0.000000
# 6 0.000000 0.000000 0.000000 0.000000 0.000000 0.088621
#
#
# Mechanical properties :
#
#
# Convention : Reuss Voigt Hill
#
# Bulk Modulus (GPa) = 66.43130 78.91218 72.67174
# Shear Modulus (GPa) = 23.01269 28.38538 25.69903
#
# Velocity S-wave (km/s) = 3.37485 3.74816 3.56639
# Velocity P-wave (km/s) = 6.93287 7.60179 7.27502
#
# Compressibility (1/GPa) = 0.01505315
#
# Stress axis : x y z
#
# Youngs Moduli (GPa) = 70.99328 70.99296 92.93012
#
# Poissons Ratio (x) = 0.04857 0.52299
# Poissons Ratio (y) = 0.04857 0.52299
# Poissons Ratio (z) = 0.39953 0.39953
#
# Static dielectric constant tensor:
#      x y z
#    x 4.000830 0.000000 0.000000 
#    y 0.000000 4.000880 0.000000 
#    z 0.000000 0.000000 3.613320 
# 
# 
# High freq. dielectric constant tensor:
#      x y z
#    x 1.784910 0.000000 0.000000 
#    y 0.000000 1.784910 0.000000 
#    z 0.000000 0.000000 1.772370 
# 
# From -- ./inp_files/849.got.cif
#   From: 2010.03.12/outbox.cif.g09.slc.cpg/sg115_1_cif.got.tgz:849.got - 2010.04.14 02:11:21.
