data_PCOD8309712
_publ_section_title
;
Structure prediction by ZEFSAII (Michael W. Deem and Ramdas Pophale) SiO2 
 PCOD8309712
Probable space group: P -4 M 2
;
_chemical_formula_sum "Si O2"
_cell_formula_units_Z 48
_cell_length_a 8.159483
_cell_length_b 8.159483
_cell_length_c 34.301216
_cell_angle_alpha 90.000000
_cell_angle_beta 90.000000
_cell_angle_gamma 90.000000
_cell_volume 2283.677643
_symmetry_space_group_name_H-M "P -4 M 2"
_symmetry_group_IT_number 115
_symmetry_cell_setting 'tetragonal'
loop_
_space_group_symop_operation_xyz
x,y,z
y,-x,-z
-x,-y,z
-y,x,-z
y,x,-z
-y,-x,-z
-x,y,z
x,-y,z
loop_
_atom_site_type_symbol
_atom_site_label
_atom_site_fract_x
_atom_site_fract_y
_atom_site_fract_z
Si Si1 0.500000 0.692412 0.090407
Si Si2 0.190307 0.500000 0.823389
Si Si3 0.808636 0.316035 0.303392
Si Si4 0.189640 0.183813 0.779541
Si Si5 0.310247 0.823368 0.462256
Si Si6 0.681510 0.307761 0.616518
Si Si7 0.690529 0.814020 0.960747
O O1 0.500000 0.500000 0.098470
O O2 0.500000 0.788039 0.130622
O O3 0.331354 0.745083 0.068580
O O4 0.268719 0.330620 0.805794
O O5 0.000000 0.500000 0.812145
O O6 0.737342 0.500000 0.297747
O O7 0.762470 0.211733 0.265341
O O8 0.734503 0.229667 0.342391
O O9 0.000000 0.320860 0.309378
O O10 0.000000 0.169315 0.789513
O O11 0.268658 0.000000 0.787215
O O12 0.289861 0.710140 0.500000
O O13 0.500000 0.837915 0.453315
O O14 0.226013 0.760746 0.422141
O O15 0.233616 0.000000 0.472182
O O16 0.500000 0.232424 0.619464
O O17 0.676322 0.500000 0.610661
O O18 0.500000 0.789878 0.971121
O O19 0.721746 0.000000 0.944054
O O20 0.794983 0.794983 0.000000
#
# Coordination Sequence:
#
# PCOD8309712 Si02
#       7
#     4   4   8   8   8   8   8
#     4  10  22  38  58  86 124 158 196 252 306 350
#     4  10  22  38  56  80 110 152 198 236 286 348
#     4   9  18  32  51  77 105 133 169 217 270 321
#     4   9  19  36  55  76 106 145 187 232 285 342
#     4  10  21  36  53  74 100 133 172 212 258 313
#     4   9  18  32  50  73 101 132 166 208 259 316
#     4  10  20  36  61  89 120 160 203 249 306 366
#
# _framework density 21.018726000000001
#
# number of rings (size 3 to 8) (size 9 to 14) (size 15 to 20)
#    0.000    2.500    0.833    0.500    1.167    4.500 
#    0.000    1.667    0.000    0.000    0.000    0.000 
#    0.000    0.000    0.000    0.000    0.000    0.000 
#
# Total GULP energy -594680.853057 kJ/mol
# GULP energy per Si atom -12389.184439 kJ/mol
# Density = 2.097089 g / cm^3
# Si number density = 21.018726 Si / 1000 Ang^3
#
#
#
# Elastic Constant Matrix: (Units=GPa)
#
#
# Indices 1 2 3 4 5 6 
#
# 1 69.0625 27.7190 45.1320 0.0000 0.0000 0.0000
# 2 27.7190 69.0632 45.1321 0.0000 0.0000 0.0000
# 3 45.1320 45.1321 149.4089 0.0000 0.0000 0.0000
# 4 0.0000 0.0000 0.0000 22.2849 0.0000 0.0000
# 5 0.0000 0.0000 0.0000 0.0000 22.2848 0.0000
# 6 0.0000 0.0000 0.0000 0.0000 0.0000 13.3685
#
#
#
# Elastic Compliance Matrix: (Units=1/GPa)
#
#
# Indices 1 2 3 4 5 6 
#
# 1 0.019286 -0.004901 -0.004345 0.000000 0.000000 0.000000
# 2 -0.004901 0.019286 -0.004345 0.000000 0.000000 0.000000
# 3 -0.004345 -0.004345 0.009318 0.000000 0.000000 0.000000
# 4 0.000000 0.000000 0.000000 0.044873 0.000000 0.000000
# 5 0.000000 0.000000 0.000000 0.000000 0.044874 0.000000
# 6 0.000000 0.000000 0.000000 0.000000 0.000000 0.074803
#
#
# Mechanical properties :
#
#
# Convention : Reuss Voigt Hill
#
# Bulk Modulus (GPa) = 48.29217 58.16675 53.22946
# Shear Modulus (GPa) = 20.28176 22.89106 21.58641
#
# Velocity S-wave (km/s) = 3.10971 3.30370 3.20817
# Velocity P-wave (km/s) = 5.99328 6.50280 6.25323
#
# Compressibility (1/GPa) = 0.02070729
#
# Stress axis : x y z
#
# Youngs Moduli (GPa) = 51.84988 51.85047 107.31633
#
# Poissons Ratio (x) = 0.25412 0.46633
# Poissons Ratio (y) = 0.25412 0.46632
# Poissons Ratio (z) = 0.22531 0.22531
#
# Static dielectric constant tensor:
#      x y z
#    x 3.845730 0.000000 0.000000 
#    y 0.000000 3.845730 0.000000 
#    z 0.000000 0.000000 3.741630 
# 
# 
# High freq. dielectric constant tensor:
#      x y z
#    x 1.807370 0.000000 0.000000 
#    y 0.000000 1.807370 0.000000 
#    z 0.000000 0.000000 1.822380 
# 
# From -- ./inp_files/6173.got.cif
#   From: 2010.03.12/outbox.cif.g09.slc.cpg/sg115_4_cif.got.tgz:6173.got - 2010.04.14 02:11:21.
