data_PCOD8309958
_publ_section_title
;
Structure prediction by ZEFSAII (Michael W. Deem and Ramdas Pophale) SiO2 
 PCOD8309958
Probable space group: P -4 M 2
;
_chemical_formula_sum "Si O2"
_cell_formula_units_Z 40
_cell_length_a 14.939115
_cell_length_b 14.939115
_cell_length_c 8.719202
_cell_angle_alpha 90.000000
_cell_angle_beta 90.000000
_cell_angle_gamma 90.000000
_cell_volume 1945.926714
_symmetry_space_group_name_H-M "P -4 M 2"
_symmetry_group_IT_number 115
_symmetry_cell_setting 'tetragonal'
loop_
_space_group_symop_operation_xyz
x,y,z
y,-x,-z
-x,-y,z
-y,x,-z
y,x,-z
-y,-x,-z
-x,y,z
x,-y,z
loop_
_atom_site_type_symbol
_atom_site_label
_atom_site_fract_x
_atom_site_fract_y
_atom_site_fract_z
Si Si1 0.401735 0.733293 0.319057
Si Si2 0.856376 0.100162 0.326025
Si Si3 0.674208 0.099665 0.179375
Si Si4 0.900946 0.721585 0.162535
Si Si5 0.396155 0.754325 0.675012
O O1 0.500000 0.691785 0.297351
O O2 0.396627 0.822670 0.215064
O O3 0.386535 0.762804 0.493469
O O4 0.334012 0.655721 0.266151
O O5 0.882517 0.117483 0.500000
O O6 0.749274 0.105425 0.311415
O O7 0.898531 0.175781 0.218254
O O8 0.889397 0.000000 0.277495
O O9 0.629881 0.000000 0.179472
O O10 0.720957 0.121668 0.017509
O O11 0.838339 0.653440 0.252645
O O12 0.000000 0.683986 0.190903
O O13 0.500000 0.750415 0.727317
#
# Coordination Sequence:
#
# PCOD8309958 Si02
#       5
#     8   8   8   8   8
#     4  10  21  39  64  91 121 158 199 248 306 365
#     4  11  22  37  59  88 123 162 204 248 297 351
#     4  10  22  39  60  88 123 165 206 245 296 356
#     4  11  23  39  61  88 123 164 205 249 297 354
#     4  10  22  40  63  91 121 155 200 252 305 363
#
# _framework density 20.555759999999999
#
# number of rings (size 3 to 8) (size 9 to 14) (size 15 to 20)
#    0.000    1.600    2.000    2.400    0.000    5.800 
#    0.000    7.000    0.000    7.200    0.000    2.800 
#    0.000    0.000    0.000    0.000    0.000    0.000 
#
# Total GULP energy -495902.111217 kJ/mol
# GULP energy per Si atom -12397.552780 kJ/mol
# Density = 2.050897 g / cm^3
# Si number density = 20.555760 Si / 1000 Ang^3
#
#
#
# Elastic Constant Matrix: (Units=GPa)
#
#
# Indices 1 2 3 4 5 6 
#
# 1 141.7363 71.5283 45.7951 0.0000 0.0000 0.0000
# 2 71.5283 141.7363 45.7951 0.0000 0.0000 0.0000
# 3 45.7951 45.7951 59.9109 0.0000 0.0000 0.0000
# 4 0.0000 0.0000 0.0000 22.3169 0.0000 0.0000
# 5 0.0000 0.0000 0.0000 0.0000 22.3169 0.0000
# 6 0.0000 0.0000 0.0000 0.0000 0.0000 5.6205
#
#
#
# Elastic Compliance Matrix: (Units=1/GPa)
#
#
# Indices 1 2 3 4 5 6 
#
# 1 0.010612 -0.003631 -0.005336 0.000000 0.000000 0.000000
# 2 -0.003631 0.010612 -0.005336 0.000000 0.000000 0.000000
# 3 -0.005336 -0.005336 0.024849 0.000000 0.000000 0.000000
# 4 0.000000 0.000000 0.000000 0.044809 0.000000 0.000000
# 5 0.000000 0.000000 0.000000 0.000000 0.044809 0.000000
# 6 0.000000 0.000000 0.000000 0.000000 0.000000 0.177921
#
#
# Mechanical properties :
#
#
# Convention : Reuss Voigt Hill
#
# Bulk Modulus (GPa) = 57.25249 74.40227 65.82738
# Shear Modulus (GPa) = 14.36613 22.06851 18.21732
#
# Velocity S-wave (km/s) = 2.64651 3.28013 2.98021
# Velocity P-wave (km/s) = 6.10340 7.11474 6.62839
#
# Compressibility (1/GPa) = 0.01746649
#
# Stress axis : x y z
#
# Youngs Moduli (GPa) = 94.23303 94.23303 40.24345
#
# Poissons Ratio (x) = 0.34220 0.21473
# Poissons Ratio (y) = 0.34220 0.21473
# Poissons Ratio (z) = 0.50281 0.50281
#
# Static dielectric constant tensor:
#      x y z
#    x 3.771660 0.000000 0.000000 
#    y 0.000000 3.771660 0.000000 
#    z 0.000000 0.000000 3.666980 
# 
# 
# High freq. dielectric constant tensor:
#      x y z
#    x 1.803700 0.000000 0.000000 
#    y 0.000000 1.803700 0.000000 
#    z 0.000000 0.000000 1.798530 
# 
# From -- ./inp_files/1586.got.cif
#   From: 2010.03.12/outbox.cif.g09.slc.cpg/sg115_1_cif.got.tgz:1586.got - 2010.04.14 02:11:21.
