data_PCOD8309759
_publ_section_title
;
Structure prediction by ZEFSAII (Michael W. Deem and Ramdas Pophale) SiO2 
 PCOD8309759
Probable space group: P -4 M 2
;
_chemical_formula_sum "Si O2"
_cell_formula_units_Z 32
_cell_length_a 9.436928
_cell_length_b 9.436928
_cell_length_c 20.461103
_cell_angle_alpha 90.000000
_cell_angle_beta 90.000000
_cell_angle_gamma 90.000000
_cell_volume 1822.176011
_symmetry_space_group_name_H-M "P -4 M 2"
_symmetry_group_IT_number 115
_symmetry_cell_setting 'tetragonal'
loop_
_space_group_symop_operation_xyz
x,y,z
y,-x,-z
-x,-y,z
-y,x,-z
y,x,-z
-y,-x,-z
-x,y,z
x,-y,z
loop_
_atom_site_type_symbol
_atom_site_label
_atom_site_fract_x
_atom_site_fract_y
_atom_site_fract_z
Si Si1 0.335698 0.834149 0.233574
Si Si2 0.835483 0.334533 0.127322
Si Si3 0.164790 0.835211 0.500000
Si Si4 0.168322 0.656761 0.620230
Si Si5 0.336352 0.663649 0.000000
O O1 0.500000 0.798585 0.219016
O O2 0.233165 0.748722 0.186749
O O3 0.295227 0.785434 0.307206
O O4 0.307512 0.000000 0.223528
O O5 0.812688 0.500000 0.140382
O O6 0.000000 0.294486 0.121670
O O7 0.758893 0.288113 0.060699
O O8 0.228474 0.761563 0.564830
O O9 0.000000 0.802935 0.491895
O O10 0.227723 0.500000 0.605489
O O11 0.000000 0.654621 0.618183
O O12 0.500000 0.690436 0.018443
#
# Coordination Sequence:
#
# PCOD8309759 Si02
#       5
#     8   8   4   8   4
#     4   9  18  33  53  74  96 128 169 206 241 287
#     4  10  21  35  51  75 105 131 158 198 245 290
#     4   9  16  26  44  69  92 118 156 197 234 278
#     4   8  15  29  47  67  93 124 157 194 237 284
#     4   9  18  34  54  71  92 130 172 201 232 283
#
# _framework density 17.561419999999998
#
# number of rings (size 3 to 8) (size 9 to 14) (size 15 to 20)
#    0.000    3.000    0.000    2.250    0.000    4.000 
#    0.000    6.250    0.000    4.875    0.000    0.000 
#    0.000    0.000    0.000    0.000    0.000    0.000 
#
# Total GULP energy -396722.081854 kJ/mol
# GULP energy per Si atom -12397.565058 kJ/mol
# Density = 1.752145 g / cm^3
# Si number density = 17.561420 Si / 1000 Ang^3
#
#
#
# Elastic Constant Matrix: (Units=GPa)
#
#
# Indices 1 2 3 4 5 6 
#
# 1 70.5870 46.0365 77.8083 0.0000 0.0000 0.0000
# 2 46.0365 70.5870 77.8083 0.0000 0.0000 0.0000
# 3 77.8083 77.8083 176.8879 0.0000 0.0000 0.0000
# 4 0.0000 0.0000 0.0000 19.6277 0.0000 0.0000
# 5 0.0000 0.0000 0.0000 0.0000 19.6244 0.0000
# 6 0.0000 0.0000 0.0000 0.0000 0.0000 23.7919
#
#
#
# Elastic Compliance Matrix: (Units=1/GPa)
#
#
# Indices 1 2 3 4 5 6 
#
# 1 0.030746 -0.009987 -0.009131 0.000000 0.000000 0.000000
# 2 -0.009987 0.030746 -0.009131 0.000000 0.000000 0.000000
# 3 -0.009131 -0.009131 0.013687 0.000000 0.000000 0.000000
# 4 0.000000 0.000000 0.000000 0.050948 0.000000 0.000000
# 5 0.000000 0.000000 0.000000 0.000000 0.050957 0.000000
# 6 0.000000 0.000000 0.000000 0.000000 0.000000 0.042031
#
#
# Mechanical properties :
#
#
# Convention : Reuss Voigt Hill
#
# Bulk Modulus (GPa) = 53.53537 80.15200 66.84369
# Shear Modulus (GPa) = 17.74060 20.36940 19.05500
#
# Velocity S-wave (km/s) = 3.18182 3.40942 3.29758
# Velocity P-wave (km/s) = 6.63698 7.82553 7.25563
#
# Compressibility (1/GPa) = 0.01867924
#
# Stress axis : x y z
#
# Youngs Moduli (GPa) = 32.52495 32.52485 73.06426
#
# Poissons Ratio (x) = 0.32481 0.66717
# Poissons Ratio (y) = 0.32481 0.66718
# Poissons Ratio (z) = 0.29700 0.29700
#
# Static dielectric constant tensor:
#      x y z
#    x 3.830300 0.000000 0.000000 
#    y 0.000000 3.830310 0.000000 
#    z 0.000000 0.000000 3.514640 
# 
# 
# High freq. dielectric constant tensor:
#      x y z
#    x 1.662460 0.000000 0.000000 
#    y 0.000000 1.662460 0.000000 
#    z 0.000000 0.000000 1.691900 
# 
# From -- ./inp_files/5042.got.cif
#   From: 2010.03.12/outbox.cif.g09.slc.cpg/sg115_3_cif.got.tgz:5042.got - 2010.04.14 02:11:21.
