data_PCOD8309994
_publ_section_title
;
Structure prediction by ZEFSAII (Michael W. Deem and Ramdas Pophale) SiO2 
 PCOD8309994
Probable space group: P -4 M 2
;
_chemical_formula_sum "Si O2"
_cell_formula_units_Z 48
_cell_length_a 13.681028
_cell_length_b 13.681028
_cell_length_c 13.738119
_cell_angle_alpha 90.000000
_cell_angle_beta 90.000000
_cell_angle_gamma 90.000000
_cell_volume 2571.370975
_symmetry_space_group_name_H-M "P -4 M 2"
_symmetry_group_IT_number 115
_symmetry_cell_setting 'tetragonal'
loop_
_space_group_symop_operation_xyz
x,y,z
y,-x,-z
-x,-y,z
-y,x,-z
y,x,-z
-y,-x,-z
-x,y,z
x,-y,z
loop_
_atom_site_type_symbol
_atom_site_label
_atom_site_fract_x
_atom_site_fract_y
_atom_site_fract_z
Si Si1 0.886508 0.386560 0.806020
Si Si2 0.385301 0.108303 0.412239
Si Si3 0.386410 0.111928 0.797336
Si Si4 0.385817 0.788652 0.598652
Si Si5 0.707623 0.291140 0.110919
Si Si6 0.607344 0.615950 0.288050
O O1 0.869495 0.500000 0.834021
O O2 0.848722 0.366617 0.695545
O O3 0.824387 0.314176 0.874160
O O4 0.000000 0.359691 0.817343
O O5 0.500000 0.098454 0.430949
O O6 0.337224 0.175112 0.497399
O O7 0.338683 0.000000 0.419049
O O8 0.500000 0.134331 0.821154
O O9 0.365578 0.132609 0.683704
O O10 0.318297 0.180207 0.864480
O O11 0.359973 0.000000 0.820569
O O12 0.500000 0.774785 0.582069
O O13 0.341980 0.683482 0.632004
O O14 0.634197 0.351154 0.179380
O O15 0.683093 0.316908 0.000000
O O16 0.500000 0.656016 0.316292
O O17 0.609715 0.500000 0.287626
#
# Coordination Sequence:
#
# PCOD8309994 Si02
#       6
#     8   8   8   8   8   8
#     4   9  19  35  54  77 104 133 168 214 265 315
#     4   8  13  24  46  74 100 128 163 202 247 299
#     4   9  18  33  52  75 102 129 164 215 267 314
#     4   8  13  24  46  73  98 128 166 203 242 293
#     4  11  22  34  50  71  95 128 173 221 269 319
#     4   9  18  31  45  66 100 138 174 211 252 303
#
# _framework density 18.667083999999999
#
# number of rings (size 3 to 8) (size 9 to 14) (size 15 to 20)
#    0.000    3.000    0.000    3.500    0.000    5.333 
#    0.000    5.833    0.000    6.500    0.000   10.500 
#    0.000    0.000    0.000    9.333    0.000    0.833 
#
# Total GULP energy -594910.315730 kJ/mol
# GULP energy per Si atom -12393.964911 kJ/mol
# Density = 1.862460 g / cm^3
# Si number density = 18.667084 Si / 1000 Ang^3
#
#
#
# Elastic Constant Matrix: (Units=GPa)
#
#
# Indices 1 2 3 4 5 6 
#
# 1 76.7437 38.3499 29.4768 0.0000 0.0000 0.0000
# 2 38.3499 76.7433 29.4765 0.0000 0.0000 0.0000
# 3 29.4768 29.4765 101.0326 0.0000 0.0000 0.0000
# 4 0.0000 0.0000 0.0000 16.8428 0.0000 0.0000
# 5 0.0000 0.0000 0.0000 0.0000 16.8429 0.0000
# 6 0.0000 0.0000 0.0000 0.0000 0.0000 20.7922
#
#
#
# Elastic Compliance Matrix: (Units=1/GPa)
#
#
# Indices 1 2 3 4 5 6 
#
# 1 0.018131 -0.007915 -0.002980 0.000000 0.000000 0.000000
# 2 -0.007915 0.018131 -0.002980 0.000000 0.000000 0.000000
# 3 -0.002980 -0.002980 0.011637 0.000000 0.000000 0.000000
# 4 0.000000 0.000000 0.000000 0.059373 0.000000 0.000000
# 5 0.000000 0.000000 0.000000 0.000000 0.059372 0.000000
# 6 0.000000 0.000000 0.000000 0.000000 0.000000 0.048095
#
#
# Mechanical properties :
#
#
# Convention : Reuss Voigt Hill
#
# Bulk Modulus (GPa) = 49.63784 49.90288 49.77036
# Shear Modulus (GPa) = 20.06382 21.37670 20.72026
#
# Velocity S-wave (km/s) = 3.28201 3.38768 3.33526
# Velocity P-wave (km/s) = 6.40398 6.48791 6.44608
#
# Compressibility (1/GPa) = 0.02014592
#
# Stress axis : x y z
#
# Youngs Moduli (GPa) = 55.15557 55.15537 85.93399
#
# Poissons Ratio (x) = 0.43658 0.25611
# Poissons Ratio (y) = 0.43658 0.25611
# Poissons Ratio (z) = 0.16438 0.16438
#
# Static dielectric constant tensor:
#      x y z
#    x 3.423210 0.000000 0.000000 
#    y 0.000000 3.423210 0.000000 
#    z 0.000000 0.000000 3.471290 
# 
# 
# High freq. dielectric constant tensor:
#      x y z
#    x 1.701180 0.000000 0.000000 
#    y 0.000000 1.701180 0.000000 
#    z 0.000000 0.000000 1.723750 
# 
# From -- ./inp_files/2906.got.cif
#   From: 2010.03.12/outbox.cif.g09.slc.cpg/sg115_2_cif.got.tgz:2906.got - 2010.04.14 02:11:21.
