data_PCOD8309211
_publ_section_title
;
Structure prediction by ZEFSAII (Michael W. Deem and Ramdas Pophale) SiO2 
 PCOD8309211
Probable space group: P -4 M 2
;
_chemical_formula_sum "Si O2"
_cell_formula_units_Z 37
_cell_length_a 11.627883
_cell_length_b 11.627883
_cell_length_c 14.864813
_cell_angle_alpha 90.000000
_cell_angle_beta 90.000000
_cell_angle_gamma 90.000000
_cell_volume 2009.836628
_symmetry_space_group_name_H-M "P -4 M 2"
_symmetry_group_IT_number 115
_symmetry_cell_setting 'tetragonal'
loop_
_space_group_symop_operation_xyz
x,y,z
y,-x,-z
-x,-y,z
-y,x,-z
y,x,-z
-y,-x,-z
-x,y,z
x,-y,z
loop_
_atom_site_type_symbol
_atom_site_label
_atom_site_fract_x
_atom_site_fract_y
_atom_site_fract_z
Si Si1 0.000000 0.000000 0.000000
Si Si2 0.680192 0.000000 0.293570
Si Si3 0.759109 0.634089 0.423192
Si Si4 0.228546 0.366597 0.928684
Si Si5 0.364342 0.000000 0.490576
Si Si6 0.375802 0.746772 0.271053
Si Si7 0.767854 0.000000 0.105463
O O1 0.105704 0.000000 0.067194
O O2 0.714696 0.000000 0.399986
O O3 0.608097 0.884482 0.277452
O O4 0.779021 0.000000 0.215619
O O5 0.670124 0.670124 0.500000
O O6 0.746650 0.500000 0.404795
O O7 0.727895 0.701046 0.332092
O O8 0.888624 0.667328 0.450764
O O9 0.204314 0.500000 0.948668
O O10 0.287887 0.349383 0.831257
O O11 0.109299 0.299088 0.933239
O O12 0.318202 0.318202 0.000000
O O13 0.500000 0.000000 0.463849
O O14 0.500000 0.694918 0.301457
#
# Coordination Sequence:
#
# PCOD8309211 Si02
#       7
#     1   4   8   8   4   8   4
#     4  12  20  40  68  92 120 150 188 252 320 344
#     4  10  18  34  58  82 107 149 193 229 274 337
#     4  11  22  35  54  81 112 147 187 237 292 344
#     4  10  21  38  60  88 118 156 201 246 297 354
#     4  10  20  36  58  78 107 151 196 235 277 337
#     4  10  20  35  58  84 113 149 192 238 283 342
#     4  10  21  37  62  88 116 148 193 250 298 357
#
# _framework density 18.409457
#
# number of rings (size 3 to 8) (size 9 to 14) (size 15 to 20)
#    0.000    1.730    3.243    1.946    0.000    6.054 
#    0.000    7.568    0.000    2.919    0.000    0.000 
#    0.000    0.000    0.000    0.000    0.000    0.000 
#
# Total GULP energy -458596.979614 kJ/mol
# GULP energy per Si atom -12394.512963 kJ/mol
# Density = 1.836756 g / cm^3
# Si number density = 18.409457 Si / 1000 Ang^3
#
#
#
# Elastic Constant Matrix: (Units=GPa)
#
#
# Indices 1 2 3 4 5 6 
#
# 1 107.5151 50.2227 69.8431 0.0000 0.0000 0.0000
# 2 50.2227 107.5151 69.8431 0.0000 0.0000 0.0000
# 3 69.8431 69.8431 144.5120 0.0000 0.0000 0.0000
# 4 0.0000 0.0000 0.0000 29.1217 0.0000 0.0000
# 5 0.0000 0.0000 0.0000 0.0000 29.1217 0.0000
# 6 0.0000 0.0000 0.0000 0.0000 0.0000 24.1788
#
#
#
# Elastic Compliance Matrix: (Units=1/GPa)
#
#
# Indices 1 2 3 4 5 6 
#
# 1 0.014269 -0.003186 -0.005357 0.000000 0.000000 0.000000
# 2 -0.003186 0.014269 -0.005357 0.000000 0.000000 0.000000
# 3 -0.005357 -0.005357 0.012097 0.000000 0.000000 0.000000
# 4 0.000000 0.000000 0.000000 0.034339 0.000000 0.000000
# 5 0.000000 0.000000 0.000000 0.000000 0.034339 0.000000
# 6 0.000000 0.000000 0.000000 0.000000 0.000000 0.041359
#
#
# Mechanical properties :
#
#
# Convention : Reuss Voigt Hill
#
# Bulk Modulus (GPa) = 77.89555 82.15110 80.02332
# Shear Modulus (GPa) = 27.36019 27.79334 27.57676
#
# Velocity S-wave (km/s) = 3.85931 3.88974 3.87456
# Velocity P-wave (km/s) = 7.89074 8.05573 7.97366
#
# Compressibility (1/GPa) = 0.01283770
#
# Stress axis : x y z
#
# Youngs Moduli (GPa) = 70.08331 70.08331 82.66185
#
# Poissons Ratio (x) = 0.22326 0.44278
# Poissons Ratio (y) = 0.22326 0.44278
# Poissons Ratio (z) = 0.37540 0.37540
#
# Static dielectric constant tensor:
#      x y z
#    x 3.305500 0.000000 0.000000 
#    y 0.000000 3.305500 0.000000 
#    z 0.000000 0.000000 3.534560 
# 
# 
# High freq. dielectric constant tensor:
#      x y z
#    x 1.705230 0.000000 0.000000 
#    y 0.000000 1.705230 0.000000 
#    z 0.000000 0.000000 1.720910 
# 
# From -- ./inp_files/3669.got.cif
#   From: 2010.03.12/outbox.cif.g09.slc.cpg/sg115_2_cif.got.tgz:3669.got - 2010.04.14 02:11:21.
