data_PCOD8309924
_publ_section_title
;
Structure prediction by ZEFSAII (Michael W. Deem and Ramdas Pophale) SiO2 
 PCOD8309924
Probable space group: P -4 M 2
;
_chemical_formula_sum "Si O2"
_cell_formula_units_Z 40
_cell_length_a 9.016052
_cell_length_b 9.016052
_cell_length_c 26.087491
_cell_angle_alpha 90.000000
_cell_angle_beta 90.000000
_cell_angle_gamma 90.000000
_cell_volume 2120.631108
_symmetry_space_group_name_H-M "P -4 M 2"
_symmetry_group_IT_number 115
_symmetry_cell_setting 'tetragonal'
loop_
_space_group_symop_operation_xyz
x,y,z
y,-x,-z
-x,-y,z
-y,x,-z
y,x,-z
-y,-x,-z
-x,y,z
x,-y,z
loop_
_atom_site_type_symbol
_atom_site_label
_atom_site_fract_x
_atom_site_fract_y
_atom_site_fract_z
Si Si1 0.830750 0.822943 0.835125
Si Si2 0.176699 0.836067 0.946162
Si Si3 0.326933 0.670889 0.256882
Si Si4 0.829376 0.826089 0.349621
Si Si5 0.169983 0.673762 0.454091
O O1 0.784877 0.757761 0.891771
O O2 0.718986 0.753445 0.794921
O O3 0.000000 0.777245 0.821823
O O4 0.817037 0.000000 0.834188
O O5 0.000000 0.845433 0.951117
O O6 0.245173 0.000000 0.942513
O O7 0.237978 0.762023 0.000000
O O8 0.500000 0.698809 0.249920
O O9 0.289563 0.500000 0.267803
O O10 0.270781 0.767704 0.303955
O O11 0.775546 0.751314 0.402138
O O12 0.000000 0.785474 0.337853
O O13 0.805874 0.000000 0.355244
O O14 0.272193 0.727808 0.500000
O O15 0.190662 0.500000 0.446842
O O16 0.000000 0.716720 0.466095
#
# Coordination Sequence:
#
# PCOD8309924 Si02
#       5
#     8   8   8   8   8
#     4   9  17  30  51  78 103 129 166 210 256 308
#     4   7  10  19  39  69 101 127 154 197 252 303
#     4  11  24  38  51  71 102 139 176 213 256 308
#     4  10  21  38  61  85 106 132 171 218 264 309
#     4  10  21  37  58  84 113 145 178 211 251 299
#
# _framework density 18.862309
#
# number of rings (size 3 to 8) (size 9 to 14) (size 15 to 20)
#    0.000    2.600    0.000    4.200    0.000    7.600 
#    0.000    0.000    0.000    1.200    0.000    7.000 
#    0.000    0.000    0.000    0.000    0.000    0.000 
#
# Total GULP energy -495709.179960 kJ/mol
# GULP energy per Si atom -12392.729499 kJ/mol
# Density = 1.881938 g / cm^3
# Si number density = 18.862309 Si / 1000 Ang^3
#
#
#
# Elastic Constant Matrix: (Units=GPa)
#
#
# Indices 1 2 3 4 5 6 
#
# 1 52.7265 25.8872 42.4848 0.0000 0.0000 0.0000
# 2 25.8872 52.7275 42.4860 0.0000 0.0000 0.0000
# 3 42.4848 42.4860 160.3339 0.0000 0.0000 0.0000
# 4 0.0000 0.0000 0.0000 -8.7230 0.0000 0.0000
# 5 0.0000 0.0000 0.0000 0.0000 -8.7235 0.0000
# 6 0.0000 0.0000 0.0000 0.0000 0.0000 25.4071
#
#
#
# Elastic Compliance Matrix: (Units=1/GPa)
#
#
# Indices 1 2 3 4 5 6 
#
# 1 0.027542 -0.009716 -0.004723 0.000000 0.000000 0.000000
# 2 -0.009716 0.027542 -0.004724 0.000000 0.000000 0.000000
# 3 -0.004723 -0.004724 0.008740 0.000000 0.000000 0.000000
# 4 0.000000 0.000000 0.000000 -0.114640 0.000000 0.000000
# 5 0.000000 0.000000 0.000000 0.000000 -0.114633 0.000000
# 6 0.000000 0.000000 0.000000 0.000000 0.000000 0.039359
#
#
# Mechanical properties :
#
#
# Convention : Reuss Voigt Hill
#
# Bulk Modulus (GPa) = 39.21900 54.16709 46.69304
# Shear Modulus (GPa) = -63.07974 11.92080 -25.57947
#
# Velocity S-wave (km/s) = -5.78920 2.51667 -3.68654
# Velocity P-wave (km/s) = 4.88355 6.10117 2.58604
#
# Compressibility (1/GPa) = 0.02549784
#
# Stress axis : x y z
#
# Youngs Moduli (GPa) = 36.30816 36.30845 114.41321
#
# Poissons Ratio (x) = 0.35278 0.54042
# Poissons Ratio (y) = 0.35278 0.54044
# Poissons Ratio (z) = 0.17150 0.17151
#
# Static dielectric constant tensor:
#      x y z
#    x 3.225820 0.000000 0.000000 
#    y 0.000000 3.225820 0.000000 
#    z 0.000000 0.000000 3.914530 
# 
# 
# High freq. dielectric constant tensor:
#      x y z
#    x 1.705380 0.000000 0.000000 
#    y 0.000000 1.705380 0.000000 
#    z 0.000000 0.000000 1.761300 
# 
# From -- ./inp_files/5102.got.cif
#   From: 2010.03.12/outbox.cif.g09.slc.cpg/sg115_3_cif.got.tgz:5102.got - 2010.04.14 02:11:21.
