data_PCOD8309941
_publ_section_title
;
Structure prediction by ZEFSAII (Michael W. Deem and Ramdas Pophale) SiO2 
 PCOD8309941
Probable space group: P -4 M 2
;
_chemical_formula_sum "Si O2"
_cell_formula_units_Z 21
_cell_length_a 7.910720
_cell_length_b 7.910720
_cell_length_c 15.977014
_cell_angle_alpha 90.000000
_cell_angle_beta 90.000000
_cell_angle_gamma 90.000000
_cell_volume 999.833403
_symmetry_space_group_name_H-M "P -4 M 2"
_symmetry_group_IT_number 115
_symmetry_cell_setting 'tetragonal'
loop_
_space_group_symop_operation_xyz
x,y,z
y,-x,-z
-x,-y,z
-y,x,-z
y,x,-z
-y,-x,-z
-x,y,z
x,-y,z
loop_
_atom_site_type_symbol
_atom_site_label
_atom_site_fract_x
_atom_site_fract_y
_atom_site_fract_z
Si Si1 0.681838 0.695803 0.763542
Si Si2 0.000000 0.705381 0.869104
Si Si3 0.000000 0.000000 0.000000
Si Si4 0.200768 0.189000 0.408404
O O1 0.500000 0.773883 0.792241
O O2 0.679348 0.500000 0.782124
O O3 0.837471 0.769596 0.816275
O O4 0.695749 0.725456 0.664419
O O5 0.000000 0.500000 0.887425
O O6 0.000000 0.821184 0.951106
O O7 0.257861 0.257861 0.500000
O O8 0.000000 0.188352 0.404698
O O9 0.271500 0.000000 0.394663
#
# Coordination Sequence:
#
# PCOD8309941 Si02
#       4
#     8   4   1   8
#     4  10  21  37  59  86 120 164 205 246 299 355
#     4  10  24  46  66  93 129 154 189 251 306 360
#     4  12  28  44  76 100 114 156 200 232 308 392
#     4   9  18  32  52  81 120 164 210 257 297 341
#
# _framework density 21.003498
#
# number of rings (size 3 to 8) (size 9 to 14) (size 15 to 20)
#    0.000    2.286    1.905    1.143    2.667    3.810 
#    0.000    5.714    0.000    0.000    0.000    0.000 
#    0.000    0.000    0.000    0.000    0.000    0.000 
#
# Total GULP energy -260174.992328 kJ/mol
# GULP energy per Si atom -12389.285349 kJ/mol
# Density = 2.095569 g / cm^3
# Si number density = 21.003498 Si / 1000 Ang^3
#
#
#
# Elastic Constant Matrix: (Units=GPa)
#
#
# Indices 1 2 3 4 5 6 
#
# 1 101.8701 29.9667 51.8749 0.0000 0.0000 0.0000
# 2 29.9667 101.8701 51.8749 0.0000 0.0000 0.0000
# 3 51.8749 51.8749 124.8171 0.0000 0.0000 0.0000
# 4 0.0000 0.0000 0.0000 12.6152 0.0000 0.0000
# 5 0.0000 0.0000 0.0000 0.0000 12.6152 0.0000
# 6 0.0000 0.0000 0.0000 0.0000 0.0000 13.7712
#
#
#
# Elastic Compliance Matrix: (Units=1/GPa)
#
#
# Indices 1 2 3 4 5 6 
#
# 1 0.012590 -0.001318 -0.004685 0.000000 0.000000 0.000000
# 2 -0.001318 0.012590 -0.004685 0.000000 0.000000 0.000000
# 3 -0.004685 -0.004685 0.011906 0.000000 0.000000 0.000000
# 4 0.000000 0.000000 0.000000 0.079269 0.000000 0.000000
# 5 0.000000 0.000000 0.000000 0.000000 0.079269 0.000000
# 6 0.000000 0.000000 0.000000 0.000000 0.000000 0.072615
#
#
# Mechanical properties :
#
#
# Convention : Reuss Voigt Hill
#
# Bulk Modulus (GPa) = 63.65111 66.22112 64.93612
# Shear Modulus (GPa) = 16.95779 20.78972 18.87375
#
# Velocity S-wave (km/s) = 2.84452 3.14956 3.00092
# Velocity P-wave (km/s) = 6.41555 6.69502 6.55677
#
# Compressibility (1/GPa) = 0.01571064
#
# Stress axis : x y z
#
# Youngs Moduli (GPa) = 79.43041 79.43041 83.99388
#
# Poissons Ratio (x) = 0.10468 0.39348
# Poissons Ratio (y) = 0.10468 0.39348
# Poissons Ratio (z) = 0.37210 0.37210
#
# Static dielectric constant tensor:
#      x y z
#    x 4.002870 0.000000 0.000000 
#    y 0.000000 4.002870 0.000000 
#    z 0.000000 0.000000 3.845780 
# 
# 
# High freq. dielectric constant tensor:
#      x y z
#    x 1.817960 0.000000 0.000000 
#    y 0.000000 1.817960 0.000000 
#    z 0.000000 0.000000 1.806340 
# 
# From -- ./inp_files/3340.got.cif
#   From: 2010.03.12/outbox.cif.g09.slc.cpg/sg115_2_cif.got.tgz:3340.got - 2010.04.14 02:11:21.
