data_PCOD8309903
_publ_section_title
;
Structure prediction by ZEFSAII (Michael W. Deem and Ramdas Pophale) SiO2 
 PCOD8309903
Probable space group: P -4 M 2
;
_chemical_formula_sum "Si O2"
_cell_formula_units_Z 40
_cell_length_a 8.162166
_cell_length_b 8.162166
_cell_length_c 28.769547
_cell_angle_alpha 90.000000
_cell_angle_beta 90.000000
_cell_angle_gamma 90.000000
_cell_volume 1916.654662
_symmetry_space_group_name_H-M "P -4 M 2"
_symmetry_group_IT_number 115
_symmetry_cell_setting 'tetragonal'
loop_
_space_group_symop_operation_xyz
x,y,z
y,-x,-z
-x,-y,z
-y,x,-z
y,x,-z
-y,-x,-z
-x,y,z
x,-y,z
loop_
_atom_site_type_symbol
_atom_site_label
_atom_site_fract_x
_atom_site_fract_y
_atom_site_fract_z
Si Si1 0.691852 0.682476 0.553395
Si Si2 0.317949 0.182281 0.954997
Si Si3 0.315504 0.688411 0.232787
Si Si4 0.304871 0.000000 0.607026
Si Si5 0.000000 0.695247 0.286696
Si Si6 0.316898 0.184720 0.135274
O O1 0.726931 0.726931 0.500000
O O2 0.500000 0.671313 0.562781
O O3 0.766433 0.500000 0.565495
O O4 0.766802 0.832398 0.583757
O O5 0.500000 0.211505 0.936080
O O6 0.202657 0.209403 0.910809
O O7 0.288202 0.000000 0.973514
O O8 0.293995 0.293995 0.000000
O O9 0.500000 0.766975 0.240934
O O10 0.328619 0.500000 0.246272
O O11 0.262194 0.704740 0.178816
O O12 0.167911 0.767214 0.263449
O O13 0.247686 0.000000 0.660155
O O14 0.500000 0.000000 0.601770
O O15 0.000000 0.500000 0.281227
O O16 0.500000 0.231994 0.120022
O O17 0.303332 0.000000 0.153290
#
# Coordination Sequence:
#
# PCOD8309903 Si02
#       6
#     8   8   8   4   4   8
#     4   8  14  25  42  68 102 138 179 225 272 330
#     4  11  24  39  56  80 110 142 174 214 264 319
#     4   9  18  33  52  75 106 142 179 225 278 330
#     4   9  16  26  44  74 106 140 179 227 281 329
#     4   9  18  30  47  75 109 139 181 231 273 330
#     4  10  21  37  57  81 105 133 177 224 267 322
#
# _framework density 20.869693999999999
#
# number of rings (size 3 to 8) (size 9 to 14) (size 15 to 20)
#    0.000    2.600    0.000    2.400    1.400    6.000 
#    0.000    4.000    0.000    0.300    5.200    0.000 
#    0.000    0.000    0.000    0.000    0.000    0.000 
#
# Total GULP energy -495632.983236 kJ/mol
# GULP energy per Si atom -12390.824581 kJ/mol
# Density = 2.082219 g / cm^3
# Si number density = 20.869694 Si / 1000 Ang^3
#
#
#
# Elastic Constant Matrix: (Units=GPa)
#
#
# Indices 1 2 3 4 5 6 
#
# 1 77.7163 29.6623 49.5503 0.0000 0.0000 0.0000
# 2 29.6623 77.7163 49.5503 0.0000 0.0000 0.0000
# 3 49.5503 49.5503 138.5070 0.0000 0.0000 0.0000
# 4 0.0000 0.0000 0.0000 15.8332 0.0000 0.0000
# 5 0.0000 0.0000 0.0000 0.0000 15.8332 0.0000
# 6 0.0000 0.0000 0.0000 0.0000 0.0000 11.7576
#
#
#
# Elastic Compliance Matrix: (Units=1/GPa)
#
#
# Indices 1 2 3 4 5 6 
#
# 1 0.017357 -0.003453 -0.004974 0.000000 0.000000 0.000000
# 2 -0.003453 0.017357 -0.004974 0.000000 0.000000 0.000000
# 3 -0.004974 -0.004974 0.010779 0.000000 0.000000 0.000000
# 4 0.000000 0.000000 0.000000 0.063158 0.000000 0.000000
# 5 0.000000 0.000000 0.000000 0.000000 0.063158 0.000000
# 6 0.000000 0.000000 0.000000 0.000000 0.000000 0.085052
#
#
# Mechanical properties :
#
#
# Convention : Reuss Voigt Hill
#
# Bulk Modulus (GPa) = 53.50530 61.27395 57.38963
# Shear Modulus (GPa) = 17.24781 19.69658 18.47220
#
# Velocity S-wave (km/s) = 2.87793 3.07545 2.97833
# Velocity P-wave (km/s) = 6.06108 6.48345 6.27582
#
# Compressibility (1/GPa) = 0.01868974
#
# Stress axis : x y z
#
# Youngs Moduli (GPa) = 57.61510 57.61510 92.77658
#
# Poissons Ratio (x) = 0.19896 0.46145
# Poissons Ratio (y) = 0.19896 0.46145
# Poissons Ratio (z) = 0.28657 0.28657
#
# Static dielectric constant tensor:
#      x y z
#    x 3.779120 0.000000 0.000000 
#    y 0.000000 3.779120 0.000000 
#    z 0.000000 0.000000 3.575580 
# 
# 
# High freq. dielectric constant tensor:
#      x y z
#    x 1.799600 0.000000 0.000000 
#    y 0.000000 1.799600 0.000000 
#    z 0.000000 0.000000 1.806560 
# 
# From -- ./inp_files/5573.got.cif
#   From: 2010.03.12/outbox.cif.g09.slc.cpg/sg115_3_cif.got.tgz:5573.got - 2010.04.14 02:11:21.
