data_PCOD8309858
_publ_section_title
;
Structure prediction by ZEFSAII (Michael W. Deem and Ramdas Pophale) SiO2 
 PCOD8309858
Probable space group: P -4 M 2
;
_chemical_formula_sum "Si O2"
_cell_formula_units_Z 48
_cell_length_a 9.147426
_cell_length_b 9.147426
_cell_length_c 30.747332
_cell_angle_alpha 90.000000
_cell_angle_beta 90.000000
_cell_angle_gamma 90.000000
_cell_volume 2572.795379
_symmetry_space_group_name_H-M "P -4 M 2"
_symmetry_group_IT_number 115
_symmetry_cell_setting 'tetragonal'
loop_
_space_group_symop_operation_xyz
x,y,z
y,-x,-z
-x,-y,z
-y,x,-z
y,x,-z
-y,-x,-z
-x,y,z
x,-y,z
loop_
_atom_site_type_symbol
_atom_site_label
_atom_site_fract_x
_atom_site_fract_y
_atom_site_fract_z
Si Si1 0.830391 0.169610 0.000000
Si Si2 0.328482 0.832389 0.085905
Si Si3 0.830255 0.170596 0.750958
Si Si4 0.168431 0.831570 0.500000
Si Si5 0.672982 0.332834 0.171594
Si Si6 0.832473 0.672202 0.587109
Si Si7 0.329355 0.830944 0.663277
O O1 0.771321 0.252807 0.957556
O O2 0.000000 0.202553 0.007196
O O3 0.500000 0.817310 0.079104
O O4 0.273268 0.735228 0.126097
O O5 0.282492 0.000000 0.094916
O O6 0.758956 0.257874 0.789957
O O7 0.753729 0.220596 0.706507
O O8 0.000000 0.211370 0.747769
O O9 0.805326 0.000000 0.759455
O O10 0.264161 0.781556 0.459077
O O11 0.000000 0.802936 0.488109
O O12 0.500000 0.320314 0.175845
O O13 0.726250 0.500000 0.174050
O O14 0.813542 0.500000 0.585638
O O15 0.727628 0.735547 0.623653
O O16 0.000000 0.718035 0.596860
O O17 0.500000 0.801603 0.670188
O O18 0.296325 0.000000 0.653158
#
# Coordination Sequence:
#
# PCOD8309858 Si02
#       7
#     4   8   8   4   8   8   8
#     4   9  18  32  50  73 100 130 168 215 262 307
#     4   9  18  33  51  71  99 135 172 210 256 311
#     4  10  21  37  58  82 106 136 176 220 265 314
#     4   9  18  34  56  79 106 144 186 225 264 309
#     4  10  21  36  54  78 108 141 176 215 262 315
#     4  10  21  36  55  81 111 142 178 219 263 314
#     4  10  21  37  57  80 107 140 177 218 265 315
#
# _framework density 18.656752000000001
#
# number of rings (size 3 to 8) (size 9 to 14) (size 15 to 20)
#    0.000    2.333    0.000    2.000    0.000    6.667 
#    0.000    3.333    0.000    0.000    0.000    0.000 
#    0.000    0.000    0.000    0.000    0.000    0.000 
#
# Total GULP energy -595401.971484 kJ/mol
# GULP energy per Si atom -12404.207739 kJ/mol
# Density = 1.861429 g / cm^3
# Si number density = 18.656752 Si / 1000 Ang^3
#
#
#
# Elastic Constant Matrix: (Units=GPa)
#
#
# Indices 1 2 3 4 5 6 
#
# 1 75.8156 40.2717 69.1818 0.0000 0.0000 0.0000
# 2 40.2717 75.8154 69.1817 0.0000 0.0000 0.0000
# 3 69.1818 69.1817 169.0796 0.0000 0.0000 0.0000
# 4 0.0000 0.0000 0.0000 208.4875 0.0000 0.0000
# 5 0.0000 0.0000 0.0000 0.0000 208.4385 0.0000
# 6 0.0000 0.0000 0.0000 0.0000 0.0000 26.8975
#
#
#
# Elastic Compliance Matrix: (Units=1/GPa)
#
#
# Indices 1 2 3 4 5 6 
#
# 1 0.022474 -0.005660 -0.006880 0.000000 0.000000 0.000000
# 2 -0.005660 0.022474 -0.006880 0.000000 0.000000 0.000000
# 3 -0.006880 -0.006880 0.011544 0.000000 0.000000 0.000000
# 4 0.000000 0.000000 0.000000 0.004796 0.000000 0.000000
# 5 0.000000 0.000000 0.000000 0.000000 0.004798 0.000000
# 6 0.000000 0.000000 0.000000 0.000000 0.000000 0.037178
#
#
# Mechanical properties :
#
#
# Convention : Reuss Voigt Hill
#
# Bulk Modulus (GPa) = 56.64594 75.33122 65.98858
# Shear Modulus (GPa) = 33.78630 98.23639 66.01135
#
# Velocity S-wave (km/s) = 4.26013 7.26422 5.95473
# Velocity P-wave (km/s) = 7.39097 10.52728 9.09533
#
# Compressibility (1/GPa) = 0.01765352
#
# Stress axis : x y z
#
# Youngs Moduli (GPa) = 44.49534 44.49530 86.62244
#
# Poissons Ratio (x) = 0.25185 0.59595
# Poissons Ratio (y) = 0.25185 0.59595
# Poissons Ratio (z) = 0.30612 0.30612
#
# Static dielectric constant tensor:
#      x y z
#    x 3.342110 0.000000 0.000000 
#    y 0.000000 3.342120 0.000000 
#    z 0.000000 0.000000 3.572690 
# 
# 
# High freq. dielectric constant tensor:
#      x y z
#    x 1.721550 0.000000 0.000000 
#    y 0.000000 1.721550 0.000000 
#    z 0.000000 0.000000 1.737000 
# 
# From -- ./inp_files/6224.got.cif
#   From: 2010.03.12/outbox.cif.g09.slc.cpg/sg115_4_cif.got.tgz:6224.got - 2010.04.14 02:11:21.
