data_PCOD8309746
_publ_section_title
;
Structure prediction by ZEFSAII (Michael W. Deem and Ramdas Pophale) SiO2 
 PCOD8309746
Probable space group: P -4 M 2
;
_chemical_formula_sum "Si O2"
_cell_formula_units_Z 56
_cell_length_a 13.658297
_cell_length_b 13.658297
_cell_length_c 15.816697
_cell_angle_alpha 90.000000
_cell_angle_beta 90.000000
_cell_angle_gamma 90.000000
_cell_volume 2950.590226
_symmetry_space_group_name_H-M "P -4 M 2"
_symmetry_group_IT_number 115
_symmetry_cell_setting 'tetragonal'
loop_
_space_group_symop_operation_xyz
x,y,z
y,-x,-z
-x,-y,z
-y,x,-z
y,x,-z
-y,-x,-z
-x,y,z
x,-y,z
loop_
_atom_site_type_symbol
_atom_site_label
_atom_site_fract_x
_atom_site_fract_y
_atom_site_fract_z
Si Si1 0.384479 0.891138 0.496940
Si Si2 0.616012 0.701220 0.915776
Si Si3 0.886168 0.700795 0.681454
Si Si4 0.883847 0.892248 0.593322
Si Si5 0.616009 0.779864 0.658170
Si Si6 0.892219 0.615402 0.177318
Si Si7 0.613886 0.708621 0.247261
O O1 0.500000 0.892027 0.507140
O O2 0.357652 0.857233 0.403348
O O3 0.339855 0.820998 0.570048
O O4 0.341314 0.000000 0.511883
O O5 0.500000 0.685409 0.925722
O O6 0.642810 0.814611 0.896199
O O7 0.653867 0.632068 0.840720
O O8 0.671767 0.671767 0.000000
O O9 0.854538 0.814064 0.665843
O O10 0.821074 0.654110 0.756588
O O11 0.000000 0.689307 0.705905
O O12 0.852089 0.852089 0.500000
O O13 0.000000 0.899080 0.589155
O O14 0.840133 0.000000 0.614890
O O15 0.500000 0.773604 0.655761
O O16 0.653019 0.851614 0.732867
O O17 0.655858 0.670888 0.675681
O O18 0.902157 0.500000 0.182295
O O19 0.000000 0.661487 0.158682
O O20 0.500000 0.706466 0.268593
#
# Coordination Sequence:
#
# PCOD8309746 Si02
#       7
#     8   8   8   8   8   8   8
#     4   9  17  30  49  72  99 137 184 224 256 301
#     4  10  21  38  61  86 108 134 173 220 273 335
#     4  10  21  35  51  72 103 143 181 219 265 317
#     4   8  15  29  49  74 103 134 173 223 271 312
#     4   9  18  31  49  74 103 136 174 216 262 312
#     4   8  14  28  51  79 111 138 160 201 263 320
#     4  11  23  36  52  75 103 135 174 222 271 324
#
# _framework density 18.979251999999999
#
# number of rings (size 3 to 8) (size 9 to 14) (size 15 to 20)
#    0.000    2.714    0.000    3.000    2.000    4.429 
#    0.000    3.571    0.000    2.571    0.000    4.000 
#    0.000    4.857    0.000    0.000    0.000    0.000 
#
# Total GULP energy -694074.455817 kJ/mol
# GULP energy per Si atom -12394.186711 kJ/mol
# Density = 1.893605 g / cm^3
# Si number density = 18.979252 Si / 1000 Ang^3
#
#
#
# Elastic Constant Matrix: (Units=GPa)
#
#
# Indices 1 2 3 4 5 6 
#
# 1 94.1563 30.1881 25.8851 0.0000 0.0000 0.0000
# 2 30.1881 94.1563 25.8851 0.0000 0.0000 0.0000
# 3 25.8851 25.8851 44.2279 0.0000 0.0000 0.0000
# 4 0.0000 0.0000 0.0000 24.7690 0.0000 0.0000
# 5 0.0000 0.0000 0.0000 0.0000 24.7690 0.0000
# 6 0.0000 0.0000 0.0000 0.0000 0.0000 24.0192
#
#
#
# Elastic Compliance Matrix: (Units=1/GPa)
#
#
# Indices 1 2 3 4 5 6 
#
# 1 0.013133 -0.002500 -0.006223 0.000000 0.000000 0.000000
# 2 -0.002500 0.013133 -0.006223 0.000000 0.000000 0.000000
# 3 -0.006223 -0.006223 0.029895 0.000000 0.000000 0.000000
# 4 0.000000 0.000000 0.000000 0.040373 0.000000 0.000000
# 5 0.000000 0.000000 0.000000 0.000000 0.040373 0.000000
# 6 0.000000 0.000000 0.000000 0.000000 0.000000 0.041633
#
#
# Mechanical properties :
#
#
# Convention : Reuss Voigt Hill
#
# Bulk Modulus (GPa) = 38.06905 44.05078 41.05992
# Shear Modulus (GPa) = 23.02147 24.75027 23.88587
#
# Velocity S-wave (km/s) = 3.48657 3.61511 3.55142
# Velocity P-wave (km/s) = 6.02578 6.37853 6.20466
#
# Compressibility (1/GPa) = 0.02626806
#
# Stress axis : x y z
#
# Youngs Moduli (GPa) = 76.14422 76.14422 33.45082
#
# Poissons Ratio (x) = 0.19034 0.20817
# Poissons Ratio (y) = 0.19034 0.20817
# Poissons Ratio (z) = 0.47386 0.47386
#
# Static dielectric constant tensor:
#      x y z
#    x 3.704560 0.000000 0.000000 
#    y 0.000000 3.704560 0.000000 
#    z 0.000000 0.000000 3.196620 
# 
# 
# High freq. dielectric constant tensor:
#      x y z
#    x 1.741960 0.000000 0.000000 
#    y 0.000000 1.741960 0.000000 
#    z 0.000000 0.000000 1.695020 
# 
# From -- ./inp_files/3785.got.cif
#   From: 2010.03.12/outbox.cif.g09.slc.cpg/sg115_2_cif.got.tgz:3785.got - 2010.04.14 02:11:21.
