data_PCOD8309583
_publ_section_title
;
Structure prediction by ZEFSAII (Michael W. Deem and Ramdas Pophale) SiO2 
 PCOD8309583
Probable space group: P -4 M 2
;
_chemical_formula_sum "Si O2"
_cell_formula_units_Z 44
_cell_length_a 9.000621
_cell_length_b 9.000621
_cell_length_c 28.238013
_cell_angle_alpha 90.000000
_cell_angle_beta 90.000000
_cell_angle_gamma 90.000000
_cell_volume 2287.594708
_symmetry_space_group_name_H-M "P -4 M 2"
_symmetry_group_IT_number 115
_symmetry_cell_setting 'tetragonal'
loop_
_space_group_symop_operation_xyz
x,y,z
y,-x,-z
-x,-y,z
-y,x,-z
y,x,-z
-y,-x,-z
-x,y,z
x,-y,z
loop_
_atom_site_type_symbol
_atom_site_label
_atom_site_fract_x
_atom_site_fract_y
_atom_site_fract_z
Si Si1 0.329762 0.329762 0.500000
Si Si2 0.667466 0.323404 0.137517
Si Si3 0.175388 0.669809 0.681609
Si Si4 0.171729 0.326802 0.403969
Si Si5 0.671079 0.825390 0.956940
Si Si6 0.327223 0.173654 0.768491
O O1 0.304118 0.500000 0.515572
O O2 0.224113 0.285847 0.456653
O O3 0.500000 0.261839 0.136858
O O4 0.671712 0.500000 0.138067
O O5 0.751156 0.265550 0.090839
O O6 0.748389 0.262839 0.184401
O O7 0.227701 0.500000 0.687844
O O8 0.232881 0.730633 0.631965
O O9 0.239897 0.767820 0.723585
O O10 0.000000 0.683516 0.682341
O O11 0.197667 0.500000 0.393345
O O12 0.000000 0.283111 0.398396
O O13 0.500000 0.779945 0.965937
O O14 0.688800 0.000000 0.951249
O O15 0.769615 0.769615 0.000000
O O16 0.500000 0.210657 0.761168
O O17 0.299423 0.000000 0.774013
#
# Coordination Sequence:
#
# PCOD8309583 Si02
#       6
#     4   8   8   8   8   8
#     4   9  18  34  56  81 110 144 180 219 264 315
#     4   9  17  31  54  82 109 139 177 221 268 318
#     4  11  24  39  55  78 109 145 185 228 272 319
#     4  10  21  37  58  84 112 143 181 224 270 322
#     4  10  20  34  53  78 108 141 178 221 268 318
#     4  10  20  35  57  84 112 142 178 221 270 325
#
# _framework density 19.234176000000001
#
# number of rings (size 3 to 8) (size 9 to 14) (size 15 to 20)
#    0.000    2.091    0.000    3.273    0.000    9.818 
#    0.000    2.727    0.000    5.455    0.000    0.000 
#    0.000    0.000    0.000    0.000    0.000    0.000 
#
# Total GULP energy -545779.885706 kJ/mol
# GULP energy per Si atom -12404.088312 kJ/mol
# Density = 1.919040 g / cm^3
# Si number density = 19.234176 Si / 1000 Ang^3
#
#
#
# Elastic Constant Matrix: (Units=GPa)
#
#
# Indices 1 2 3 4 5 6 
#
# 1 70.0526 38.4059 42.1352 0.0000 0.0000 0.0000
# 2 38.4059 70.0526 42.1352 0.0000 0.0000 0.0000
# 3 42.1352 42.1352 120.1752 0.0000 0.0000 0.0000
# 4 0.0000 0.0000 0.0000 -3.5318 0.0000 0.0000
# 5 0.0000 0.0000 0.0000 0.0000 -3.5318 0.0000
# 6 0.0000 0.0000 0.0000 0.0000 0.0000 23.8930
#
#
#
# Elastic Compliance Matrix: (Units=1/GPa)
#
#
# Indices 1 2 3 4 5 6 
#
# 1 0.022136 -0.009463 -0.004443 0.000000 0.000000 0.000000
# 2 -0.009463 0.022136 -0.004443 0.000000 0.000000 0.000000
# 3 -0.004443 -0.004443 0.011437 0.000000 0.000000 0.000000
# 4 0.000000 0.000000 0.000000 -0.283140 0.000000 0.000000
# 5 0.000000 0.000000 0.000000 0.000000 -0.283140 0.000000
# 6 0.000000 0.000000 0.000000 0.000000 0.000000 0.041853
#
#
# Mechanical properties :
#
#
# Convention : Reuss Voigt Hill
#
# Bulk Modulus (GPa) = 52.60651 56.18146 54.39399
# Shear Modulus (GPa) = -11.74581 12.53948 0.39683
#
# Velocity S-wave (km/s) = -2.47386 2.55608 0.45471
# Velocity P-wave (km/s) = 4.38747 6.16311 5.34948
#
# Compressibility (1/GPa) = 0.01900905
#
# Stress axis : x y z
#
# Youngs Moduli (GPa) = 45.17612 45.17612 87.43690
#
# Poissons Ratio (x) = 0.42751 0.38849
# Poissons Ratio (y) = 0.42751 0.38849
# Poissons Ratio (z) = 0.20072 0.20072
#
# Static dielectric constant tensor:
#      x y z
#    x 3.470200 0.000000 0.000000 
#    y 0.000000 3.470200 0.000000 
#    z 0.000000 0.000000 3.659630 
# 
# 
# High freq. dielectric constant tensor:
#      x y z
#    x 1.740660 0.000000 0.000000 
#    y 0.000000 1.740660 0.000000 
#    z 0.000000 0.000000 1.764810 
# 
# From -- ./inp_files/5761.got.cif
#   From: 2010.03.12/outbox.cif.g09.slc.cpg/sg115_3_cif.got.tgz:5761.got - 2010.04.14 02:11:21.
