data_PCOD8309061
_publ_section_title
;
Structure prediction by ZEFSAII (Michael W. Deem and Ramdas Pophale) SiO2 
 PCOD8309061
Probable space group: P -4 21 C
;
_chemical_formula_sum "Si O2"
_cell_formula_units_Z 40
_cell_length_a 13.082584
_cell_length_b 13.082584
_cell_length_c 12.386606
_cell_angle_alpha 90.000000
_cell_angle_beta 90.000000
_cell_angle_gamma 90.000000
_cell_volume 2120.017214
_symmetry_space_group_name_H-M "P -4 21 C"
_symmetry_group_IT_number 114
_symmetry_cell_setting 'tetragonal'
loop_
_space_group_symop_operation_xyz
x,y,z
y,-x,-z
-x,-y,z
-y,x,-z
1/2+x,1/2-y,1/2-z
1/2-x,1/2+y,1/2-z
1/2-y,1/2-x,1/2+z
1/2+y,1/2+x,1/2+z
loop_
_atom_site_type_symbol
_atom_site_label
_atom_site_fract_x
_atom_site_fract_y
_atom_site_fract_z
Si Si1 0.505466 0.666749 0.994655
Si Si2 0.517448 0.879167 0.621324
Si Si3 0.734899 0.098160 0.302290
Si Si4 0.619910 0.021426 0.875929
Si Si5 0.401547 0.230097 0.193694
O O1 0.492709 0.726084 0.881253
O O2 0.603659 0.596124 0.979226
O O3 0.520415 0.741076 0.096824
O O4 0.440886 0.807364 0.687898
O O5 0.507942 0.854613 0.496764
O O6 0.630173 0.842036 0.653908
O O7 0.500000 0.000000 0.646211
O O8 0.640321 0.148297 0.365044
O O9 0.823754 0.179208 0.279163
O O10 0.500000 0.000000 0.846084
O O11 0.699647 0.961089 0.801687
#
# Coordination Sequence:
#
# PCOD8309061 Si02
#       5
#     8   8   8   8   8
#     4   9  20  38  59  88 120 152 197 244 287 342
#     4  11  22  40  59  83 120 153 191 248 290 339
#     4  11  22  37  62  89 117 157 195 238 295 350
#     4  11  22  40  59  83 120 153 191 248 290 339
#     4  11  22  37  62  89 117 157 195 238 295 350
#
# _framework density 18.867771999999999
#
# number of rings (size 3 to 8) (size 9 to 14) (size 15 to 20)
#    0.000    1.400    4.000    2.400    0.000    3.200 
#    0.000    0.000    0.000    0.000    0.000    2.800 
#    0.000    0.000    0.000    0.000    0.000    0.000 
#
# Total GULP energy -495883.824845 kJ/mol
# GULP energy per Si atom -12397.095621 kJ/mol
# Density = 1.882483 g / cm^3
# Si number density = 18.867772 Si / 1000 Ang^3
#
#
#
# Elastic Constant Matrix: (Units=GPa)
#
#
# Indices 1 2 3 4 5 6 
#
# 1 89.2373 13.2234 28.4329 0.0000 0.0000 0.0000
# 2 13.2234 89.2373 28.4329 0.0000 0.0000 0.0000
# 3 28.4329 28.4329 83.9891 0.0000 0.0000 0.0000
# 4 0.0000 0.0000 0.0000 32.1473 0.0000 0.0000
# 5 0.0000 0.0000 0.0000 0.0000 32.1473 0.0000
# 6 0.0000 0.0000 0.0000 0.0000 0.0000 22.2078
#
#
#
# Elastic Compliance Matrix: (Units=1/GPa)
#
#
# Indices 1 2 3 4 5 6 
#
# 1 0.012587 -0.000569 -0.004068 0.000000 0.000000 0.000000
# 2 -0.000569 0.012587 -0.004068 0.000000 0.000000 0.000000
# 3 -0.004068 -0.004068 0.014661 0.000000 0.000000 0.000000
# 4 0.000000 0.000000 0.000000 0.031107 0.000000 0.000000
# 5 0.000000 0.000000 0.000000 0.000000 0.031107 0.000000
# 6 0.000000 0.000000 0.000000 0.000000 0.000000 0.045029
#
#
# Mechanical properties :
#
#
# Convention : Reuss Voigt Hill
#
# Bulk Modulus (GPa) = 44.59729 44.73801 44.66765
# Shear Modulus (GPa) = 29.07609 30.12544 29.60077
#
# Velocity S-wave (km/s) = 3.92987 4.00016 3.96517
# Velocity P-wave (km/s) = 6.65432 6.71549 6.68498
#
# Compressibility (1/GPa) = 0.02242288
#
# Stress axis : x y z
#
# Youngs Moduli (GPa) = 79.44931 79.44931 68.20885
#
# Poissons Ratio (x) = 0.04519 0.27750
# Poissons Ratio (y) = 0.04519 0.27750
# Poissons Ratio (z) = 0.32323 0.32323
#
# Static dielectric constant tensor:
#      x y z
#    x 3.416500 0.000000 0.000000 
#    y 0.000000 3.416500 0.000000 
#    z 0.000000 0.000000 3.610510 
# 
# 
# High freq. dielectric constant tensor:
#      x y z
#    x 1.725090 0.000000 0.000000 
#    y 0.000000 1.725090 0.000000 
#    z 0.000000 0.000000 1.751680 
# 
# From -- ./inp_files/2117.got.cif
#   From: 2010.03.12/outbox.cif.g09.slc.cpg/sg114_2_cif.got.tgz:2117.got - 2010.04.14 02:08:34.
