data_PCOD8309046
_publ_section_title
;
Structure prediction by ZEFSAII (Michael W. Deem and Ramdas Pophale) SiO2 
 PCOD8309046
Probable space group: P -4 21 C
;
_chemical_formula_sum "Si O2"
_cell_formula_units_Z 56
_cell_length_a 14.065930
_cell_length_b 14.065930
_cell_length_c 13.674084
_cell_angle_alpha 90.000000
_cell_angle_beta 90.000000
_cell_angle_gamma 90.000000
_cell_volume 2705.422808
_symmetry_space_group_name_H-M "P -4 21 C"
_symmetry_group_IT_number 114
_symmetry_cell_setting 'tetragonal'
loop_
_space_group_symop_operation_xyz
x,y,z
y,-x,-z
-x,-y,z
-y,x,-z
1/2+x,1/2-y,1/2-z
1/2-x,1/2+y,1/2-z
1/2-y,1/2-x,1/2+z
1/2+y,1/2+x,1/2+z
loop_
_atom_site_type_symbol
_atom_site_label
_atom_site_fract_x
_atom_site_fract_y
_atom_site_fract_z
Si Si1 0.240490 0.891798 0.978670
Si Si2 0.553158 0.138413 0.295953
Si Si3 0.784595 0.608199 0.900870
Si Si4 0.414268 0.186929 0.009998
Si Si5 0.922743 0.243283 0.905416
Si Si6 0.351959 0.064224 0.291264
Si Si7 0.609735 0.406578 0.012214
O O1 0.305742 0.938183 0.896474
O O2 0.151326 0.840817 0.927029
O O3 0.296241 0.814562 0.043144
O O4 0.208650 0.976414 0.051518
O O5 0.612865 0.190671 0.212362
O O6 0.441153 0.133726 0.266781
O O7 0.602131 0.037717 0.307629
O O8 0.670505 0.599024 0.902029
O O9 0.839379 0.519815 0.952642
O O10 0.407540 0.196975 0.892849
O O11 0.387837 0.293423 0.049595
O O12 0.342327 0.106938 0.044726
O O13 0.931339 0.269291 0.790492
O O14 0.514931 0.391241 0.944530
#
# Coordination Sequence:
#
# PCOD8309046 Si02
#       7
#     8   8   8   8   8   8   8
#     4  12  26  44  67  94 137 186 224 274 338 409
#     4  11  23  39  67 104 131 167 222 286 349 398
#     4  11  21  39  67  97 132 170 217 282 343 396
#     4  11  21  39  67  97 132 170 217 282 343 396
#     4  12  26  44  67  94 137 186 224 274 338 409
#     4  11  23  39  67 104 131 167 222 286 349 398
#     4   9  20  38  64  92 127 166 214 270 333 400
#
# _framework density 20.699166999999999
#
# number of rings (size 3 to 8) (size 9 to 14) (size 15 to 20)
#    0.000    1.000    7.143    0.000    2.000    0.857 
#    0.000    0.000   15.714    0.000    0.000    0.000 
#    0.000    0.000    0.000    0.000    0.000    0.000 
#
# Total GULP energy -694052.875322 kJ/mol
# GULP energy per Si atom -12393.801345 kJ/mol
# Density = 2.065206 g / cm^3
# Si number density = 20.699167 Si / 1000 Ang^3
#
#
#
# Elastic Constant Matrix: (Units=GPa)
#
#
# Indices 1 2 3 4 5 6 
#
# 1 88.7574 21.7314 9.6374 0.0000 0.0000 0.0000
# 2 21.7314 88.7574 9.6374 0.0000 0.0000 0.0000
# 3 9.6374 9.6374 92.1631 0.0000 0.0000 0.0000
# 4 0.0000 0.0000 0.0000 11.8936 0.0000 0.0000
# 5 0.0000 0.0000 0.0000 0.0000 11.8936 0.0000
# 6 0.0000 0.0000 0.0000 0.0000 0.0000 17.7022
#
#
#
# Elastic Compliance Matrix: (Units=1/GPa)
#
#
# Indices 1 2 3 4 5 6 
#
# 1 0.012069 -0.002850 -0.000964 0.000000 0.000000 0.000000
# 2 -0.002850 0.012069 -0.000964 0.000000 0.000000 0.000000
# 3 -0.000964 -0.000964 0.011052 0.000000 0.000000 0.000000
# 4 0.000000 0.000000 0.000000 0.084079 0.000000 0.000000
# 5 0.000000 0.000000 0.000000 0.000000 0.084079 0.000000
# 6 0.000000 0.000000 0.000000 0.000000 0.000000 0.056490
#
#
# Mechanical properties :
#
#
# Convention : Reuss Voigt Hill
#
# Bulk Modulus (GPa) = 39.01125 39.07671 39.04398
# Shear Modulus (GPa) = 17.98949 23.54264 20.76607
#
# Velocity S-wave (km/s) = 2.95124 3.37615 3.17082
# Velocity P-wave (km/s) = 5.52275 5.84100 5.68410
#
# Compressibility (1/GPa) = 0.02563363
#
# Stress axis : x y z
#
# Youngs Moduli (GPa) = 82.85537 82.85537 90.48190
#
# Poissons Ratio (x) = 0.23617 0.08723
# Poissons Ratio (y) = 0.23617 0.08723
# Poissons Ratio (z) = 0.07987 0.07987
#
# Static dielectric constant tensor:
#      x y z
#    x 3.827440 0.000000 0.000000 
#    y 0.000000 3.827440 0.000000 
#    z 0.000000 0.000000 3.527020 
# 
# 
# High freq. dielectric constant tensor:
#      x y z
#    x 1.814120 0.000000 0.000000 
#    y 0.000000 1.814120 0.000000 
#    z 0.000000 0.000000 1.787060 
# 
# From -- ./inp_files/2236.got.cif
#   From: 2010.03.12/outbox.cif.g09.slc.cpg/sg114_2_cif.got.tgz:2236.got - 2010.04.14 02:08:34.
