data_PCOD8309756
_publ_section_title
;
Structure prediction by ZEFSAII (Michael W. Deem and Ramdas Pophale) SiO2 
 PCOD8309756
Probable space group: P -4 M 2
;
_chemical_formula_sum "Si O2"
_cell_formula_units_Z 48
_cell_length_a 9.499462
_cell_length_b 9.499462
_cell_length_c 30.426422
_cell_angle_alpha 90.000000
_cell_angle_beta 90.000000
_cell_angle_gamma 90.000000
_cell_volume 2745.673575
_symmetry_space_group_name_H-M "P -4 M 2"
_symmetry_group_IT_number 115
_symmetry_cell_setting 'tetragonal'
loop_
_space_group_symop_operation_xyz
x,y,z
y,-x,-z
-x,-y,z
-y,x,-z
y,x,-z
-y,-x,-z
-x,y,z
x,-y,z
loop_
_atom_site_type_symbol
_atom_site_label
_atom_site_fract_x
_atom_site_fract_y
_atom_site_fract_z
Si Si1 0.832701 0.655857 0.367961
Si Si2 0.837580 0.840355 0.051193
Si Si3 0.666390 0.160267 0.534620
Si Si4 0.836551 0.163180 0.712828
Si Si5 0.162585 0.336513 0.797049
Si Si6 0.335153 0.663103 0.118206
O O1 0.771658 0.500000 0.358949
O O2 0.786940 0.709103 0.416370
O O3 0.775479 0.758539 0.330095
O O4 0.000000 0.650494 0.367101
O O5 0.744188 0.728770 0.076948
O O6 0.000000 0.816962 0.063605
O O7 0.792449 0.000000 0.063213
O O8 0.812478 0.812478 0.000000
O O9 0.740505 0.259496 0.500000
O O10 0.500000 0.172098 0.528621
O O11 0.716330 0.000000 0.527100
O O12 0.784731 0.248843 0.755166
O O13 0.000000 0.187869 0.704243
O O14 0.800780 0.000000 0.720974
O O15 0.185374 0.500000 0.786410
O O16 0.256513 0.286919 0.837889
O O17 0.000000 0.303316 0.808133
O O18 0.500000 0.683643 0.110009
O O19 0.294170 0.500000 0.122893
#
# Coordination Sequence:
#
# PCOD8309756 Si02
#       6
#     8   8   8   8   8   8
#     4   8  15  29  47  66  91 122 153 188 234 286
#     4   9  19  36  56  77 101 130 165 204 245 290
#     4   9  18  32  49  70  96 126 161 200 241 287
#     4   9  17  29  47  71  94 117 152 197 239 281
#     4   9  18  33  50  67  93 130 164 194 237 290
#     4  10  21  35  51  74 103 133 166 204 244 287
#
# _framework density 17.482050999999998
#
# number of rings (size 3 to 8) (size 9 to 14) (size 15 to 20)
#    0.000    3.000    0.000    2.000    0.000    4.333 
#    0.000    6.667    0.000    3.000    0.000    0.000 
#    0.000    0.000    0.000    0.000    0.000    0.000 
#
# Total GULP energy -595154.950384 kJ/mol
# GULP energy per Si atom -12399.061466 kJ/mol
# Density = 1.744226 g / cm^3
# Si number density = 17.482051 Si / 1000 Ang^3
#
#
#
# Elastic Constant Matrix: (Units=GPa)
#
#
# Indices 1 2 3 4 5 6 
#
# 1 64.4063 39.4405 64.9510 0.0000 0.0000 0.0000
# 2 39.4405 64.4042 64.9503 0.0000 0.0000 0.0000
# 3 64.9510 64.9503 140.2954 0.0000 0.0000 0.0000
# 4 0.0000 0.0000 0.0000 11.1591 0.0000 0.0000
# 5 0.0000 0.0000 0.0000 0.0000 11.1596 0.0000
# 6 0.0000 0.0000 0.0000 0.0000 0.0000 24.9498
#
#
#
# Elastic Compliance Matrix: (Units=1/GPa)
#
#
# Indices 1 2 3 4 5 6 
#
# 1 0.031467 -0.008588 -0.010592 0.000000 0.000000 0.000000
# 2 -0.008588 0.031469 -0.010592 0.000000 0.000000 0.000000
# 3 -0.010592 -0.010592 0.016935 0.000000 0.000000 0.000000
# 4 0.000000 0.000000 0.000000 0.089613 0.000000 0.000000
# 5 0.000000 0.000000 0.000000 0.000000 0.089609 0.000000
# 6 0.000000 0.000000 0.000000 0.000000 0.000000 0.040081
#
#
# Mechanical properties :
#
#
# Convention : Reuss Voigt Hill
#
# Bulk Modulus (GPa) = 49.19934 67.53214 58.36574
# Shear Modulus (GPa) = 13.68010 16.10465 14.89238
#
# Velocity S-wave (km/s) = 2.80040 3.03844 2.92184
# Velocity P-wave (km/s) = 6.21773 7.14302 6.69638
#
# Compressibility (1/GPa) = 0.02032548
#
# Stress axis : x y z
#
# Youngs Moduli (GPa) = 31.77905 31.77765 59.04833
#
# Poissons Ratio (x) = 0.27292 0.62544
# Poissons Ratio (y) = 0.27293 0.62547
# Poissons Ratio (z) = 0.33660 0.33660
#
# Static dielectric constant tensor:
#      x y z
#    x 3.183740 0.000000 0.000000 
#    y 0.000000 3.183740 0.000000 
#    z 0.000000 0.000000 3.400100 
# 
# 
# High freq. dielectric constant tensor:
#      x y z
#    x 1.663130 0.000000 0.000000 
#    y 0.000000 1.663130 0.000000 
#    z 0.000000 0.000000 1.684880 
# 
# From -- ./inp_files/5930.got.cif
#   From: 2010.03.12/outbox.cif.g09.slc.cpg/sg115_3_cif.got.tgz:5930.got - 2010.04.14 02:11:21.
