data_PCOD8309690
_publ_section_title
;
Structure prediction by ZEFSAII (Michael W. Deem and Ramdas Pophale) SiO2 
 PCOD8309690
Probable space group: P -4 M 2
;
_chemical_formula_sum "Si O2"
_cell_formula_units_Z 48
_cell_length_a 8.162659
_cell_length_b 8.162659
_cell_length_c 33.776520
_cell_angle_alpha 90.000000
_cell_angle_beta 90.000000
_cell_angle_gamma 90.000000
_cell_volume 2250.495817
_symmetry_space_group_name_H-M "P -4 M 2"
_symmetry_group_IT_number 115
_symmetry_cell_setting 'tetragonal'
loop_
_space_group_symop_operation_xyz
x,y,z
y,-x,-z
-x,-y,z
-y,x,-z
y,x,-z
-y,-x,-z
-x,y,z
x,-y,z
loop_
_atom_site_type_symbol
_atom_site_label
_atom_site_fract_x
_atom_site_fract_y
_atom_site_fract_z
Si Si1 0.805751 0.815801 0.878223
Si Si2 0.682228 0.193088 0.380998
Si Si3 0.815085 0.686993 0.460373
Si Si4 0.692773 0.000000 0.755547
Si Si5 0.804778 0.000000 0.666404
Si Si6 0.308396 0.679869 0.799154
Si Si7 0.191160 0.679861 0.960140
O O1 0.727170 0.697934 0.845671
O O2 0.734749 0.769376 0.921549
O O3 0.000000 0.797487 0.876806
O O4 0.749800 0.000000 0.868721
O O5 0.500000 0.244918 0.364807
O O6 0.694653 0.257792 0.425623
O O7 0.833248 0.262426 0.354638
O O8 0.697113 0.000000 0.382091
O O9 0.790575 0.790575 0.500000
O O10 0.779091 0.500000 0.471188
O O11 0.000000 0.715042 0.445302
O O12 0.770367 0.166263 0.774982
O O13 0.500000 0.000000 0.763203
O O14 0.731366 0.000000 0.709699
O O15 0.000000 0.000000 0.667897
O O16 0.500000 0.679651 0.791409
O O17 0.238271 0.500000 0.785701
O O18 0.270805 0.500000 0.964022
O O19 0.000000 0.665179 0.953378
O O20 0.220355 0.779646 0.000000
#
# Coordination Sequence:
#
# PCOD8309690 Si02
#       7
#     8   8   8   4   4   8   8
#     4  10  20  35  58  85 112 146 188 236 293 351
#     4  10  21  39  62  87 117 156 202 248 301 365
#     4  11  23  37  56  85 120 159 204 252 305 361
#     4  10  22  40  60  86 120 154 194 242 292 360
#     4  10  22  40  62  88 120 156 198 248 302 362
#     4  10  21  38  60  86 117 153 192 237 292 355
#     4  10  21  36  53  76 107 144 187 233 281 337
#
# _framework density 21.328634000000001
#
# number of rings (size 3 to 8) (size 9 to 14) (size 15 to 20)
#    0.000    1.833    1.667    2.000    0.000    8.000 
#    0.000    0.000    0.000    0.000    0.000    0.000 
#    0.000    0.000    0.000    0.000    0.000    0.000 
#
# Total GULP energy -595044.024801 kJ/mol
# GULP energy per Si atom -12396.750517 kJ/mol
# Density = 2.128009 g / cm^3
# Si number density = 21.328634 Si / 1000 Ang^3
#
#
#
# Elastic Constant Matrix: (Units=GPa)
#
#
# Indices 1 2 3 4 5 6 
#
# 1 97.9375 24.9205 39.3960 0.0000 0.0000 0.0000
# 2 24.9205 97.9366 39.3960 0.0000 0.0000 0.0000
# 3 39.3960 39.3960 126.2887 0.0000 0.0000 0.0000
# 4 0.0000 0.0000 0.0000 23.6909 0.0000 0.0000
# 5 0.0000 0.0000 0.0000 0.0000 23.6911 0.0000
# 6 0.0000 0.0000 0.0000 0.0000 0.0000 18.1643
#
#
#
# Elastic Compliance Matrix: (Units=1/GPa)
#
#
# Indices 1 2 3 4 5 6 
#
# 1 0.011935 -0.001760 -0.003174 0.000000 0.000000 0.000000
# 2 -0.001760 0.011935 -0.003174 0.000000 0.000000 0.000000
# 3 -0.003174 -0.003174 0.009899 0.000000 0.000000 0.000000
# 4 0.000000 0.000000 0.000000 0.042210 0.000000 0.000000
# 5 0.000000 0.000000 0.000000 0.000000 0.042210 0.000000
# 6 0.000000 0.000000 0.000000 0.000000 0.000000 0.055053
#
#
# Mechanical properties :
#
#
# Convention : Reuss Voigt Hill
#
# Bulk Modulus (GPa) = 56.97214 58.84310 57.90762
# Shear Modulus (GPa) = 25.60025 27.67261 26.63643
#
# Velocity S-wave (km/s) = 3.46826 3.60591 3.53775
# Velocity P-wave (km/s) = 6.54278 6.70712 6.62546
#
# Compressibility (1/GPa) = 0.01755244
#
# Stress axis : x y z
#
# Youngs Moduli (GPa) = 83.78510 83.78424 101.02290
#
# Poissons Ratio (x) = 0.14747 0.32066
# Poissons Ratio (y) = 0.14748 0.32067
# Poissons Ratio (z) = 0.26595 0.26595
#
# Static dielectric constant tensor:
#      x y z
#    x 4.037020 0.000000 0.000000 
#    y 0.000000 4.037030 0.000000 
#    z 0.000000 0.000000 3.717770 
# 
# 
# High freq. dielectric constant tensor:
#      x y z
#    x 1.832840 0.000000 0.000000 
#    y 0.000000 1.832840 0.000000 
#    z 0.000000 0.000000 1.830650 
# 
# From -- ./inp_files/6179.got.cif
#   From: 2010.03.12/outbox.cif.g09.slc.cpg/sg115_4_cif.got.tgz:6179.got - 2010.04.14 02:11:21.
