data_PCOD8309683
_publ_section_title
;
Structure prediction by ZEFSAII (Michael W. Deem and Ramdas Pophale) SiO2 
 PCOD8309683
Probable space group: P -4 M 2
;
_chemical_formula_sum "Si O2"
_cell_formula_units_Z 40
_cell_length_a 8.071920
_cell_length_b 8.071920
_cell_length_c 28.727200
_cell_angle_alpha 90.000000
_cell_angle_beta 90.000000
_cell_angle_gamma 90.000000
_cell_volume 1871.746355
_symmetry_space_group_name_H-M "P -4 M 2"
_symmetry_group_IT_number 115
_symmetry_cell_setting 'tetragonal'
loop_
_space_group_symop_operation_xyz
x,y,z
y,-x,-z
-x,-y,z
-y,x,-z
y,x,-z
-y,-x,-z
-x,y,z
x,-y,z
loop_
_atom_site_type_symbol
_atom_site_label
_atom_site_fract_x
_atom_site_fract_y
_atom_site_fract_z
Si Si1 0.680809 0.309147 0.764178
Si Si2 0.302859 0.000000 0.288505
Si Si3 0.310768 0.184903 0.046579
Si Si4 0.190019 0.810566 0.856957
Si Si5 0.191274 0.686030 0.452882
Si Si6 0.304810 0.000000 0.395230
O O1 0.500000 0.229971 0.751217
O O2 0.674153 0.500000 0.750512
O O3 0.707739 0.293701 0.819498
O O4 0.834495 0.226670 0.735938
O O5 0.248099 0.000000 0.341881
O O6 0.500000 0.000000 0.282704
O O7 0.500000 0.183545 0.061535
O O8 0.213976 0.262490 0.090843
O O9 0.244515 0.000000 0.036010
O O10 0.290936 0.290936 0.000000
O O11 0.000000 0.748701 0.856670
O O12 0.205517 0.000000 0.842143
O O13 0.295557 0.704444 0.500000
O O14 0.226797 0.500000 0.432513
O O15 0.235671 0.829759 0.416569
O O16 0.000000 0.704438 0.466694
O O17 0.500000 0.000000 0.401652
#
# Coordination Sequence:
#
# PCOD8309683 Si02
#       6
#     8   4   8   8   8   4
#     4  10  20  36  61  88 114 153 201 249 304 364
#     4   9  20  39  61  87 125 161 201 255 308 366
#     4  10  21  36  55  79 109 146 185 231 286 346
#     4  10  20  35  57  83 110 145 188 237 296 358
#     4  11  23  40  63  92 128 172 220 269 323 384
#     4  11  23  39  63  97 129 169 215 266 325 380
#
# _framework density 21.370418999999998
#
# number of rings (size 3 to 8) (size 9 to 14) (size 15 to 20)
#    0.000    1.800    2.000    2.100    0.000    5.400 
#    0.000    4.000    0.000    0.000    0.000    0.000 
#    0.000    0.000    0.000    0.000    0.000    0.000 
#
# Total GULP energy -495875.747511 kJ/mol
# GULP energy per Si atom -12396.893688 kJ/mol
# Density = 2.132178 g / cm^3
# Si number density = 21.370419 Si / 1000 Ang^3
#
#
#
# Elastic Constant Matrix: (Units=GPa)
#
#
# Indices 1 2 3 4 5 6 
#
# 1 108.5272 33.0317 46.2849 0.0000 0.0000 0.0000
# 2 33.0317 108.5278 46.2852 0.0000 0.0000 0.0000
# 3 46.2849 46.2852 137.4600 0.0000 0.0000 0.0000
# 4 0.0000 0.0000 0.0000 24.0903 0.0000 0.0000
# 5 0.0000 0.0000 0.0000 0.0000 24.0897 0.0000
# 6 0.0000 0.0000 0.0000 0.0000 0.0000 20.0349
#
#
#
# Elastic Compliance Matrix: (Units=1/GPa)
#
#
# Indices 1 2 3 4 5 6 
#
# 1 0.011152 -0.002093 -0.003050 0.000000 0.000000 0.000000
# 2 -0.002093 0.011152 -0.003050 0.000000 0.000000 0.000000
# 3 -0.003050 -0.003050 0.009329 0.000000 0.000000 0.000000
# 4 0.000000 0.000000 0.000000 0.041510 0.000000 0.000000
# 5 0.000000 0.000000 0.000000 0.000000 0.041512 0.000000
# 6 0.000000 0.000000 0.000000 0.000000 0.000000 0.049913
#
#
# Mechanical properties :
#
#
# Convention : Reuss Voigt Hill
#
# Bulk Modulus (GPa) = 65.59259 67.30210 66.44734
# Shear Modulus (GPa) = 26.87619 28.90386 27.89002
#
# Velocity S-wave (km/s) = 3.55016 3.68165 3.61650
# Velocity P-wave (km/s) = 6.89671 7.04515 6.97133
#
# Compressibility (1/GPa) = 0.01524563
#
# Stress axis : x y z
#
# Youngs Moduli (GPa) = 89.66736 89.66772 107.19269
#
# Poissons Ratio (x) = 0.18772 0.32697
# Poissons Ratio (y) = 0.18772 0.32697
# Poissons Ratio (z) = 0.27351 0.27351
#
# Static dielectric constant tensor:
#      x y z
#    x 3.902470 0.000000 0.000000 
#    y 0.000000 3.902470 0.000000 
#    z 0.000000 0.000000 3.732960 
# 
# 
# High freq. dielectric constant tensor:
#      x y z
#    x 1.832200 0.000000 0.000000 
#    y 0.000000 1.832200 0.000000 
#    z 0.000000 0.000000 1.829240 
# 
# From -- ./inp_files/5492.got.cif
#   From: 2010.03.12/outbox.cif.g09.slc.cpg/sg115_3_cif.got.tgz:5492.got - 2010.04.14 02:11:21.
