data_PCOD8309280
_publ_section_title
;
Structure prediction by ZEFSAII (Michael W. Deem and Ramdas Pophale) SiO2 
 PCOD8309280
Probable space group: P -4 M 2
;
_chemical_formula_sum "Si O2"
_cell_formula_units_Z 64
_cell_length_a 13.766839
_cell_length_b 13.766839
_cell_length_c 19.345556
_cell_angle_alpha 90.000000
_cell_angle_beta 90.000000
_cell_angle_gamma 90.000000
_cell_volume 3666.483062
_symmetry_space_group_name_H-M "P -4 M 2"
_symmetry_group_IT_number 115
_symmetry_cell_setting 'tetragonal'
loop_
_space_group_symop_operation_xyz
x,y,z
y,-x,-z
-x,-y,z
-y,x,-z
y,x,-z
-y,-x,-z
-x,y,z
x,-y,z
loop_
_atom_site_type_symbol
_atom_site_label
_atom_site_fract_x
_atom_site_fract_y
_atom_site_fract_z
Si Si1 0.887252 0.225768 0.949010
Si Si2 0.387251 0.725768 0.449010
Si Si3 0.887181 0.894016 0.822600
Si Si4 0.386026 0.739683 0.047792
Si Si5 0.388367 0.747164 0.208521
Si Si6 0.605984 0.612819 0.677401
Si Si7 0.888367 0.752837 0.708521
Si Si8 0.760318 0.113975 0.452208
O O1 0.847088 0.188243 0.874835
O O2 0.834639 0.324567 0.973908
O O3 0.000000 0.250312 0.948532
O O4 0.863153 0.136848 0.000000
O O5 0.363153 0.636848 0.500000
O O6 0.500000 0.750312 0.448532
O O7 0.347088 0.688243 0.374834
O O8 0.334638 0.824567 0.473907
O O9 0.869855 0.856551 0.745002
O O10 0.000000 0.906336 0.839636
O O11 0.836366 0.000000 0.830880
O O12 0.500000 0.756271 0.034166
O O13 0.362462 0.725999 0.128921
O O14 0.350530 0.649471 0.000000
O O15 0.500000 0.780765 0.215396
O O16 0.369855 0.643450 0.245001
O O17 0.328384 0.828384 0.250000
O O18 0.500000 0.663634 0.669121
O O19 0.593664 0.500000 0.660365
O O20 0.862461 0.774003 0.628922
O O21 0.000000 0.719237 0.715396
O O22 0.850530 0.149471 0.500000
O O23 0.743731 0.000000 0.465833
#
# Coordination Sequence:
#
# PCOD8309280 Si02
#       8
#     8   8   8   8   8   8   8   8
#     4  10  19  32  51  77 108 139 175 220 275 334
#     4  10  19  32  51  77 108 139 175 220 275 334
#     4   9  17  29  47  73 102 133 171 216 270 326
#     4  10  22  37  54  77 109 149 190 230 273 326
#     4  10  19  33  52  77 109 142 180 228 280 333
#     4   9  17  29  47  73 102 133 171 216 270 326
#     4  10  19  33  52  77 109 142 180 228 280 333
#     4  10  22  37  54  77 109 149 190 230 273 326
#
# _framework density 17.45542
#
# number of rings (size 3 to 8) (size 9 to 14) (size 15 to 20)
#    0.000    2.250    2.500    0.750    0.000    3.250 
#    0.000    5.000    0.000    0.000    0.000    0.000 
#    0.000    0.500    0.000    0.000    0.000    0.000 
#
# Total GULP energy -792947.030217 kJ/mol
# GULP energy per Si atom -12389.797347 kJ/mol
# Density = 1.741569 g / cm^3
# Si number density = 17.455420 Si / 1000 Ang^3
#
#
#
# Elastic Constant Matrix: (Units=GPa)
#
#
# Indices 1 2 3 4 5 6 
#
# 1 91.9341 44.2511 35.6156 0.0000 0.0000 0.0000
# 2 44.2511 91.9359 35.6158 0.0000 0.0000 0.0000
# 3 35.6156 35.6158 104.7605 0.0000 0.0000 0.0000
# 4 0.0000 0.0000 0.0000 23.8569 0.0000 0.0000
# 5 0.0000 0.0000 0.0000 0.0000 23.8566 0.0000
# 6 0.0000 0.0000 0.0000 0.0000 0.0000 19.4306
#
#
#
# Elastic Compliance Matrix: (Units=1/GPa)
#
#
# Indices 1 2 3 4 5 6 
#
# 1 0.014951 -0.006020 -0.003036 0.000000 0.000000 0.000000
# 2 -0.006020 0.014951 -0.003036 0.000000 0.000000 0.000000
# 3 -0.003036 -0.003036 0.011610 0.000000 0.000000 0.000000
# 4 0.000000 0.000000 0.000000 0.041917 0.000000 0.000000
# 5 0.000000 0.000000 0.000000 0.000000 0.041917 0.000000
# 6 0.000000 0.000000 0.000000 0.000000 0.000000 0.051465
#
#
# Mechanical properties :
#
#
# Convention : Reuss Voigt Hill
#
# Bulk Modulus (GPa) = 57.71362 57.73282 57.72322
# Shear Modulus (GPa) = 24.18112 24.97201 24.57657
#
# Velocity S-wave (km/s) = 3.72601 3.78645 3.75635
# Velocity P-wave (km/s) = 7.18652 7.22928 7.20793
#
# Compressibility (1/GPa) = 0.01732693
#
# Stress axis : x y z
#
# Youngs Moduli (GPa) = 66.88343 66.88486 86.13188
#
# Poissons Ratio (x) = 0.40266 0.26153
# Poissons Ratio (y) = 0.40265 0.26152
# Poissons Ratio (z) = 0.20308 0.20308
#
# Static dielectric constant tensor:
#      x y z
#    x 3.151260 0.000000 0.000000 
#    y 0.000000 3.151250 0.000000 
#    z 0.000000 0.000000 3.448130 
# 
# 
# High freq. dielectric constant tensor:
#      x y z
#    x 1.658940 0.000000 0.000000 
#    y 0.000000 1.658940 0.000000 
#    z 0.000000 0.000000 1.685370 
# 
# From -- ./inp_files/4482.got.cif
#   From: 2010.03.12/outbox.cif.g09.slc.cpg/sg115_3_cif.got.tgz:4482.got - 2010.04.14 02:11:21.
