data_PCOD8309605
_publ_section_title
;
Structure prediction by ZEFSAII (Michael W. Deem and Ramdas Pophale) SiO2 
 PCOD8309605
Probable space group: P -4 M 2
;
_chemical_formula_sum "Si O2"
_cell_formula_units_Z 48
_cell_length_a 9.098334
_cell_length_b 9.098334
_cell_length_c 30.814284
_cell_angle_alpha 90.000000
_cell_angle_beta 90.000000
_cell_angle_gamma 90.000000
_cell_volume 2550.796617
_symmetry_space_group_name_H-M "P -4 M 2"
_symmetry_group_IT_number 115
_symmetry_cell_setting 'tetragonal'
loop_
_space_group_symop_operation_xyz
x,y,z
y,-x,-z
-x,-y,z
-y,x,-z
y,x,-z
-y,-x,-z
-x,y,z
x,-y,z
loop_
_atom_site_type_symbol
_atom_site_label
_atom_site_fract_x
_atom_site_fract_y
_atom_site_fract_z
Si Si1 0.830786 0.830786 0.000000
Si Si2 0.828126 0.670422 0.335694
Si Si3 0.167610 0.325551 0.165087
Si Si4 0.674841 0.665914 0.750161
Si Si5 0.826918 0.668383 0.587241
Si Si6 0.329419 0.828809 0.087249
Si Si7 0.330645 0.330645 0.500000
O O1 0.731234 0.782501 0.040334
O O2 0.000000 0.803443 0.012726
O O3 0.790632 0.500000 0.343493
O O4 0.746871 0.731770 0.292973
O O5 0.773531 0.761073 0.376593
O O6 0.000000 0.695767 0.328981
O O7 0.176921 0.500000 0.163238
O O8 0.249618 0.263800 0.207741
O O9 0.244642 0.263316 0.122858
O O10 0.000000 0.271078 0.166790
O O11 0.500000 0.667565 0.750921
O O12 0.736294 0.500000 0.750541
O O13 0.780173 0.500000 0.596714
O O14 0.765312 0.719821 0.540888
O O15 0.000000 0.687385 0.586622
O O16 0.500000 0.788355 0.089351
O O17 0.300561 0.000000 0.095853
O O18 0.301746 0.500000 0.488227
#
# Coordination Sequence:
#
# PCOD8309605 Si02
#       7
#     4   8   8   8   8   8   4
#     4   9  18  34  54  73  98 136 178 217 258 307
#     4  10  20  34  54  79 106 138 177 218 260 311
#     4  10  20  34  54  80 109 140 175 216 262 313
#     4   9  17  31  53  79 106 137 174 218 266 313
#     4  10  21  36  54  78 108 139 172 214 263 312
#     4  10  21  36  54  78 108 140 175 216 262 313
#     4   9  18  34  56  79 104 138 180 221 260 309
#
# _framework density 18.81765
#
# number of rings (size 3 to 8) (size 9 to 14) (size 15 to 20)
#    0.000    2.333    0.000    2.500    0.000    7.333 
#    0.000    4.167    0.000    5.000    0.000    0.000 
#    0.000    0.000    0.000    0.000    0.000    0.000 
#
# Total GULP energy -595372.266497 kJ/mol
# GULP energy per Si atom -12403.588885 kJ/mol
# Density = 1.877482 g / cm^3
# Si number density = 18.817650 Si / 1000 Ang^3
#
#
#
# Elastic Constant Matrix: (Units=GPa)
#
#
# Indices 1 2 3 4 5 6 
#
# 1 82.3463 38.8234 63.6826 0.0000 0.0000 0.0000
# 2 38.8234 82.3463 63.6826 0.0000 0.0000 0.0000
# 3 63.6826 63.6826 149.0655 0.0000 0.0000 0.0000
# 4 0.0000 0.0000 0.0000 -10.0126 0.0000 0.0000
# 5 0.0000 0.0000 0.0000 0.0000 -10.0126 0.0000
# 6 0.0000 0.0000 0.0000 0.0000 0.0000 24.6980
#
#
#
# Elastic Compliance Matrix: (Units=1/GPa)
#
#
# Indices 1 2 3 4 5 6 
#
# 1 0.018978 -0.003998 -0.006399 0.000000 0.000000 0.000000
# 2 -0.003998 0.018978 -0.006399 0.000000 0.000000 0.000000
# 3 -0.006399 -0.006399 0.012176 0.000000 0.000000 0.000000
# 4 0.000000 0.000000 0.000000 -0.099874 0.000000 0.000000
# 5 0.000000 0.000000 0.000000 0.000000 -0.099874 0.000000
# 6 0.000000 0.000000 0.000000 0.000000 0.000000 0.040489
#
#
# Mechanical properties :
#
#
# Convention : Reuss Voigt Hill
#
# Bulk Modulus (GPa) = 60.46820 71.79282 66.13051
# Shear Modulus (GPa) = -71.40827 10.77253 -30.31787
#
# Velocity S-wave (km/s) = -6.16684 2.39523 -4.01826
# Velocity P-wave (km/s) = 4.30151 6.77379 3.70008
#
# Compressibility (1/GPa) = 0.01653762
#
# Stress axis : x y z
#
# Youngs Moduli (GPa) = 52.69265 52.69265 82.12666
#
# Poissons Ratio (x) = 0.21069 0.52557
# Poissons Ratio (y) = 0.21069 0.52557
# Poissons Ratio (z) = 0.33720 0.33720
#
# Static dielectric constant tensor:
#      x y z
#    x 3.400660 0.000000 0.000000 
#    y 0.000000 3.400660 0.000000 
#    z 0.000000 0.000000 3.570480 
# 
# 
# High freq. dielectric constant tensor:
#      x y z
#    x 1.721950 0.000000 0.000000 
#    y 0.000000 1.721950 0.000000 
#    z 0.000000 0.000000 1.745480 
# 
# From -- ./inp_files/6217.got.cif
#   From: 2010.03.12/outbox.cif.g09.slc.cpg/sg115_4_cif.got.tgz:6217.got - 2010.04.14 02:11:21.
