data_PCOD8309498
_publ_section_title
;
Structure prediction by ZEFSAII (Michael W. Deem and Ramdas Pophale) SiO2 
 PCOD8309498
Probable space group: P -4 M 2
;
_chemical_formula_sum "Si O2"
_cell_formula_units_Z 48
_cell_length_a 9.101469
_cell_length_b 9.101469
_cell_length_c 30.831239
_cell_angle_alpha 90.000000
_cell_angle_beta 90.000000
_cell_angle_gamma 90.000000
_cell_volume 2553.959266
_symmetry_space_group_name_H-M "P -4 M 2"
_symmetry_group_IT_number 115
_symmetry_cell_setting 'tetragonal'
loop_
_space_group_symop_operation_xyz
x,y,z
y,-x,-z
-x,-y,z
-y,x,-z
y,x,-z
-y,-x,-z
-x,y,z
x,-y,z
loop_
_atom_site_type_symbol
_atom_site_label
_atom_site_fract_x
_atom_site_fract_y
_atom_site_fract_z
Si Si1 0.169741 0.168236 0.295210
Si Si2 0.825036 0.163612 0.047078
Si Si3 0.328293 0.172250 0.460356
Si Si4 0.831099 0.672428 0.131366
Si Si5 0.327811 0.829906 0.617137
Si Si6 0.327566 0.831310 0.208475
O O1 0.212545 0.271419 0.335253
O O2 0.262805 0.222851 0.254203
O O3 0.000000 0.185872 0.282797
O O4 0.207390 0.000000 0.307504
O O5 0.767940 0.266120 0.085906
O O6 0.000000 0.158627 0.045915
O O7 0.761876 0.000000 0.055157
O O8 0.773332 0.226668 0.000000
O O9 0.241153 0.241153 0.500000
O O10 0.500000 0.204606 0.466555
O O11 0.273803 0.244417 0.416160
O O12 0.295287 0.000000 0.458715
O O13 0.812852 0.500000 0.130211
O O14 0.736838 0.733983 0.170451
O O15 0.000000 0.720363 0.137894
O O16 0.500000 0.798236 0.614312
O O17 0.292361 0.000000 0.606534
O O18 0.500000 0.808555 0.210054
O O19 0.283059 0.000000 0.200157
#
# Coordination Sequence:
#
# PCOD8309498 Si02
#       6
#     8   8   8   8   8   8
#     4   9  18  34  56  80 107 141 180 221 264 311
#     4   8  14  27  49  74  98 128 169 215 259 304
#     4  11  24  40  59  84 113 146 185 227 270 317
#     4  10  20  33  51  76 105 137 173 213 259 312
#     4  10  21  37  58  85 115 145 179 219 264 317
#     4  10  21  36  54  77 105 138 177 220 265 313
#
# _framework density 18.794346000000001
#
# number of rings (size 3 to 8) (size 9 to 14) (size 15 to 20)
#    0.000    2.333    0.000    3.000    0.000    7.667 
#    0.000    4.167    0.000    3.000    0.000    0.000 
#    0.000    0.000    0.000    0.000    0.000    0.000 
#
# Total GULP energy -595281.082082 kJ/mol
# GULP energy per Si atom -12401.689210 kJ/mol
# Density = 1.875157 g / cm^3
# Si number density = 18.794346 Si / 1000 Ang^3
#
#
#
# Elastic Constant Matrix: (Units=GPa)
#
#
# Indices 1 2 3 4 5 6 
#
# 1 73.8102 46.5944 63.9476 0.0000 0.0000 0.0000
# 2 46.5944 73.8100 63.9476 0.0000 0.0000 0.0000
# 3 63.9476 63.9476 151.6594 0.0000 0.0000 0.0000
# 4 0.0000 0.0000 0.0000 -19.7402 0.0000 0.0000
# 5 0.0000 0.0000 0.0000 0.0000 -19.7404 0.0000
# 6 0.0000 0.0000 0.0000 0.0000 0.0000 24.1039
#
#
#
# Elastic Compliance Matrix: (Units=1/GPa)
#
#
# Indices 1 2 3 4 5 6 
#
# 1 0.025893 -0.010850 -0.006343 0.000000 0.000000 0.000000
# 2 -0.010850 0.025893 -0.006343 0.000000 0.000000 0.000000
# 3 -0.006343 -0.006343 0.011943 0.000000 0.000000 0.000000
# 4 0.000000 0.000000 0.000000 -0.050658 0.000000 0.000000
# 5 0.000000 0.000000 0.000000 0.000000 -0.050658 0.000000
# 6 0.000000 0.000000 0.000000 0.000000 0.000000 0.041487
#
#
# Mechanical properties :
#
#
# Convention : Reuss Voigt Hill
#
# Bulk Modulus (GPa) = 60.03518 72.02877 66.03197
# Shear Modulus (GPa) = 88.45685 5.24400 46.85042
#
# Velocity S-wave (km/s) = 6.86788 1.67220 4.99820
# Velocity P-wave (km/s) = 9.74182 6.49124 8.27766
#
# Compressibility (1/GPa) = 0.01665690
#
# Stress axis : x y z
#
# Youngs Moduli (GPa) = 38.62030 38.62020 83.73334
#
# Poissons Ratio (x) = 0.41904 0.53111
# Poissons Ratio (y) = 0.41904 0.53111
# Poissons Ratio (z) = 0.24496 0.24496
#
# Static dielectric constant tensor:
#      x y z
#    x 3.398320 0.000000 0.000000 
#    y 0.000000 3.398320 0.000000 
#    z 0.000000 0.000000 3.705820 
# 
# 
# High freq. dielectric constant tensor:
#      x y z
#    x 1.719140 0.000000 0.000000 
#    y 0.000000 1.719140 0.000000 
#    z 0.000000 0.000000 1.747130 
# 
# From -- ./inp_files/5956.got.cif
#   From: 2010.03.12/outbox.cif.g09.slc.cpg/sg115_3_cif.got.tgz:5956.got - 2010.04.14 02:11:21.
