data_PCOD8309391
_publ_section_title
;
Structure prediction by ZEFSAII (Michael W. Deem and Ramdas Pophale) SiO2 
 PCOD8309391
Probable space group: P -4 M 2
;
_chemical_formula_sum "Si O2"
_cell_formula_units_Z 37
_cell_length_a 10.946579
_cell_length_b 10.946579
_cell_length_c 16.700935
_cell_angle_alpha 90.000000
_cell_angle_beta 90.000000
_cell_angle_gamma 90.000000
_cell_volume 2001.232822
_symmetry_space_group_name_H-M "P -4 M 2"
_symmetry_group_IT_number 115
_symmetry_cell_setting 'tetragonal'
loop_
_space_group_symop_operation_xyz
x,y,z
y,-x,-z
-x,-y,z
-y,x,-z
y,x,-z
-y,-x,-z
-x,y,z
x,-y,z
loop_
_atom_site_type_symbol
_atom_site_label
_atom_site_fract_x
_atom_site_fract_y
_atom_site_fract_z
Si Si1 0.725421 0.236779 0.861847
Si Si2 0.357181 0.363230 0.591722
Si Si3 0.500000 0.859804 0.955796
Si Si4 0.863022 0.863022 0.000000
Si Si5 0.138678 0.355824 0.299451
Si Si6 0.500000 0.500000 0.000000
Si Si7 0.267295 0.500000 0.889205
O O1 0.615206 0.210277 0.921408
O O2 0.717747 0.152702 0.783439
O O3 0.728998 0.378916 0.833723
O O4 0.841278 0.213828 0.918822
O O5 0.329636 0.329636 0.500000
O O6 0.500000 0.372636 0.606694
O O7 0.301822 0.500000 0.612711
O O8 0.306251 0.247089 0.642339
O O9 0.500000 0.000000 0.928531
O O10 0.500000 0.850535 0.052242
O O11 0.000000 0.836160 0.026677
O O12 0.155345 0.500000 0.282965
O O13 0.000000 0.330586 0.332575
O O14 0.382891 0.500000 0.945511
#
# Coordination Sequence:
#
# PCOD8309391 Si02
#       7
#     8   8   4   4   8   1   4
#     4  12  22  34  50  74 105 138 178 229 269 323
#     4   8  15  30  51  76 104 135 168 209 263 325
#     4  12  20  34  52  68  97 139 180 224 272 313
#     4  11  23  38  55  71  94 140 194 235 273 318
#     4  10  20  32  49  77 108 140 176 219 271 325
#     4  12  16  36  40  60 100 128 174 232 268 308
#     4  12  22  32  48  72  99 139 184 225 281 319
#
# _framework density 18.488605
#
# number of rings (size 3 to 8) (size 9 to 14) (size 15 to 20)
#    0.000    1.405    5.405    2.595    1.514    0.000 
#    0.000    0.000    0.000    1.297    0.000    0.000 
#    0.000    0.000    0.000    0.000    0.000    0.000 
#
# Total GULP energy -458393.323503 kJ/mol
# GULP energy per Si atom -12389.008743 kJ/mol
# Density = 1.844652 g / cm^3
# Si number density = 18.488605 Si / 1000 Ang^3
#
#
#
# Elastic Constant Matrix: (Units=GPa)
#
#
# Indices 1 2 3 4 5 6 
#
# 1 96.4743 23.5169 29.2815 0.0000 0.0000 0.0000
# 2 23.5169 96.4743 29.2815 0.0000 0.0000 0.0000
# 3 29.2815 29.2815 79.5561 0.0000 0.0000 0.0000
# 4 0.0000 0.0000 0.0000 17.5562 0.0000 0.0000
# 5 0.0000 0.0000 0.0000 0.0000 17.5562 0.0000
# 6 0.0000 0.0000 0.0000 0.0000 0.0000 9.3803
#
#
#
# Elastic Compliance Matrix: (Units=1/GPa)
#
#
# Indices 1 2 3 4 5 6 
#
# 1 0.011933 -0.001774 -0.003739 0.000000 0.000000 0.000000
# 2 -0.001774 0.011933 -0.003739 0.000000 0.000000 0.000000
# 3 -0.003739 -0.003739 0.015322 0.000000 0.000000 0.000000
# 4 0.000000 0.000000 0.000000 0.056960 0.000000 0.000000
# 5 0.000000 0.000000 0.000000 0.000000 0.056960 0.000000
# 6 0.000000 0.000000 0.000000 0.000000 0.000000 0.106606
#
#
# Mechanical properties :
#
#
# Convention : Reuss Voigt Hill
#
# Bulk Modulus (GPa) = 48.34764 48.51832 48.43298
# Shear Modulus (GPa) = 17.53696 21.59354 19.56525
#
# Velocity S-wave (km/s) = 3.08316 3.42122 3.25658
# Velocity P-wave (km/s) = 6.23548 6.47345 6.35558
#
# Compressibility (1/GPa) = 0.02068353
#
# Stress axis : x y z
#
# Youngs Moduli (GPa) = 83.80310 83.80310 65.26495
#
# Poissons Ratio (x) = 0.14866 0.24403
# Poissons Ratio (y) = 0.14866 0.24403
# Poissons Ratio (z) = 0.31335 0.31335
#
# Static dielectric constant tensor:
#      x y z
#    x 3.241670 0.000000 0.000000 
#    y 0.000000 3.241670 0.000000 
#    z 0.000000 0.000000 3.230080 
# 
# 
# High freq. dielectric constant tensor:
#      x y z
#    x 1.704260 0.000000 0.000000 
#    y 0.000000 1.704260 0.000000 
#    z 0.000000 0.000000 1.688040 
# 
# From -- ./inp_files/3663.got.cif
#   From: 2010.03.12/outbox.cif.g09.slc.cpg/sg115_2_cif.got.tgz:3663.got - 2010.04.14 02:11:21.
