data_PCOD8309370
_publ_section_title
;
Structure prediction by ZEFSAII (Michael W. Deem and Ramdas Pophale) SiO2 
 PCOD8309370
Probable space group: P -4 M 2
;
_chemical_formula_sum "Si O2"
_cell_formula_units_Z 44
_cell_length_a 9.318903
_cell_length_b 9.318903
_cell_length_c 27.965774
_cell_angle_alpha 90.000000
_cell_angle_beta 90.000000
_cell_angle_gamma 90.000000
_cell_volume 2428.602435
_symmetry_space_group_name_H-M "P -4 M 2"
_symmetry_group_IT_number 115
_symmetry_cell_setting 'tetragonal'
loop_
_space_group_symop_operation_xyz
x,y,z
y,-x,-z
-x,-y,z
-y,x,-z
y,x,-z
-y,-x,-z
-x,y,z
x,-y,z
loop_
_atom_site_type_symbol
_atom_site_label
_atom_site_fract_x
_atom_site_fract_y
_atom_site_fract_z
Si Si1 0.332502 0.332502 0.500000
Si Si2 0.334658 0.331055 0.233366
Si Si3 0.161564 0.671010 0.141482
Si Si4 0.836885 0.166529 0.311076
Si Si5 0.329005 0.339857 0.947465
Si Si6 0.165253 0.164761 0.421502
O O1 0.298997 0.500000 0.500379
O O2 0.264992 0.266584 0.452427
O O3 0.500000 0.288482 0.226904
O O4 0.314820 0.500000 0.239089
O O5 0.249289 0.272840 0.187225
O O6 0.273572 0.258689 0.280692
O O7 0.162659 0.500000 0.140303
O O8 0.234875 0.732483 0.093320
O O9 0.000000 0.730943 0.144440
O O10 0.804647 0.199225 0.366282
O O11 0.000000 0.211019 0.298493
O O12 0.812971 0.000000 0.299759
O O13 0.500000 0.345632 0.945659
O O14 0.268050 0.500000 0.938262
O O15 0.282235 0.282235 0.000000
O O16 0.000000 0.195224 0.434331
O O17 0.202753 0.000000 0.433013
#
# Coordination Sequence:
#
# PCOD8309370 Si02
#       6
#     4   8   8   8   8   8
#     4  11  24  37  50  76 112 141 166 203 250 296
#     4  10  20  32  48  73 104 135 167 206 250 295
#     4   9  16  26  42  65  93 125 161 200 242 290
#     4   9  19  36  56  77 101 130 166 208 252 298
#     4   8  13  22  38  60  85 114 150 193 240 289
#     4   9  19  37  59  79  99 129 171 212 248 294
#
# _framework density 18.117414
#
# number of rings (size 3 to 8) (size 9 to 14) (size 15 to 20)
#    0.000    2.818    0.000    3.273    0.000    7.273 
#    0.000    5.455    0.000    1.091    0.000    2.545 
#    0.000    0.000    0.000    0.000    0.000    0.000 
#
# Total GULP energy -545566.746044 kJ/mol
# GULP energy per Si atom -12399.244228 kJ/mol
# Density = 1.807618 g / cm^3
# Si number density = 18.117414 Si / 1000 Ang^3
#
#
#
# Elastic Constant Matrix: (Units=GPa)
#
#
# Indices 1 2 3 4 5 6 
#
# 1 90.6875 55.5388 70.8828 0.0000 0.0000 0.0000
# 2 55.5388 90.6875 70.8828 0.0000 0.0000 0.0000
# 3 70.8828 70.8828 141.3354 0.0000 0.0000 0.0000
# 4 0.0000 0.0000 0.0000 17.3867 0.0000 0.0000
# 5 0.0000 0.0000 0.0000 0.0000 17.3867 0.0000
# 6 0.0000 0.0000 0.0000 0.0000 0.0000 24.0081
#
#
#
# Elastic Compliance Matrix: (Units=1/GPa)
#
#
# Indices 1 2 3 4 5 6 
#
# 1 0.020881 -0.007570 -0.006676 0.000000 0.000000 0.000000
# 2 -0.007570 0.020881 -0.006676 0.000000 0.000000 0.000000
# 3 -0.006676 -0.006676 0.013771 0.000000 0.000000 0.000000
# 4 0.000000 0.000000 0.000000 0.057515 0.000000 0.000000
# 5 0.000000 0.000000 0.000000 0.000000 0.057515 0.000000
# 6 0.000000 0.000000 0.000000 0.000000 0.000000 0.041653
#
#
# Mechanical properties :
#
#
# Convention : Reuss Voigt Hill
#
# Bulk Modulus (GPa) = 73.04470 79.70211 76.37341
# Shear Modulus (GPa) = 19.33329 20.11670 19.72500
#
# Velocity S-wave (km/s) = 3.27021 3.33581 3.30317
# Velocity P-wave (km/s) = 7.39351 7.67622 7.53619
#
# Compressibility (1/GPa) = 0.01369025
#
# Stress axis : x y z
#
# Youngs Moduli (GPa) = 47.89126 47.89126 72.61503
#
# Poissons Ratio (x) = 0.36254 0.48475
# Poissons Ratio (y) = 0.36254 0.48475
# Poissons Ratio (z) = 0.31970 0.31970
#
# Static dielectric constant tensor:
#      x y z
#    x 3.168810 0.000000 0.000000 
#    y 0.000000 3.168810 0.000000 
#    z 0.000000 0.000000 3.506880 
# 
# 
# High freq. dielectric constant tensor:
#      x y z
#    x 1.679610 0.000000 0.000000 
#    y 0.000000 1.679610 0.000000 
#    z 0.000000 0.000000 1.717940 
# 
# From -- ./inp_files/5742.got.cif
#   From: 2010.03.12/outbox.cif.g09.slc.cpg/sg115_3_cif.got.tgz:5742.got - 2010.04.14 02:11:21.
