data_PCOD8309842
_publ_section_title
;
Structure prediction by ZEFSAII (Michael W. Deem and Ramdas Pophale) SiO2 
 PCOD8309842
Probable space group: P -4 M 2
;
_chemical_formula_sum "Si O2"
_cell_formula_units_Z 40
_cell_length_a 9.281283
_cell_length_b 9.281283
_cell_length_c 25.581975
_cell_angle_alpha 90.000000
_cell_angle_beta 90.000000
_cell_angle_gamma 90.000000
_cell_volume 2203.687968
_symmetry_space_group_name_H-M "P -4 M 2"
_symmetry_group_IT_number 115
_symmetry_cell_setting 'tetragonal'
loop_
_space_group_symop_operation_xyz
x,y,z
y,-x,-z
-x,-y,z
-y,x,-z
y,x,-z
-y,-x,-z
-x,y,z
x,-y,z
loop_
_atom_site_type_symbol
_atom_site_label
_atom_site_fract_x
_atom_site_fract_y
_atom_site_fract_z
Si Si1 0.832173 0.165310 0.148207
Si Si2 0.332173 0.334689 0.648207
Si Si3 0.167067 0.332933 0.750000
Si Si4 0.166678 0.330659 0.044798
Si Si5 0.333322 0.830659 0.544799
O O1 0.750144 0.224146 0.199100
O O2 0.783713 0.261488 0.099383
O O3 0.000000 0.181619 0.159640
O O4 0.789788 0.000000 0.136157
O O5 0.500000 0.318379 0.659640
O O6 0.289789 0.500000 0.636158
O O7 0.250143 0.275854 0.699100
O O8 0.283712 0.238513 0.599383
O O9 0.199184 0.500000 0.759324
O O10 0.000000 0.300817 0.740677
O O11 0.193453 0.500000 0.047769
O O12 0.000000 0.293519 0.033186
O O13 0.264610 0.264610 0.000000
O O14 0.235391 0.764610 0.500000
O O15 0.500000 0.793519 0.533186
O O16 0.306546 0.000000 0.547770
#
# Coordination Sequence:
#
# PCOD8309842 Si02
#       5
#     8   8   8   8   8
#     4   9  18  33  52  73  99 133 170 206 249 303
#     4   9  18  33  52  73  99 133 170 206 249 303
#     4   9  18  32  50  73 100 130 166 207 250 297
#     4  10  21  36  54  77 104 135 172 213 258 307
#     4  10  21  36  54  77 104 135 172 213 258 307
#
# _framework density 18.151391
#
# number of rings (size 3 to 8) (size 9 to 14) (size 15 to 20)
#    0.000    2.600    0.000    1.200    0.000    5.600 
#    0.000    4.000    0.000    0.000    0.000    0.000 
#    0.000    0.000    0.000    0.000    0.000    0.000 
#
# Total GULP energy -496136.113117 kJ/mol
# GULP energy per Si atom -12403.402828 kJ/mol
# Density = 1.811008 g / cm^3
# Si number density = 18.151391 Si / 1000 Ang^3
#
#
#
# Elastic Constant Matrix: (Units=GPa)
#
#
# Indices 1 2 3 4 5 6 
#
# 1 72.7354 46.0142 80.4869 0.0000 0.0000 0.0000
# 2 46.0142 72.7345 80.4853 0.0000 0.0000 0.0000
# 3 80.4869 80.4853 188.5031 0.0000 0.0000 0.0000
# 4 0.0000 0.0000 0.0000 39.2196 0.0000 0.0000
# 5 0.0000 0.0000 0.0000 0.0000 39.2196 0.0000
# 6 0.0000 0.0000 0.0000 0.0000 0.0000 23.2612
#
#
#
# Elastic Compliance Matrix: (Units=1/GPa)
#
#
# Indices 1 2 3 4 5 6 
#
# 1 0.028709 -0.008716 -0.008537 0.000000 0.000000 0.000000
# 2 -0.008716 0.028708 -0.008536 0.000000 0.000000 0.000000
# 3 -0.008537 -0.008536 0.012595 0.000000 0.000000 0.000000
# 4 0.000000 0.000000 0.000000 0.025497 0.000000 0.000000
# 5 0.000000 0.000000 0.000000 0.000000 0.025497 0.000000
# 6 0.000000 0.000000 0.000000 0.000000 0.000000 0.042990
#
#
# Mechanical properties :
#
#
# Convention : Reuss Voigt Hill
#
# Bulk Modulus (GPa) = 54.24602 83.10508 68.67555
# Shear Modulus (GPa) = 22.55115 28.80587 25.67851
#
# Velocity S-wave (km/s) = 3.52858 3.98801 3.76531
# Velocity P-wave (km/s) = 6.82286 8.19082 7.53793
#
# Compressibility (1/GPa) = 0.01843453
#
# Stress axis : x y z
#
# Youngs Moduli (GPa) = 34.83277 34.83322 79.39888
#
# Poissons Ratio (x) = 0.30359 0.67780
# Poissons Ratio (y) = 0.30359 0.67776
# Poissons Ratio (z) = 0.29736 0.29734
#
# Static dielectric constant tensor:
#      x y z
#    x 3.305200 0.000000 0.000000 
#    y 0.000000 3.305200 0.000000 
#    z 0.000000 0.000000 3.511890 
# 
# 
# High freq. dielectric constant tensor:
#      x y z
#    x 1.697310 0.000000 0.000000 
#    y 0.000000 1.697310 0.000000 
#    z 0.000000 0.000000 1.713810 
# 
# From -- ./inp_files/5077.got.cif
#   From: 2010.03.12/outbox.cif.g09.slc.cpg/sg115_3_cif.got.tgz:5077.got - 2010.04.14 02:11:21.
