data_PCOD8309900
_publ_section_title
;
Structure prediction by ZEFSAII (Michael W. Deem and Ramdas Pophale) SiO2 
 PCOD8309900
Probable space group: P -4 M 2
;
_chemical_formula_sum "Si O2"
_cell_formula_units_Z 44
_cell_length_a 9.235138
_cell_length_b 9.235138
_cell_length_c 28.329220
_cell_angle_alpha 90.000000
_cell_angle_beta 90.000000
_cell_angle_gamma 90.000000
_cell_volume 2416.136110
_symmetry_space_group_name_H-M "P -4 M 2"
_symmetry_group_IT_number 115
_symmetry_cell_setting 'tetragonal'
loop_
_space_group_symop_operation_xyz
x,y,z
y,-x,-z
-x,-y,z
-y,x,-z
y,x,-z
-y,-x,-z
-x,y,z
x,-y,z
loop_
_atom_site_type_symbol
_atom_site_label
_atom_site_fract_x
_atom_site_fract_y
_atom_site_fract_z
Si Si1 0.672391 0.161017 0.856754
Si Si2 0.665536 0.832299 0.677320
Si Si3 0.832196 0.830208 0.417500
Si Si4 0.337831 0.672487 0.231361
Si Si5 0.669913 0.330088 0.500000
Si Si6 0.337744 0.828239 0.960704
O O1 0.500000 0.154482 0.854140
O O2 0.736336 0.263344 0.815794
O O3 0.716741 0.221161 0.908564
O O4 0.735597 0.000000 0.848818
O O5 0.500000 0.788896 0.664962
O O6 0.767280 0.793141 0.633565
O O7 0.726286 0.745100 0.722089
O O8 0.675147 0.000000 0.690642
O O9 0.730454 0.750334 0.454380
O O10 0.000000 0.800124 0.430270
O O11 0.798061 0.000000 0.418080
O O12 0.500000 0.733382 0.233357
O O13 0.334976 0.500000 0.229583
O O14 0.500000 0.298048 0.504632
O O15 0.500000 0.770087 0.970063
O O16 0.335770 0.000000 0.962862
O O17 0.232054 0.767947 0.000000
#
# Coordination Sequence:
#
# PCOD8309900 Si02
#       6
#     8   8   8   8   4   8
#     4   8  14  26  43  63  90 123 157 194 239 292
#     4   9  17  30  49  72  99 132 166 200 242 291
#     4  10  21  37  57  80 105 135 172 211 250 295
#     4   9  16  25  41  68  98 125 157 200 245 288
#     4  11  24  39  56  80 108 137 170 209 252 298
#     4   9  18  31  47  69  96 126 162 204 248 296
#
# _framework density 18.210896000000002
#
# number of rings (size 3 to 8) (size 9 to 14) (size 15 to 20)
#    0.000    2.818    0.000    2.727    0.000    6.909 
#    0.000    3.636    0.000    1.091    0.000    2.545 
#    0.000    0.000    0.000    0.000    0.000    0.000 
#
# Total GULP energy -545516.364221 kJ/mol
# GULP energy per Si atom -12398.099187 kJ/mol
# Density = 1.816945 g / cm^3
# Si number density = 18.210896 Si / 1000 Ang^3
#
#
#
# Elastic Constant Matrix: (Units=GPa)
#
#
# Indices 1 2 3 4 5 6 
#
# 1 72.0202 38.5491 68.4597 0.0000 0.0000 0.0000
# 2 38.5491 72.0191 68.4592 0.0000 0.0000 0.0000
# 3 68.4597 68.4592 169.4262 0.0000 0.0000 0.0000
# 4 0.0000 0.0000 0.0000 -10.2599 0.0000 0.0000
# 5 0.0000 0.0000 0.0000 0.0000 -10.2374 0.0000
# 6 0.0000 0.0000 0.0000 0.0000 0.0000 19.4093
#
#
#
# Elastic Compliance Matrix: (Units=1/GPa)
#
#
# Indices 1 2 3 4 5 6 
#
# 1 0.023989 -0.005888 -0.007314 0.000000 0.000000 0.000000
# 2 -0.005888 0.023989 -0.007314 0.000000 0.000000 0.000000
# 3 -0.007314 -0.007314 0.011813 0.000000 0.000000 0.000000
# 4 0.000000 0.000000 0.000000 -0.097467 0.000000 0.000000
# 5 0.000000 0.000000 0.000000 0.000000 -0.097681 0.000000
# 6 0.000000 0.000000 0.000000 0.000000 0.000000 0.051522
#
#
# Mechanical properties :
#
#
# Convention : Reuss Voigt Hill
#
# Bulk Modulus (GPa) = 53.30714 73.82238 63.56476
# Shear Modulus (GPa) = -136.80055 8.98224 -63.90916
#
# Velocity S-wave (km/s) = -8.67659 2.22330 -5.93044
# Velocity P-wave (km/s) = 8.42864 6.87141 3.45151
#
# Compressibility (1/GPa) = 0.01875921
#
# Stress axis : x y z
#
# Youngs Moduli (GPa) = 41.68570 41.68514 84.65177
#
# Poissons Ratio (x) = 0.24543 0.61916
# Poissons Ratio (y) = 0.24544 0.61916
# Poissons Ratio (z) = 0.30490 0.30489
#
# Static dielectric constant tensor:
#      x y z
#    x 3.353210 0.000000 0.000000 
#    y 0.000000 3.353280 0.000000 
#    z 0.000000 0.000000 3.602240 
# 
# 
# High freq. dielectric constant tensor:
#      x y z
#    x 1.682010 0.000000 0.000000 
#    y 0.000000 1.682010 0.000000 
#    z 0.000000 0.000000 1.722970 
# 
# From -- ./inp_files/5722.got.cif
#   From: 2010.03.12/outbox.cif.g09.slc.cpg/sg115_3_cif.got.tgz:5722.got - 2010.04.14 02:11:21.
