data_PCOD8309474
_publ_section_title
;
Structure prediction by ZEFSAII (Michael W. Deem and Ramdas Pophale) SiO2 
 PCOD8309474
Probable space group: P -4 M 2
;
_chemical_formula_sum "Si O2"
_cell_formula_units_Z 44
_cell_length_a 9.339115
_cell_length_b 9.339115
_cell_length_c 28.072969
_cell_angle_alpha 90.000000
_cell_angle_beta 90.000000
_cell_angle_gamma 90.000000
_cell_volume 2448.498220
_symmetry_space_group_name_H-M "P -4 M 2"
_symmetry_group_IT_number 115
_symmetry_cell_setting 'tetragonal'
loop_
_space_group_symop_operation_xyz
x,y,z
y,-x,-z
-x,-y,z
-y,x,-z
y,x,-z
-y,-x,-z
-x,y,z
x,-y,z
loop_
_atom_site_type_symbol
_atom_site_label
_atom_site_fract_x
_atom_site_fract_y
_atom_site_fract_z
Si Si1 0.159266 0.667734 0.537684
Si Si2 0.331573 0.166102 0.724097
Si Si3 0.165721 0.834280 0.000000
Si Si4 0.831671 0.663444 0.645569
Si Si5 0.670281 0.662049 0.815850
Si Si6 0.667625 0.834633 0.906987
O O1 0.264988 0.735013 0.500000
O O2 0.159039 0.500000 0.529132
O O3 0.209972 0.701686 0.591341
O O4 0.000000 0.729552 0.529641
O O5 0.500000 0.188778 0.717449
O O6 0.254071 0.226298 0.677812
O O7 0.273270 0.251780 0.770008
O O8 0.293033 0.000000 0.730864
O O9 0.253531 0.780622 0.954365
O O10 0.000000 0.804029 0.989592
O O11 0.786965 0.500000 0.657530
O O12 0.000000 0.683342 0.653797
O O13 0.500000 0.663163 0.816048
O O14 0.730024 0.500000 0.814355
O O15 0.726932 0.740774 0.863198
O O16 0.500000 0.811118 0.914827
O O17 0.703242 0.000000 0.895982
#
# Coordination Sequence:
#
# PCOD8309474 Si02
#       6
#     8   8   4   8   8   8
#     4   9  19  35  53  74 101 132 166 205 248 295
#     4  10  20  33  51  76 103 131 166 207 249 296
#     4   9  18  32  48  67  94 126 156 189 234 286
#     4   9  19  36  54  72  99 134 168 204 249 297
#     4   9  17  30  49  72  97 126 161 201 244 289
#     4   9  17  30  48  68  91 121 156 194 236 282
#
# _framework density 17.970199999999998
#
# number of rings (size 3 to 8) (size 9 to 14) (size 15 to 20)
#    0.000    2.818    0.000    2.182    0.000    6.182 
#    0.000    6.364    0.000    3.273    0.000    0.000 
#    0.000    0.000    0.000    0.000    0.000    0.000 
#
# Total GULP energy -545614.769486 kJ/mol
# GULP energy per Si atom -12400.335670 kJ/mol
# Density = 1.792930 g / cm^3
# Si number density = 17.970200 Si / 1000 Ang^3
#
#
#
# Elastic Constant Matrix: (Units=GPa)
#
#
# Indices 1 2 3 4 5 6 
#
# 1 69.9851 39.4856 68.8672 0.0000 0.0000 0.0000
# 2 39.4856 69.9877 68.8676 0.0000 0.0000 0.0000
# 3 68.8672 68.8676 160.2083 0.0000 0.0000 0.0000
# 4 0.0000 0.0000 0.0000 21.3686 0.0000 0.0000
# 5 0.0000 0.0000 0.0000 0.0000 21.3716 0.0000
# 6 0.0000 0.0000 0.0000 0.0000 0.0000 23.9128
#
#
#
# Elastic Compliance Matrix: (Units=1/GPa)
#
#
# Indices 1 2 3 4 5 6 
#
# 1 0.026341 -0.006446 -0.008552 0.000000 0.000000 0.000000
# 2 -0.006446 0.026340 -0.008552 0.000000 0.000000 0.000000
# 3 -0.008552 -0.008552 0.013594 0.000000 0.000000 0.000000
# 4 0.000000 0.000000 0.000000 0.046798 0.000000 0.000000
# 5 0.000000 0.000000 0.000000 0.000000 0.046791 0.000000
# 6 0.000000 0.000000 0.000000 0.000000 0.000000 0.041819
#
#
# Mechanical properties :
#
#
# Convention : Reuss Voigt Hill
#
# Bulk Modulus (GPa) = 52.14959 72.73579 62.44269
# Shear Modulus (GPa) = 19.59455 21.52797 20.56126
#
# Velocity S-wave (km/s) = 3.30569 3.46494 3.38625
# Velocity P-wave (km/s) = 6.60705 7.52140 7.07900
#
# Compressibility (1/GPa) = 0.01917560
#
# Stress axis : x y z
#
# Youngs Moduli (GPa) = 37.96362 37.96568 73.56106
#
# Poissons Ratio (x) = 0.24472 0.62911
# Poissons Ratio (y) = 0.24470 0.62907
# Poissons Ratio (z) = 0.32467 0.32467
#
# Static dielectric constant tensor:
#      x y z
#    x 3.225280 0.000000 0.000000 
#    y 0.000000 3.225280 0.000000 
#    z 0.000000 0.000000 3.443440 
# 
# 
# High freq. dielectric constant tensor:
#      x y z
#    x 1.682960 0.000000 0.000000 
#    y 0.000000 1.682960 0.000000 
#    z 0.000000 0.000000 1.707420 
# 
# From -- ./inp_files/5704.got.cif
#   From: 2010.03.12/outbox.cif.g09.slc.cpg/sg115_3_cif.got.tgz:5704.got - 2010.04.14 02:11:21.
