data_PCOD8309996
_publ_section_title
;
Structure prediction by ZEFSAII (Michael W. Deem and Ramdas Pophale) SiO2 
 PCOD8309996
Probable space group: P -4 M 2
;
_chemical_formula_sum "Si O2"
_cell_formula_units_Z 48
_cell_length_a 9.431159
_cell_length_b 9.431159
_cell_length_c 27.143472
_cell_angle_alpha 90.000000
_cell_angle_beta 90.000000
_cell_angle_gamma 90.000000
_cell_volume 2414.323892
_symmetry_space_group_name_H-M "P -4 M 2"
_symmetry_group_IT_number 115
_symmetry_cell_setting 'tetragonal'
loop_
_space_group_symop_operation_xyz
x,y,z
y,-x,-z
-x,-y,z
-y,x,-z
y,x,-z
-y,-x,-z
-x,y,z
x,-y,z
loop_
_atom_site_type_symbol
_atom_site_label
_atom_site_fract_x
_atom_site_fract_y
_atom_site_fract_z
Si Si1 0.000000 0.834219 0.810596
Si Si2 0.000000 0.165052 0.927633
Si Si3 0.662643 0.271957 0.053476
Si Si4 0.658248 0.330131 0.553541
Si Si5 0.671592 0.225147 0.250680
Si Si6 0.841473 0.338633 0.640713
Si Si7 0.162823 0.500000 0.109611
Si Si8 0.163566 0.500000 0.226106
O O1 0.135050 0.749049 0.791256
O O2 0.000000 0.824837 0.869039
O O3 0.000000 0.000000 0.793865
O O4 0.128578 0.250313 0.951238
O O5 0.000000 0.000000 0.944383
O O6 0.500000 0.250786 0.072058
O O7 0.750929 0.363810 0.092241
O O8 0.655437 0.344564 0.000000
O O9 0.718950 0.281051 0.500000
O O10 0.500000 0.273120 0.561055
O O11 0.662214 0.500000 0.553865
O O12 0.746662 0.262444 0.598906
O O13 0.500000 0.222951 0.243374
O O14 0.721699 0.168894 0.304118
O O15 0.741009 0.376305 0.247159
O O16 0.790201 0.500000 0.644324
O O17 0.000000 0.324326 0.621246
O O18 0.158615 0.500000 0.167780
O O19 0.000000 0.500000 0.089084
O O20 0.000000 0.500000 0.245842
#
# Coordination Sequence:
#
# PCOD8309996 Si02
#       8
#     4   4   8   8   8   8   4   4
#     4  11  23  43  65  89 127 167 203 249 308 365
#     4  11  27  45  67  97 125 163 213 255 296 367
#     4  12  26  43  68  97 129 162 202 251 314 369
#     4   8  14  25  45  75 109 146 192 245 299 352
#     4  11  22  37  62  93 123 159 206 260 303 361
#     4   9  17  30  49  80 115 150 192 243 300 350
#     4  11  25  45  69  91 125 167 205 249 304 373
#     4  11  25  43  61  89 125 165 203 245 312 375
#
# _framework density 19.881342
#
# number of rings (size 3 to 8) (size 9 to 14) (size 15 to 20)
#    0.000    1.667    1.667    3.500    3.500    6.667 
#    0.000    0.000    0.000    2.000    0.000    0.000 
#    0.000    0.000    0.000    0.000    0.000    0.000 
#
# Total GULP energy -594847.274887 kJ/mol
# GULP energy per Si atom -12392.651560 kJ/mol
# Density = 1.983609 g / cm^3
# Si number density = 19.881342 Si / 1000 Ang^3
#
#
#
# Elastic Constant Matrix: (Units=GPa)
#
#
# Indices 1 2 3 4 5 6 
#
# 1 112.0056 36.9160 17.7413 0.0000 0.0000 0.0000
# 2 36.9160 112.0055 17.7411 0.0000 0.0000 0.0000
# 3 17.7413 17.7411 80.8857 0.0000 0.0000 0.0000
# 4 0.0000 0.0000 0.0000 21.0359 0.0000 0.0000
# 5 0.0000 0.0000 0.0000 0.0000 21.0351 0.0000
# 6 0.0000 0.0000 0.0000 0.0000 0.0000 30.8145
#
#
#
# Elastic Compliance Matrix: (Units=1/GPa)
#
#
# Indices 1 2 3 4 5 6 
#
# 1 0.010201 -0.003116 -0.001554 0.000000 0.000000 0.000000
# 2 -0.003116 0.010201 -0.001554 0.000000 0.000000 0.000000
# 3 -0.001554 -0.001554 0.013045 0.000000 0.000000 0.000000
# 4 0.000000 0.000000 0.000000 0.047538 0.000000 0.000000
# 5 0.000000 0.000000 0.000000 0.000000 0.047540 0.000000
# 6 0.000000 0.000000 0.000000 0.000000 0.000000 0.032452
#
#
# Mechanical properties :
#
#
# Convention : Reuss Voigt Hill
#
# Bulk Modulus (GPa) = 47.62111 49.96595 48.79353
# Shear Modulus (GPa) = 27.71231 30.07699 28.89465
#
# Velocity S-wave (km/s) = 3.73753 3.89372 3.81643
# Velocity P-wave (km/s) = 6.52918 6.73806 6.63444
#
# Compressibility (1/GPa) = 0.02099909
#
# Stress axis : x y z
#
# Youngs Moduli (GPa) = 98.02652 98.02644 76.65859
#
# Poissons Ratio (x) = 0.30546 0.11913
# Poissons Ratio (y) = 0.30546 0.11913
# Poissons Ratio (z) = 0.15234 0.15234
#
# Static dielectric constant tensor:
#      x y z
#    x 2.921030 0.000000 0.000000 
#    y 0.000000 2.921030 0.000000 
#    z 0.000000 0.000000 3.827780 
# 
# 
# High freq. dielectric constant tensor:
#      x y z
#    x 1.766140 0.000000 0.000000 
#    y 0.000000 1.766140 0.000000 
#    z 0.000000 0.000000 1.785720 
# 
# From -- ./inp_files/6285.got.cif
#   From: 2010.03.12/outbox.cif.g09.slc.cpg/sg115_4_cif.got.tgz:6285.got - 2010.04.14 02:11:21.
