data_PCOD8309744
_publ_section_title
;
Structure prediction by ZEFSAII (Michael W. Deem and Ramdas Pophale) SiO2 
 PCOD8309744
Probable space group: P -4 M 2
;
_chemical_formula_sum "Si O2"
_cell_formula_units_Z 48
_cell_length_a 9.519222
_cell_length_b 9.519222
_cell_length_c 30.313787
_cell_angle_alpha 90.000000
_cell_angle_beta 90.000000
_cell_angle_gamma 90.000000
_cell_volume 2746.901618
_symmetry_space_group_name_H-M "P -4 M 2"
_symmetry_group_IT_number 115
_symmetry_cell_setting 'tetragonal'
loop_
_space_group_symop_operation_xyz
x,y,z
y,-x,-z
-x,-y,z
-y,x,-z
y,x,-z
-y,-x,-z
-x,y,z
x,-y,z
loop_
_atom_site_type_symbol
_atom_site_label
_atom_site_fract_x
_atom_site_fract_y
_atom_site_fract_z
Si Si1 0.666960 0.344380 0.215716
Si Si2 0.835725 0.159349 0.050185
Si Si3 0.163781 0.337758 0.702886
Si Si4 0.836968 0.835161 0.381805
Si Si5 0.659412 0.333977 0.118216
Si Si6 0.659344 0.661806 0.448500
O O1 0.500000 0.349905 0.215502
O O2 0.726984 0.500000 0.225533
O O3 0.721602 0.240258 0.253578
O O4 0.715326 0.292394 0.167209
O O5 0.755399 0.262788 0.082139
O O6 0.000000 0.176144 0.058816
O O7 0.788150 0.000000 0.059657
O O8 0.799274 0.200727 0.000000
O O9 0.203007 0.500000 0.693223
O O10 0.214789 0.244451 0.661928
O O11 0.000000 0.319420 0.711626
O O12 0.771238 0.756699 0.423378
O O13 0.000000 0.794676 0.377132
O O14 0.816442 0.000000 0.389552
O O15 0.500000 0.281689 0.111632
O O16 0.668487 0.500000 0.112176
O O17 0.685448 0.685448 0.500000
O O18 0.500000 0.706298 0.436127
O O19 0.683859 0.500000 0.435688
#
# Coordination Sequence:
#
# PCOD8309744 Si02
#       6
#     8   8   8   8   8   8
#     4   8  15  29  48  70  96 124 155 195 242 288
#     4   9  19  35  51  68  94 128 165 203 242 287
#     4   9  17  30  49  71  94 125 166 205 239 280
#     4  10  21  35  50  72 104 137 166 199 242 291
#     4   9  18  32  50  74 102 128 157 197 244 293
#     4   9  19  36  56  77 100 127 163 206 248 291
#
# _framework density 17.474233999999999
#
# number of rings (size 3 to 8) (size 9 to 14) (size 15 to 20)
#    0.000    3.000    0.000    2.500    0.000    4.667 
#    0.000    9.167    0.000    3.000    0.000    0.000 
#    0.000    0.000    0.000    0.000    0.000    0.000 
#
# Total GULP energy -595117.398170 kJ/mol
# GULP energy per Si atom -12398.279129 kJ/mol
# Density = 1.743446 g / cm^3
# Si number density = 17.474234 Si / 1000 Ang^3
#
#
#
# Elastic Constant Matrix: (Units=GPa)
#
#
# Indices 1 2 3 4 5 6 
#
# 1 63.2148 38.8275 60.6011 0.0000 0.0000 0.0000
# 2 38.8275 63.2148 60.6010 0.0000 0.0000 0.0000
# 3 60.6011 60.6010 125.4422 0.0000 0.0000 0.0000
# 4 0.0000 0.0000 0.0000 -5.1347 0.0000 0.0000
# 5 0.0000 0.0000 0.0000 0.0000 -5.1369 0.0000
# 6 0.0000 0.0000 0.0000 0.0000 0.0000 27.8996
#
#
#
# Elastic Compliance Matrix: (Units=1/GPa)
#
#
# Indices 1 2 3 4 5 6 
#
# 1 0.031999 -0.009005 -0.011108 0.000000 0.000000 0.000000
# 2 -0.009005 0.031999 -0.011108 0.000000 0.000000 0.000000
# 3 -0.011108 -0.011108 0.018705 0.000000 0.000000 0.000000
# 4 0.000000 0.000000 0.000000 -0.194754 0.000000 0.000000
# 5 0.000000 0.000000 0.000000 0.000000 -0.194671 0.000000
# 6 0.000000 0.000000 0.000000 0.000000 0.000000 0.035843
#
#
# Mechanical properties :
#
#
# Convention : Reuss Voigt Hill
#
# Bulk Modulus (GPa) = 49.36044 63.54791 56.45418
# Shear Modulus (GPa) = -24.79164 9.64842 -7.57161
#
# Velocity S-wave (km/s) = -3.77072 2.35234 -2.08385
# Velocity P-wave (km/s) = 3.05796 6.61994 5.15629
#
# Compressibility (1/GPa) = 0.02025914
#
# Stress axis : x y z
#
# Youngs Moduli (GPa) = 31.25051 31.25057 53.46245
#
# Poissons Ratio (x) = 0.28143 0.59388
# Poissons Ratio (y) = 0.28143 0.59388
# Poissons Ratio (z) = 0.34714 0.34714
#
# Static dielectric constant tensor:
#      x y z
#    x 3.152030 0.000000 0.000000 
#    y 0.000000 3.152030 0.000000 
#    z 0.000000 0.000000 3.377260 
# 
# 
# High freq. dielectric constant tensor:
#      x y z
#    x 1.662820 0.000000 0.000000 
#    y 0.000000 1.662820 0.000000 
#    z 0.000000 0.000000 1.684830 
# 
# From -- ./inp_files/5975.got.cif
#   From: 2010.03.12/outbox.cif.g09.slc.cpg/sg115_3_cif.got.tgz:5975.got - 2010.04.14 02:11:21.
