data_PCOD8309906
_publ_section_title
;
Structure prediction by ZEFSAII (Michael W. Deem and Ramdas Pophale) SiO2 
 PCOD8309906
Probable space group: P -4 M 2
;
_chemical_formula_sum "Si O2"
_cell_formula_units_Z 40
_cell_length_a 9.237207
_cell_length_b 9.237207
_cell_length_c 25.679329
_cell_angle_alpha 90.000000
_cell_angle_beta 90.000000
_cell_angle_gamma 90.000000
_cell_volume 2191.114251
_symmetry_space_group_name_H-M "P -4 M 2"
_symmetry_group_IT_number 115
_symmetry_cell_setting 'tetragonal'
loop_
_space_group_symop_operation_xyz
x,y,z
y,-x,-z
-x,-y,z
-y,x,-z
y,x,-z
-y,-x,-z
-x,y,z
x,-y,z
loop_
_atom_site_type_symbol
_atom_site_label
_atom_site_fract_x
_atom_site_fract_y
_atom_site_fract_z
Si Si1 0.665165 0.168225 0.695311
Si Si2 0.331997 0.332025 0.797202
Si Si3 0.169887 0.831807 0.591297
Si Si4 0.831772 0.168229 0.000000
Si Si5 0.669991 0.330010 0.500000
Si Si6 0.668079 0.831584 0.101517
O O1 0.500000 0.214099 0.681994
O O2 0.724434 0.251550 0.745756
O O3 0.767944 0.210228 0.647544
O O4 0.674495 0.000000 0.708145
O O5 0.500000 0.300634 0.806243
O O6 0.297995 0.500000 0.789175
O O7 0.248719 0.270902 0.847513
O O8 0.250133 0.731486 0.550275
O O9 0.000000 0.798416 0.590150
O O10 0.200899 0.000000 0.578166
O O11 0.750018 0.228352 0.050767
O O12 0.000000 0.200808 0.008237
O O13 0.500000 0.297943 0.504742
O O14 0.500000 0.797376 0.093500
O O15 0.699452 0.000000 0.109453
#
# Coordination Sequence:
#
# PCOD8309906 Si02
#       6
#     8   8   8   4   4   8
#     4   9  18  33  52  74 102 135 168 204 248 296
#     4   9  18  32  49  70  97 128 162 201 244 290
#     4  10  21  37  57  81 108 138 173 213 257 305
#     4   9  18  32  48  67  92 122 156 195 240 288
#     4  11  24  39  56  80 108 139 176 215 256 304
#     4   9  18  32  48  67  93 124 157 195 241 291
#
# _framework density 18.255552000000002
#
# number of rings (size 3 to 8) (size 9 to 14) (size 15 to 20)
#    0.000    2.600    0.000    1.200    0.000    6.400 
#    0.000    2.000    0.000    0.000    0.000    0.000 
#    0.000    0.000    0.000    0.000    0.000    0.000 
#
# Total GULP energy -496100.159149 kJ/mol
# GULP energy per Si atom -12402.503979 kJ/mol
# Density = 1.821400 g / cm^3
# Si number density = 18.255552 Si / 1000 Ang^3
#
#
#
# Elastic Constant Matrix: (Units=GPa)
#
#
# Indices 1 2 3 4 5 6 
#
# 1 73.4880 48.9748 79.6423 0.0000 0.0000 0.0000
# 2 48.9748 73.4884 79.6426 0.0000 0.0000 0.0000
# 3 79.6423 79.6426 187.1333 0.0000 0.0000 0.0000
# 4 0.0000 0.0000 0.0000 40.4480 0.0000 0.0000
# 5 0.0000 0.0000 0.0000 0.0000 40.4462 0.0000
# 6 0.0000 0.0000 0.0000 0.0000 0.0000 23.3108
#
#
#
# Elastic Compliance Matrix: (Units=1/GPa)
#
#
# Indices 1 2 3 4 5 6 
#
# 1 0.029542 -0.011252 -0.007784 0.000000 0.000000 0.000000
# 2 -0.011252 0.029542 -0.007784 0.000000 0.000000 0.000000
# 3 -0.007784 -0.007784 0.011970 0.000000 0.000000 0.000000
# 4 0.000000 0.000000 0.000000 0.024723 0.000000 0.000000
# 5 0.000000 0.000000 0.000000 0.000000 0.024724 0.000000
# 6 0.000000 0.000000 0.000000 0.000000 0.000000 0.042899
#
#
# Mechanical properties :
#
#
# Convention : Reuss Voigt Hill
#
# Bulk Modulus (GPa) = 57.42633 83.40322 70.41478
# Shear Modulus (GPa) = 22.43706 29.23101 25.83403
#
# Velocity S-wave (km/s) = 3.50959 4.00586 3.76591
# Velocity P-wave (km/s) = 6.92446 8.19643 7.58715
#
# Compressibility (1/GPa) = 0.01741361
#
# Stress axis : x y z
#
# Youngs Moduli (GPa) = 33.84963 33.84976 83.54414
#
# Poissons Ratio (x) = 0.38087 0.65034
# Poissons Ratio (y) = 0.38086 0.65034
# Poissons Ratio (z) = 0.26350 0.26350
#
# Static dielectric constant tensor:
#      x y z
#    x 3.458240 0.000000 0.000000 
#    y 0.000000 3.458280 0.000000 
#    z 0.000000 0.000000 3.595540 
# 
# 
# High freq. dielectric constant tensor:
#      x y z
#    x 1.701760 0.000000 0.000000 
#    y 0.000000 1.701760 0.000000 
#    z 0.000000 0.000000 1.720260 
# 
# From -- ./inp_files/5509.got.cif
#   From: 2010.03.12/outbox.cif.g09.slc.cpg/sg115_3_cif.got.tgz:5509.got - 2010.04.14 02:11:21.
