data_PCOD8309024
_publ_section_title
;
Structure prediction by ZEFSAII (Michael W. Deem and Ramdas Pophale) SiO2 
 PCOD8309024
Probable space group: P -4 21 C
;
_chemical_formula_sum "Si O2"
_cell_formula_units_Z 32
_cell_length_a 8.485280
_cell_length_b 8.485280
_cell_length_c 19.116768
_cell_angle_alpha 90.000000
_cell_angle_beta 90.000000
_cell_angle_gamma 90.000000
_cell_volume 1376.406850
_symmetry_space_group_name_H-M "P -4 21 C"
_symmetry_group_IT_number 114
_symmetry_cell_setting 'tetragonal'
loop_
_space_group_symop_operation_xyz
x,y,z
y,-x,-z
-x,-y,z
-y,x,-z
1/2+x,1/2-y,1/2-z
1/2-x,1/2+y,1/2-z
1/2-y,1/2-x,1/2+z
1/2+y,1/2+x,1/2+z
loop_
_atom_site_type_symbol
_atom_site_label
_atom_site_fract_x
_atom_site_fract_y
_atom_site_fract_z
Si Si1 0.954246 0.325674 0.884776
Si Si2 0.804020 0.273715 0.149744
Si Si3 0.162415 0.907491 0.776743
Si Si4 0.237691 0.096156 0.489225
O O1 0.842755 0.245681 0.826614
O O2 0.000000 0.500000 0.859236
O O3 0.107338 0.213414 0.891106
O O4 0.867189 0.330527 0.959285
O O5 0.653605 0.287048 0.200804
O O6 0.803108 0.407823 0.090163
O O7 0.968607 0.288097 0.191666
O O8 0.000000 0.000000 0.768089
O O9 0.081503 0.203035 0.488262
#
# Coordination Sequence:
#
# PCOD8309024 Si02
#       4
#     8   8   8   8
#     4  11  23  45  68 103 142 182 244 295 364 430
#     4  11  24  44  72 103 145 190 241 300 359 445
#     4  10  25  44  73 109 142 192 237 306 364 438
#     4  11  26  43  70 100 145 191 239 300 361 439
#
# _framework density 23.248937999999999
#
# number of rings (size 3 to 8) (size 9 to 14) (size 15 to 20)
#    0.000    1.250    2.500    1.500    7.000    2.000 
#    0.000    6.250    0.000    0.000    0.000    0.000 
#    0.000    0.000    0.000    0.000    0.000    0.000 
#
# Total GULP energy -396874.392634 kJ/mol
# GULP energy per Si atom -12402.324770 kJ/mol
# Density = 2.319602 g / cm^3
# Si number density = 23.248938 Si / 1000 Ang^3
#
#
#
# Elastic Constant Matrix: (Units=GPa)
#
#
# Indices 1 2 3 4 5 6 
#
# 1 91.8577 21.9986 61.3108 0.0000 0.0000 0.0000
# 2 21.9986 91.8577 61.3108 0.0000 0.0000 0.0000
# 3 61.3108 61.3108 182.4061 0.0000 0.0000 0.0000
# 4 0.0000 0.0000 0.0000 42.1144 0.0000 0.0000
# 5 0.0000 0.0000 0.0000 0.0000 42.1144 0.0000
# 6 0.0000 0.0000 0.0000 0.0000 0.0000 32.5468
#
#
#
# Elastic Compliance Matrix: (Units=1/GPa)
#
#
# Indices 1 2 3 4 5 6 
#
# 1 0.014040 -0.000274 -0.004627 0.000000 0.000000 0.000000
# 2 -0.000274 0.014040 -0.004627 0.000000 0.000000 0.000000
# 3 -0.004627 -0.004627 0.008593 0.000000 0.000000 0.000000
# 4 0.000000 0.000000 0.000000 0.023745 0.000000 0.000000
# 5 0.000000 0.000000 0.000000 0.000000 0.023745 0.000000
# 6 0.000000 0.000000 0.000000 0.000000 0.000000 0.030725
#
#
# Mechanical properties :
#
#
# Convention : Reuss Voigt Hill
#
# Bulk Modulus (GPa) = 56.76354 72.81796 64.79075
# Shear Modulus (GPa) = 35.76084 38.12188 36.94136
#
# Velocity S-wave (km/s) = 3.92621 4.05375 3.99049
# Velocity P-wave (km/s) = 6.70984 7.30065 7.01147
#
# Compressibility (1/GPa) = 0.01761694
#
# Stress axis : x y z
#
# Youngs Moduli (GPa) = 71.22260 71.22260 116.37526
#
# Poissons Ratio (x) = 0.01952 0.53849
# Poissons Ratio (y) = 0.01952 0.53849
# Poissons Ratio (z) = 0.32956 0.32956
#
# Static dielectric constant tensor:
#      x y z
#    x 4.174080 0.000000 0.000000 
#    y 0.000000 4.174080 0.000000 
#    z 0.000000 0.000000 4.100250 
# 
# 
# High freq. dielectric constant tensor:
#      x y z
#    x 1.916520 0.000000 0.000000 
#    y 0.000000 1.916520 0.000000 
#    z 0.000000 0.000000 1.924340 
# 
# From -- ./inp_files/2815.got.cif
#   From: 2010.03.12/outbox.cif.g09.slc.cpg/sg114_2_cif.got.tgz:2815.got - 2010.04.14 02:08:34.
