data_PCOD8309875
_publ_section_title
;
Structure prediction by ZEFSAII (Michael W. Deem and Ramdas Pophale) SiO2 
 PCOD8309875
Probable space group: P -4 M 2
;
_chemical_formula_sum "Si O2"
_cell_formula_units_Z 48
_cell_length_a 8.892482
_cell_length_b 8.892482
_cell_length_c 30.664289
_cell_angle_alpha 90.000000
_cell_angle_beta 90.000000
_cell_angle_gamma 90.000000
_cell_volume 2424.816557
_symmetry_space_group_name_H-M "P -4 M 2"
_symmetry_group_IT_number 115
_symmetry_cell_setting 'tetragonal'
loop_
_space_group_symop_operation_xyz
x,y,z
y,-x,-z
-x,-y,z
-y,x,-z
y,x,-z
-y,-x,-z
-x,y,z
x,-y,z
loop_
_atom_site_type_symbol
_atom_site_label
_atom_site_fract_x
_atom_site_fract_y
_atom_site_fract_z
Si Si1 0.823457 0.673634 0.797245
Si Si2 0.827608 0.174896 0.627666
Si Si3 0.174353 0.675602 0.282986
Si Si4 0.824649 0.673467 0.959511
Si Si5 0.827719 0.677264 0.121576
Si Si6 0.822046 0.330442 0.540401
O O1 0.782218 0.500000 0.805584
O O2 0.767535 0.721808 0.749855
O O3 0.742422 0.777361 0.832414
O O4 0.000000 0.700859 0.800698
O O5 0.725991 0.221005 0.668658
O O6 0.762817 0.262385 0.585879
O O7 0.000000 0.219204 0.637889
O O8 0.813123 0.000000 0.616994
O O9 0.206362 0.500000 0.277395
O O10 0.000000 0.714281 0.273930
O O11 0.788238 0.500000 0.969419
O O12 0.740162 0.722208 0.916110
O O13 0.000000 0.700188 0.951987
O O14 0.771900 0.771900 0.000000
O O15 0.809187 0.500000 0.123231
O O16 0.000000 0.723572 0.112402
O O17 0.762121 0.237880 0.500000
O O18 0.763369 0.500000 0.536847
O O19 0.000000 0.319869 0.539408
#
# Coordination Sequence:
#
# PCOD8309875 Si02
#       6
#     8   8   8   8   8   8
#     4  11  24  40  59  85 116 151 192 236 282 335
#     4   9  18  34  56  80 108 145 187 229 274 327
#     4  10  21  37  58  85 115 147 185 229 278 334
#     4  11  24  41  62  90 122 156 197 241 286 340
#     4  11  24  41  62  89 119 152 193 239 287 341
#     4  10  21  36  55  80 110 144 183 228 277 330
#
# _framework density 19.795314000000001
#
# number of rings (size 3 to 8) (size 9 to 14) (size 15 to 20)
#    0.000    1.667    0.000    4.000    0.000   13.333 
#    0.000    3.333    0.000    0.000    0.000    0.000 
#    0.000    0.000    0.000    0.000    0.000    0.000 
#
# Total GULP energy -595483.526813 kJ/mol
# GULP energy per Si atom -12405.906809 kJ/mol
# Density = 1.975026 g / cm^3
# Si number density = 19.795314 Si / 1000 Ang^3
#
#
#
# Elastic Constant Matrix: (Units=GPa)
#
#
# Indices 1 2 3 4 5 6 
#
# 1 58.2053 51.4883 32.6227 0.0000 0.0000 0.0000
# 2 51.4883 58.2086 32.6233 0.0000 0.0000 0.0000
# 3 32.6227 32.6233 112.4745 0.0000 0.0000 0.0000
# 4 0.0000 0.0000 0.0000 67.7351 0.0000 0.0000
# 5 0.0000 0.0000 0.0000 0.0000 67.7363 0.0000
# 6 0.0000 0.0000 0.0000 0.0000 0.0000 27.4898
#
#
#
# Elastic Compliance Matrix: (Units=1/GPa)
#
#
# Indices 1 2 3 4 5 6 
#
# 1 0.079930 -0.068911 -0.003196 0.000000 0.000000 0.000000
# 2 -0.068911 0.079925 -0.003195 0.000000 0.000000 0.000000
# 3 -0.003196 -0.003195 0.010745 0.000000 0.000000 0.000000
# 4 0.000000 0.000000 0.000000 0.014763 0.000000 0.000000
# 5 0.000000 0.000000 0.000000 0.000000 0.014763 0.000000
# 6 0.000000 0.000000 0.000000 0.000000 0.000000 0.036377
#
#
# Mechanical properties :
#
#
# Convention : Reuss Voigt Hill
#
# Bulk Modulus (GPa) = 50.00873 51.37299 50.69086
# Shear Modulus (GPa) = 12.69770 40.06917 26.38344
#
# Velocity S-wave (km/s) = 2.53543 4.50396 3.65473
# Velocity P-wave (km/s) = 5.82143 7.28396 6.59337
#
# Compressibility (1/GPa) = 0.01999651
#
# Stress axis : x y z
#
# Youngs Moduli (GPa) = 12.51095 12.51170 93.07057
#
# Poissons Ratio (x) = 0.86219 0.29742
# Poissons Ratio (y) = 0.86214 0.29737
# Poissons Ratio (z) = 0.03998 0.03998
#
# Static dielectric constant tensor:
#      x y z
#    x 3.668870 0.000000 0.000000 
#    y 0.000000 3.668870 0.000000 
#    z 0.000000 0.000000 4.278550 
# 
# 
# High freq. dielectric constant tensor:
#      x y z
#    x 1.775780 0.000000 0.000000 
#    y 0.000000 1.775780 0.000000 
#    z 0.000000 0.000000 1.787290 
# 
# From -- ./inp_files/6073.got.cif
#   From: 2010.03.12/outbox.cif.g09.slc.cpg/sg115_4_cif.got.tgz:6073.got - 2010.04.14 02:11:21.
