data_PCOD8309566
_publ_section_title
;
Structure prediction by ZEFSAII (Michael W. Deem and Ramdas Pophale) SiO2 
 PCOD8309566
Probable space group: P -4 M 2
;
_chemical_formula_sum "Si O2"
_cell_formula_units_Z 48
_cell_length_a 9.155444
_cell_length_b 9.155444
_cell_length_c 31.414610
_cell_angle_alpha 90.000000
_cell_angle_beta 90.000000
_cell_angle_gamma 90.000000
_cell_volume 2633.240304
_symmetry_space_group_name_H-M "P -4 M 2"
_symmetry_group_IT_number 115
_symmetry_cell_setting 'tetragonal'
loop_
_space_group_symop_operation_xyz
x,y,z
y,-x,-z
-x,-y,z
-y,x,-z
y,x,-z
-y,-x,-z
-x,y,z
x,-y,z
loop_
_atom_site_type_symbol
_atom_site_label
_atom_site_fract_x
_atom_site_fract_y
_atom_site_fract_z
Si Si1 0.328198 0.830548 0.462198
Si Si2 0.669222 0.170570 0.295296
Si Si3 0.835425 0.826467 0.378035
Si Si4 0.825701 0.165899 0.136790
Si Si5 0.838507 0.174139 0.044728
Si Si6 0.668189 0.670688 0.210568
O O1 0.266165 0.733835 0.500000
O O2 0.500000 0.806444 0.458117
O O3 0.254477 0.772377 0.418915
O O4 0.289570 0.000000 0.470604
O O5 0.500000 0.203648 0.304220
O O6 0.759290 0.233322 0.335309
O O7 0.725838 0.252266 0.253310
O O8 0.698076 0.000000 0.288384
O O9 0.000000 0.765038 0.380708
O O10 0.834235 0.000000 0.376770
O O11 0.761300 0.212787 0.089869
O O12 0.761050 0.275749 0.170826
O O13 0.000000 0.176952 0.136756
O O14 0.777615 0.000000 0.147515
O O15 0.000000 0.241497 0.047519
O O16 0.847480 0.000000 0.040883
O O17 0.765653 0.234348 0.000000
O O18 0.500000 0.711868 0.202538
O O19 0.691857 0.500000 0.216216
#
# Coordination Sequence:
#
# PCOD8309566 Si02
#       6
#     8   8   8   8   8   8
#     4  10  20  34  53  77 105 137 172 207 243 286
#     4   9  17  31  51  72  94 123 161 204 248 293
#     4   9  17  30  51  78 103 127 159 202 250 295
#     4   9  17  29  48  74  98 121 155 199 244 290
#     4   7  10  19  38  65  94 119 145 185 238 289
#     4  10  21  35  49  67  95 132 169 201 238 287
#
# _framework density 18.228491999999999
#
# number of rings (size 3 to 8) (size 9 to 14) (size 15 to 20)
#    0.000    3.000    0.000    3.000    0.000    5.000 
#    0.000    2.500    0.000    4.000    0.000    5.833 
#    0.000    0.000    0.000    0.000    0.000    0.000 
#
# Total GULP energy -594820.683125 kJ/mol
# GULP energy per Si atom -12392.097565 kJ/mol
# Density = 1.818700 g / cm^3
# Si number density = 18.228492 Si / 1000 Ang^3
#
#
#
# Elastic Constant Matrix: (Units=GPa)
#
#
# Indices 1 2 3 4 5 6 
#
# 1 53.1553 25.6938 53.5493 0.0000 0.0000 0.0000
# 2 25.6938 53.1561 53.5507 0.0000 0.0000 0.0000
# 3 53.5493 53.5507 191.2264 0.0000 0.0000 0.0000
# 4 0.0000 0.0000 0.0000 1.5049 0.0000 0.0000
# 5 0.0000 0.0000 0.0000 0.0000 1.5044 0.0000
# 6 0.0000 0.0000 0.0000 0.0000 0.0000 19.2930
#
#
#
# Elastic Compliance Matrix: (Units=1/GPa)
#
#
# Indices 1 2 3 4 5 6 
#
# 1 0.028441 -0.007973 -0.005732 0.000000 0.000000 0.000000
# 2 -0.007973 0.028441 -0.005732 0.000000 0.000000 0.000000
# 3 -0.005732 -0.005732 0.008440 0.000000 0.000000 0.000000
# 4 0.000000 0.000000 0.000000 0.664481 0.000000 0.000000
# 5 0.000000 0.000000 0.000000 0.000000 0.664721 0.000000
# 6 0.000000 0.000000 0.000000 0.000000 0.000000 0.051832
#
#
# Mechanical properties :
#
#
# Convention : Reuss Voigt Hill
#
# Bulk Modulus (GPa) = 37.80984 62.56946 50.18965
# Shear Modulus (GPa) = 3.34662 15.44339 9.39501
#
# Velocity S-wave (km/s) = 1.35643 2.91385 2.27271
# Velocity P-wave (km/s) = 4.82083 6.76168 5.87200
#
# Compressibility (1/GPa) = 0.02644814
#
# Stress axis : x y z
#
# Youngs Moduli (GPa) = 35.16070 35.16082 118.49031
#
# Poissons Ratio (x) = 0.28035 0.67913
# Poissons Ratio (y) = 0.28034 0.67916
# Poissons Ratio (z) = 0.20152 0.20153
#
# Static dielectric constant tensor:
#      x y z
#    x 3.068160 0.000000 0.000000 
#    y 0.000000 3.068160 0.000000 
#    z 0.000000 0.000000 3.798980 
# 
# 
# High freq. dielectric constant tensor:
#      x y z
#    x 1.671830 0.000000 0.000000 
#    y 0.000000 1.671830 0.000000 
#    z 0.000000 0.000000 1.733370 
# 
# From -- ./inp_files/5955.got.cif
#   From: 2010.03.12/outbox.cif.g09.slc.cpg/sg115_3_cif.got.tgz:5955.got - 2010.04.14 02:11:21.
