data_PCOD8309599
_publ_section_title
;
Structure prediction by ZEFSAII (Michael W. Deem and Ramdas Pophale) SiO2 
 PCOD8309599
Probable space group: P -4 M 2
;
_chemical_formula_sum "Si O2"
_cell_formula_units_Z 48
_cell_length_a 9.021232
_cell_length_b 9.021232
_cell_length_c 30.965193
_cell_angle_alpha 90.000000
_cell_angle_beta 90.000000
_cell_angle_gamma 90.000000
_cell_volume 2520.028746
_symmetry_space_group_name_H-M "P -4 M 2"
_symmetry_group_IT_number 115
_symmetry_cell_setting 'tetragonal'
loop_
_space_group_symop_operation_xyz
x,y,z
y,-x,-z
-x,-y,z
-y,x,-z
y,x,-z
-y,-x,-z
-x,y,z
x,-y,z
loop_
_atom_site_type_symbol
_atom_site_label
_atom_site_fract_x
_atom_site_fract_y
_atom_site_fract_z
Si Si1 0.326905 0.829928 0.538487
Si Si2 0.176864 0.165428 0.047187
Si Si3 0.830475 0.824313 0.784665
Si Si4 0.823556 0.334165 0.130040
Si Si5 0.673746 0.328682 0.294509
Si Si6 0.170796 0.174080 0.372972
O O1 0.273913 0.726088 0.500000
O O2 0.500000 0.806098 0.546172
O O3 0.243138 0.779937 0.581642
O O4 0.289039 0.000000 0.527031
O O5 0.240280 0.269497 0.085104
O O6 0.000000 0.160754 0.048142
O O7 0.239331 0.000000 0.054902
O O8 0.226873 0.226873 0.000000
O O9 0.766953 0.768388 0.830436
O O10 0.733789 0.753274 0.747406
O O11 0.000000 0.771514 0.780712
O O12 0.818101 0.000000 0.780378
O O13 0.761454 0.500000 0.136191
O O14 0.000000 0.334730 0.128490
O O15 0.500000 0.305303 0.288986
O O16 0.716690 0.500000 0.299841
O O17 0.726552 0.241382 0.336368
O O18 0.000000 0.212393 0.362603
O O19 0.197809 0.000000 0.375124
#
# Coordination Sequence:
#
# PCOD8309599 Si02
#       6
#     8   8   8   8   8   8
#     4  10  21  37  58  84 113 146 182 220 265 315
#     4   8  13  22  38  61  89 121 158 201 248 298
#     4  10  20  34  54  79 105 135 174 218 263 313
#     4   9  16  26  43  69  99 129 163 207 257 306
#     4  11  24  39  55  78 109 143 177 215 263 318
#     4  10  21  38  61  86 110 140 181 226 269 314
#
# _framework density 19.047404
#
# number of rings (size 3 to 8) (size 9 to 14) (size 15 to 20)
#    0.000    2.333    0.000    3.500    0.000    9.000 
#    0.000    0.000    0.000    1.000    0.000    2.333 
#    0.000    0.000    0.000    0.000    0.000    0.000 
#
# Total GULP energy -595257.280662 kJ/mol
# GULP energy per Si atom -12401.193347 kJ/mol
# Density = 1.900405 g / cm^3
# Si number density = 19.047404 Si / 1000 Ang^3
#
#
#
# Elastic Constant Matrix: (Units=GPa)
#
#
# Indices 1 2 3 4 5 6 
#
# 1 58.5875 24.6126 40.0551 0.0000 0.0000 0.0000
# 2 24.6126 58.5882 40.0560 0.0000 0.0000 0.0000
# 3 40.0551 40.0560 143.2051 0.0000 0.0000 0.0000
# 4 0.0000 0.0000 0.0000 -18.8427 0.0000 0.0000
# 5 0.0000 0.0000 0.0000 0.0000 -18.8435 0.0000
# 6 0.0000 0.0000 0.0000 0.0000 0.0000 22.2090
#
#
#
# Elastic Compliance Matrix: (Units=1/GPa)
#
#
# Indices 1 2 3 4 5 6 
#
# 1 0.022941 -0.006492 -0.004601 0.000000 0.000000 0.000000
# 2 -0.006492 0.022941 -0.004601 0.000000 0.000000 0.000000
# 3 -0.004601 -0.004601 0.009557 0.000000 0.000000 0.000000
# 4 0.000000 0.000000 0.000000 -0.053071 0.000000 0.000000
# 5 0.000000 0.000000 0.000000 0.000000 -0.053069 0.000000
# 6 0.000000 0.000000 0.000000 0.000000 0.000000 0.045027
#
#
# Mechanical properties :
#
#
# Convention : Reuss Voigt Hill
#
# Bulk Modulus (GPa) = 41.57744 52.20313 46.89028
# Shear Modulus (GPa) = 148.22905 7.28170 77.75537
#
# Velocity S-wave (km/s) = 8.83120 1.95735 6.39614
# Velocity P-wave (km/s) = 11.21885 5.70743 8.90049
#
# Compressibility (1/GPa) = 0.02405151
#
# Stress axis : x y z
#
# Youngs Moduli (GPa) = 43.58949 43.58969 104.63681
#
# Poissons Ratio (x) = 0.28298 0.48143
# Poissons Ratio (y) = 0.28298 0.48144
# Poissons Ratio (z) = 0.20055 0.20056
#
# Static dielectric constant tensor:
#      x y z
#    x 3.388490 0.000000 0.000000 
#    y 0.000000 3.388490 0.000000 
#    z 0.000000 0.000000 3.814750 
# 
# 
# High freq. dielectric constant tensor:
#      x y z
#    x 1.723370 0.000000 0.000000 
#    y 0.000000 1.723370 0.000000 
#    z 0.000000 0.000000 1.759500 
# 
# From -- ./inp_files/5923.got.cif
#   From: 2010.03.12/outbox.cif.g09.slc.cpg/sg115_3_cif.got.tgz:5923.got - 2010.04.14 02:11:21.
