data_PCOD8309565
_publ_section_title
;
Structure prediction by ZEFSAII (Michael W. Deem and Ramdas Pophale) SiO2 
 PCOD8309565
Probable space group: P -4 M 2
;
_chemical_formula_sum "Si O2"
_cell_formula_units_Z 48
_cell_length_a 8.993261
_cell_length_b 8.993261
_cell_length_c 31.100858
_cell_angle_alpha 90.000000
_cell_angle_beta 90.000000
_cell_angle_gamma 90.000000
_cell_volume 2515.398314
_symmetry_space_group_name_H-M "P -4 M 2"
_symmetry_group_IT_number 115
_symmetry_cell_setting 'tetragonal'
loop_
_space_group_symop_operation_xyz
x,y,z
y,-x,-z
-x,-y,z
-y,x,-z
y,x,-z
-y,-x,-z
-x,y,z
x,-y,z
loop_
_atom_site_type_symbol
_atom_site_label
_atom_site_fract_x
_atom_site_fract_y
_atom_site_fract_z
Si Si1 0.672837 0.826069 0.209901
Si Si2 0.172000 0.675351 0.618894
Si Si3 0.670913 0.174803 0.039103
Si Si4 0.173905 0.326901 0.460196
Si Si5 0.332389 0.676802 0.875182
Si Si6 0.167123 0.823405 0.294773
O O1 0.500000 0.790730 0.216669
O O2 0.738603 0.745579 0.167781
O O3 0.758032 0.761238 0.251381
O O4 0.701026 0.000000 0.203697
O O5 0.193117 0.500000 0.619553
O O6 0.274583 0.744066 0.582478
O O7 0.230199 0.739612 0.664105
O O8 0.000000 0.718555 0.610412
O O9 0.500000 0.221889 0.031135
O O10 0.734869 0.247226 0.082688
O O11 0.687380 0.000000 0.043889
O O12 0.769468 0.230533 0.000000
O O13 0.233959 0.233959 0.500000
O O14 0.206826 0.500000 0.468249
O O15 0.000000 0.295459 0.455019
O O16 0.500000 0.737080 0.876836
O O17 0.325896 0.500000 0.874243
O O18 0.000000 0.760970 0.298398
O O19 0.168505 0.000000 0.292911
#
# Coordination Sequence:
#
# PCOD8309565 Si02
#       6
#     8   8   8   8   8   8
#     4   9  16  28  48  73 100 131 170 215 259 306
#     4  10  20  35  57  84 111 141 180 223 266 314
#     4  10  20  34  53  77 104 135 172 214 261 313
#     4  11  24  40  58  82 111 143 180 221 266 317
#     4   9  17  30  50  75 101 131 169 212 258 310
#     4   9  17  30  50  76 105 138 176 217 262 312
#
# _framework density 19.082463000000001
#
# number of rings (size 3 to 8) (size 9 to 14) (size 15 to 20)
#    0.000    2.333    0.000    3.000    0.000    9.333 
#    0.000    1.667    0.000    6.500    0.000    0.000 
#    0.000    0.000    0.000    0.000    0.000    0.000 
#
# Total GULP energy -595300.553727 kJ/mol
# GULP energy per Si atom -12402.094869 kJ/mol
# Density = 1.903903 g / cm^3
# Si number density = 19.082463 Si / 1000 Ang^3
#
#
#
# Elastic Constant Matrix: (Units=GPa)
#
#
# Indices 1 2 3 4 5 6 
#
# 1 69.4520 31.5124 47.8819 0.0000 0.0000 0.0000
# 2 31.5124 69.4533 47.8831 0.0000 0.0000 0.0000
# 3 47.8819 47.8831 169.2442 0.0000 0.0000 0.0000
# 4 0.0000 0.0000 0.0000 33.5144 0.0000 0.0000
# 5 0.0000 0.0000 0.0000 0.0000 33.5144 0.0000
# 6 0.0000 0.0000 0.0000 0.0000 0.0000 20.5565
#
#
#
# Elastic Compliance Matrix: (Units=1/GPa)
#
#
# Indices 1 2 3 4 5 6 
#
# 1 0.019947 -0.006410 -0.003830 0.000000 0.000000 0.000000
# 2 -0.006410 0.019947 -0.003830 0.000000 0.000000 0.000000
# 3 -0.003830 -0.003830 0.008076 0.000000 0.000000 0.000000
# 4 0.000000 0.000000 0.000000 0.029838 0.000000 0.000000
# 5 0.000000 0.000000 0.000000 0.000000 0.029838 0.000000
# 6 0.000000 0.000000 0.000000 0.000000 0.000000 0.048646
#
#
# Mechanical properties :
#
#
# Convention : Reuss Voigt Hill
#
# Bulk Modulus (GPa) = 50.42798 62.52268 56.47533
# Shear Modulus (GPa) = 26.17225 29.57521 27.87373
#
# Velocity S-wave (km/s) = 3.70744 3.94110 3.82606
# Velocity P-wave (km/s) = 6.69407 7.31747 7.01270
#
# Compressibility (1/GPa) = 0.01983026
#
# Stress axis : x y z
#
# Youngs Moduli (GPa) = 50.13223 50.13278 123.82781
#
# Poissons Ratio (x) = 0.32135 0.47424
# Poissons Ratio (y) = 0.32135 0.47426
# Poissons Ratio (z) = 0.19200 0.19201
#
# Static dielectric constant tensor:
#      x y z
#    x 3.375870 0.000000 0.000000 
#    y 0.000000 3.375870 0.000000 
#    z 0.000000 0.000000 3.870220 
# 
# 
# High freq. dielectric constant tensor:
#      x y z
#    x 1.724990 0.000000 0.000000 
#    y 0.000000 1.724990 0.000000 
#    z 0.000000 0.000000 1.762020 
# 
# From -- ./inp_files/5995.got.cif
#   From: 2010.03.12/outbox.cif.g09.slc.cpg/sg115_3_cif.got.tgz:5995.got - 2010.04.14 02:11:21.
