data_PCOD8309173
_publ_section_title
;
Structure prediction by ZEFSAII (Michael W. Deem and Ramdas Pophale) SiO2 
 PCOD8309173
Probable space group: P -4 M 2
;
_chemical_formula_sum "Si O2"
_cell_formula_units_Z 56
_cell_length_a 14.574139
_cell_length_b 14.574139
_cell_length_c 16.063110
_cell_angle_alpha 90.000000
_cell_angle_beta 90.000000
_cell_angle_gamma 90.000000
_cell_volume 3411.893354
_symmetry_space_group_name_H-M "P -4 M 2"
_symmetry_group_IT_number 115
_symmetry_cell_setting 'tetragonal'
loop_
_space_group_symop_operation_xyz
x,y,z
y,-x,-z
-x,-y,z
-y,x,-z
y,x,-z
-y,-x,-z
-x,y,z
x,-y,z
loop_
_atom_site_type_symbol
_atom_site_label
_atom_site_fract_x
_atom_site_fract_y
_atom_site_fract_z
Si Si1 0.891564 0.399636 0.337430
Si Si2 0.108957 0.602601 0.523514
Si Si3 0.891035 0.600139 0.995925
Si Si4 0.892087 0.784551 0.069614
Si Si5 0.733784 0.890913 0.332254
Si Si6 0.108877 0.398439 0.810207
Si Si7 0.107842 0.786338 0.258454
O O1 0.853335 0.500000 0.308484
O O2 0.855032 0.376056 0.430343
O O3 0.862919 0.319881 0.273273
O O4 0.000000 0.406245 0.342043
O O5 0.141695 0.500000 0.550701
O O6 0.146421 0.681572 0.585494
O O7 0.000000 0.605074 0.527295
O O8 0.852195 0.500000 0.023597
O O9 0.856534 0.679865 0.057460
O O10 0.000000 0.594555 0.995568
O O11 0.856270 0.625257 0.903018
O O12 0.867655 0.814672 0.163551
O O13 0.000000 0.789198 0.055016
O O14 0.849678 0.849678 0.000000
O O15 0.675912 0.852417 0.253939
O O16 0.835838 0.849353 0.323069
O O17 0.743004 0.000000 0.333192
O O18 0.143432 0.500000 0.784617
O O19 0.000000 0.396431 0.806625
O O20 0.000000 0.801045 0.276947
#
# Coordination Sequence:
#
# PCOD8309173 Si02
#       7
#     8   8   8   8   8   8   8
#     4   8  15  30  49  65  83 107 138 182 228 262
#     4   8  14  26  46  69  87 106 136 173 217 267
#     4   8  14  25  41  59  77  99 131 177 233 281
#     4  10  20  32  44  59  82 115 156 195 224 256
#     4  10  18  27  41  61  89 122 149 179 214 248
#     4   8  13  22  38  60  83 105 132 172 226 279
#     4  10  21  32  42  60  85 118 159 190 216 259
#
# _framework density 16.413173
#
# number of rings (size 3 to 8) (size 9 to 14) (size 15 to 20)
#    0.000    3.143    0.000    3.000    0.000    5.000 
#    0.000    4.286    0.000    0.000    0.000    4.000 
#    0.000    2.571    0.000   15.000    0.000    5.143 
#
# Total GULP energy -693790.930586 kJ/mol
# GULP energy per Si atom -12389.123760 kJ/mol
# Density = 1.637582 g / cm^3
# Si number density = 16.413173 Si / 1000 Ang^3
#
#
#
# Elastic Constant Matrix: (Units=GPa)
#
#
# Indices 1 2 3 4 5 6 
#
# 1 49.5715 23.6639 30.1832 0.0000 0.0000 0.0000
# 2 23.6639 49.5715 30.1832 0.0000 0.0000 0.0000
# 3 30.1832 30.1832 69.9641 0.0000 0.0000 0.0000
# 4 0.0000 0.0000 0.0000 22.9272 0.0000 0.0000
# 5 0.0000 0.0000 0.0000 0.0000 22.9272 0.0000
# 6 0.0000 0.0000 0.0000 0.0000 0.0000 0.8069
#
#
#
# Elastic Compliance Matrix: (Units=1/GPa)
#
#
# Indices 1 2 3 4 5 6 
#
# 1 0.029894 -0.008705 -0.009141 0.000000 0.000000 0.000000
# 2 -0.008705 0.029894 -0.009141 0.000000 0.000000 0.000000
# 3 -0.009141 -0.009141 0.022181 0.000000 0.000000 0.000000
# 4 0.000000 0.000000 0.000000 0.043616 0.000000 0.000000
# 5 0.000000 0.000000 0.000000 0.000000 0.043616 0.000000
# 6 0.000000 0.000000 0.000000 0.000000 0.000000 1.239282
#
#
# Mechanical properties :
#
#
# Convention : Reuss Voigt Hill
#
# Bulk Modulus (GPa) = 35.72184 37.46309 36.59247
# Shear Modulus (GPa) = 3.39722 15.00404 9.20063
#
# Velocity S-wave (km/s) = 1.44025 3.02677 2.37019
# Velocity P-wave (km/s) = 4.95753 5.92365 5.46199
#
# Compressibility (1/GPa) = 0.02799408
#
# Stress axis : x y z
#
# Youngs Moduli (GPa) = 33.45123 33.45123 45.08461
#
# Poissons Ratio (x) = 0.29118 0.41214
# Poissons Ratio (y) = 0.29118 0.41214
# Poissons Ratio (z) = 0.30579 0.30579
#
# Static dielectric constant tensor:
#      x y z
#    x 2.961110 0.000000 0.000000 
#    y 0.000000 2.961110 0.000000 
#    z 0.000000 0.000000 3.297350 
# 
# 
# High freq. dielectric constant tensor:
#      x y z
#    x 1.595860 0.000000 0.000000 
#    y 0.000000 1.595860 0.000000 
#    z 0.000000 0.000000 1.638420 
# 
# From -- ./inp_files/3786.got.cif
#   From: 2010.03.12/outbox.cif.g09.slc.cpg/sg115_2_cif.got.tgz:3786.got - 2010.04.14 02:11:21.
