data_PCOD8309528
_publ_section_title
;
Structure prediction by ZEFSAII (Michael W. Deem and Ramdas Pophale) SiO2 
 PCOD8309528
Probable space group: P -4 M 2
;
_chemical_formula_sum "Si O2"
_cell_formula_units_Z 44
_cell_length_a 9.294611
_cell_length_b 9.294611
_cell_length_c 28.263553
_cell_angle_alpha 90.000000
_cell_angle_beta 90.000000
_cell_angle_gamma 90.000000
_cell_volume 2441.682511
_symmetry_space_group_name_H-M "P -4 M 2"
_symmetry_group_IT_number 115
_symmetry_cell_setting 'tetragonal'
loop_
_space_group_symop_operation_xyz
x,y,z
y,-x,-z
-x,-y,z
-y,x,-z
y,x,-z
-y,-x,-z
-x,y,z
x,-y,z
loop_
_atom_site_type_symbol
_atom_site_label
_atom_site_fract_x
_atom_site_fract_y
_atom_site_fract_z
Si Si1 0.161723 0.670044 0.539001
Si Si2 0.170639 0.164963 0.732973
Si Si3 0.166705 0.833296 0.000000
Si Si4 0.829119 0.659746 0.643461
Si Si5 0.667950 0.667890 0.814526
Si Si6 0.667700 0.835011 0.907818
O O1 0.263748 0.736253 0.500000
O O2 0.163871 0.500000 0.533506
O O3 0.220867 0.712050 0.591354
O O4 0.000000 0.729118 0.531837
O O5 0.225319 0.228147 0.682828
O O6 0.242179 0.256571 0.773923
O O7 0.000000 0.179112 0.737905
O O8 0.221009 0.000000 0.736308
O O9 0.250758 0.777222 0.954054
O O10 0.000000 0.801560 0.991075
O O11 0.767302 0.500000 0.654859
O O12 0.000000 0.650812 0.643042
O O13 0.500000 0.695600 0.805126
O O14 0.705582 0.500000 0.815554
O O15 0.716115 0.736881 0.864112
O O16 0.500000 0.819685 0.918119
O O17 0.710164 0.000000 0.896452
#
# Coordination Sequence:
#
# PCOD8309528 Si02
#       6
#     8   8   4   8   8   8
#     4   9  18  32  50  73 100 130 165 204 246 294
#     4  10  20  33  52  78 103 128 163 207 253 301
#     4   9  18  32  50  73 100 128 160 201 246 291
#     4   8  15  30  50  70  96 130 165 203 247 293
#     4  10  21  36  53  74 101 134 171 208 248 296
#     4   9  18  33  51  70  96 130 163 198 245 296
#
# _framework density 18.020358999999999
#
# number of rings (size 3 to 8) (size 9 to 14) (size 15 to 20)
#    0.000    2.818    0.000    2.182    0.000    4.727 
#    0.000    4.545    0.000    1.091    0.000    0.000 
#    0.000    0.000    0.000    0.000    0.000    0.000 
#
# Total GULP energy -545561.397010 kJ/mol
# GULP energy per Si atom -12399.122659 kJ/mol
# Density = 1.797934 g / cm^3
# Si number density = 18.020359 Si / 1000 Ang^3
#
#
#
# Elastic Constant Matrix: (Units=GPa)
#
#
# Indices 1 2 3 4 5 6 
#
# 1 64.7917 34.5587 67.6579 0.0000 0.0000 0.0000
# 2 34.5587 64.7942 67.6585 0.0000 0.0000 0.0000
# 3 67.6579 67.6585 177.3498 0.0000 0.0000 0.0000
# 4 0.0000 0.0000 0.0000 74.5762 0.0000 0.0000
# 5 0.0000 0.0000 0.0000 0.0000 74.5894 0.0000
# 6 0.0000 0.0000 0.0000 0.0000 0.0000 24.9740
#
#
#
# Elastic Compliance Matrix: (Units=1/GPa)
#
#
# Indices 1 2 3 4 5 6 
#
# 1 0.027014 -0.006062 -0.007993 0.000000 0.000000 0.000000
# 2 -0.006062 0.027013 -0.007993 0.000000 0.000000 0.000000
# 3 -0.007993 -0.007993 0.011737 0.000000 0.000000 0.000000
# 4 0.000000 0.000000 0.000000 0.013409 0.000000 0.000000
# 5 0.000000 0.000000 0.000000 0.000000 0.013407 0.000000
# 6 0.000000 0.000000 0.000000 0.000000 0.000000 0.040042
#
#
# Mechanical properties :
#
#
# Convention : Reuss Voigt Hill
#
# Bulk Modulus (GPa) = 46.14982 71.85397 59.00189
# Shear Modulus (GPa) = 27.18289 43.96530 35.57409
#
# Velocity S-wave (km/s) = 3.88810 4.94475 4.44791
# Velocity P-wave (km/s) = 6.76918 8.51828 7.69360
#
# Compressibility (1/GPa) = 0.02166856
#
# Stress axis : x y z
#
# Youngs Moduli (GPa) = 37.01785 37.01970 85.19975
#
# Poissons Ratio (x) = 0.22440 0.68101
# Poissons Ratio (y) = 0.22439 0.68098
# Poissons Ratio (z) = 0.29589 0.29589
#
# Static dielectric constant tensor:
#      x y z
#    x 3.045780 0.000000 0.000000 
#    y 0.000000 3.045810 0.000000 
#    z 0.000000 0.000000 3.603100 
# 
# 
# High freq. dielectric constant tensor:
#      x y z
#    x 1.684330 0.000000 0.000000 
#    y 0.000000 1.684330 0.000000 
#    z 0.000000 0.000000 1.711920 
# 
# From -- ./inp_files/5705.got.cif
#   From: 2010.03.12/outbox.cif.g09.slc.cpg/sg115_3_cif.got.tgz:5705.got - 2010.04.14 02:11:21.
