data_PCOD8309981
_publ_section_title
;
Structure prediction by ZEFSAII (Michael W. Deem and Ramdas Pophale) SiO2 
 PCOD8309981
Probable space group: P -4 M 2
;
_chemical_formula_sum "Si O2"
_cell_formula_units_Z 39
_cell_length_a 11.650750
_cell_length_b 11.650750
_cell_length_c 14.682185
_cell_angle_alpha 90.000000
_cell_angle_beta 90.000000
_cell_angle_gamma 90.000000
_cell_volume 1992.959433
_symmetry_space_group_name_H-M "P -4 M 2"
_symmetry_group_IT_number 115
_symmetry_cell_setting 'tetragonal'
loop_
_space_group_symop_operation_xyz
x,y,z
y,-x,-z
-x,-y,z
-y,x,-z
y,x,-z
-y,-x,-z
-x,y,z
x,-y,z
loop_
_atom_site_type_symbol
_atom_site_label
_atom_site_fract_x
_atom_site_fract_y
_atom_site_fract_z
Si Si1 0.738050 0.212462 0.752402
Si Si2 0.000000 0.000000 0.000000
Si Si3 0.500000 0.257326 0.680321
Si Si4 0.500000 0.500000 0.351671
Si Si5 0.000000 0.870022 0.171504
Si Si6 0.371165 0.635125 0.897087
Si Si7 0.728979 0.135508 0.427265
Si Si8 0.267255 0.500000 0.531340
O O1 0.613142 0.185470 0.707296
O O2 0.791677 0.105897 0.802923
O O3 0.720583 0.312135 0.826800
O O4 0.829132 0.243214 0.675401
O O5 0.114243 0.000000 0.937711
O O6 0.500000 0.389911 0.718433
O O7 0.500000 0.294620 0.574899
O O8 0.500000 0.615749 0.412318
O O9 0.000000 0.000000 0.216560
O O10 0.500000 0.685654 0.879105
O O11 0.370560 0.500000 0.884936
O O12 0.333337 0.666663 0.000000
O O13 0.823988 0.176013 0.500000
O O14 0.608792 0.190824 0.449458
O O15 0.720365 0.000000 0.433974
#
# Coordination Sequence:
#
# PCOD8309981 Si02
#       8
#     8   1   4   2   4   8   8   4
#     4  12  24  41  68 100 132 172 229 284 339 414
#     4   8  24  56  84  92 110 188 240 308 340 408
#     4  12  23  36  66 100 136 183 223 285 340 410
#     4  12  21  38  68  98 143 186 239 270 352 416
#     4  10  26  49  73  95 121 170 233 287 349 410
#     4   9  20  38  63  99 138 171 205 260 339 413
#     4  12  27  44  65  94 135 186 233 290 341 404
#     4  12  22  44  63  98 138 187 241 283 343 415
#
# _framework density 19.568888000000001
#
# number of rings (size 3 to 8) (size 9 to 14) (size 15 to 20)
#    0.308    0.615    5.128    2.462    5.744    0.615 
#    1.846    0.000    0.000    0.000    0.000    0.000 
#    0.000    0.000    0.000    0.000    0.000    0.000 
#
# Total GULP energy -483420.056312 kJ/mol
# GULP energy per Si atom -12395.386059 kJ/mol
# Density = 1.952435 g / cm^3
# Si number density = 19.568888 Si / 1000 Ang^3
#
#
#
# Elastic Constant Matrix: (Units=GPa)
#
#
# Indices 1 2 3 4 5 6 
#
# 1 98.4930 92.2793 46.3425 0.0000 0.0000 0.0000
# 2 92.2793 98.4940 46.3585 0.0000 0.0000 0.0000
# 3 46.3425 46.3585 111.9648 0.0000 0.0000 0.0000
# 4 0.0000 0.0000 0.0000 28.1930 0.0000 0.0000
# 5 0.0000 0.0000 0.0000 0.0000 28.1958 0.0000
# 6 0.0000 0.0000 0.0000 0.0000 0.0000 27.0252
#
#
#
# Elastic Compliance Matrix: (Units=1/GPa)
#
#
# Indices 1 2 3 4 5 6 
#
# 1 0.083734 -0.077179 -0.002702 0.000000 0.000000 0.000000
# 2 -0.077179 0.083747 -0.002731 0.000000 0.000000 0.000000
# 3 -0.002702 -0.002731 0.011180 0.000000 0.000000 0.000000
# 4 0.000000 0.000000 0.000000 0.035470 0.000000 0.000000
# 5 0.000000 0.000000 0.000000 0.000000 0.035466 0.000000
# 6 0.000000 0.000000 0.000000 0.000000 0.000000 0.037002
#
#
# Mechanical properties :
#
#
# Convention : Reuss Voigt Hill
#
# Bulk Modulus (GPa) = 74.41373 75.43470 74.92422
# Shear Modulus (GPa) = 10.95761 24.94758 17.95260
#
# Velocity S-wave (km/s) = 2.36889 3.57439 3.03216
# Velocity P-wave (km/s) = 6.75213 7.46103 7.11542
#
# Compressibility (1/GPa) = 0.01343838
#
# Stress axis : x y z
#
# Youngs Moduli (GPa) = 11.94253 11.94068 89.44197
#
# Poissons Ratio (x) = 0.92157 0.24169
# Poissons Ratio (y) = 0.92171 0.24423
# Poissons Ratio (z) = 0.03227 0.03261
#
# Static dielectric constant tensor:
#      x y z
#    x 3.470770 0.000000 0.000000 
#    y 0.000000 3.470770 0.000000 
#    z 0.000000 0.000000 7.004620 
# 
# 
# High freq. dielectric constant tensor:
#      x y z
#    x 1.754960 0.000000 0.000000 
#    y 0.000000 1.754960 0.000000 
#    z 0.000000 0.000000 1.784700 
# 
# From -- ./inp_files/3680.got.cif
#   From: 2010.03.12/outbox.cif.g09.slc.cpg/sg115_2_cif.got.tgz:3680.got - 2010.04.14 02:11:21.
