data_PCOD8309852
_publ_section_title
;
Structure prediction by ZEFSAII (Michael W. Deem and Ramdas Pophale) SiO2 
 PCOD8309852
Probable space group: P -4 M 2
;
_chemical_formula_sum "Si O2"
_cell_formula_units_Z 48
_cell_length_a 9.186924
_cell_length_b 9.186924
_cell_length_c 30.526864
_cell_angle_alpha 90.000000
_cell_angle_beta 90.000000
_cell_angle_gamma 90.000000
_cell_volume 2576.454274
_symmetry_space_group_name_H-M "P -4 M 2"
_symmetry_group_IT_number 115
_symmetry_cell_setting 'tetragonal'
loop_
_space_group_symop_operation_xyz
x,y,z
y,-x,-z
-x,-y,z
-y,x,-z
y,x,-z
-y,-x,-z
-x,y,z
x,-y,z
loop_
_atom_site_type_symbol
_atom_site_label
_atom_site_fract_x
_atom_site_fract_y
_atom_site_fract_z
Si Si1 0.167146 0.330036 0.211596
Si Si2 0.171370 0.168084 0.623989
Si Si3 0.169757 0.167187 0.874770
Si Si4 0.328902 0.832080 0.038337
Si Si5 0.332279 0.333275 0.550801
Si Si6 0.329812 0.330492 0.298329
O O1 0.186400 0.500000 0.203475
O O2 0.225968 0.250513 0.168311
O O3 0.261735 0.276637 0.252640
O O4 0.000000 0.287705 0.220975
O O5 0.230741 0.225443 0.577821
O O6 0.240913 0.259087 0.662879
O O7 0.000000 0.191024 0.624966
O O8 0.214742 0.000000 0.629361
O O9 0.222448 0.261160 0.916014
O O10 0.000000 0.187029 0.866278
O O11 0.211535 0.000000 0.884173
O O12 0.500000 0.808732 0.040659
O O13 0.287070 0.000000 0.029671
O O14 0.265158 0.734843 0.000000
O O15 0.302511 0.302511 0.500000
O O16 0.500000 0.302479 0.562583
O O17 0.293877 0.500000 0.562513
O O18 0.500000 0.298027 0.297222
O O19 0.296102 0.500000 0.306119
#
# Coordination Sequence:
#
# PCOD8309852 Si02
#       6
#     8   8   8   8   8   8
#     4   9  18  33  53  77 105 137 173 213 258 310
#     4  11  24  38  53  78 111 144 179 221 267 314
#     4   9  18  33  53  76 103 137 175 214 257 308
#     4  10  21  36  54  77 105 138 177 219 263 313
#     4   9  19  37  60  84 109 139 177 219 263 315
#     4  10  21  37  57  80 106 139 180 222 264 314
#
# _framework density 18.630255999999999
#
# number of rings (size 3 to 8) (size 9 to 14) (size 15 to 20)
#    0.000    2.333    0.000    2.500    0.000    8.333 
#    0.000    5.833    0.000    0.000    0.000    0.000 
#    0.000    0.000    0.000    0.000    0.000    0.000 
#
# Total GULP energy -595390.777064 kJ/mol
# GULP energy per Si atom -12403.974522 kJ/mol
# Density = 1.858785 g / cm^3
# Si number density = 18.630256 Si / 1000 Ang^3
#
#
#
# Elastic Constant Matrix: (Units=GPa)
#
#
# Indices 1 2 3 4 5 6 
#
# 1 77.7174 50.2568 66.5207 0.0000 0.0000 0.0000
# 2 50.2568 77.7185 66.5219 0.0000 0.0000 0.0000
# 3 66.5207 66.5219 147.1841 0.0000 0.0000 0.0000
# 4 0.0000 0.0000 0.0000 39.7598 0.0000 0.0000
# 5 0.0000 0.0000 0.0000 0.0000 39.7596 0.0000
# 6 0.0000 0.0000 0.0000 0.0000 0.0000 27.5585
#
#
#
# Elastic Compliance Matrix: (Units=1/GPa)
#
#
# Indices 1 2 3 4 5 6 
#
# 1 0.025577 -0.010838 -0.006662 0.000000 0.000000 0.000000
# 2 -0.010838 0.025577 -0.006662 0.000000 0.000000 0.000000
# 3 -0.006662 -0.006662 0.012816 0.000000 0.000000 0.000000
# 4 0.000000 0.000000 0.000000 0.025151 0.000000 0.000000
# 5 0.000000 0.000000 0.000000 0.000000 0.025151 0.000000
# 6 0.000000 0.000000 0.000000 0.000000 0.000000 0.036286
#
#
# Mechanical properties :
#
#
# Convention : Reuss Voigt Hill
#
# Bulk Modulus (GPa) = 63.90519 74.35764 69.13142
# Shear Modulus (GPa) = 24.49812 29.37028 26.93420
#
# Velocity S-wave (km/s) = 3.63018 3.97480 3.80639
# Velocity P-wave (km/s) = 7.20744 7.81437 7.51703
#
# Compressibility (1/GPa) = 0.01564818
#
# Stress axis : x y z
#
# Youngs Moduli (GPa) = 39.09722 39.09724 78.02847
#
# Poissons Ratio (x) = 0.42373 0.51979
# Poissons Ratio (y) = 0.42373 0.51981
# Poissons Ratio (z) = 0.26045 0.26046
#
# Static dielectric constant tensor:
#      x y z
#    x 3.400050 0.000000 0.000000 
#    y 0.000000 3.400050 0.000000 
#    z 0.000000 0.000000 3.560470 
# 
# 
# High freq. dielectric constant tensor:
#      x y z
#    x 1.719630 0.000000 0.000000 
#    y 0.000000 1.719630 0.000000 
#    z 0.000000 0.000000 1.736730 
# 
# From -- ./inp_files/5903.got.cif
#   From: 2010.03.12/outbox.cif.g09.slc.cpg/sg115_3_cif.got.tgz:5903.got - 2010.04.14 02:11:21.
