data_PCOD8309447
_publ_section_title
;
Structure prediction by ZEFSAII (Michael W. Deem and Ramdas Pophale) SiO2 
 PCOD8309447
Probable space group: P -4 M 2
;
_chemical_formula_sum "Si O2"
_cell_formula_units_Z 44
_cell_length_a 9.192086
_cell_length_b 9.192086
_cell_length_c 28.512039
_cell_angle_alpha 90.000000
_cell_angle_beta 90.000000
_cell_angle_gamma 90.000000
_cell_volume 2409.108912
_symmetry_space_group_name_H-M "P -4 M 2"
_symmetry_group_IT_number 115
_symmetry_cell_setting 'tetragonal'
loop_
_space_group_symop_operation_xyz
x,y,z
y,-x,-z
-x,-y,z
-y,x,-z
y,x,-z
-y,-x,-z
-x,y,z
x,-y,z
loop_
_atom_site_type_symbol
_atom_site_label
_atom_site_fract_x
_atom_site_fract_y
_atom_site_fract_z
Si Si1 0.329344 0.831073 0.858118
Si Si2 0.172750 0.161771 0.051038
Si Si3 0.170743 0.667830 0.592455
Si Si4 0.835823 0.172985 0.316795
Si Si5 0.668803 0.668803 0.500000
Si Si6 0.670219 0.169812 0.224699
O O1 0.500000 0.805236 0.857523
O O2 0.269290 0.774560 0.908079
O O3 0.257280 0.734250 0.818483
O O4 0.289092 0.000000 0.849756
O O5 0.000000 0.152669 0.049716
O O6 0.236817 0.000000 0.060625
O O7 0.223257 0.223257 0.000000
O O8 0.210592 0.500000 0.601574
O O9 0.232627 0.759256 0.636245
O O10 0.246479 0.726991 0.545476
O O11 0.000000 0.690177 0.586240
O O12 0.747307 0.228644 0.271718
O O13 0.000000 0.233561 0.314263
O O14 0.833901 0.000000 0.317792
O O15 0.700992 0.500000 0.491652
O O16 0.500000 0.201019 0.229460
O O17 0.702672 0.000000 0.216839
#
# Coordination Sequence:
#
# PCOD8309447 Si02
#       6
#     8   8   8   8   4   8
#     4  10  20  33  50  74 104 135 165 201 249 299
#     4   8  14  27  49  74  98 128 168 210 248 288
#     4   9  17  30  48  69  94 124 157 194 236 282
#     4   9  17  30  50  75  99 123 156 201 249 293
#     4   9  18  32  48  67  94 128 162 193 230 280
#     4  10  20  34  53  75  98 129 170 210 248 295
#
# _framework density 18.264012999999998
#
# number of rings (size 3 to 8) (size 9 to 14) (size 15 to 20)
#    0.000    2.818    0.000    2.182    0.000    5.091 
#    0.000    1.818    0.000    6.545    0.000    0.000 
#    0.000    0.000    0.000    0.000    0.000    0.000 
#
# Total GULP energy -545560.285486 kJ/mol
# GULP energy per Si atom -12399.097397 kJ/mol
# Density = 1.822244 g / cm^3
# Si number density = 18.264013 Si / 1000 Ang^3
#
#
#
# Elastic Constant Matrix: (Units=GPa)
#
#
# Indices 1 2 3 4 5 6 
#
# 1 68.4131 39.4761 68.3130 0.0000 0.0000 0.0000
# 2 39.4761 68.4131 68.3130 0.0000 0.0000 0.0000
# 3 68.3130 68.3130 198.5627 0.0000 0.0000 0.0000
# 4 0.0000 0.0000 0.0000 4.5421 0.0000 0.0000
# 5 0.0000 0.0000 0.0000 0.0000 4.5421 0.0000
# 6 0.0000 0.0000 0.0000 0.0000 0.0000 18.2686
#
#
#
# Elastic Compliance Matrix: (Units=1/GPa)
#
#
# Indices 1 2 3 4 5 6 
#
# 1 0.025491 -0.009067 -0.005651 0.000000 0.000000 0.000000
# 2 -0.009067 0.025491 -0.005651 0.000000 0.000000 0.000000
# 3 -0.005651 -0.005651 0.008924 0.000000 0.000000 0.000000
# 4 0.000000 0.000000 0.000000 0.220162 0.000000 0.000000
# 5 0.000000 0.000000 0.000000 0.000000 0.220162 0.000000
# 6 0.000000 0.000000 0.000000 0.000000 0.000000 0.054739
#
#
# Mechanical properties :
#
#
# Convention : Reuss Voigt Hill
#
# Bulk Modulus (GPa) = 52.16299 76.39922 64.28111
# Shear Modulus (GPa) = 8.30434 16.08969 12.19702
#
# Velocity S-wave (km/s) = 2.13464 2.97130 2.58702
# Velocity P-wave (km/s) = 5.89051 7.32754 6.64797
#
# Compressibility (1/GPa) = 0.01917068
#
# Stress axis : x y z
#
# Youngs Moduli (GPa) = 39.22931 39.22931 112.05426
#
# Poissons Ratio (x) = 0.35568 0.63318
# Poissons Ratio (y) = 0.35568 0.63318
# Poissons Ratio (z) = 0.22167 0.22167
#
# Static dielectric constant tensor:
#      x y z
#    x 3.203440 0.000000 0.000000 
#    y 0.000000 3.203440 0.000000 
#    z 0.000000 0.000000 3.734420 
# 
# 
# High freq. dielectric constant tensor:
#      x y z
#    x 1.683840 0.000000 0.000000 
#    y 0.000000 1.683840 0.000000 
#    z 0.000000 0.000000 1.726780 
# 
# From -- ./inp_files/5819.got.cif
#   From: 2010.03.12/outbox.cif.g09.slc.cpg/sg115_3_cif.got.tgz:5819.got - 2010.04.14 02:11:21.
