data_PCOD8309790
_publ_section_title
;
Structure prediction by ZEFSAII (Michael W. Deem and Ramdas Pophale) SiO2 
 PCOD8309790
Probable space group: P -4 M 2
;
_chemical_formula_sum "Si O2"
_cell_formula_units_Z 32
_cell_length_a 9.130502
_cell_length_b 9.130502
_cell_length_c 20.975751
_cell_angle_alpha 90.000000
_cell_angle_beta 90.000000
_cell_angle_gamma 90.000000
_cell_volume 1748.665858
_symmetry_space_group_name_H-M "P -4 M 2"
_symmetry_group_IT_number 115
_symmetry_cell_setting 'tetragonal'
loop_
_space_group_symop_operation_xyz
x,y,z
y,-x,-z
-x,-y,z
-y,x,-z
y,x,-z
-y,-x,-z
-x,y,z
x,-y,z
loop_
_atom_site_type_symbol
_atom_site_label
_atom_site_fract_x
_atom_site_fract_y
_atom_site_fract_z
Si Si1 0.333863 0.325191 0.295168
Si Si2 0.338115 0.674601 0.566982
Si Si3 0.170166 0.169100 0.184392
Si Si4 0.831359 0.672018 0.943763
O O1 0.500000 0.275927 0.278878
O O2 0.324360 0.500000 0.295555
O O3 0.286860 0.260529 0.365412
O O4 0.222266 0.262061 0.244291
O O5 0.265034 0.734967 0.500000
O O6 0.500000 0.742309 0.571186
O O7 0.347226 0.500000 0.561169
O O8 0.255367 0.222671 0.121765
O O9 0.000000 0.198483 0.172726
O O10 0.204081 0.000000 0.198436
O O11 0.808165 0.500000 0.937649
O O12 0.000000 0.713242 0.957663
O O13 0.731698 0.731698 0.000000
#
# Coordination Sequence:
#
# PCOD8309790 Si02
#       4
#     8   8   8   8
#     4   9  17  29  48  75 102 127 160 205 253 296
#     4   7  10  19  38  65  95 124 155 195 244 294
#     4  10  21  36  53  72  97 133 172 204 237 283
#     4  10  21  37  57  79 101 127 160 198 241 288
#
# _framework density 18.299664
#
# number of rings (size 3 to 8) (size 9 to 14) (size 15 to 20)
#    0.000    3.000    0.000    3.750    0.000    4.500 
#    0.000    0.000    0.000    1.500    0.000    8.750 
#    0.000    0.000    0.000    0.000    0.000    0.000 
#
# Total GULP energy -396439.972045 kJ/mol
# GULP energy per Si atom -12388.749126 kJ/mol
# Density = 1.825801 g / cm^3
# Si number density = 18.299664 Si / 1000 Ang^3
#
#
#
# Elastic Constant Matrix: (Units=GPa)
#
#
# Indices 1 2 3 4 5 6 
#
# 1 50.0681 25.6811 50.5598 0.0000 0.0000 0.0000
# 2 25.6811 50.0680 50.5598 0.0000 0.0000 0.0000
# 3 50.5598 50.5598 179.3612 0.0000 0.0000 0.0000
# 4 0.0000 0.0000 0.0000 -9.3395 0.0000 0.0000
# 5 0.0000 0.0000 0.0000 0.0000 -9.3402 0.0000
# 6 0.0000 0.0000 0.0000 0.0000 0.0000 24.0060
#
#
#
# Elastic Compliance Matrix: (Units=1/GPa)
#
#
# Indices 1 2 3 4 5 6 
#
# 1 0.031086 -0.009920 -0.005967 0.000000 0.000000 0.000000
# 2 -0.009920 0.031086 -0.005967 0.000000 0.000000 0.000000
# 3 -0.005967 -0.005967 0.008939 0.000000 0.000000 0.000000
# 4 0.000000 0.000000 0.000000 -0.107072 0.000000 0.000000
# 5 0.000000 0.000000 0.000000 0.000000 -0.107064 0.000000
# 6 0.000000 0.000000 0.000000 0.000000 0.000000 0.041656
#
#
# Mechanical properties :
#
#
# Convention : Reuss Voigt Hill
#
# Bulk Modulus (GPa) = 36.48877 59.23317 47.86097
# Shear Modulus (GPa) = -103.03414 11.24502 -45.89456
#
# Velocity S-wave (km/s) = -7.51173 2.48159 -5.01337
# Velocity P-wave (km/s) = 7.43316 6.37572 2.70205
#
# Compressibility (1/GPa) = 0.02740569
#
# Stress axis : x y z
#
# Youngs Moduli (GPa) = 32.16891 32.16880 111.86764
#
# Poissons Ratio (x) = 0.31910 0.66746
# Poissons Ratio (y) = 0.31910 0.66746
# Poissons Ratio (z) = 0.19194 0.19194
#
# Static dielectric constant tensor:
#      x y z
#    x 3.051780 0.000000 0.000000 
#    y 0.000000 3.051770 0.000000 
#    z 0.000000 0.000000 3.872360 
# 
# 
# High freq. dielectric constant tensor:
#      x y z
#    x 1.674180 0.000000 0.000000 
#    y 0.000000 1.674180 0.000000 
#    z 0.000000 0.000000 1.739240 
# 
# From -- ./inp_files/4587.got.cif
#   From: 2010.03.12/outbox.cif.g09.slc.cpg/sg115_3_cif.got.tgz:4587.got - 2010.04.14 02:11:21.
