data_PCOD8309196
_publ_section_title
;
Structure prediction by ZEFSAII (Michael W. Deem and Ramdas Pophale) SiO2 
 PCOD8309196
Probable space group: P -4 M 2
;
_chemical_formula_sum "Si O2"
_cell_formula_units_Z 64
_cell_length_a 13.624599
_cell_length_b 13.624599
_cell_length_c 19.515065
_cell_angle_alpha 90.000000
_cell_angle_beta 90.000000
_cell_angle_gamma 90.000000
_cell_volume 3622.575621
_symmetry_space_group_name_H-M "P -4 M 2"
_symmetry_group_IT_number 115
_symmetry_cell_setting 'tetragonal'
loop_
_space_group_symop_operation_xyz
x,y,z
y,-x,-z
-x,-y,z
-y,x,-z
y,x,-z
-y,-x,-z
-x,y,z
x,-y,z
loop_
_atom_site_type_symbol
_atom_site_label
_atom_site_fract_x
_atom_site_fract_y
_atom_site_fract_z
Si Si1 0.887184 0.250386 0.842769
Si Si2 0.742846 0.389563 0.093102
Si Si3 0.115045 0.721285 0.188285
Si Si4 0.886940 0.257030 0.347173
Si Si5 0.884995 0.391461 0.469040
Si Si6 0.392819 0.885579 0.272959
Si Si7 0.885966 0.727981 0.596698
Si Si8 0.213599 0.611696 0.937412
O O1 0.825674 0.149439 0.843666
O O2 0.842047 0.314177 0.780076
O O3 0.872449 0.316546 0.910500
O O4 0.000000 0.220776 0.833929
O O5 0.704861 0.500000 0.106472
O O6 0.823741 0.363907 0.150568
O O7 0.649282 0.317265 0.093975
O O8 0.793217 0.381623 0.018961
O O9 0.138726 0.717196 0.269074
O O10 0.000000 0.707050 0.173653
O O11 0.863583 0.353211 0.392463
O O12 0.825660 0.167145 0.377709
O O13 0.000000 0.225045 0.354061
O O14 0.837060 0.500000 0.476500
O O15 0.843417 0.313648 0.524804
O O16 0.000000 0.400495 0.483226
O O17 0.500000 0.836514 0.262921
O O18 0.359496 0.866509 0.350112
O O19 0.400197 0.000000 0.256564
O O20 0.000000 0.756367 0.591636
O O21 0.197393 0.500000 0.912298
#
# Coordination Sequence:
#
# PCOD8309196 Si02
#       8
#     8   8   8   8   8   8   8   8
#     4  10  19  32  49  72 102 135 172 214 256 301
#     4   9  19  35  54  77 103 132 168 211 260 312
#     4  10  21  35  50  70 101 140 180 216 252 297
#     4  10  20  33  49  71  99 134 171 207 246 293
#     4   9  18  32  49  69  94 124 160 203 248 292
#     4   9  16  26  43  68  96 126 159 196 245 300
#     4  10  18  30  48  72 101 130 160 200 248 301
#     4   9  18  33  54  80 106 130 162 208 262 318
#
# _framework density 17.666989000000001
#
# number of rings (size 3 to 8) (size 9 to 14) (size 15 to 20)
#    0.000    2.500    1.250    1.125    0.000    4.250 
#    0.000    5.000    0.000    2.250    0.000    3.500 
#    0.000    8.500    0.000    0.000    0.000    0.000 
#
# Total GULP energy -793352.444045 kJ/mol
# GULP energy per Si atom -12396.131938 kJ/mol
# Density = 1.762678 g / cm^3
# Si number density = 17.666989 Si / 1000 Ang^3
#
#
#
# Elastic Constant Matrix: (Units=GPa)
#
#
# Indices 1 2 3 4 5 6 
#
# 1 70.6064 20.5269 32.7276 0.0000 0.0000 0.0000
# 2 20.5269 70.6064 32.7276 0.0000 0.0000 0.0000
# 3 32.7276 32.7276 89.8722 0.0000 0.0000 0.0000
# 4 0.0000 0.0000 0.0000 20.8764 0.0000 0.0000
# 5 0.0000 0.0000 0.0000 0.0000 20.8764 0.0000
# 6 0.0000 0.0000 0.0000 0.0000 0.0000 13.1121
#
#
#
# Elastic Compliance Matrix: (Units=1/GPa)
#
#
# Indices 1 2 3 4 5 6 
#
# 1 0.017414 -0.002554 -0.005411 0.000000 0.000000 0.000000
# 2 -0.002554 0.017414 -0.005411 0.000000 0.000000 0.000000
# 3 -0.005411 -0.005411 0.015068 0.000000 0.000000 0.000000
# 4 0.000000 0.000000 0.000000 0.047901 0.000000 0.000000
# 5 0.000000 0.000000 0.000000 0.000000 0.047901 0.000000
# 6 0.000000 0.000000 0.000000 0.000000 0.000000 0.076266
#
#
# Mechanical properties :
#
#
# Convention : Reuss Voigt Hill
#
# Bulk Modulus (GPa) = 43.21125 44.78327 43.99726
# Shear Modulus (GPa) = 19.49845 20.64651 20.07248
#
# Velocity S-wave (km/s) = 3.32575 3.42226 3.37435
# Velocity P-wave (km/s) = 6.26573 6.40464 6.33556
#
# Compressibility (1/GPa) = 0.02314212
#
# Stress axis : x y z
#
# Youngs Moduli (GPa) = 57.42557 57.42557 66.36601
#
# Poissons Ratio (x) = 0.14669 0.35912
# Poissons Ratio (y) = 0.14669 0.35912
# Poissons Ratio (z) = 0.31074 0.31074
#
# Static dielectric constant tensor:
#      x y z
#    x 3.175650 0.000000 0.000000 
#    y 0.000000 3.175650 0.000000 
#    z 0.000000 0.000000 3.426510 
# 
# 
# High freq. dielectric constant tensor:
#      x y z
#    x 1.664750 0.000000 0.000000 
#    y 0.000000 1.664750 0.000000 
#    z 0.000000 0.000000 1.694480 
# 
# From -- ./inp_files/4477.got.cif
#   From: 2010.03.12/outbox.cif.g09.slc.cpg/sg115_3_cif.got.tgz:4477.got - 2010.04.14 02:11:21.
