data_PCOD8309732
_publ_section_title
;
Structure prediction by ZEFSAII (Michael W. Deem and Ramdas Pophale) SiO2 
 PCOD8309732
Probable space group: P -4 M 2
;
_chemical_formula_sum "Si O2"
_cell_formula_units_Z 48
_cell_length_a 14.558802
_cell_length_b 14.558802
_cell_length_c 12.169623
_cell_angle_alpha 90.000000
_cell_angle_beta 90.000000
_cell_angle_gamma 90.000000
_cell_volume 2579.457661
_symmetry_space_group_name_H-M "P -4 M 2"
_symmetry_group_IT_number 115
_symmetry_cell_setting 'tetragonal'
loop_
_space_group_symop_operation_xyz
x,y,z
y,-x,-z
-x,-y,z
-y,x,-z
y,x,-z
-y,-x,-z
-x,y,z
x,-y,z
loop_
_atom_site_type_symbol
_atom_site_label
_atom_site_fract_x
_atom_site_fract_y
_atom_site_fract_z
Si Si1 0.394022 0.105792 0.682883
Si Si2 0.104513 0.751434 0.134217
Si Si3 0.895073 0.743532 0.881218
Si Si4 0.755108 0.605045 0.506463
Si Si5 0.220788 0.394520 0.755491
Si Si6 0.608393 0.601347 0.123882
O O1 0.500000 0.123386 0.713697
O O2 0.333795 0.132665 0.788765
O O3 0.362270 0.168334 0.580470
O O4 0.378216 0.000000 0.648659
O O5 0.167846 0.838749 0.159519
O O6 0.000000 0.782257 0.156239
O O7 0.118601 0.720256 0.009115
O O8 0.862293 0.654551 0.816304
O O9 0.000000 0.764449 0.852399
O O10 0.662602 0.662602 0.500000
O O11 0.726644 0.500000 0.485623
O O12 0.797070 0.618440 0.626993
O O13 0.217218 0.500000 0.791471
O O14 0.320804 0.353231 0.792688
O O15 0.500000 0.592166 0.135497
O O16 0.651341 0.500000 0.151077
O O17 0.633039 0.633039 0.000000
#
# Coordination Sequence:
#
# PCOD8309732 Si02
#       6
#     8   8   8   8   8   8
#     4   9  18  35  59  82 102 131 174 222 269 312
#     4   9  19  36  57  80 105 132 170 219 262 310
#     4  10  21  35  53  78 108 140 171 208 260 320
#     4  10  21  36  52  73 104 141 180 219 257 304
#     4  10  21  34  50  76 109 142 176 214 257 313
#     4   8  15  29  48  71 100 135 175 215 255 301
#
# _framework density 18.608561000000002
#
# number of rings (size 3 to 8) (size 9 to 14) (size 15 to 20)
#    0.000    2.667    0.000    1.500    2.333    2.833 
#    0.000    7.500    0.000    0.000    0.000    0.000 
#    0.000    4.000    0.000    0.000    0.000    0.000 
#
# Total GULP energy -595182.697895 kJ/mol
# GULP energy per Si atom -12399.639539 kJ/mol
# Density = 1.856621 g / cm^3
# Si number density = 18.608561 Si / 1000 Ang^3
#
#
#
# Elastic Constant Matrix: (Units=GPa)
#
#
# Indices 1 2 3 4 5 6 
#
# 1 98.7218 62.9344 62.1925 0.0000 0.0000 0.0000
# 2 62.9344 98.7218 62.1925 0.0000 0.0000 0.0000
# 3 62.1925 62.1925 102.0047 0.0000 0.0000 0.0000
# 4 0.0000 0.0000 0.0000 28.8908 0.0000 0.0000
# 5 0.0000 0.0000 0.0000 0.0000 28.8908 0.0000
# 6 0.0000 0.0000 0.0000 0.0000 0.0000 31.2894
#
#
#
# Elastic Compliance Matrix: (Units=1/GPa)
#
#
# Indices 1 2 3 4 5 6 
#
# 1 0.019798 -0.008145 -0.007105 0.000000 0.000000 0.000000
# 2 -0.008145 0.019798 -0.007105 0.000000 0.000000 0.000000
# 3 -0.007105 -0.007105 0.018467 0.000000 0.000000 0.000000
# 4 0.000000 0.000000 0.000000 0.034613 0.000000 0.000000
# 5 0.000000 0.000000 0.000000 0.000000 0.034613 0.000000
# 6 0.000000 0.000000 0.000000 0.000000 0.000000 0.031960
#
#
# Mechanical properties :
#
#
# Convention : Reuss Voigt Hill
#
# Bulk Modulus (GPa) = 74.88628 74.89855 74.89242
# Shear Modulus (GPa) = 23.99143 25.28947 24.64045
#
# Velocity S-wave (km/s) = 3.59453 3.69049 3.64283
# Velocity P-wave (km/s) = 7.58669 7.64830 7.61756
#
# Compressibility (1/GPa) = 0.01335358
#
# Stress axis : x y z
#
# Youngs Moduli (GPa) = 50.51097 50.51097 54.15121
#
# Poissons Ratio (x) = 0.41142 0.38472
# Poissons Ratio (y) = 0.41142 0.38472
# Poissons Ratio (z) = 0.35886 0.35886
#
# Static dielectric constant tensor:
#      x y z
#    x 3.462650 0.000000 0.000000 
#    y 0.000000 3.462650 0.000000 
#    z 0.000000 0.000000 3.475440 
# 
# 
# High freq. dielectric constant tensor:
#      x y z
#    x 1.715920 0.000000 0.000000 
#    y 0.000000 1.715920 0.000000 
#    z 0.000000 0.000000 1.719840 
# 
# From -- ./inp_files/2949.got.cif
#   From: 2010.03.12/outbox.cif.g09.slc.cpg/sg115_2_cif.got.tgz:2949.got - 2010.04.14 02:11:21.
