data_PCOD8309796
_publ_section_title
;
Structure prediction by ZEFSAII (Michael W. Deem and Ramdas Pophale) SiO2 
 PCOD8309796
Probable space group: P -4 M 2
;
_chemical_formula_sum "Si O2"
_cell_formula_units_Z 48
_cell_length_a 9.403948
_cell_length_b 9.403948
_cell_length_c 30.612074
_cell_angle_alpha 90.000000
_cell_angle_beta 90.000000
_cell_angle_gamma 90.000000
_cell_volume 2707.155437
_symmetry_space_group_name_H-M "P -4 M 2"
_symmetry_group_IT_number 115
_symmetry_cell_setting 'tetragonal'
loop_
_space_group_symop_operation_xyz
x,y,z
y,-x,-z
-x,-y,z
-y,x,-z
y,x,-z
-y,-x,-z
-x,y,z
x,-y,z
loop_
_atom_site_type_symbol
_atom_site_label
_atom_site_fract_x
_atom_site_fract_y
_atom_site_fract_z
Si Si1 0.835166 0.666954 0.204583
Si Si2 0.164550 0.838897 0.949275
Si Si3 0.333223 0.664223 0.880646
Si Si4 0.343399 0.831518 0.374102
Si Si5 0.334699 0.166050 0.276341
Si Si6 0.829925 0.157896 0.547550
O O1 0.815954 0.500000 0.211938
O O2 0.752492 0.717851 0.161423
O O3 0.767609 0.745152 0.245597
O O4 0.000000 0.709543 0.199815
O O5 0.255957 0.725480 0.922934
O O6 0.000000 0.817965 0.937439
O O7 0.211982 0.000000 0.937725
O O8 0.191540 0.808461 0.000000
O O9 0.500000 0.682021 0.888289
O O10 0.290617 0.500000 0.873935
O O11 0.500000 0.766901 0.380111
O O12 0.287004 0.794058 0.325702
O O13 0.247835 0.764607 0.412492
O O14 0.349067 0.000000 0.379019
O O15 0.500000 0.206289 0.268765
O O16 0.311476 0.000000 0.267095
O O17 0.781380 0.218621 0.500000
O O18 0.000000 0.156317 0.548583
O O19 0.769553 0.000000 0.554001
#
# Coordination Sequence:
#
# PCOD8309796 Si02
#       6
#     8   8   8   8   8   8
#     4  10  21  36  53  73  98 130 166 202 244 294
#     4   9  19  36  56  78 105 136 168 202 243 290
#     4  10  21  36  54  76 101 131 168 206 243 287
#     4   8  14  25  41  62  89 119 150 186 230 279
#     4   9  18  32  50  73  98 124 159 202 244 289
#     4   8  13  21  35  57  83 111 146 186 225 268
#
# _framework density 17.730789000000001
#
# number of rings (size 3 to 8) (size 9 to 14) (size 15 to 20)
#    0.000    3.000    0.000    3.000    0.000    4.667 
#    0.000    4.167    0.000    1.000    0.000    2.333 
#    0.000    0.000    0.000    0.000    0.000    0.000 
#
# Total GULP energy -595024.679045 kJ/mol
# GULP energy per Si atom -12396.347480 kJ/mol
# Density = 1.769043 g / cm^3
# Si number density = 17.730789 Si / 1000 Ang^3
#
#
#
# Elastic Constant Matrix: (Units=GPa)
#
#
# Indices 1 2 3 4 5 6 
#
# 1 73.6054 43.1392 65.5500 0.0000 0.0000 0.0000
# 2 43.1392 73.6054 65.5501 0.0000 0.0000 0.0000
# 3 65.5500 65.5501 141.5708 0.0000 0.0000 0.0000
# 4 0.0000 0.0000 0.0000 11.5144 0.0000 0.0000
# 5 0.0000 0.0000 0.0000 0.0000 11.5143 0.0000
# 6 0.0000 0.0000 0.0000 0.0000 0.0000 25.3208
#
#
#
# Elastic Compliance Matrix: (Units=1/GPa)
#
#
# Indices 1 2 3 4 5 6 
#
# 1 0.025333 -0.007490 -0.008262 0.000000 0.000000 0.000000
# 2 -0.007490 0.025333 -0.008262 0.000000 0.000000 0.000000
# 3 -0.008262 -0.008262 0.014714 0.000000 0.000000 0.000000
# 4 0.000000 0.000000 0.000000 0.086848 0.000000 0.000000
# 5 0.000000 0.000000 0.000000 0.000000 0.086848 0.000000
# 6 0.000000 0.000000 0.000000 0.000000 0.000000 0.039493
#
#
# Mechanical properties :
#
#
# Convention : Reuss Voigt Hill
#
# Bulk Modulus (GPa) = 57.62388 70.80667 64.21528
# Shear Modulus (GPa) = 15.04289 17.30605 16.17447
#
# Velocity S-wave (km/s) = 2.91590 3.12756 3.02358
# Velocity P-wave (km/s) = 6.62620 7.28445 6.96311
#
# Compressibility (1/GPa) = 0.01735392
#
# Stress axis : x y z
#
# Youngs Moduli (GPa) = 39.47356 39.47351 67.96029
#
# Poissons Ratio (x) = 0.29565 0.56148
# Poissons Ratio (y) = 0.29565 0.56148
# Poissons Ratio (z) = 0.32613 0.32613
#
# Static dielectric constant tensor:
#      x y z
#    x 3.175000 0.000000 0.000000 
#    y 0.000000 3.175000 0.000000 
#    z 0.000000 0.000000 3.462240 
# 
# 
# High freq. dielectric constant tensor:
#      x y z
#    x 1.664890 0.000000 0.000000 
#    y 0.000000 1.664890 0.000000 
#    z 0.000000 0.000000 1.700070 
# 
# From -- ./inp_files/6013.got.cif
#   From: 2010.03.12/outbox.cif.g09.slc.cpg/sg115_4_cif.got.tgz:6013.got - 2010.04.14 02:11:21.
