data_PCOD8309959
_publ_section_title
;
Structure prediction by ZEFSAII (Michael W. Deem and Ramdas Pophale) SiO2 
 PCOD8309959
Probable space group: P -4 M 2
;
_chemical_formula_sum "Si O2"
_cell_formula_units_Z 34
_cell_length_a 12.218398
_cell_length_b 12.218398
_cell_length_c 10.493545
_cell_angle_alpha 90.000000
_cell_angle_beta 90.000000
_cell_angle_gamma 90.000000
_cell_volume 1566.573460
_symmetry_space_group_name_H-M "P -4 M 2"
_symmetry_group_IT_number 115
_symmetry_cell_setting 'tetragonal'
loop_
_space_group_symop_operation_xyz
x,y,z
y,-x,-z
-x,-y,z
-y,x,-z
y,x,-z
-y,-x,-z
-x,y,z
x,-y,z
loop_
_atom_site_type_symbol
_atom_site_label
_atom_site_fract_x
_atom_site_fract_y
_atom_site_fract_z
Si Si1 0.175325 0.378773 0.595534
Si Si2 0.378776 0.735042 0.671714
Si Si3 0.000000 0.000000 0.000000
Si Si4 0.372970 0.793371 0.952462
Si Si5 0.790126 0.000000 0.317971
Si Si6 0.767133 0.000000 0.027440
Si Si7 0.000000 0.000000 0.500000
O O1 0.131156 0.500000 0.630562
O O2 0.177953 0.363603 0.442871
O O3 0.296221 0.366163 0.655540
O O4 0.104834 0.283617 0.655674
O O5 0.500000 0.683318 0.669149
O O6 0.360117 0.802685 0.800668
O O7 0.000000 0.123968 0.064704
O O8 0.500000 0.797364 0.994956
O O9 0.308236 0.894350 0.012524
O O10 0.320780 0.679221 0.000000
O O11 0.821889 0.000000 0.169177
O O12 0.895440 0.000000 0.407969
#
# Coordination Sequence:
#
# PCOD8309959 Si02
#       7
#     8   8   1   8   4   4   1
#     4  10  21  39  64  94 125 160 205 259 317 374
#     4   9  20  39  61  91 127 166 209 252 308 374
#     4  12  26  48  68  90 120 170 212 264 306 372
#     4  11  24  42  65  94 131 174 217 264 318 383
#     4  12  26  42  64  94 123 160 203 261 318 376
#     4  12  26  46  66  94 129 169 220 264 319 379
#     4  12  26  48  68  90 124 162 208 262 324 376
#
# _framework density 21.703420000000001
#
# number of rings (size 3 to 8) (size 9 to 14) (size 15 to 20)
#    0.000    1.412    1.176    3.882    0.000    6.353 
#    4.235    8.235    0.000    0.000    0.000    0.000 
#    0.000    0.000    0.000    0.000    0.000    0.000 
#
# Total GULP energy -421392.600466 kJ/mol
# GULP energy per Si atom -12393.900014 kJ/mol
# Density = 2.165402 g / cm^3
# Si number density = 21.703420 Si / 1000 Ang^3
#
#
#
# Elastic Constant Matrix: (Units=GPa)
#
#
# Indices 1 2 3 4 5 6 
#
# 1 152.2955 70.2383 41.7977 0.0000 0.0000 0.0000
# 2 70.2383 152.2970 41.7970 0.0000 0.0000 0.0000
# 3 41.7977 41.7970 114.7485 0.0000 0.0000 0.0000
# 4 0.0000 0.0000 0.0000 22.5407 0.0000 0.0000
# 5 0.0000 0.0000 0.0000 0.0000 22.5403 0.0000
# 6 0.0000 0.0000 0.0000 0.0000 0.0000 23.0691
#
#
#
# Elastic Compliance Matrix: (Units=1/GPa)
#
#
# Indices 1 2 3 4 5 6 
#
# 1 0.008696 -0.003490 -0.001896 0.000000 0.000000 0.000000
# 2 -0.003490 0.008696 -0.001896 0.000000 0.000000 0.000000
# 3 -0.001896 -0.001896 0.010096 0.000000 0.000000 0.000000
# 4 0.000000 0.000000 0.000000 0.044364 0.000000 0.000000
# 5 0.000000 0.000000 0.000000 0.000000 0.044365 0.000000
# 6 0.000000 0.000000 0.000000 0.000000 0.000000 0.043348
#
#
# Mechanical properties :
#
#
# Convention : Reuss Voigt Hill
#
# Bulk Modulus (GPa) = 77.38134 80.77856 79.07995
# Shear Modulus (GPa) = 28.02073 31.33056 29.67564
#
# Velocity S-wave (km/s) = 3.59705 3.80357 3.70175
# Velocity P-wave (km/s) = 7.27895 7.52260 7.40178
#
# Compressibility (1/GPa) = 0.01292301
#
# Stress axis : x y z
#
# Youngs Moduli (GPa) = 114.99104 114.99275 99.04739
#
# Poissons Ratio (x) = 0.40135 0.18783
# Poissons Ratio (y) = 0.40135 0.18782
# Poissons Ratio (z) = 0.21806 0.21805
#
# Static dielectric constant tensor:
#      x y z
#    x 3.972010 0.000000 0.000000 
#    y 0.000000 3.972000 0.000000 
#    z 0.000000 0.000000 4.089420 
# 
# 
# High freq. dielectric constant tensor:
#      x y z
#    x 1.857310 0.000000 0.000000 
#    y 0.000000 1.857300 0.000000 
#    z 0.000000 0.000000 1.853500 
# 
# From -- ./inp_files/2679.got.cif
#   From: 2010.03.12/outbox.cif.g09.slc.cpg/sg115_2_cif.got.tgz:2679.got - 2010.04.14 02:11:21.
