data_PCOD8309340
_publ_section_title
;
Structure prediction by ZEFSAII (Michael W. Deem and Ramdas Pophale) SiO2 
 PCOD8309340
Probable space group: P -4 M 2
;
_chemical_formula_sum "Si O2"
_cell_formula_units_Z 29
_cell_length_a 9.496444
_cell_length_b 9.496444
_cell_length_c 20.834170
_cell_angle_alpha 90.000000
_cell_angle_beta 90.000000
_cell_angle_gamma 90.000000
_cell_volume 1878.876466
_symmetry_space_group_name_H-M "P -4 M 2"
_symmetry_group_IT_number 115
_symmetry_cell_setting 'tetragonal'
loop_
_space_group_symop_operation_xyz
x,y,z
y,-x,-z
-x,-y,z
-y,x,-z
y,x,-z
-y,-x,-z
-x,y,z
x,-y,z
loop_
_atom_site_type_symbol
_atom_site_label
_atom_site_fract_x
_atom_site_fract_y
_atom_site_fract_z
Si Si1 0.662304 0.339583 0.074521
Si Si2 0.500000 0.500000 0.500000
Si Si3 0.162753 0.834368 0.826669
Si Si4 0.343949 0.500000 0.377210
Si Si5 0.156829 0.344771 0.291101
O O1 0.500000 0.312272 0.091901
O O2 0.703313 0.500000 0.091515
O O3 0.757805 0.232265 0.113452
O O4 0.689993 0.310008 0.000000
O O5 0.360102 0.500000 0.454840
O O6 0.233752 0.783162 0.760139
O O7 0.000000 0.792947 0.823669
O O8 0.186346 0.000000 0.835614
O O9 0.500000 0.500000 0.345571
O O10 0.260276 0.359143 0.353214
O O11 0.151469 0.500000 0.257773
O O12 0.000000 0.299950 0.314268
#
# Coordination Sequence:
#
# PCOD8309340 Si02
#       5
#     8   1   8   4   8
#     4   9  19  35  51  67  90 123 164 206 249 296
#     4   8  16  28  48  80 104 116 150 192 228 264
#     4  10  20  32  47  69  97 127 160 202 247 288
#     4   8  15  27  48  74  95 122 149 188 224 268
#     4   8  15  29  48  69  92 124 163 190 226 280
#
# _framework density 15.434756
#
# number of rings (size 3 to 8) (size 9 to 14) (size 15 to 20)
#    1.241    1.931    0.000    1.655    0.000    4.414 
#    0.000    4.138    0.000    3.310    0.000    0.000 
#    0.000    0.000    0.000    0.000    0.000    0.000 
#
# Total GULP energy -359266.823954 kJ/mol
# GULP energy per Si atom -12388.511171 kJ/mol
# Density = 1.539963 g / cm^3
# Si number density = 15.434756 Si / 1000 Ang^3
#
#
#
# Elastic Constant Matrix: (Units=GPa)
#
#
# Indices 1 2 3 4 5 6 
#
# 1 78.6266 37.5869 56.3820 0.0000 0.0000 0.0000
# 2 37.5869 78.6267 56.3821 0.0000 0.0000 0.0000
# 3 56.3820 56.3821 105.8637 0.0000 0.0000 0.0000
# 4 0.0000 0.0000 0.0000 10.9979 0.0000 0.0000
# 5 0.0000 0.0000 0.0000 0.0000 10.9979 0.0000
# 6 0.0000 0.0000 0.0000 0.0000 0.0000 22.7729
#
#
#
# Elastic Compliance Matrix: (Units=1/GPa)
#
#
# Indices 1 2 3 4 5 6 
#
# 1 0.021087 -0.003280 -0.009484 0.000000 0.000000 0.000000
# 2 -0.003280 0.021087 -0.009484 0.000000 0.000000 0.000000
# 3 -0.009484 -0.009484 0.019548 0.000000 0.000000 0.000000
# 4 0.000000 0.000000 0.000000 0.090927 0.000000 0.000000
# 5 0.000000 0.000000 0.000000 0.000000 0.090927 0.000000
# 6 0.000000 0.000000 0.000000 0.000000 0.000000 0.043912
#
#
# Mechanical properties :
#
#
# Convention : Reuss Voigt Hill
#
# Bulk Modulus (GPa) = 58.04866 62.64653 60.34759
# Shear Modulus (GPa) = 14.80491 16.47145 15.63818
#
# Velocity S-wave (km/s) = 3.10044 3.27029 3.18650
# Velocity P-wave (km/s) = 7.10688 7.41187 7.26098
#
# Compressibility (1/GPa) = 0.01722693
#
# Stress axis : x y z
#
# Youngs Moduli (GPa) = 47.42254 47.42256 51.15521
#
# Poissons Ratio (x) = 0.15553 0.48516
# Poissons Ratio (y) = 0.15553 0.48516
# Poissons Ratio (z) = 0.44976 0.44976
#
# Static dielectric constant tensor:
#      x y z
#    x 2.883620 0.000000 0.000000 
#    y 0.000000 2.883620 0.000000 
#    z 0.000000 0.000000 2.684430 
# 
# 
# High freq. dielectric constant tensor:
#      x y z
#    x 1.584550 0.000000 0.000000 
#    y 0.000000 1.584550 0.000000 
#    z 0.000000 0.000000 1.568440 
# 
# From -- ./inp_files/5018.got.cif
#   From: 2010.03.12/outbox.cif.g09.slc.cpg/sg115_3_cif.got.tgz:5018.got - 2010.04.14 02:11:21.
