data_PCOD8309386
_publ_section_title
;
Structure prediction by ZEFSAII (Michael W. Deem and Ramdas Pophale) SiO2 
 PCOD8309386
Probable space group: P -4 M 2
;
_chemical_formula_sum "Si O2"
_cell_formula_units_Z 32
_cell_length_a 9.479491
_cell_length_b 9.479491
_cell_length_c 20.232633
_cell_angle_alpha 90.000000
_cell_angle_beta 90.000000
_cell_angle_gamma 90.000000
_cell_volume 1818.119568
_symmetry_space_group_name_H-M "P -4 M 2"
_symmetry_group_IT_number 115
_symmetry_cell_setting 'tetragonal'
loop_
_space_group_symop_operation_xyz
x,y,z
y,-x,-z
-x,-y,z
-y,x,-z
y,x,-z
-y,-x,-z
-x,y,z
x,-y,z
loop_
_atom_site_type_symbol
_atom_site_label
_atom_site_fract_x
_atom_site_fract_y
_atom_site_fract_z
Si Si1 0.843609 0.332439 0.801021
Si Si2 0.839069 0.837826 0.576908
Si Si3 0.337553 0.666754 0.678953
Si Si4 0.166346 0.660289 0.947821
O O1 0.850566 0.500000 0.800319
O O2 0.735221 0.276071 0.746053
O O3 0.793754 0.285060 0.874101
O O4 0.000000 0.271967 0.785358
O O5 0.811152 0.811152 0.500000
O O6 0.733509 0.738193 0.616100
O O7 0.000000 0.798432 0.594885
O O8 0.808947 0.000000 0.595153
O O9 0.500000 0.711201 0.681858
O O10 0.318507 0.500000 0.671625
O O11 0.218335 0.500000 0.958035
O O12 0.000000 0.670452 0.958245
O O13 0.240989 0.759012 0.000000
#
# Coordination Sequence:
#
# PCOD8309386 Si02
#       4
#     8   8   8   8
#     4   8  15  30  50  69  93 129 169 203 237 284
#     4   9  19  36  55  73  95 127 167 205 240 285
#     4  10  20  32  49  76 105 129 158 200 246 291
#     4   9  18  32  50  73  99 127 163 205 245 289
#
# _framework density 17.600604000000001
#
# number of rings (size 3 to 8) (size 9 to 14) (size 15 to 20)
#    0.000    3.000    0.000    3.000    0.000    4.500 
#    0.000    7.500    0.000    1.500    0.000    0.000 
#    0.000    0.000    0.000    0.000    0.000    0.000 
#
# Total GULP energy -396726.159209 kJ/mol
# GULP energy per Si atom -12397.692475 kJ/mol
# Density = 1.756054 g / cm^3
# Si number density = 17.600604 Si / 1000 Ang^3
#
#
#
# Elastic Constant Matrix: (Units=GPa)
#
#
# Indices 1 2 3 4 5 6 
#
# 1 71.0225 43.1474 61.2841 0.0000 0.0000 0.0000
# 2 43.1474 71.0190 61.2832 0.0000 0.0000 0.0000
# 3 61.2841 61.2832 124.3440 0.0000 0.0000 0.0000
# 4 0.0000 0.0000 0.0000 10.2766 0.0000 0.0000
# 5 0.0000 0.0000 0.0000 0.0000 10.2779 0.0000
# 6 0.0000 0.0000 0.0000 0.0000 0.0000 29.0531
#
#
#
# Elastic Compliance Matrix: (Units=1/GPa)
#
#
# Indices 1 2 3 4 5 6 
#
# 1 0.027238 -0.008638 -0.009167 0.000000 0.000000 0.000000
# 2 -0.008638 0.027240 -0.009168 0.000000 0.000000 0.000000
# 3 -0.009167 -0.009168 0.017079 0.000000 0.000000 0.000000
# 4 0.000000 0.000000 0.000000 0.097309 0.000000 0.000000
# 5 0.000000 0.000000 0.000000 0.000000 0.097296 0.000000
# 6 0.000000 0.000000 0.000000 0.000000 0.000000 0.034420
#
#
# Mechanical properties :
#
#
# Convention : Reuss Voigt Hill
#
# Bulk Modulus (GPa) = 56.78444 66.42390 61.60417
# Shear Modulus (GPa) = 13.87356 16.63288 15.25322
#
# Velocity S-wave (km/s) = 2.81061 3.07745 2.94705
# Velocity P-wave (km/s) = 6.54718 7.10275 6.83062
#
# Compressibility (1/GPa) = 0.01761046
#
# Stress axis : x y z
#
# Youngs Moduli (GPa) = 36.71343 36.71104 58.55177
#
# Poissons Ratio (x) = 0.31710 0.53677
# Poissons Ratio (y) = 0.31712 0.53680
# Poissons Ratio (z) = 0.33657 0.33657
#
# Static dielectric constant tensor:
#      x y z
#    x 3.493220 0.000000 0.000000 
#    y 0.000000 3.493240 0.000000 
#    z 0.000000 0.000000 3.428320 
# 
# 
# High freq. dielectric constant tensor:
#      x y z
#    x 1.664680 0.000000 0.000000 
#    y 0.000000 1.664680 0.000000 
#    z 0.000000 0.000000 1.692090 
# 
# From -- ./inp_files/4577.got.cif
#   From: 2010.03.12/outbox.cif.g09.slc.cpg/sg115_3_cif.got.tgz:4577.got - 2010.04.14 02:11:21.
