data_PCOD8309986
_publ_section_title
;
Structure prediction by ZEFSAII (Michael W. Deem and Ramdas Pophale) SiO2 
 PCOD8309986
Probable space group: P -4 M 2
;
_chemical_formula_sum "Si O2"
_cell_formula_units_Z 48
_cell_length_a 18.951236
_cell_length_b 18.951236
_cell_length_c 9.872708
_cell_angle_alpha 90.000000
_cell_angle_beta 90.000000
_cell_angle_gamma 90.000000
_cell_volume 3545.776621
_symmetry_space_group_name_H-M "P -4 M 2"
_symmetry_group_IT_number 115
_symmetry_cell_setting 'tetragonal'
loop_
_space_group_symop_operation_xyz
x,y,z
y,-x,-z
-x,-y,z
-y,x,-z
y,x,-z
-y,-x,-z
-x,y,z
x,-y,z
loop_
_atom_site_type_symbol
_atom_site_label
_atom_site_fract_x
_atom_site_fract_y
_atom_site_fract_z
Si Si1 0.146796 0.081713 0.131146
Si Si2 0.304165 0.917946 0.185841
Si Si3 0.578994 0.083930 0.986046
Si Si4 0.916099 0.421347 0.316980
Si Si5 0.084205 0.700682 0.510381
Si Si6 0.918471 0.152561 0.384775
O O1 0.230060 0.093635 0.109132
O O2 0.124167 0.131934 0.252382
O O3 0.130736 0.000000 0.166494
O O4 0.103256 0.103256 0.000000
O O5 0.365377 0.883024 0.092982
O O6 0.303738 0.884649 0.336975
O O7 0.320786 0.000000 0.202163
O O8 0.500000 0.107444 0.028297
O O9 0.584641 0.000000 0.985783
O O10 0.596575 0.111492 0.834446
O O11 0.891095 0.500000 0.359293
O O12 0.885546 0.365126 0.424142
O O13 0.000000 0.417860 0.317700
O O14 0.110125 0.772519 0.439540
O O15 0.000000 0.701083 0.515173
O O16 0.906116 0.093885 0.500000
O O17 0.000000 0.155882 0.345618
#
# Coordination Sequence:
#
# PCOD8309986 Si02
#       6
#     8   8   8   8   8   8
#     4  11  23  35  44  57  73  93 127 171 214 253
#     4   9  17  29  41  55  75  94 116 148 188 235
#     4   8  14  24  39  58  77  96 114 134 170 222
#     4   8  14  24  39  59  78  94 113 136 169 221
#     4   9  17  28  41  57  74  93 117 147 188 235
#     4  11  21  33  46  57  71  95 127 166 211 251
#
# _framework density 13.537231
#
# number of rings (size 3 to 8) (size 9 to 14) (size 15 to 20)
#    0.000    2.667    1.667    2.000    2.333    2.667 
#    0.000    3.333    0.000    0.000    0.000    0.000 
#    0.000    0.000    0.000    0.000    0.000    0.000 
#
# Total GULP energy -594955.091558 kJ/mol
# GULP energy per Si atom -12394.897741 kJ/mol
# Density = 1.350642 g / cm^3
# Si number density = 13.537231 Si / 1000 Ang^3
#
#
#
# Elastic Constant Matrix: (Units=GPa)
#
#
# Indices 1 2 3 4 5 6 
#
# 1 22.1696 44.6518 26.6934 0.0000 0.0000 0.0000
# 2 44.6518 22.1698 26.6915 0.0000 0.0000 0.0000
# 3 26.6934 26.6915 75.1831 0.0000 0.0000 0.0000
# 4 0.0000 0.0000 0.0000 22.1984 0.0000 0.0000
# 5 0.0000 0.0000 0.0000 0.0000 22.1984 0.0000
# 6 0.0000 0.0000 0.0000 0.0000 0.0000 0.7574
#
#
#
# Elastic Compliance Matrix: (Units=1/GPa)
#
#
# Indices 1 2 3 4 5 6 
#
# 1 -0.011795 0.032685 -0.007416 0.000000 0.000000 0.000000
# 2 0.032685 -0.011794 -0.007418 0.000000 0.000000 0.000000
# 3 -0.007416 -0.007418 0.018567 0.000000 0.000000 0.000000
# 4 0.000000 0.000000 0.000000 0.045048 0.000000 0.000000
# 5 0.000000 0.000000 0.000000 0.000000 0.045048 0.000000
# 6 0.000000 0.000000 0.000000 0.000000 0.000000 1.320326
#
#
# Mechanical properties :
#
#
# Convention : Reuss Voigt Hill
#
# Bulk Modulus (GPa) = 32.59321 35.06621 33.82971
# Shear Modulus (GPa) = 3.62339 10.46322 7.04331
#
# Velocity S-wave (km/s) = 1.63781 2.78316 2.28346
# Velocity P-wave (km/s) = 5.26361 6.02393 5.65656
#
# Compressibility (1/GPa) = 0.03068123
#
# Stress axis : x y z
#
# Youngs Moduli (GPa) = -84.77943 -84.79007 53.85797
#
# Poissons Ratio (x) = 2.77139 0.39941
# Poissons Ratio (y) = 2.77104 0.39950
# Poissons Ratio (z) = -0.62873 -0.62895
#
# Static dielectric constant tensor:
#      x y z
#    x 2.499120 0.000000 0.000000 
#    y 0.000000 2.499110 0.000000 
#    z 0.000000 0.000000 3.201170 
# 
# 
# High freq. dielectric constant tensor:
#      x y z
#    x 1.475260 0.000000 0.000000 
#    y 0.000000 1.475260 0.000000 
#    z 0.000000 0.000000 1.533210 
# 
# From -- ./inp_files/1845.got.cif
#   From: 2010.03.12/outbox.cif.g09.slc.cpg/sg115_1_cif.got.tgz:1845.got - 2010.04.14 02:11:21.
