data_PCOD8309718
_publ_section_title
;
Structure prediction by ZEFSAII (Michael W. Deem and Ramdas Pophale) SiO2 
 PCOD8309718
Probable space group: P -4 M 2
;
_chemical_formula_sum "Si O2"
_cell_formula_units_Z 40
_cell_length_a 17.822987
_cell_length_b 17.822987
_cell_length_c 5.692261
_cell_angle_alpha 90.000000
_cell_angle_beta 90.000000
_cell_angle_gamma 90.000000
_cell_volume 1808.197172
_symmetry_space_group_name_H-M "P -4 M 2"
_symmetry_group_IT_number 115
_symmetry_cell_setting 'tetragonal'
loop_
_space_group_symop_operation_xyz
x,y,z
y,-x,-z
-x,-y,z
-y,x,-z
y,x,-z
-y,-x,-z
-x,y,z
x,-y,z
loop_
_atom_site_type_symbol
_atom_site_label
_atom_site_fract_x
_atom_site_fract_y
_atom_site_fract_z
Si Si1 0.414315 0.353558 0.252439
Si Si2 0.792431 0.415534 0.997225
Si Si3 0.801219 0.915254 0.943491
Si Si4 0.191632 0.296815 0.361141
Si Si5 0.916182 0.338663 0.742604
O O1 0.374716 0.374716 0.500000
O O2 0.500000 0.379013 0.281442
O O3 0.386990 0.386990 0.000000
O O4 0.407552 0.262982 0.226411
O O5 0.790008 0.500000 0.099590
O O6 0.765764 0.355214 0.191037
O O7 0.877814 0.394125 0.930715
O O8 0.768183 0.855852 0.762017
O O9 0.807418 0.000000 0.840107
O O10 0.884938 0.884938 0.000000
O O11 0.747504 0.916235 0.170865
O O12 0.258911 0.258911 0.500000
O O13 0.132194 0.344653 0.508662
O O14 0.000000 0.367748 0.695200
#
# Coordination Sequence:
#
# PCOD8309718 Si02
#       5
#     8   8   8   8   8
#     4  11  26  46  72 105 144 187 234 290 351 422
#     4  10  26  44  64  99 138 173 222 288 350 413
#     4  10  20  37  59  92 133 171 222 282 341 411
#     4  11  22  39  69  97 128 178 233 284 346 416
#     4  10  22  40  65  93 128 174 225 279 340 415
#
# _framework density 22.121479000000001
#
# number of rings (size 3 to 8) (size 9 to 14) (size 15 to 20)
#    0.000    1.600    2.000    1.200    5.600    3.400 
#    0.000    0.000    0.000    0.000    0.000    0.000 
#    0.000    0.000    0.000    0.000    0.000    0.000 
#
# Total GULP energy -495792.013843 kJ/mol
# GULP energy per Si atom -12394.800346 kJ/mol
# Density = 2.207113 g / cm^3
# Si number density = 22.121479 Si / 1000 Ang^3
#
#
#
# Elastic Constant Matrix: (Units=GPa)
#
#
# Indices 1 2 3 4 5 6 
#
# 1 134.8455 68.8914 50.5978 0.0000 0.0000 0.0000
# 2 68.8914 134.8455 50.5978 0.0000 0.0000 0.0000
# 3 50.5978 50.5978 119.0479 0.0000 0.0000 0.0000
# 4 0.0000 0.0000 0.0000 22.1178 0.0000 0.0000
# 5 0.0000 0.0000 0.0000 0.0000 22.1178 0.0000
# 6 0.0000 0.0000 0.0000 0.0000 0.0000 22.1925
#
#
#
# Elastic Compliance Matrix: (Units=1/GPa)
#
#
# Indices 1 2 3 4 5 6 
#
# 1 0.010692 -0.004470 -0.002644 0.000000 0.000000 0.000000
# 2 -0.004470 0.010692 -0.002644 0.000000 0.000000 0.000000
# 3 -0.002644 -0.002644 0.010648 0.000000 0.000000 0.000000
# 4 0.000000 0.000000 0.000000 0.045212 0.000000 0.000000
# 5 0.000000 0.000000 0.000000 0.000000 0.045212 0.000000
# 6 0.000000 0.000000 0.000000 0.000000 0.000000 0.045060
#
#
# Mechanical properties :
#
#
# Convention : Reuss Voigt Hill
#
# Bulk Modulus (GPa) = 79.91168 80.99031 80.45099
# Shear Modulus (GPa) = 26.14984 27.86242 27.00613
#
# Velocity S-wave (km/s) = 3.44190 3.55282 3.49780
# Velocity P-wave (km/s) = 7.21096 7.31581 7.26358
#
# Compressibility (1/GPa) = 0.01251382
#
# Stress axis : x y z
#
# Youngs Moduli (GPa) = 93.52869 93.52869 93.91615
#
# Poissons Ratio (x) = 0.41809 0.24835
# Poissons Ratio (y) = 0.41809 0.24835
# Poissons Ratio (z) = 0.24732 0.24732
#
# Static dielectric constant tensor:
#      x y z
#    x 4.047180 0.000000 0.000000 
#    y 0.000000 4.047180 0.000000 
#    z 0.000000 0.000000 3.993580 
# 
# 
# High freq. dielectric constant tensor:
#      x y z
#    x 1.872240 0.000000 0.000000 
#    y 0.000000 1.872240 0.000000 
#    z 0.000000 0.000000 1.863410 
# 
# From -- ./inp_files/504.got.cif
#   From: 2010.03.12/outbox.cif.g09.slc.cpg/sg115_1_cif.got.tgz:504.got - 2010.04.14 02:11:21.
