data_PCOD8309288
_publ_section_title
;
Structure prediction by ZEFSAII (Michael W. Deem and Ramdas Pophale) SiO2 
 PCOD8309288
Probable space group: P -4 M 2
;
_chemical_formula_sum "Si O2"
_cell_formula_units_Z 33
_cell_length_a 11.391816
_cell_length_b 11.391816
_cell_length_c 14.286113
_cell_angle_alpha 90.000000
_cell_angle_beta 90.000000
_cell_angle_gamma 90.000000
_cell_volume 1853.958482
_symmetry_space_group_name_H-M "P -4 M 2"
_symmetry_group_IT_number 115
_symmetry_cell_setting 'tetragonal'
loop_
_space_group_symop_operation_xyz
x,y,z
y,-x,-z
-x,-y,z
-y,x,-z
y,x,-z
-y,-x,-z
-x,y,z
x,-y,z
loop_
_atom_site_type_symbol
_atom_site_label
_atom_site_fract_x
_atom_site_fract_y
_atom_site_fract_z
Si Si1 0.136977 0.268198 0.925810
Si Si2 0.500000 0.861196 0.306334
Si Si3 0.267798 0.865635 0.423155
Si Si4 0.873743 0.134569 0.243582
Si Si5 0.500000 0.500000 0.000000
Si Si6 0.256560 0.500000 0.897946
O O1 0.187600 0.224206 0.825389
O O2 0.201907 0.388170 0.949702
O O3 0.000000 0.293763 0.924694
O O4 0.167518 0.167518 0.000000
O O5 0.388524 0.831777 0.371451
O O6 0.500000 0.778907 0.213432
O O7 0.500000 0.000000 0.276148
O O8 0.232324 0.767677 0.500000
O O9 0.162350 0.855741 0.350419
O O10 0.275140 0.000000 0.462629
O O11 0.000000 0.198142 0.231263
O O12 0.886978 0.000000 0.213063
O O13 0.393539 0.500000 0.924810
#
# Coordination Sequence:
#
# PCOD8309288 Si02
#       6
#     8   4   8   8   1   4
#     4  11  21  34  57  85 118 152 189 238 292 356
#     4  10  20  38  63  85 110 149 196 237 284 351
#     4  10  19  32  54  83 114 148 186 233 283 341
#     4   9  17  29  48  79 116 148 176 217 283 353
#     4  12  28  44  64  84 110 152 208 264 284 332
#     4  12  22  42  60  81 109 156 209 246 288 331
#
# _framework density 17.799752000000002
#
# number of rings (size 3 to 8) (size 9 to 14) (size 15 to 20)
#    0.000    1.697    3.636    2.545    0.000    2.424 
#    0.000    1.212    0.000    0.000    0.000    5.091 
#    0.000    0.000    0.000    0.000    0.000    0.000 
#
# Total GULP energy -408896.540391 kJ/mol
# GULP energy per Si atom -12390.804254 kJ/mol
# Density = 1.775924 g / cm^3
# Si number density = 17.799752 Si / 1000 Ang^3
#
#
#
# Elastic Constant Matrix: (Units=GPa)
#
#
# Indices 1 2 3 4 5 6 
#
# 1 96.8495 45.0597 36.2180 0.0000 0.0000 0.0000
# 2 45.0597 96.8500 36.2182 0.0000 0.0000 0.0000
# 3 36.2180 36.2182 81.3310 0.0000 0.0000 0.0000
# 4 0.0000 0.0000 0.0000 27.5400 0.0000 0.0000
# 5 0.0000 0.0000 0.0000 0.0000 27.5399 0.0000
# 6 0.0000 0.0000 0.0000 0.0000 0.0000 23.3301
#
#
#
# Elastic Compliance Matrix: (Units=1/GPa)
#
#
# Indices 1 2 3 4 5 6 
#
# 1 0.014214 -0.005095 -0.004061 0.000000 0.000000 0.000000
# 2 -0.005095 0.014214 -0.004061 0.000000 0.000000 0.000000
# 3 -0.004061 -0.004061 0.015912 0.000000 0.000000 0.000000
# 4 0.000000 0.000000 0.000000 0.036311 0.000000 0.000000
# 5 0.000000 0.000000 0.000000 0.000000 0.036311 0.000000
# 6 0.000000 0.000000 0.000000 0.000000 0.000000 0.042863
#
#
# Mechanical properties :
#
#
# Convention : Reuss Voigt Hill
#
# Bulk Modulus (GPa) = 55.84338 56.66914 56.25626
# Shear Modulus (GPa) = 26.01071 26.18431 26.09751
#
# Velocity S-wave (km/s) = 3.82684 3.83959 3.83322
# Velocity P-wave (km/s) = 7.13915 7.18072 7.15997
#
# Compressibility (1/GPa) = 0.01790722
#
# Stress axis : x y z
#
# Youngs Moduli (GPa) = 70.35192 70.35215 62.84388
#
# Poissons Ratio (x) = 0.35841 0.25522
# Poissons Ratio (y) = 0.35841 0.25522
# Poissons Ratio (z) = 0.28571 0.28571
#
# Static dielectric constant tensor:
#      x y z
#    x 3.265120 0.000000 0.000000 
#    y 0.000000 3.265120 0.000000 
#    z 0.000000 0.000000 3.226430 
# 
# 
# High freq. dielectric constant tensor:
#      x y z
#    x 1.677230 0.000000 0.000000 
#    y 0.000000 1.677230 0.000000 
#    z 0.000000 0.000000 1.685200 
# 
# From -- ./inp_files/2596.got.cif
#   From: 2010.03.12/outbox.cif.g09.slc.cpg/sg115_2_cif.got.tgz:2596.got - 2010.04.14 02:11:21.
