data_PCOD8309560
_publ_section_title
;
Structure prediction by ZEFSAII (Michael W. Deem and Ramdas Pophale) SiO2 
 PCOD8309560
Probable space group: P -4 M 2
;
_chemical_formula_sum "Si O2"
_cell_formula_units_Z 48
_cell_length_a 9.238615
_cell_length_b 9.238615
_cell_length_c 31.108639
_cell_angle_alpha 90.000000
_cell_angle_beta 90.000000
_cell_angle_gamma 90.000000
_cell_volume 2655.184777
_symmetry_space_group_name_H-M "P -4 M 2"
_symmetry_group_IT_number 115
_symmetry_cell_setting 'tetragonal'
loop_
_space_group_symop_operation_xyz
x,y,z
y,-x,-z
-x,-y,z
-y,x,-z
y,x,-z
-y,-x,-z
-x,y,z
x,-y,z
loop_
_atom_site_type_symbol
_atom_site_label
_atom_site_fract_x
_atom_site_fract_y
_atom_site_fract_z
Si Si1 0.162192 0.328369 0.535758
Si Si2 0.671759 0.336796 0.122326
Si Si3 0.331471 0.829575 0.037612
Si Si4 0.661070 0.172326 0.369507
Si Si5 0.827597 0.837687 0.710815
Si Si6 0.832260 0.669526 0.794549
O O1 0.267629 0.267629 0.500000
O O2 0.163992 0.500000 0.533484
O O3 0.217096 0.279797 0.583255
O O4 0.000000 0.269931 0.527432
O O5 0.500000 0.339039 0.123705
O O6 0.734037 0.500000 0.119665
O O7 0.723623 0.245612 0.081265
O O8 0.729912 0.258928 0.165207
O O9 0.500000 0.794733 0.028635
O O10 0.304872 0.000000 0.041717
O O11 0.234611 0.765389 0.000000
O O12 0.500000 0.235141 0.361894
O O13 0.764884 0.235643 0.332484
O O14 0.654330 0.000000 0.367210
O O15 0.773450 0.750100 0.752334
O O16 0.000000 0.836037 0.709273
O O17 0.766745 0.000000 0.713493
O O18 0.808055 0.500000 0.787147
O O19 0.000000 0.704266 0.803550
#
# Coordination Sequence:
#
# PCOD8309560 Si02
#       6
#     8   8   8   8   8   8
#     4   9  18  31  47  69  96 125 159 199 242 289
#     4   9  17  30  50  74  97 124 161 202 239 278
#     4  10  20  34  53  77 104 133 166 204 246 292
#     4   8  14  26  43  63  89 120 153 190 231 276
#     4   9  16  25  40  65  94 121 151 189 233 279
#     4   9  16  27  45  68  93 122 156 193 233 277
#
# _framework density 18.077839000000001
#
# number of rings (size 3 to 8) (size 9 to 14) (size 15 to 20)
#    0.000    3.000    0.000    2.500    0.000    6.000 
#    0.000    2.500    0.000    4.500    0.000    2.333 
#    0.000    0.000    0.000    0.000    0.000    0.000 
#
# Total GULP energy -595065.340630 kJ/mol
# GULP energy per Si atom -12397.194596 kJ/mol
# Density = 1.803669 g / cm^3
# Si number density = 18.077839 Si / 1000 Ang^3
#
#
#
# Elastic Constant Matrix: (Units=GPa)
#
#
# Indices 1 2 3 4 5 6 
#
# 1 63.2969 28.4692 60.6308 0.0000 0.0000 0.0000
# 2 28.4692 63.2969 60.6308 0.0000 0.0000 0.0000
# 3 60.6308 60.6308 188.7748 0.0000 0.0000 0.0000
# 4 0.0000 0.0000 0.0000 26.5975 0.0000 0.0000
# 5 0.0000 0.0000 0.0000 0.0000 26.5975 0.0000
# 6 0.0000 0.0000 0.0000 0.0000 0.0000 15.6747
#
#
#
# Elastic Compliance Matrix: (Units=1/GPa)
#
#
# Indices 1 2 3 4 5 6 
#
# 1 0.023823 -0.004890 -0.006081 0.000000 0.000000 0.000000
# 2 -0.004890 0.023823 -0.006081 0.000000 0.000000 0.000000
# 3 -0.006081 -0.006081 0.009203 0.000000 0.000000 0.000000
# 4 0.000000 0.000000 0.000000 0.037597 0.000000 0.000000
# 5 0.000000 0.000000 0.000000 0.000000 0.037597 0.000000
# 6 0.000000 0.000000 0.000000 0.000000 0.000000 0.063797
#
#
# Mechanical properties :
#
#
# Convention : Reuss Voigt Hill
#
# Bulk Modulus (GPa) = 43.96500 68.31446 56.13973
# Shear Modulus (GPa) = 21.05035 24.81648 22.93342
#
# Velocity S-wave (km/s) = 3.41607 3.70909 3.56559
# Velocity P-wave (km/s) = 6.31918 7.49762 6.93348
#
# Compressibility (1/GPa) = 0.02274536
#
# Stress axis : x y z
#
# Youngs Moduli (GPa) = 41.97687 41.97687 108.65602
#
# Poissons Ratio (x) = 0.20527 0.66071
# Poissons Ratio (y) = 0.20527 0.66071
# Poissons Ratio (z) = 0.25525 0.25525
#
# Static dielectric constant tensor:
#      x y z
#    x 3.140530 0.000000 0.000000 
#    y 0.000000 3.140530 0.000000 
#    z 0.000000 0.000000 3.638180 
# 
# 
# High freq. dielectric constant tensor:
#      x y z
#    x 1.668680 0.000000 0.000000 
#    y 0.000000 1.668680 0.000000 
#    z 0.000000 0.000000 1.719070 
# 
# From -- ./inp_files/6119.got.cif
#   From: 2010.03.12/outbox.cif.g09.slc.cpg/sg115_4_cif.got.tgz:6119.got - 2010.04.14 02:11:21.
