data_PCOD8309468
_publ_section_title
;
Structure prediction by ZEFSAII (Michael W. Deem and Ramdas Pophale) SiO2 
 PCOD8309468
Probable space group: P -4 M 2
;
_chemical_formula_sum "Si O2"
_cell_formula_units_Z 48
_cell_length_a 9.354900
_cell_length_b 9.354900
_cell_length_c 30.792138
_cell_angle_alpha 90.000000
_cell_angle_beta 90.000000
_cell_angle_gamma 90.000000
_cell_volume 2694.747907
_symmetry_space_group_name_H-M "P -4 M 2"
_symmetry_group_IT_number 115
_symmetry_cell_setting 'tetragonal'
loop_
_space_group_symop_operation_xyz
x,y,z
y,-x,-z
-x,-y,z
-y,x,-z
y,x,-z
-y,-x,-z
-x,y,z
x,-y,z
loop_
_atom_site_type_symbol
_atom_site_label
_atom_site_fract_x
_atom_site_fract_y
_atom_site_fract_z
Si Si1 0.168148 0.665918 0.796112
Si Si2 0.340920 0.329799 0.547278
Si Si3 0.829990 0.838053 0.712417
Si Si4 0.163174 0.331992 0.132654
Si Si5 0.167296 0.659077 0.034185
Si Si6 0.832223 0.334798 0.629494
O O1 0.206658 0.500000 0.789822
O O2 0.225670 0.752208 0.754325
O O3 0.246022 0.726171 0.838219
O O4 0.000000 0.688110 0.802368
O O5 0.280427 0.280427 0.500000
O O6 0.500000 0.268255 0.555360
O O7 0.345873 0.500000 0.546776
O O8 0.239387 0.274152 0.585668
O O9 0.772523 0.757935 0.669574
O O10 0.000000 0.837473 0.711949
O O11 0.770382 0.000000 0.713637
O O12 0.183528 0.500000 0.140199
O O13 0.200332 0.290471 0.083159
O O14 0.000000 0.287742 0.143778
O O15 0.228840 0.500000 0.026947
O O16 0.000000 0.659357 0.025991
O O17 0.235515 0.764486 0.000000
O O18 0.792070 0.500000 0.638097
O O19 0.000000 0.315386 0.623787
#
# Coordination Sequence:
#
# PCOD8309468 Si02
#       6
#     8   8   8   8   8   8
#     4  10  20  33  51  76 101 125 160 205 246 287
#     4   8  14  26  44  64  87 117 150 182 221 272
#     4   9  17  30  48  68  92 124 158 191 233 285
#     4   9  19  36  54  72  99 134 166 198 242 293
#     4   9  19  35  53  74 101 132 166 203 242 286
#     4   9  16  27  45  67  88 112 147 190 230 269
#
# _framework density 17.812428000000001
#
# number of rings (size 3 to 8) (size 9 to 14) (size 15 to 20)
#    0.000    3.000    0.000    2.500    0.000    5.000 
#    0.000    6.667    0.000    4.500    0.000    0.000 
#    0.000    0.000    0.000    0.000    0.000    0.000 
#
# Total GULP energy -595080.522499 kJ/mol
# GULP energy per Si atom -12397.510885 kJ/mol
# Density = 1.777189 g / cm^3
# Si number density = 17.812428 Si / 1000 Ang^3
#
#
#
# Elastic Constant Matrix: (Units=GPa)
#
#
# Indices 1 2 3 4 5 6 
#
# 1 64.5029 35.7954 63.9829 0.0000 0.0000 0.0000
# 2 35.7954 64.5009 63.9825 0.0000 0.0000 0.0000
# 3 63.9829 63.9825 161.8867 0.0000 0.0000 0.0000
# 4 0.0000 0.0000 0.0000 31.8130 0.0000 0.0000
# 5 0.0000 0.0000 0.0000 0.0000 31.8130 0.0000
# 6 0.0000 0.0000 0.0000 0.0000 0.0000 20.9190
#
#
#
# Elastic Compliance Matrix: (Units=1/GPa)
#
#
# Indices 1 2 3 4 5 6 
#
# 1 0.027473 -0.007362 -0.007949 0.000000 0.000000 0.000000
# 2 -0.007362 0.027474 -0.007949 0.000000 0.000000 0.000000
# 3 -0.007949 -0.007949 0.012461 0.000000 0.000000 0.000000
# 4 0.000000 0.000000 0.000000 0.031434 0.000000 0.000000
# 5 0.000000 0.000000 0.000000 0.000000 0.031434 0.000000
# 6 0.000000 0.000000 0.000000 0.000000 0.000000 0.047803
#
#
# Mechanical properties :
#
#
# Convention : Reuss Voigt Hill
#
# Bulk Modulus (GPa) = 47.87219 68.71247 58.29233
# Shear Modulus (GPa) = 21.59260 25.38429 23.48845
#
# Velocity S-wave (km/s) = 3.48547 3.77913 3.63527
# Velocity P-wave (km/s) = 6.56750 7.59617 7.10049
#
# Compressibility (1/GPa) = 0.02088896
#
# Stress axis : x y z
#
# Youngs Moduli (GPa) = 36.39918 36.39770 80.25360
#
# Poissons Ratio (x) = 0.26795 0.63792
# Poissons Ratio (y) = 0.26796 0.63794
# Poissons Ratio (z) = 0.28933 0.28933
#
# Static dielectric constant tensor:
#      x y z
#    x 3.150620 0.000000 0.000000 
#    y 0.000000 3.150620 0.000000 
#    z 0.000000 0.000000 3.532100 
# 
# 
# High freq. dielectric constant tensor:
#      x y z
#    x 1.668020 0.000000 0.000000 
#    y 0.000000 1.668020 0.000000 
#    z 0.000000 0.000000 1.704040 
# 
# From -- ./inp_files/6064.got.cif
#   From: 2010.03.12/outbox.cif.g09.slc.cpg/sg115_4_cif.got.tgz:6064.got - 2010.04.14 02:11:21.
