data_PCOD8309586
_publ_section_title
;
Structure prediction by ZEFSAII (Michael W. Deem and Ramdas Pophale) SiO2 
 PCOD8309586
Probable space group: P -4 M 2
;
_chemical_formula_sum "Si O2"
_cell_formula_units_Z 32
_cell_length_a 8.889866
_cell_length_b 8.889866
_cell_length_c 20.656490
_cell_angle_alpha 90.000000
_cell_angle_beta 90.000000
_cell_angle_gamma 90.000000
_cell_volume 1632.476569
_symmetry_space_group_name_H-M "P -4 M 2"
_symmetry_group_IT_number 115
_symmetry_cell_setting 'tetragonal'
loop_
_space_group_symop_operation_xyz
x,y,z
y,-x,-z
-x,-y,z
-y,x,-z
y,x,-z
-y,-x,-z
-x,y,z
x,-y,z
loop_
_atom_site_type_symbol
_atom_site_label
_atom_site_fract_x
_atom_site_fract_y
_atom_site_fract_z
Si Si1 0.826367 0.324297 0.060402
Si Si2 0.172693 0.676309 0.559702
Si Si3 0.329314 0.821241 0.181136
Si Si4 0.169388 0.178879 0.309883
O O1 0.800024 0.500000 0.069905
O O2 0.773948 0.241146 0.124608
O O3 0.000000 0.285622 0.047346
O O4 0.729808 0.270193 0.000000
O O5 0.273541 0.726460 0.500000
O O6 0.188163 0.500000 0.570540
O O7 0.237043 0.756330 0.623858
O O8 0.000000 0.722969 0.546483
O O9 0.500000 0.763327 0.173198
O O10 0.264523 0.760022 0.249107
O O11 0.323176 0.000000 0.178459
O O12 0.000000 0.241851 0.305267
O O13 0.170759 0.000000 0.309207
#
# Coordination Sequence:
#
# PCOD8309586 Si02
#       4
#     8   8   8   8
#     4  11  24  40  58  82 111 144 184 228 273 323
#     4  10  20  34  53  78 108 142 181 226 275 327
#     4  10  20  35  57  85 115 146 181 222 270 325
#     4   9  17  31  54  82 110 142 181 225 272 322
#
# _framework density 19.602119999999999
#
# number of rings (size 3 to 8) (size 9 to 14) (size 15 to 20)
#    0.000    2.000    0.000    3.750    0.000   11.000 
#    0.000    1.250    0.000    7.500    0.000    0.000 
#    0.000    0.000    0.000    0.000    0.000    0.000 
#
# Total GULP energy -396919.450128 kJ/mol
# GULP energy per Si atom -12403.732816 kJ/mol
# Density = 1.955750 g / cm^3
# Si number density = 19.602120 Si / 1000 Ang^3
#
#
#
# Elastic Constant Matrix: (Units=GPa)
#
#
# Indices 1 2 3 4 5 6 
#
# 1 29.8425 46.5761 22.2509 0.0000 0.0000 0.0000
# 2 46.5761 29.8410 22.2531 0.0000 0.0000 0.0000
# 3 22.2509 22.2531 133.3743 0.0000 0.0000 0.0000
# 4 0.0000 0.0000 0.0000 -66.5286 0.0000 0.0000
# 5 0.0000 0.0000 0.0000 0.0000 -66.5189 0.0000
# 6 0.0000 0.0000 0.0000 0.0000 0.0000 23.4178
#
#
#
# Elastic Compliance Matrix: (Units=1/GPa)
#
#
# Indices 1 2 3 4 5 6 
#
# 1 -0.022631 0.037126 -0.002419 0.000000 0.000000 0.000000
# 2 0.037126 -0.022632 -0.002418 0.000000 0.000000 0.000000
# 3 -0.002419 -0.002418 0.008305 0.000000 0.000000 0.000000
# 4 0.000000 0.000000 0.000000 -0.015031 0.000000 0.000000
# 5 0.000000 0.000000 0.000000 0.000000 -0.015033 0.000000
# 6 0.000000 0.000000 0.000000 0.000000 0.000000 0.042703
#
#
# Mechanical properties :
#
#
# Convention : Reuss Voigt Hill
#
# Bulk Modulus (GPa) = 36.20527 41.69089 38.94808
# Shear Modulus (GPa) = -62.74133 -15.12743 -38.93438
#
# Velocity S-wave (km/s) = -5.66365 -2.78101 -4.46155
# Velocity P-wave (km/s) = 4.92535 3.31704 2.57452
#
# Compressibility (1/GPa) = 0.02762029
#
# Stress axis : x y z
#
# Youngs Moduli (GPa) = -44.18801 -44.18432 120.41524
#
# Poissons Ratio (x) = 1.64038 0.29127
# Poissons Ratio (y) = 1.64051 0.29111
# Poissons Ratio (z) = -0.10688 -0.10682
#
# Static dielectric constant tensor:
#      x y z
#    x 3.532790 0.000000 0.000000 
#    y 0.000000 3.532790 0.000000 
#    z 0.000000 0.000000 3.871670 
# 
# 
# High freq. dielectric constant tensor:
#      x y z
#    x 1.754090 0.000000 0.000000 
#    y 0.000000 1.754090 0.000000 
#    z 0.000000 0.000000 1.782110 
# 
# From -- ./inp_files/4591.got.cif
#   From: 2010.03.12/outbox.cif.g09.slc.cpg/sg115_3_cif.got.tgz:4591.got - 2010.04.14 02:11:21.
