data_PCOD8309760
_publ_section_title
;
Structure prediction by ZEFSAII (Michael W. Deem and Ramdas Pophale) SiO2 
 PCOD8309760
Probable space group: P -4 M 2
;
_chemical_formula_sum "Si O2"
_cell_formula_units_Z 48
_cell_length_a 9.498707
_cell_length_b 9.498707
_cell_length_c 30.504889
_cell_angle_alpha 90.000000
_cell_angle_beta 90.000000
_cell_angle_gamma 90.000000
_cell_volume 2752.316870
_symmetry_space_group_name_H-M "P -4 M 2"
_symmetry_group_IT_number 115
_symmetry_cell_setting 'tetragonal'
loop_
_space_group_symop_operation_xyz
x,y,z
y,-x,-z
-x,-y,z
-y,x,-z
y,x,-z
-y,-x,-z
-x,y,z
x,-y,z
loop_
_atom_site_type_symbol
_atom_site_label
_atom_site_fract_x
_atom_site_fract_y
_atom_site_fract_z
Si Si1 0.337303 0.662698 0.000000
Si Si2 0.659887 0.662329 0.337585
Si Si3 0.164798 0.163492 0.168496
Si Si4 0.660300 0.663704 0.763631
Si Si5 0.836672 0.833668 0.594360
Si Si6 0.163576 0.662175 0.084100
Si Si7 0.836142 0.836142 0.500000
O O1 0.286579 0.751175 0.958252
O O2 0.500000 0.691615 0.010564
O O3 0.500000 0.707435 0.347315
O O4 0.682804 0.500000 0.349326
O O5 0.696477 0.690113 0.287045
O O6 0.762721 0.753428 0.366728
O O7 0.245669 0.229413 0.209273
O O8 0.213496 0.242292 0.124451
O O9 0.000000 0.185870 0.176691
O O10 0.204276 0.000000 0.164145
O O11 0.500000 0.706214 0.775676
O O12 0.684335 0.500000 0.773900
O O13 0.776275 0.778234 0.546639
O O14 0.000000 0.794033 0.599274
O O15 0.815264 0.000000 0.597853
O O16 0.197870 0.500000 0.095543
O O17 0.000000 0.684070 0.073774
O O18 0.000000 0.805833 0.501438
#
# Coordination Sequence:
#
# PCOD8309760 Si02
#       7
#     4   8   8   8   8   8   4
#     4   9  18  32  50  73  98 124 160 205 244 279
#     4   9  19  35  51  69  97 130 162 198 242 292
#     4  10  21  35  51  75 105 132 161 201 247 293
#     4   9  19  36  55  72  93 127 168 204 241 289
#     4   9  17  30  50  74  97 124 161 202 242 286
#     4   9  18  33  51  70  96 131 165 196 237 289
#     4   7  12  26  46  67  94 126 158 195 238 283
#
# _framework density 17.439851999999998
#
# number of rings (size 3 to 8) (size 9 to 14) (size 15 to 20)
#    0.000    3.000    0.000    2.500    0.000    4.667 
#    0.000    7.500    0.000    4.000    0.000    0.000 
#    0.000    0.000    0.000    0.000    0.000    0.000 
#
# Total GULP energy -594991.458306 kJ/mol
# GULP energy per Si atom -12395.655381 kJ/mol
# Density = 1.740016 g / cm^3
# Si number density = 17.439852 Si / 1000 Ang^3
#
#
#
# Elastic Constant Matrix: (Units=GPa)
#
#
# Indices 1 2 3 4 5 6 
#
# 1 62.5061 38.3129 62.4138 0.0000 0.0000 0.0000
# 2 38.3129 62.5057 62.4139 0.0000 0.0000 0.0000
# 3 62.4138 62.4139 129.6588 0.0000 0.0000 0.0000
# 4 0.0000 0.0000 0.0000 149.2660 0.0000 0.0000
# 5 0.0000 0.0000 0.0000 0.0000 149.0843 0.0000
# 6 0.0000 0.0000 0.0000 0.0000 0.0000 28.9649
#
#
#
# Elastic Compliance Matrix: (Units=1/GPa)
#
#
# Indices 1 2 3 4 5 6 
#
# 1 0.032943 -0.008391 -0.011818 0.000000 0.000000 0.000000
# 2 -0.008391 0.032943 -0.011819 0.000000 0.000000 0.000000
# 3 -0.011818 -0.011819 0.019091 0.000000 0.000000 0.000000
# 4 0.000000 0.000000 0.000000 0.006699 0.000000 0.000000
# 5 0.000000 0.000000 0.000000 0.000000 0.006708 0.000000
# 6 0.000000 0.000000 0.000000 0.000000 0.000000 0.034524
#
#
# Mechanical properties :
#
#
# Convention : Reuss Voigt Hill
#
# Bulk Modulus (GPa) = 47.80074 64.55021 56.17548
# Shear Modulus (GPa) = 24.51729 71.56505 48.04117
#
# Velocity S-wave (km/s) = 3.75349 6.41283 5.25420
# Velocity P-wave (km/s) = 6.80098 9.58780 8.31202
#
# Compressibility (1/GPa) = 0.02092018
#
# Stress axis : x y z
#
# Youngs Moduli (GPa) = 30.35572 30.35531 52.38180
#
# Poissons Ratio (x) = 0.25472 0.61906
# Poissons Ratio (y) = 0.25473 0.61908
# Poissons Ratio (z) = 0.35875 0.35875
#
# Static dielectric constant tensor:
#      x y z
#    x 3.091080 0.000000 0.000000 
#    y 0.000000 3.091060 0.000000 
#    z 0.000000 0.000000 3.405650 
# 
# 
# High freq. dielectric constant tensor:
#      x y z
#    x 1.661160 0.000000 0.000000 
#    y 0.000000 1.661160 0.000000 
#    z 0.000000 0.000000 1.687330 
# 
# From -- ./inp_files/6218.got.cif
#   From: 2010.03.12/outbox.cif.g09.slc.cpg/sg115_4_cif.got.tgz:6218.got - 2010.04.14 02:11:21.
