data_PCOD8309887
_publ_section_title
;
Structure prediction by ZEFSAII (Michael W. Deem and Ramdas Pophale) SiO2 
 PCOD8309887
Probable space group: P -4 M 2
;
_chemical_formula_sum "Si O2"
_cell_formula_units_Z 48
_cell_length_a 9.189074
_cell_length_b 9.189074
_cell_length_c 31.298833
_cell_angle_alpha 90.000000
_cell_angle_beta 90.000000
_cell_angle_gamma 90.000000
_cell_volume 2642.844694
_symmetry_space_group_name_H-M "P -4 M 2"
_symmetry_group_IT_number 115
_symmetry_cell_setting 'tetragonal'
loop_
_space_group_symop_operation_xyz
x,y,z
y,-x,-z
-x,-y,z
-y,x,-z
y,x,-z
-y,-x,-z
-x,y,z
x,-y,z
loop_
_atom_site_type_symbol
_atom_site_label
_atom_site_fract_x
_atom_site_fract_y
_atom_site_fract_z
Si Si1 0.833318 0.832377 0.450417
Si Si2 0.829942 0.830215 0.303317
Si Si3 0.331696 0.671619 0.954947
Si Si4 0.335357 0.673631 0.863457
Si Si5 0.671356 0.668179 0.620844
Si Si6 0.829606 0.667060 0.781201
O O1 0.803039 0.803039 0.500000
O O2 0.725189 0.730404 0.424277
O O3 0.000000 0.794072 0.438903
O O4 0.802303 0.000000 0.438834
O O5 0.759859 0.741957 0.341529
O O6 0.759513 0.775369 0.259152
O O7 0.000000 0.796841 0.301717
O O8 0.797640 0.000000 0.310710
O O9 0.500000 0.712627 0.952149
O O10 0.311587 0.500000 0.958343
O O11 0.265902 0.727555 0.909389
O O12 0.264023 0.735978 0.000000
O O13 0.500000 0.730264 0.858027
O O14 0.332467 0.500000 0.863373
O O15 0.242550 0.734020 0.823859
O O16 0.500000 0.691354 0.622022
O O17 0.714363 0.500000 0.626194
O O18 0.782815 0.500000 0.773606
O O19 0.000000 0.682063 0.787700
#
# Coordination Sequence:
#
# PCOD8309887 Si02
#       6
#     8   8   8   8   8   8
#     4   9  19  37  60  84 109 139 176 213 246 284
#     4  10  21  37  56  75  95 124 165 208 247 292
#     4   7   9  14  26  47  76 107 139 177 219 262
#     4   8  13  21  35  57  84 113 145 182 224 271
#     4  11  24  38  53  78 110 139 167 203 248 295
#     4   9  17  29  45  66  92 119 147 185 236 289
#
# _framework density 18.162247000000001
#
# number of rings (size 3 to 8) (size 9 to 14) (size 15 to 20)
#    0.000    3.000    0.000    3.500    0.000    6.000 
#    0.000    4.167    0.000    0.000    0.000    1.167 
#    0.000    4.000    0.000    0.000    0.000    0.000 
#
# Total GULP energy -594730.725607 kJ/mol
# GULP energy per Si atom -12390.223450 kJ/mol
# Density = 1.812091 g / cm^3
# Si number density = 18.162247 Si / 1000 Ang^3
#
#
#
# Elastic Constant Matrix: (Units=GPa)
#
#
# Indices 1 2 3 4 5 6 
#
# 1 56.3872 36.7135 55.1158 0.0000 0.0000 0.0000
# 2 36.7135 56.3871 55.1158 0.0000 0.0000 0.0000
# 3 55.1158 55.1158 163.1067 0.0000 0.0000 0.0000
# 4 0.0000 0.0000 0.0000 0.1113 0.0000 0.0000
# 5 0.0000 0.0000 0.0000 0.0000 0.1110 0.0000
# 6 0.0000 0.0000 0.0000 0.0000 0.0000 19.7120
#
#
#
# Elastic Compliance Matrix: (Units=1/GPa)
#
#
# Indices 1 2 3 4 5 6 
#
# 1 0.034367 -0.016462 -0.006050 0.000000 0.000000 0.000000
# 2 -0.016462 0.034367 -0.006050 0.000000 0.000000 0.000000
# 3 -0.006050 -0.006050 0.010220 0.000000 0.000000 0.000000
# 4 0.000000 0.000000 0.000000 8.983633 0.000000 0.000000
# 5 0.000000 0.000000 0.000000 0.000000 9.010284 0.000000
# 6 0.000000 0.000000 0.000000 0.000000 0.000000 0.050731
#
#
# Mechanical properties :
#
#
# Convention : Reuss Voigt Hill
#
# Bulk Modulus (GPa) = 45.81241 63.30793 54.56017
# Shear Modulus (GPa) = 0.27491 12.58258 6.42874
#
# Velocity S-wave (km/s) = 0.38947 2.63494 1.88343
# Velocity P-wave (km/s) = 5.04787 6.64754 5.90215
#
# Compressibility (1/GPa) = 0.02182815
#
# Stress axis : x y z
#
# Youngs Moduli (GPa) = 29.09782 29.09773 97.84933
#
# Poissons Ratio (x) = 0.47902 0.59200
# Poissons Ratio (y) = 0.47902 0.59200
# Poissons Ratio (z) = 0.17605 0.17605
#
# Static dielectric constant tensor:
#      x y z
#    x 3.101830 0.000000 0.000000 
#    y 0.000000 3.101830 0.000000 
#    z 0.000000 0.000000 3.894120 
# 
# 
# High freq. dielectric constant tensor:
#      x y z
#    x 1.668350 0.000000 0.000000 
#    y 0.000000 1.668350 0.000000 
#    z 0.000000 0.000000 1.734160 
# 
# From -- ./inp_files/5911.got.cif
#   From: 2010.03.12/outbox.cif.g09.slc.cpg/sg115_3_cif.got.tgz:5911.got - 2010.04.14 02:11:21.
