data_PCOD8309259
_publ_section_title
;
Structure prediction by ZEFSAII (Michael W. Deem and Ramdas Pophale) SiO2 
 PCOD8309259
Probable space group: P -4 M 2
;
_chemical_formula_sum "Si O2"
_cell_formula_units_Z 45
_cell_length_a 8.478427
_cell_length_b 8.478427
_cell_length_c 31.255880
_cell_angle_alpha 90.000000
_cell_angle_beta 90.000000
_cell_angle_gamma 90.000000
_cell_volume 2246.789064
_symmetry_space_group_name_H-M "P -4 M 2"
_symmetry_group_IT_number 115
_symmetry_cell_setting 'tetragonal'
loop_
_space_group_symop_operation_xyz
x,y,z
y,-x,-z
-x,-y,z
-y,x,-z
y,x,-z
-y,-x,-z
-x,y,z
x,-y,z
loop_
_atom_site_type_symbol
_atom_site_label
_atom_site_fract_x
_atom_site_fract_y
_atom_site_fract_z
Si Si1 0.500000 0.674827 0.081818
Si Si2 0.177380 0.685140 0.121533
Si Si3 0.500000 0.500000 0.000000
Si Si4 0.680745 0.186694 0.203576
Si Si5 0.820669 0.676685 0.378474
Si Si6 0.684734 0.172368 0.297831
Si Si7 0.177976 0.678491 0.540548
O O1 0.500000 0.500000 0.103209
O O2 0.332639 0.758258 0.096157
O O3 0.500000 0.656891 0.029936
O O4 0.174262 0.500000 0.113290
O O5 0.203113 0.724381 0.171262
O O6 0.000000 0.750287 0.108100
O O7 0.500000 0.241354 0.195432
O O8 0.740702 0.234292 0.251297
O O9 0.694718 0.000000 0.197241
O O10 0.783606 0.500000 0.393916
O O11 0.723088 0.708623 0.335749
O O12 0.783083 0.789196 0.418047
O O13 0.000000 0.701286 0.365432
O O14 0.500000 0.151541 0.294344
O O15 0.760004 0.000000 0.307904
O O16 0.286356 0.713645 0.500000
O O17 0.206920 0.500000 0.554977
O O18 0.000000 0.709315 0.525526
#
# Coordination Sequence:
#
# PCOD8309259 Si02
#       7
#     4   8   1   8   8   8   8
#     4   8  16  32  53  80 109 150 191 239 288 345
#     4  10  19  31  52  81 112 147 189 239 290 345
#     4   8  16  32  60  80 104 160 192 232 300 340
#     4   9  18  33  53  77 111 152 194 238 290 349
#     4  11  24  39  55  79 111 144 181 227 274 329
#     4   9  19  36  56  78 105 144 191 234 276 333
#     4  11  24  41  62  87 111 136 172 218 269 331
#
# _framework density 20.028583999999999
#
# number of rings (size 3 to 8) (size 9 to 14) (size 15 to 20)
#    0.267    1.956    0.889    3.200    0.000    9.244 
#    0.000    5.333    0.000    2.133    0.000    0.000 
#    0.000    0.000    0.000    0.000    0.000    0.000 
#
# Total GULP energy -557601.392099 kJ/mol
# GULP energy per Si atom -12391.142047 kJ/mol
# Density = 1.998300 g / cm^3
# Si number density = 20.028584 Si / 1000 Ang^3
#
#
#
# Elastic Constant Matrix: (Units=GPa)
#
#
# Indices 1 2 3 4 5 6 
#
# 1 58.5520 27.8114 28.9866 0.0000 0.0000 0.0000
# 2 27.8114 58.5529 28.9867 0.0000 0.0000 0.0000
# 3 28.9866 28.9867 120.2133 0.0000 0.0000 0.0000
# 4 0.0000 0.0000 0.0000 17.4982 0.0000 0.0000
# 5 0.0000 0.0000 0.0000 0.0000 17.4982 0.0000
# 6 0.0000 0.0000 0.0000 0.0000 0.0000 20.5558
#
#
#
# Elastic Compliance Matrix: (Units=1/GPa)
#
#
# Indices 1 2 3 4 5 6 
#
# 1 0.023173 -0.009357 -0.003331 0.000000 0.000000 0.000000
# 2 -0.009357 0.023172 -0.003331 0.000000 0.000000 0.000000
# 3 -0.003331 -0.003331 0.009925 0.000000 0.000000 0.000000
# 4 0.000000 0.000000 0.000000 0.057149 0.000000 0.000000
# 5 0.000000 0.000000 0.000000 0.000000 0.057149 0.000000
# 6 0.000000 0.000000 0.000000 0.000000 0.000000 0.048648
#
#
# Mechanical properties :
#
#
# Convention : Reuss Voigt Hill
#
# Bulk Modulus (GPa) = 41.27050 45.43195 43.35122
# Shear Modulus (GPa) = 19.28035 21.21269 20.24652
#
# Velocity S-wave (km/s) = 3.10601 3.25794 3.18288
# Velocity P-wave (km/s) = 5.78909 6.07331 5.93290
#
# Compressibility (1/GPa) = 0.02423038
#
# Stress axis : x y z
#
# Youngs Moduli (GPa) = 43.15448 43.15511 100.75548
#
# Poissons Ratio (x) = 0.40382 0.33564
# Poissons Ratio (y) = 0.40381 0.33563
# Poissons Ratio (z) = 0.14376 0.14376
#
# Static dielectric constant tensor:
#      x y z
#    x 3.601290 0.000000 0.000000 
#    y 0.000000 3.601290 0.000000 
#    z 0.000000 0.000000 3.493880 
# 
# 
# High freq. dielectric constant tensor:
#      x y z
#    x 1.768000 0.000000 0.000000 
#    y 0.000000 1.768000 0.000000 
#    z 0.000000 0.000000 1.773090 
# 
# From -- ./inp_files/5845.got.cif
#   From: 2010.03.12/outbox.cif.g09.slc.cpg/sg115_3_cif.got.tgz:5845.got - 2010.04.14 02:11:21.
