data_PCOD8309776
_publ_section_title
;
Structure prediction by ZEFSAII (Michael W. Deem and Ramdas Pophale) SiO2 
 PCOD8309776
Probable space group: P -4 M 2
;
_chemical_formula_sum "Si O2"
_cell_formula_units_Z 48
_cell_length_a 9.197736
_cell_length_b 9.197736
_cell_length_c 30.509124
_cell_angle_alpha 90.000000
_cell_angle_beta 90.000000
_cell_angle_gamma 90.000000
_cell_volume 2581.021475
_symmetry_space_group_name_H-M "P -4 M 2"
_symmetry_group_IT_number 115
_symmetry_cell_setting 'tetragonal'
loop_
_space_group_symop_operation_xyz
x,y,z
y,-x,-z
-x,-y,z
-y,x,-z
y,x,-z
-y,-x,-z
-x,y,z
x,-y,z
loop_
_atom_site_type_symbol
_atom_site_label
_atom_site_fract_x
_atom_site_fract_y
_atom_site_fract_z
Si Si1 0.669140 0.167348 0.290158
Si Si2 0.830116 0.832338 0.126833
Si Si3 0.332788 0.671195 0.202762
Si Si4 0.663902 0.670572 0.450210
Si Si5 0.329700 0.167399 0.037820
Si Si6 0.168722 0.831299 0.376149
O O1 0.500000 0.187975 0.299862
O O2 0.719209 0.260649 0.248545
O O3 0.753320 0.227785 0.332469
O O4 0.709163 0.000000 0.280602
O O5 0.769329 0.732536 0.165111
O O6 0.749549 0.787407 0.082415
O O7 0.000000 0.801739 0.120627
O O8 0.799068 0.000000 0.138589
O O9 0.500000 0.714221 0.192998
O O10 0.312149 0.500000 0.205577
O O11 0.707987 0.707987 0.500000
O O12 0.500000 0.724897 0.440658
O O13 0.674225 0.500000 0.441985
O O14 0.775623 0.749888 0.418821
O O15 0.500000 0.195079 0.043897
O O16 0.296091 0.000000 0.025834
O O17 0.270291 0.270291 0.000000
O O18 0.000000 0.799592 0.370687
O O19 0.204147 0.000000 0.382477
#
# Coordination Sequence:
#
# PCOD8309776 Si02
#       6
#     8   8   8   8   8   8
#     4   9  18  34  55  76 102 141 184 220 257 308
#     4  10  21  37  58  82 108 142 182 222 265 314
#     4  10  21  36  55  81 111 141 175 218 267 316
#     4   9  19  36  56  77 102 135 176 219 262 311
#     4  10  21  37  58  83 110 142 180 221 266 316
#     4  10  21  35  52  78 110 140 172 214 263 314
#
# _framework density 18.597287000000001
#
# number of rings (size 3 to 8) (size 9 to 14) (size 15 to 20)
#    0.000    2.333    0.000    2.500    0.000    7.000 
#    0.000    5.833    0.000    0.000    0.000    0.000 
#    0.000    0.000    0.000    0.000    0.000    0.000 
#
# Total GULP energy -595399.791025 kJ/mol
# GULP energy per Si atom -12404.162313 kJ/mol
# Density = 1.855496 g / cm^3
# Si number density = 18.597287 Si / 1000 Ang^3
#
#
#
# Elastic Constant Matrix: (Units=GPa)
#
#
# Indices 1 2 3 4 5 6 
#
# 1 77.3473 45.5160 71.2490 0.0000 0.0000 0.0000
# 2 45.5160 77.3473 71.2490 0.0000 0.0000 0.0000
# 3 71.2490 71.2490 154.1232 0.0000 0.0000 0.0000
# 4 0.0000 0.0000 0.0000 35.9083 0.0000 0.0000
# 5 0.0000 0.0000 0.0000 0.0000 35.9083 0.0000
# 6 0.0000 0.0000 0.0000 0.0000 0.0000 29.7287
#
#
#
# Elastic Compliance Matrix: (Units=1/GPa)
#
#
# Indices 1 2 3 4 5 6 
#
# 1 0.024481 -0.006934 -0.008112 0.000000 0.000000 0.000000
# 2 -0.006934 0.024481 -0.008112 0.000000 0.000000 0.000000
# 3 -0.008112 -0.008112 0.013988 0.000000 0.000000 0.000000
# 4 0.000000 0.000000 0.000000 0.027849 0.000000 0.000000
# 5 0.000000 0.000000 0.000000 0.000000 0.027849 0.000000
# 6 0.000000 0.000000 0.000000 0.000000 0.000000 0.033638
#
#
# Mechanical properties :
#
#
# Convention : Reuss Voigt Hill
#
# Bulk Modulus (GPa) = 60.11239 76.09399 68.10319
# Shear Modulus (GPa) = 24.49210 28.36263 26.42737
#
# Velocity S-wave (km/s) = 3.63295 3.90948 3.77375
# Velocity P-wave (km/s) = 7.07044 7.83481 7.46242
#
# Compressibility (1/GPa) = 0.01663551
#
# Stress axis : x y z
#
# Youngs Moduli (GPa) = 40.84720 40.84720 71.48788
#
# Poissons Ratio (x) = 0.28324 0.57990
# Poissons Ratio (y) = 0.28324 0.57990
# Poissons Ratio (z) = 0.33135 0.33135
#
# Static dielectric constant tensor:
#      x y z
#    x 3.366530 0.000000 0.000000 
#    y 0.000000 3.366530 0.000000 
#    z 0.000000 0.000000 3.504080 
# 
# 
# High freq. dielectric constant tensor:
#      x y z
#    x 1.719240 0.000000 0.000000 
#    y 0.000000 1.719240 0.000000 
#    z 0.000000 0.000000 1.732550 
# 
# From -- ./inp_files/5965.got.cif
#   From: 2010.03.12/outbox.cif.g09.slc.cpg/sg115_3_cif.got.tgz:5965.got - 2010.04.14 02:11:21.
