data_PCOD8309898
_publ_section_title
;
Structure prediction by ZEFSAII (Michael W. Deem and Ramdas Pophale) SiO2 
 PCOD8309898
Probable space group: P -4 M 2
;
_chemical_formula_sum "Si O2"
_cell_formula_units_Z 33
_cell_length_a 11.503844
_cell_length_b 11.503844
_cell_length_c 12.120651
_cell_angle_alpha 90.000000
_cell_angle_beta 90.000000
_cell_angle_gamma 90.000000
_cell_volume 1604.027885
_symmetry_space_group_name_H-M "P -4 M 2"
_symmetry_group_IT_number 115
_symmetry_cell_setting 'tetragonal'
loop_
_space_group_symop_operation_xyz
x,y,z
y,-x,-z
-x,-y,z
-y,x,-z
y,x,-z
-y,-x,-z
-x,y,z
x,-y,z
loop_
_atom_site_type_symbol
_atom_site_label
_atom_site_fract_x
_atom_site_fract_y
_atom_site_fract_z
Si Si1 0.000000 0.371350 0.945771
Si Si2 0.000000 0.000000 0.500000
Si Si3 0.843476 0.000000 0.932088
Si Si4 0.626422 0.373578 0.500000
Si Si5 0.367244 0.785474 0.704373
Si Si6 0.743722 0.364507 0.892159
Si Si7 0.195582 0.000000 0.689569
O O1 0.883463 0.348727 0.874063
O O2 0.000000 0.500000 0.994563
O O3 0.000000 0.295608 0.058015
O O4 0.887061 0.000000 0.580908
O O5 0.880615 0.000000 0.803552
O O6 0.889052 0.110949 0.000000
O O7 0.500000 0.363222 0.441378
O O8 0.638567 0.272163 0.586280
O O9 0.500000 0.824125 0.732660
O O10 0.323606 0.691430 0.791317
O O11 0.278706 0.890330 0.694610
O O12 0.710771 0.500000 0.901237
O O13 0.703090 0.296911 0.000000
#
# Coordination Sequence:
#
# PCOD8309898 Si02
#       7
#     4   1   4   4   8   8   4
#     4  10  21  37  56  86 128 167 204 247 301 367
#     4  12  28  48  66  92 124 164 212 262 316 380
#     4  11  22  38  61  86 111 151 202 244 289 350
#     4   9  19  38  63  87 114 154 202 249 299 358
#     4  11  23  40  63  91 123 159 203 256 314 376
#     4  11  23  38  60  91 128 169 212 261 318 379
#     4  12  25  42  65  90 122 160 202 253 313 374
#
# _framework density 20.573207
#
# number of rings (size 3 to 8) (size 9 to 14) (size 15 to 20)
#    0.000    1.212    0.000    6.909    0.000    6.545 
#    0.000    1.212    0.000    2.909    0.000    0.000 
#    0.000    0.000    0.000    0.000    0.000    0.000 
#
# Total GULP energy -408966.847761 kJ/mol
# GULP energy per Si atom -12392.934781 kJ/mol
# Density = 2.052638 g / cm^3
# Si number density = 20.573207 Si / 1000 Ang^3
#
#
#
# Elastic Constant Matrix: (Units=GPa)
#
#
# Indices 1 2 3 4 5 6 
#
# 1 155.6179 37.7402 48.4207 0.0000 0.0000 0.0000
# 2 37.7402 155.6133 48.4273 0.0000 0.0000 0.0000
# 3 48.4207 48.4273 103.8094 0.0000 0.0000 0.0000
# 4 0.0000 0.0000 0.0000 27.3990 0.0000 0.0000
# 5 0.0000 0.0000 0.0000 0.0000 27.3971 0.0000
# 6 0.0000 0.0000 0.0000 0.0000 0.0000 43.1385
#
#
#
# Elastic Compliance Matrix: (Units=1/GPa)
#
#
# Indices 1 2 3 4 5 6 
#
# 1 0.007616 -0.000867 -0.003148 0.000000 0.000000 0.000000
# 2 -0.000867 0.007616 -0.003148 0.000000 0.000000 0.000000
# 3 -0.003148 -0.003148 0.012570 0.000000 0.000000 0.000000
# 4 0.000000 0.000000 0.000000 0.036498 0.000000 0.000000
# 5 0.000000 0.000000 0.000000 0.000000 0.036500 0.000000
# 6 0.000000 0.000000 0.000000 0.000000 0.000000 0.023181
#
#
# Mechanical properties :
#
#
# Convention : Reuss Voigt Hill
#
# Bulk Modulus (GPa) = 74.21114 76.02412 75.11763
# Shear Modulus (GPa) = 35.01403 38.28373 36.64888
#
# Velocity S-wave (km/s) = 4.12991 4.31844 4.22523
# Velocity P-wave (km/s) = 7.67409 7.86756 7.77142
#
# Compressibility (1/GPa) = 0.01347507
#
# Stress axis : x y z
#
# Youngs Moduli (GPa) = 131.30667 131.29616 79.55476
#
# Poissons Ratio (x) = 0.11390 0.25041
# Poissons Ratio (y) = 0.11391 0.25047
# Poissons Ratio (z) = 0.41330 0.41338
#
# Static dielectric constant tensor:
#      x y z
#    x 4.147700 0.000000 0.000000 
#    y 0.000000 4.147590 0.000000 
#    z 0.000000 0.000000 1.587370 
# 
# 
# High freq. dielectric constant tensor:
#      x y z
#    x 1.825050 0.000000 0.000000 
#    y 0.000000 1.825050 0.000000 
#    z 0.000000 0.000000 1.788780 
# 
# From -- ./inp_files/2687.got.cif
#   From: 2010.03.12/outbox.cif.g09.slc.cpg/sg115_2_cif.got.tgz:2687.got - 2010.04.14 02:11:21.
