data_PCOD8309713
_publ_section_title
;
Structure prediction by ZEFSAII (Michael W. Deem and Ramdas Pophale) SiO2 
 PCOD8309713
Probable space group: P -4 M 2
;
_chemical_formula_sum "Si O2"
_cell_formula_units_Z 48
_cell_length_a 8.211091
_cell_length_b 8.211091
_cell_length_c 33.749756
_cell_angle_alpha 90.000000
_cell_angle_beta 90.000000
_cell_angle_gamma 90.000000
_cell_volume 2275.476569
_symmetry_space_group_name_H-M "P -4 M 2"
_symmetry_group_IT_number 115
_symmetry_cell_setting 'tetragonal'
loop_
_space_group_symop_operation_xyz
x,y,z
y,-x,-z
-x,-y,z
-y,x,-z
y,x,-z
-y,-x,-z
-x,y,z
x,-y,z
loop_
_atom_site_type_symbol
_atom_site_label
_atom_site_fract_x
_atom_site_fract_y
_atom_site_fract_z
Si Si1 0.500000 0.690901 0.091322
Si Si2 0.189171 0.500000 0.821386
Si Si3 0.812214 0.323523 0.306149
Si Si4 0.189543 0.184547 0.776500
Si Si5 0.182024 0.682032 0.461650
Si Si6 0.181480 0.315943 0.615298
Si Si7 0.689364 0.814678 0.960356
O O1 0.500000 0.500000 0.100014
O O2 0.500000 0.788022 0.131910
O O3 0.331485 0.741680 0.069238
O O4 0.265747 0.330044 0.803837
O O5 0.000000 0.500000 0.810192
O O6 0.722959 0.500000 0.306419
O O7 0.753993 0.217989 0.268621
O O8 0.790584 0.235888 0.347858
O O9 0.000000 0.353334 0.300346
O O10 0.000000 0.171170 0.784728
O O11 0.263718 0.000000 0.784686
O O12 0.206863 0.793137 0.500000
O O13 0.213439 0.500000 0.476718
O O14 0.297143 0.713499 0.424319
O O15 0.000000 0.709081 0.445869
O O16 0.193331 0.500000 0.629996
O O17 0.000000 0.264155 0.603435
O O18 0.500000 0.792313 0.971159
O O19 0.720785 0.000000 0.943471
O O20 0.794703 0.794703 0.000000
#
# Coordination Sequence:
#
# PCOD8309713 Si02
#       7
#     4   4   8   8   8   8   8
#     4  10  22  38  58  86 126 164 202 258 318 370
#     4  10  22  38  58  84 116 158 208 252 302 368
#     4  10  21  37  58  86 116 146 185 238 296 350
#     4   9  19  37  59  82 113 155 200 250 306 361
#     4  11  24  41  61  85 113 146 186 230 278 336
#     4  11  24  39  57  84 116 149 188 232 278 338
#     4  10  20  36  61  89 120 162 209 258 315 377
#
# _framework density 21.094484999999999
#
# number of rings (size 3 to 8) (size 9 to 14) (size 15 to 20)
#    0.000    1.833    0.833    2.500    1.167    9.833 
#    0.000    0.000    0.000    0.000    0.000    0.000 
#    0.000    0.000    0.000    0.000    0.000    0.000 
#
# Total GULP energy -594866.390654 kJ/mol
# GULP energy per Si atom -12393.049805 kJ/mol
# Density = 2.104647 g / cm^3
# Si number density = 21.094485 Si / 1000 Ang^3
#
#
#
# Elastic Constant Matrix: (Units=GPa)
#
#
# Indices 1 2 3 4 5 6 
#
# 1 76.0813 41.1208 38.0916 0.0000 0.0000 0.0000
# 2 41.1208 76.0813 38.0916 0.0000 0.0000 0.0000
# 3 38.0916 38.0916 131.6364 0.0000 0.0000 0.0000
# 4 0.0000 0.0000 0.0000 33.0418 0.0000 0.0000
# 5 0.0000 0.0000 0.0000 0.0000 33.0418 0.0000
# 6 0.0000 0.0000 0.0000 0.0000 0.0000 17.6049
#
#
#
# Elastic Compliance Matrix: (Units=1/GPa)
#
#
# Indices 1 2 3 4 5 6 
#
# 1 0.019556 -0.009047 -0.003041 0.000000 0.000000 0.000000
# 2 -0.009047 0.019556 -0.003041 0.000000 0.000000 0.000000
# 3 -0.003041 -0.003041 0.009357 0.000000 0.000000 0.000000
# 4 0.000000 0.000000 0.000000 0.030265 0.000000 0.000000
# 5 0.000000 0.000000 0.000000 0.000000 0.030265 0.000000
# 6 0.000000 0.000000 0.000000 0.000000 0.000000 0.056802
#
#
# Mechanical properties :
#
#
# Convention : Reuss Voigt Hill
#
# Bulk Modulus (GPa) = 54.91301 57.60078 56.25690
# Shear Modulus (GPa) = 24.73657 27.83737 26.28697
#
# Velocity S-wave (km/s) = 3.42812 3.63664 3.53392
# Velocity P-wave (km/s) = 6.46203 6.70812 6.58622
#
# Compressibility (1/GPa) = 0.01821062
#
# Stress axis : x y z
#
# Youngs Moduli (GPa) = 51.13436 51.13436 106.87628
#
# Poissons Ratio (x) = 0.46263 0.32501
# Poissons Ratio (y) = 0.46263 0.32501
# Poissons Ratio (z) = 0.15550 0.15550
#
# Static dielectric constant tensor:
#      x y z
#    x 4.018160 0.000000 0.000000 
#    y 0.000000 4.018160 0.000000 
#    z 0.000000 0.000000 3.540860 
# 
# 
# High freq. dielectric constant tensor:
#      x y z
#    x 1.825750 0.000000 0.000000 
#    y 0.000000 1.825750 0.000000 
#    z 0.000000 0.000000 1.815940 
# 
# From -- ./inp_files/6170.got.cif
#   From: 2010.03.12/outbox.cif.g09.slc.cpg/sg115_4_cif.got.tgz:6170.got - 2010.04.14 02:11:21.
