data_PCOD8309114
_publ_section_title
;
Structure prediction by ZEFSAII (Michael W. Deem and Ramdas Pophale) SiO2 
 PCOD8309114
Probable space group: P -4 21 C
;
_chemical_formula_sum "Si O2"
_cell_formula_units_Z 38
_cell_length_a 8.430727
_cell_length_b 8.430727
_cell_length_c 23.266720
_cell_angle_alpha 90.000000
_cell_angle_beta 90.000000
_cell_angle_gamma 90.000000
_cell_volume 1653.732328
_symmetry_space_group_name_H-M "P -4 21 C"
_symmetry_group_IT_number 114
_symmetry_cell_setting 'tetragonal'
loop_
_space_group_symop_operation_xyz
x,y,z
y,-x,-z
-x,-y,z
-y,x,-z
1/2+x,1/2-y,1/2-z
1/2-x,1/2+y,1/2-z
1/2-y,1/2-x,1/2+z
1/2+y,1/2+x,1/2+z
loop_
_atom_site_type_symbol
_atom_site_label
_atom_site_fract_x
_atom_site_fract_y
_atom_site_fract_z
Si Si1 0.329478 0.052143 0.309737
Si Si2 0.319759 0.547517 0.422728
Si Si3 0.500000 0.500000 0.000000
Si Si4 0.597608 0.252715 0.921427
Si Si5 0.423311 0.667384 0.701464
Si Si6 0.500000 0.000000 0.504205
O O1 0.332718 0.236550 0.299706
O O2 0.500000 0.000000 0.332484
O O3 0.213047 0.990923 0.360606
O O4 0.294236 0.971431 0.249053
O O5 0.500000 0.500000 0.444402
O O6 0.331126 0.734734 0.413280
O O7 0.278661 0.477489 0.360929
O O8 0.169577 0.491342 0.461429
O O9 0.415777 0.375880 0.043417
O O10 0.483459 0.150337 0.962519
O O11 0.500000 0.500000 0.719299
#
# Coordination Sequence:
#
# PCOD8309114 Si02
#       6
#     8   8   2   8   8   4
#     4  12  25  47  75 105 147 187 244 307 376 454
#     4  11  27  48  77 107 150 198 255 317 385 456
#     4  12  28  48  72 104 156 200 248 304 382 448
#     4  12  27  48  70 108 149 196 251 310 376 460
#     4  11  26  47  76 108 141 191 245 308 382 451
#     4  12  28  44  74 110 146 198 252 306 374 460
#
# _framework density 22.978324000000001
#
# number of rings (size 3 to 8) (size 9 to 14) (size 15 to 20)
#    0.000    0.421    3.158    5.053    8.842    0.000 
#    0.000    0.000    0.000    0.000    0.000    0.000 
#    0.000    0.000    0.000    0.000    0.000    0.000 
#
# Total GULP energy -470983.832988 kJ/mol
# GULP energy per Si atom -12394.311394 kJ/mol
# Density = 2.292602 g / cm^3
# Si number density = 22.978324 Si / 1000 Ang^3
#
#
#
# Elastic Constant Matrix: (Units=GPa)
#
#
# Indices 1 2 3 4 5 6 
#
# 1 137.1180 22.8446 43.8103 0.0000 0.0000 0.0000
# 2 22.8446 137.1180 43.8103 0.0000 0.0000 0.0000
# 3 43.8103 43.8103 134.6534 0.0000 0.0000 0.0000
# 4 0.0000 0.0000 0.0000 46.4999 0.0000 0.0000
# 5 0.0000 0.0000 0.0000 0.0000 46.4999 0.0000
# 6 0.0000 0.0000 0.0000 0.0000 0.0000 26.7428
#
#
#
# Elastic Compliance Matrix: (Units=1/GPa)
#
#
# Indices 1 2 3 4 5 6 
#
# 1 0.008179 -0.000572 -0.002475 0.000000 0.000000 0.000000
# 2 -0.000572 0.008179 -0.002475 0.000000 0.000000 0.000000
# 3 -0.002475 -0.002475 0.009037 0.000000 0.000000 0.000000
# 4 0.000000 0.000000 0.000000 0.021505 0.000000 0.000000
# 5 0.000000 0.000000 0.000000 0.000000 0.021505 0.000000
# 6 0.000000 0.000000 0.000000 0.000000 0.000000 0.037393
#
#
# Mechanical properties :
#
#
# Convention : Reuss Voigt Hill
#
# Bulk Modulus (GPa) = 69.68052 69.97996 69.83024
# Shear Modulus (GPa) = 41.10933 43.84348 42.47641
#
# Velocity S-wave (km/s) = 4.23430 4.37285 4.30413
# Velocity P-wave (km/s) = 7.36859 7.48442 7.42673
#
# Compressibility (1/GPa) = 0.01435121
#
# Stress axis : x y z
#
# Youngs Moduli (GPa) = 122.26345 122.26345 110.65604
#
# Poissons Ratio (x) = 0.06992 0.27388
# Poissons Ratio (y) = 0.06992 0.27388
# Poissons Ratio (z) = 0.30261 0.30261
#
# Static dielectric constant tensor:
#      x y z
#    x 4.084450 0.000000 0.000000 
#    y 0.000000 4.084450 0.000000 
#    z 0.000000 0.000000 4.681370 
# 
# 
# High freq. dielectric constant tensor:
#      x y z
#    x 1.911350 0.000000 0.000000 
#    y 0.000000 1.911350 0.000000 
#    z 0.000000 0.000000 1.929080 
# 
# From -- ./inp_files/3424.got.cif
#   From: 2010.03.12/outbox.cif.g09.slc.cpg/sg114_2_cif.got.tgz:3424.got - 2010.04.14 02:08:34.
