data_PCOD8309738
_publ_section_title
;
Structure prediction by ZEFSAII (Michael W. Deem and Ramdas Pophale) SiO2 
 PCOD8309738
Probable space group: P -4 M 2
;
_chemical_formula_sum "Si O2"
_cell_formula_units_Z 48
_cell_length_a 9.396350
_cell_length_b 9.396350
_cell_length_c 30.748646
_cell_angle_alpha 90.000000
_cell_angle_beta 90.000000
_cell_angle_gamma 90.000000
_cell_volume 2714.840798
_symmetry_space_group_name_H-M "P -4 M 2"
_symmetry_group_IT_number 115
_symmetry_cell_setting 'tetragonal'
loop_
_space_group_symop_operation_xyz
x,y,z
y,-x,-z
-x,-y,z
-y,x,-z
y,x,-z
-y,-x,-z
-x,y,z
x,-y,z
loop_
_atom_site_type_symbol
_atom_site_label
_atom_site_fract_x
_atom_site_fract_y
_atom_site_fract_z
Si Si1 0.831105 0.157587 0.837541
Si Si2 0.834483 0.165518 0.000000
Si Si3 0.340295 0.169492 0.083290
Si Si4 0.164113 0.334274 0.415839
Si Si5 0.666778 0.665019 0.668434
Si Si6 0.164708 0.166153 0.260265
Si Si7 0.164768 0.835233 0.500000
O O1 0.768530 0.267022 0.873025
O O2 0.788405 0.205102 0.788939
O O3 0.000000 0.151482 0.840997
O O4 0.770023 0.000000 0.847383
O O5 0.747334 0.221606 0.041452
O O6 0.000000 0.193926 0.009463
O O7 0.500000 0.230328 0.080699
O O8 0.341096 0.000000 0.084888
O O9 0.186821 0.500000 0.424974
O O10 0.257514 0.281301 0.375371
O O11 0.218372 0.251302 0.458226
O O12 0.000000 0.298213 0.405526
O O13 0.500000 0.688764 0.675404
O O14 0.707031 0.500000 0.664807
O O15 0.745779 0.732550 0.709092
O O16 0.000000 0.202703 0.269903
O O17 0.193045 0.000000 0.267796
O O18 0.000000 0.805003 0.509372
#
# Coordination Sequence:
#
# PCOD8309738 Si02
#       7
#     8   4   8   8   8   8   4
#     4   8  14  26  44  67  95 122 149 187 235 283
#     4   9  16  26  42  63  86 114 148 185 224 266
#     4   9  16  25  40  64  91 118 149 186 228 273
#     4   9  18  33  51  69  92 125 161 195 236 287
#     4  10  21  35  50  71 100 133 168 204 242 286
#     4   9  18  32  51  75 100 127 161 201 245 292
#     4   9  18  32  50  73  98 122 152 195 244 289
#
# _framework density 17.680593999999999
#
# number of rings (size 3 to 8) (size 9 to 14) (size 15 to 20)
#    0.000    3.000    0.000    2.000    0.000    5.333 
#    0.000    3.333    0.000    1.250    0.000    2.333 
#    0.000    0.000    0.000    0.000    0.000    0.000 
#
# Total GULP energy -595150.573880 kJ/mol
# GULP energy per Si atom -12398.970289 kJ/mol
# Density = 1.764035 g / cm^3
# Si number density = 17.680594 Si / 1000 Ang^3
#
#
#
# Elastic Constant Matrix: (Units=GPa)
#
#
# Indices 1 2 3 4 5 6 
#
# 1 70.9804 39.4242 73.8528 0.0000 0.0000 0.0000
# 2 39.4242 70.9802 73.8527 0.0000 0.0000 0.0000
# 3 73.8528 73.8527 179.6589 0.0000 0.0000 0.0000
# 4 0.0000 0.0000 0.0000 5.6166 0.0000 0.0000
# 5 0.0000 0.0000 0.0000 0.0000 5.6166 0.0000
# 6 0.0000 0.0000 0.0000 0.0000 0.0000 19.0833
#
#
#
# Elastic Compliance Matrix: (Units=1/GPa)
#
#
# Indices 1 2 3 4 5 6 
#
# 1 0.025908 -0.005782 -0.008273 0.000000 0.000000 0.000000
# 2 -0.005782 0.025908 -0.008273 0.000000 0.000000 0.000000
# 3 -0.008273 -0.008273 0.012368 0.000000 0.000000 0.000000
# 4 0.000000 0.000000 0.000000 0.178044 0.000000 0.000000
# 5 0.000000 0.000000 0.000000 0.000000 0.178043 0.000000
# 6 0.000000 0.000000 0.000000 0.000000 0.000000 0.052402
#
#
# Mechanical properties :
#
#
# Convention : Reuss Voigt Hill
#
# Bulk Modulus (GPa) = 51.21120 77.31989 64.26554
# Shear Modulus (GPa) = 9.54493 15.02928 12.28711
#
# Velocity S-wave (km/s) = 2.32600 2.91871 2.63905
# Velocity P-wave (km/s) = 6.02007 7.42866 6.76114
#
# Compressibility (1/GPa) = 0.01952698
#
# Stress axis : x y z
#
# Youngs Moduli (GPa) = 38.59845 38.59832 80.85438
#
# Poissons Ratio (x) = 0.22317 0.66893
# Poissons Ratio (y) = 0.22317 0.66893
# Poissons Ratio (z) = 0.31933 0.31933
#
# Static dielectric constant tensor:
#      x y z
#    x 3.137930 0.000000 0.000000 
#    y 0.000000 3.137930 0.000000 
#    z 0.000000 0.000000 3.472890 
# 
# 
# High freq. dielectric constant tensor:
#      x y z
#    x 1.661180 0.000000 0.000000 
#    y 0.000000 1.661180 0.000000 
#    z 0.000000 0.000000 1.697420 
# 
# From -- ./inp_files/6190.got.cif
#   From: 2010.03.12/outbox.cif.g09.slc.cpg/sg115_4_cif.got.tgz:6190.got - 2010.04.14 02:11:21.
