data_PCOD8309662
_publ_section_title
;
Structure prediction by ZEFSAII (Michael W. Deem and Ramdas Pophale) SiO2 
 PCOD8309662
Probable space group: P -4 M 2
;
_chemical_formula_sum "Si O2"
_cell_formula_units_Z 26
_cell_length_a 7.618574
_cell_length_b 7.618574
_cell_length_c 22.199084
_cell_angle_alpha 90.000000
_cell_angle_beta 90.000000
_cell_angle_gamma 90.000000
_cell_volume 1288.494102
_symmetry_space_group_name_H-M "P -4 M 2"
_symmetry_group_IT_number 115
_symmetry_cell_setting 'tetragonal'
loop_
_space_group_symop_operation_xyz
x,y,z
y,-x,-z
-x,-y,z
-y,x,-z
y,x,-z
-y,-x,-z
-x,y,z
x,-y,z
loop_
_atom_site_type_symbol
_atom_site_label
_atom_site_fract_x
_atom_site_fract_y
_atom_site_fract_z
Si Si1 0.309111 0.698625 0.682328
Si Si2 0.000000 0.000000 0.500000
Si Si3 0.206607 0.500000 0.097800
Si Si4 0.000000 0.288002 0.598861
Si Si5 0.203282 0.197386 0.188451
Si Si6 0.500000 0.500000 0.000000
O O1 0.500000 0.794378 0.677526
O O2 0.332929 0.500000 0.662144
O O3 0.168205 0.780943 0.636730
O O4 0.239949 0.696509 0.750432
O O5 0.000000 0.181603 0.537004
O O6 0.260790 0.328046 0.135594
O O7 0.321339 0.500000 0.037997
O O8 0.000000 0.500000 0.081028
O O9 0.000000 0.500000 0.588231
O O10 0.000000 0.222231 0.203244
O O11 0.247874 0.000000 0.167064
#
# Coordination Sequence:
#
# PCOD8309662 Si02
#       6
#     8   1   4   4   8   1
#     4  10  20  34  58  91 127 159 199 259 322 374
#     4  12  28  44  68  88 124 180 228 242 292 408
#     4  10  24  44  60  90 128 164 212 261 306 368
#     4  10  24  44  60  90 128 164 212 261 306 368
#     4  10  20  34  58  91 127 159 199 259 322 374
#     4  12  28  44  68  88 124 180 228 242 292 408
#
# _framework density 20.178595999999999
#
# number of rings (size 3 to 8) (size 9 to 14) (size 15 to 20)
#    0.000    1.846    3.077    0.000    4.308    2.462 
#    0.000    0.000    0.000    0.000    0.000    0.000 
#    0.000    0.000    0.000    0.000    0.000    0.000 
#
# Total GULP energy -322316.048744 kJ/mol
# GULP energy per Si atom -12396.771106 kJ/mol
# Density = 2.013267 g / cm^3
# Si number density = 20.178596 Si / 1000 Ang^3
#
#
#
# Elastic Constant Matrix: (Units=GPa)
#
#
# Indices 1 2 3 4 5 6 
#
# 1 126.3718 34.3455 62.5295 0.0000 0.0000 0.0000
# 2 34.3455 126.3718 62.5295 0.0000 0.0000 0.0000
# 3 62.5295 62.5295 141.1798 0.0000 0.0000 0.0000
# 4 0.0000 0.0000 0.0000 38.5519 0.0000 0.0000
# 5 0.0000 0.0000 0.0000 0.0000 38.5519 0.0000
# 6 0.0000 0.0000 0.0000 0.0000 0.0000 15.5183
#
#
#
# Elastic Compliance Matrix: (Units=1/GPa)
#
#
# Indices 1 2 3 4 5 6 
#
# 1 0.010180 -0.000686 -0.004205 0.000000 0.000000 0.000000
# 2 -0.000686 0.010180 -0.004205 0.000000 0.000000 0.000000
# 3 -0.004205 -0.004205 0.010808 0.000000 0.000000 0.000000
# 4 0.000000 0.000000 0.000000 0.025939 0.000000 0.000000
# 5 0.000000 0.000000 0.000000 0.000000 0.025939 0.000000
# 6 0.000000 0.000000 0.000000 0.000000 0.000000 0.064440
#
#
# Mechanical properties :
#
#
# Convention : Reuss Voigt Hill
#
# Bulk Modulus (GPa) = 77.06391 79.19252 78.12821
# Shear Modulus (GPa) = 29.41094 34.15901 31.78497
#
# Velocity S-wave (km/s) = 3.82190 4.11887 3.97316
# Velocity P-wave (km/s) = 7.59933 7.87090 7.73631
#
# Compressibility (1/GPa) = 0.01297624
#
# Stress axis : x y z
#
# Youngs Moduli (GPa) = 98.22880 98.22880 92.52363
#
# Poissons Ratio (x) = 0.06740 0.38907
# Poissons Ratio (y) = 0.06740 0.38907
# Poissons Ratio (z) = 0.41306 0.41306
#
# Static dielectric constant tensor:
#      x y z
#    x 3.983300 0.000000 0.000000 
#    y 0.000000 3.983300 0.000000 
#    z 0.000000 0.000000 3.347340 
# 
# 
# High freq. dielectric constant tensor:
#      x y z
#    x 1.797600 0.000000 0.000000 
#    y 0.000000 1.797600 0.000000 
#    z 0.000000 0.000000 1.760480 
# 
# From -- ./inp_files/4085.got.cif
#   From: 2010.03.12/outbox.cif.g09.slc.cpg/sg115_3_cif.got.tgz:4085.got - 2010.04.14 02:11:21.
