data_PCOD8309704
_publ_section_title
;
Structure prediction by ZEFSAII (Michael W. Deem and Ramdas Pophale) SiO2 
 PCOD8309704
Probable space group: P -4 M 2
;
_chemical_formula_sum "Si O2"
_cell_formula_units_Z 40
_cell_length_a 8.022752
_cell_length_b 8.022752
_cell_length_c 28.678754
_cell_angle_alpha 90.000000
_cell_angle_beta 90.000000
_cell_angle_gamma 90.000000
_cell_volume 1845.895086
_symmetry_space_group_name_H-M "P -4 M 2"
_symmetry_group_IT_number 115
_symmetry_cell_setting 'tetragonal'
loop_
_space_group_symop_operation_xyz
x,y,z
y,-x,-z
-x,-y,z
-y,x,-z
y,x,-z
-y,-x,-z
-x,y,z
x,-y,z
loop_
_atom_site_type_symbol
_atom_site_label
_atom_site_fract_x
_atom_site_fract_y
_atom_site_fract_z
Si Si1 0.808601 0.309720 0.451574
Si Si2 0.190308 0.000000 0.799667
Si Si3 0.687002 0.807581 0.356730
Si Si4 0.000000 0.686073 0.300712
Si Si5 0.681945 0.198656 0.147112
Si Si6 0.185972 0.801495 0.050208
O O1 0.784687 0.215314 0.500000
O O2 0.751029 0.500000 0.457229
O O3 0.698380 0.222406 0.412034
O O4 0.000000 0.296688 0.436169
O O5 0.194806 0.000000 0.743835
O O6 0.273375 0.169227 0.820592
O O7 0.000000 0.000000 0.816129
O O8 0.500000 0.753040 0.340553
O O9 0.831770 0.707442 0.330618
O O10 0.715492 0.000000 0.345421
O O11 0.000000 0.500000 0.281199
O O12 0.500000 0.262971 0.164594
O O13 0.703279 0.259920 0.093646
O O14 0.686112 0.000000 0.149534
O O15 0.000000 0.731072 0.058331
O O16 0.179779 0.000000 0.048174
O O17 0.259907 0.740094 0.000000
#
# Coordination Sequence:
#
# PCOD8309704 Si02
#       6
#     8   4   8   4   8   8
#     4  11  23  38  59  91 130 174 217 257 307 367
#     4  10  20  36  58  82 114 150 196 254 308 359
#     4  11  24  43  68  96 126 162 206 259 319 380
#     4  12  26  44  66  92 122 162 208 260 318 383
#     4   9  16  27  47  77 112 146 188 243 299 358
#     4   8  12  20  38  66 100 140 183 226 281 348
#
# _framework density 21.669706999999999
#
# number of rings (size 3 to 8) (size 9 to 14) (size 15 to 20)
#    0.000    2.000    2.000    3.300    0.000    6.000 
#    0.000    2.000    0.000    1.200    0.000    0.000 
#    0.000    0.000    0.000    0.000    0.000    0.000 
#
# Total GULP energy -495798.374719 kJ/mol
# GULP energy per Si atom -12394.959368 kJ/mol
# Density = 2.162039 g / cm^3
# Si number density = 21.669707 Si / 1000 Ang^3
#
#
#
# Elastic Constant Matrix: (Units=GPa)
#
#
# Indices 1 2 3 4 5 6 
#
# 1 94.9305 29.6422 28.7906 0.0000 0.0000 0.0000
# 2 29.6422 94.9310 28.7908 0.0000 0.0000 0.0000
# 3 28.7906 28.7908 123.3336 0.0000 0.0000 0.0000
# 4 0.0000 0.0000 0.0000 10.9363 0.0000 0.0000
# 5 0.0000 0.0000 0.0000 0.0000 10.9363 0.0000
# 6 0.0000 0.0000 0.0000 0.0000 0.0000 8.3912
#
#
#
# Elastic Compliance Matrix: (Units=1/GPa)
#
#
# Indices 1 2 3 4 5 6 
#
# 1 0.012158 -0.003159 -0.002101 0.000000 0.000000 0.000000
# 2 -0.003159 0.012157 -0.002101 0.000000 0.000000 0.000000
# 3 -0.002101 -0.002101 0.009089 0.000000 0.000000 0.000000
# 4 0.000000 0.000000 0.000000 0.091439 0.000000 0.000000
# 5 0.000000 0.000000 0.000000 0.000000 0.091439 0.000000
# 6 0.000000 0.000000 0.000000 0.000000 0.000000 0.119172
#
#
# Mechanical properties :
#
#
# Convention : Reuss Voigt Hill
#
# Bulk Modulus (GPa) = 53.52376 54.18247 53.85312
# Shear Modulus (GPa) = 14.02911 21.11753 17.57332
#
# Velocity S-wave (km/s) = 2.54718 3.12511 2.85083
# Velocity P-wave (km/s) = 5.77964 6.17089 5.97847
#
# Compressibility (1/GPa) = 0.01868329
#
# Stress axis : x y z
#
# Youngs Moduli (GPa) = 82.25364 82.25403 110.02571
#
# Poissons Ratio (x) = 0.25985 0.23111
# Poissons Ratio (y) = 0.25985 0.23112
# Poissons Ratio (z) = 0.17278 0.17278
#
# Static dielectric constant tensor:
#      x y z
#    x 3.794810 0.000000 0.000000 
#    y 0.000000 3.794810 0.000000 
#    z 0.000000 0.000000 3.833760 
# 
# 
# High freq. dielectric constant tensor:
#      x y z
#    x 1.831690 0.000000 0.000000 
#    y 0.000000 1.831690 0.000000 
#    z 0.000000 0.000000 1.848210 
# 
# From -- ./inp_files/5490.got.cif
#   From: 2010.03.12/outbox.cif.g09.slc.cpg/sg115_3_cif.got.tgz:5490.got - 2010.04.14 02:11:21.
