data_PCOD8309332
_publ_section_title
;
Structure prediction by ZEFSAII (Michael W. Deem and Ramdas Pophale) SiO2 
 PCOD8309332
Probable space group: P -4 M 2
;
_chemical_formula_sum "Si O2"
_cell_formula_units_Z 44
_cell_length_a 13.567093
_cell_length_b 13.567093
_cell_length_c 13.785351
_cell_angle_alpha 90.000000
_cell_angle_beta 90.000000
_cell_angle_gamma 90.000000
_cell_volume 2537.414589
_symmetry_space_group_name_H-M "P -4 M 2"
_symmetry_group_IT_number 115
_symmetry_cell_setting 'tetragonal'
loop_
_space_group_symop_operation_xyz
x,y,z
y,-x,-z
-x,-y,z
-y,x,-z
y,x,-z
-y,-x,-z
-x,y,z
x,-y,z
loop_
_atom_site_type_symbol
_atom_site_label
_atom_site_fract_x
_atom_site_fract_y
_atom_site_fract_z
Si Si1 0.113115 0.614134 0.485296
Si Si2 0.802520 0.113836 0.201329
Si Si3 0.205187 0.205187 0.000000
Si Si4 0.116540 0.385805 0.096665
Si Si5 0.292767 0.886118 0.704652
Si Si6 0.392325 0.116589 0.302315
O O1 0.123957 0.500000 0.458880
O O2 0.165064 0.675166 0.397243
O O3 0.161159 0.635962 0.591247
O O4 0.000000 0.646664 0.491390
O O5 0.828852 0.138849 0.090783
O O6 0.869387 0.177121 0.274577
O O7 0.688783 0.144534 0.222221
O O8 0.823809 0.000000 0.223267
O O9 0.319996 0.181808 0.977493
O O10 0.138730 0.500000 0.075287
O O11 0.153031 0.358153 0.205029
O O12 0.000000 0.362301 0.082360
O O13 0.316326 0.000000 0.694289
O O14 0.500000 0.157184 0.269275
O O15 0.399804 0.000000 0.313919
#
# Coordination Sequence:
#
# PCOD8309332 Si02
#       6
#     8   8   4   8   8   8
#     4   8  13  24  44  67  89 113 141 177 224 273
#     4  10  20  32  44  61  89 123 158 196 235 278
#     4  10  20  32  46  66  90 118 156 202 250 292
#     4   9  17  30  48  68  89 116 154 199 243 288
#     4   9  17  28  43  65  92 121 153 188 226 270
#     4   8  15  28  46  67  88 111 142 182 229 277
#
# _framework density 17.340485000000001
#
# number of rings (size 3 to 8) (size 9 to 14) (size 15 to 20)
#    0.000    3.091    0.000    2.182    0.000    4.727 
#    0.000    1.818    0.000    3.818    0.000    5.091 
#    0.000    2.182    0.000   20.000    0.000    1.818 
#
# Total GULP energy -545142.051912 kJ/mol
# GULP energy per Si atom -12389.592089 kJ/mol
# Density = 1.730102 g / cm^3
# Si number density = 17.340485 Si / 1000 Ang^3
#
#
#
# Elastic Constant Matrix: (Units=GPa)
#
#
# Indices 1 2 3 4 5 6 
#
# 1 48.1350 16.0480 18.6450 0.0000 0.0000 0.0000
# 2 16.0480 48.1350 18.6450 0.0000 0.0000 0.0000
# 3 18.6450 18.6450 76.1977 0.0000 0.0000 0.0000
# 4 0.0000 0.0000 0.0000 23.0185 0.0000 0.0000
# 5 0.0000 0.0000 0.0000 0.0000 23.0185 0.0000
# 6 0.0000 0.0000 0.0000 0.0000 0.0000 12.1861
#
#
#
# Elastic Compliance Matrix: (Units=1/GPa)
#
#
# Indices 1 2 3 4 5 6 
#
# 1 0.024664 -0.006501 -0.004444 0.000000 0.000000 0.000000
# 2 -0.006501 0.024664 -0.004444 0.000000 0.000000 0.000000
# 3 -0.004444 -0.004444 0.015299 0.000000 0.000000 0.000000
# 4 0.000000 0.000000 0.000000 0.043443 0.000000 0.000000
# 5 0.000000 0.000000 0.000000 0.000000 0.043443 0.000000
# 6 0.000000 0.000000 0.000000 0.000000 0.000000 0.082061
#
#
# Mechanical properties :
#
#
# Convention : Reuss Voigt Hill
#
# Bulk Modulus (GPa) = 29.54486 31.01595 30.28040
# Shear Modulus (GPa) = 18.13988 19.58661 18.86325
#
# Velocity S-wave (km/s) = 3.23786 3.36450 3.30178
# Velocity P-wave (km/s) = 5.57255 5.74616 5.66002
#
# Compressibility (1/GPa) = 0.03384684
#
# Stress axis : x y z
#
# Youngs Moduli (GPa) = 40.54508 40.54508 65.36503
#
# Poissons Ratio (x) = 0.26360 0.29050
# Poissons Ratio (y) = 0.26360 0.29050
# Poissons Ratio (z) = 0.18019 0.18019
#
# Static dielectric constant tensor:
#      x y z
#    x 3.060050 0.000000 0.000000 
#    y 0.000000 3.060050 0.000000 
#    z 0.000000 0.000000 3.556690 
# 
# 
# High freq. dielectric constant tensor:
#      x y z
#    x 1.635080 0.000000 0.000000 
#    y 0.000000 1.635080 0.000000 
#    z 0.000000 0.000000 1.684990 
# 
# From -- ./inp_files/2825.got.cif
#   From: 2010.03.12/outbox.cif.g09.slc.cpg/sg115_2_cif.got.tgz:2825.got - 2010.04.14 02:11:21.
