data_PCOD8309772
_publ_section_title
;
Structure prediction by ZEFSAII (Michael W. Deem and Ramdas Pophale) SiO2 
 PCOD8309772
Probable space group: P -4 M 2
;
_chemical_formula_sum "Si O2"
_cell_formula_units_Z 28
_cell_length_a 9.447542
_cell_length_b 9.447542
_cell_length_c 17.595373
_cell_angle_alpha 90.000000
_cell_angle_beta 90.000000
_cell_angle_gamma 90.000000
_cell_volume 1570.493489
_symmetry_space_group_name_H-M "P -4 M 2"
_symmetry_group_IT_number 115
_symmetry_cell_setting 'tetragonal'
loop_
_space_group_symop_operation_xyz
x,y,z
y,-x,-z
-x,-y,z
-y,x,-z
y,x,-z
-y,-x,-z
-x,y,z
x,-y,z
loop_
_atom_site_type_symbol
_atom_site_label
_atom_site_fract_x
_atom_site_fract_y
_atom_site_fract_z
Si Si1 0.158372 0.334615 0.441613
Si Si2 0.661279 0.833809 0.731224
Si Si3 0.665053 0.835518 0.147792
Si Si4 0.663516 0.336485 0.000000
O O1 0.262096 0.262096 0.500000
O O2 0.163360 0.500000 0.457525
O O3 0.206306 0.302741 0.355547
O O4 0.000000 0.276738 0.454673
O O5 0.500000 0.789518 0.750799
O O6 0.770980 0.749694 0.782338
O O7 0.681041 0.000000 0.744942
O O8 0.500000 0.810940 0.163379
O O9 0.702824 0.000000 0.139782
O O10 0.712332 0.757645 0.070864
O O11 0.500000 0.309283 0.979090
#
# Coordination Sequence:
#
# PCOD8309772 Si02
#       4
#     8   8   8   4
#     4   9  19  35  53  75 103 134 170 211 254 301
#     4   9  19  36  55  74 100 136 174 210 251 300
#     4  10  21  35  52  78 108 134 165 208 255 301
#     4   9  18  34  54  73  98 136 176 209 246 297
#
# _framework density 17.828790999999999
#
# number of rings (size 3 to 8) (size 9 to 14) (size 15 to 20)
#    0.000    2.714    0.000    2.571    0.000    6.286 
#    0.000   11.429    0.000    0.000    0.000    0.000 
#    0.000    0.000    0.000    0.000    0.000    0.000 
#
# Total GULP energy -347235.105836 kJ/mol
# GULP energy per Si atom -12401.253780 kJ/mol
# Density = 1.778821 g / cm^3
# Si number density = 17.828791 Si / 1000 Ang^3
#
#
#
# Elastic Constant Matrix: (Units=GPa)
#
#
# Indices 1 2 3 4 5 6 
#
# 1 75.0446 46.6525 71.6692 0.0000 0.0000 0.0000
# 2 46.6525 75.0454 71.6691 0.0000 0.0000 0.0000
# 3 71.6692 71.6691 136.1785 0.0000 0.0000 0.0000
# 4 0.0000 0.0000 0.0000 86.4356 0.0000 0.0000
# 5 0.0000 0.0000 0.0000 0.0000 86.4667 0.0000
# 6 0.0000 0.0000 0.0000 0.0000 0.0000 30.3865
#
#
#
# Elastic Compliance Matrix: (Units=1/GPa)
#
#
# Indices 1 2 3 4 5 6 
#
# 1 0.028419 -0.006802 -0.011377 0.000000 0.000000 0.000000
# 2 -0.006802 0.028418 -0.011376 0.000000 0.000000 0.000000
# 3 -0.011377 -0.011376 0.019318 0.000000 0.000000 0.000000
# 4 0.000000 0.000000 0.000000 0.011569 0.000000 0.000000
# 5 0.000000 0.000000 0.000000 0.000000 0.011565 0.000000
# 6 0.000000 0.000000 0.000000 0.000000 0.000000 0.032909
#
#
# Mechanical properties :
#
#
# Convention : Reuss Voigt Hill
#
# Bulk Modulus (GPa) = 58.66802 74.02777 66.34789
# Shear Modulus (GPa) = 25.38181 47.07627 36.22904
#
# Velocity S-wave (km/s) = 3.77721 5.14412 4.51272
# Velocity P-wave (km/s) = 7.21116 8.76894 8.02792
#
# Compressibility (1/GPa) = 0.01704506
#
# Stress axis : x y z
#
# Youngs Moduli (GPa) = 35.18768 35.18853 51.76484
#
# Poissons Ratio (x) = 0.23935 0.58892
# Poissons Ratio (y) = 0.23934 0.58890
# Poissons Ratio (z) = 0.40033 0.40032
#
# Static dielectric constant tensor:
#      x y z
#    x 3.241220 0.000000 0.000000 
#    y 0.000000 3.241210 0.000000 
#    z 0.000000 0.000000 3.301120 
# 
# 
# High freq. dielectric constant tensor:
#      x y z
#    x 1.687140 0.000000 0.000000 
#    y 0.000000 1.687140 0.000000 
#    z 0.000000 0.000000 1.697330 
# 
# From -- ./inp_files/4016.got.cif
#   From: 2010.03.12/outbox.cif.g09.slc.cpg/sg115_3_cif.got.tgz:4016.got - 2010.04.14 02:11:21.
