data_PCOD8309363
_publ_section_title
;
Structure prediction by ZEFSAII (Michael W. Deem and Ramdas Pophale) SiO2 
 PCOD8309363
Probable space group: P -4 M 2
;
_chemical_formula_sum "Si O2"
_cell_formula_units_Z 36
_cell_length_a 9.483327
_cell_length_b 9.483327
_cell_length_c 23.003537
_cell_angle_alpha 90.000000
_cell_angle_beta 90.000000
_cell_angle_gamma 90.000000
_cell_volume 2068.788388
_symmetry_space_group_name_H-M "P -4 M 2"
_symmetry_group_IT_number 115
_symmetry_cell_setting 'tetragonal'
loop_
_space_group_symop_operation_xyz
x,y,z
y,-x,-z
-x,-y,z
-y,x,-z
y,x,-z
-y,-x,-z
-x,y,z
x,-y,z
loop_
_atom_site_type_symbol
_atom_site_label
_atom_site_fract_x
_atom_site_fract_y
_atom_site_fract_z
Si Si1 0.657248 0.167801 0.765236
Si Si2 0.332168 0.156967 0.892488
Si Si3 0.166576 0.162702 0.342775
Si Si4 0.662152 0.660692 0.432295
Si Si5 0.335858 0.664143 0.000000
O O1 0.500000 0.228075 0.752922
O O2 0.713584 0.216361 0.828918
O O3 0.762640 0.223739 0.715786
O O4 0.650968 0.000000 0.765429
O O5 0.500000 0.151893 0.893573
O O6 0.270899 0.000000 0.902922
O O7 0.274332 0.258290 0.943073
O O8 0.238737 0.232480 0.398204
O O9 0.000000 0.182412 0.349454
O O10 0.209989 0.000000 0.339557
O O11 0.688097 0.688097 0.500000
O O12 0.500000 0.689915 0.416058
O O13 0.702499 0.500000 0.416324
O O14 0.500000 0.695313 0.008658
#
# Coordination Sequence:
#
# PCOD8309363 Si02
#       5
#     8   8   8   8   4
#     4   8  14  27  47  66  85 117 160 195 222 264
#     4   8  14  26  44  63  84 115 153 187 221 267
#     4  10  20  32  48  73 102 128 155 191 236 283
#     4   9  19  36  55  73  94 123 160 198 234 275
#     4   9  16  26  42  65  90 112 140 185 234 272
#
# _framework density 17.401488000000001
#
# number of rings (size 3 to 8) (size 9 to 14) (size 15 to 20)
#    0.000    3.222    0.000    2.667    0.000    2.667 
#    0.000    5.556    0.000    5.667    0.000    0.000 
#    0.000    0.000    0.000    0.000    0.000    0.000 
#
# Total GULP energy -446242.939066 kJ/mol
# GULP energy per Si atom -12395.637196 kJ/mol
# Density = 1.736188 g / cm^3
# Si number density = 17.401488 Si / 1000 Ang^3
#
#
#
# Elastic Constant Matrix: (Units=GPa)
#
#
# Indices 1 2 3 4 5 6 
#
# 1 68.0271 38.8895 60.3391 0.0000 0.0000 0.0000
# 2 38.8895 68.0265 60.3391 0.0000 0.0000 0.0000
# 3 60.3391 60.3391 136.8755 0.0000 0.0000 0.0000
# 4 0.0000 0.0000 0.0000 27.2024 0.0000 0.0000
# 5 0.0000 0.0000 0.0000 0.0000 27.2022 0.0000
# 6 0.0000 0.0000 0.0000 0.0000 0.0000 19.9061
#
#
#
# Elastic Compliance Matrix: (Units=1/GPa)
#
#
# Indices 1 2 3 4 5 6 
#
# 1 0.026468 -0.007852 -0.008206 0.000000 0.000000 0.000000
# 2 -0.007852 0.026468 -0.008207 0.000000 0.000000 0.000000
# 3 -0.008206 -0.008207 0.014541 0.000000 0.000000 0.000000
# 4 0.000000 0.000000 0.000000 0.036761 0.000000 0.000000
# 5 0.000000 0.000000 0.000000 0.000000 0.036762 0.000000
# 6 0.000000 0.000000 0.000000 0.000000 0.000000 0.050236
#
#
# Mechanical properties :
#
#
# Convention : Reuss Voigt Hill
#
# Bulk Modulus (GPa) = 52.77845 65.78495 59.28170
# Shear Modulus (GPa) = 20.31838 22.41955 21.36897
#
# Velocity S-wave (km/s) = 3.42076 3.59328 3.50808
# Velocity P-wave (km/s) = 6.78217 7.42306 7.10984
#
# Compressibility (1/GPa) = 0.01894713
#
# Stress axis : x y z
#
# Youngs Moduli (GPa) = 37.78165 37.78106 68.76980
#
# Poissons Ratio (x) = 0.29666 0.56435
# Poissons Ratio (y) = 0.29667 0.56436
# Poissons Ratio (z) = 0.31005 0.31005
#
# Static dielectric constant tensor:
#      x y z
#    x 3.057330 0.000000 0.000000 
#    y 0.000000 3.057340 0.000000 
#    z 0.000000 0.000000 3.577830 
# 
# 
# High freq. dielectric constant tensor:
#      x y z
#    x 1.645010 0.000000 0.000000 
#    y 0.000000 1.645010 0.000000 
#    z 0.000000 0.000000 1.687480 
# 
# From -- ./inp_files/5132.got.cif
#   From: 2010.03.12/outbox.cif.g09.slc.cpg/sg115_3_cif.got.tgz:5132.got - 2010.04.14 02:11:21.
