data_PCOD8309527
_publ_section_title
;
Structure prediction by ZEFSAII (Michael W. Deem and Ramdas Pophale) SiO2 
 PCOD8309527
Probable space group: P -4 M 2
;
_chemical_formula_sum "Si O2"
_cell_formula_units_Z 48
_cell_length_a 9.150387
_cell_length_b 9.150387
_cell_length_c 30.481845
_cell_angle_alpha 90.000000
_cell_angle_beta 90.000000
_cell_angle_gamma 90.000000
_cell_volume 2552.232148
_symmetry_space_group_name_H-M "P -4 M 2"
_symmetry_group_IT_number 115
_symmetry_cell_setting 'tetragonal'
loop_
_space_group_symop_operation_xyz
x,y,z
y,-x,-z
-x,-y,z
-y,x,-z
y,x,-z
-y,-x,-z
-x,y,z
x,-y,z
loop_
_atom_site_type_symbol
_atom_site_label
_atom_site_fract_x
_atom_site_fract_y
_atom_site_fract_z
Si Si1 0.831905 0.331239 0.885921
Si Si2 0.171903 0.669350 0.461079
Si Si3 0.333945 0.169369 0.215102
Si Si4 0.664594 0.326337 0.374129
Si Si5 0.672727 0.166587 0.710571
Si Si6 0.829540 0.670465 0.039466
O O1 0.797615 0.500000 0.896267
O O2 0.799594 0.295352 0.835357
O O3 0.727610 0.229354 0.914241
O O4 0.000000 0.297125 0.897492
O O5 0.233061 0.766940 0.500000
O O6 0.210742 0.500000 0.470041
O O7 0.246185 0.726757 0.416500
O O8 0.000000 0.692917 0.456554
O O9 0.500000 0.217526 0.224986
O O10 0.224857 0.262636 0.244248
O O11 0.312830 0.000000 0.226149
O O12 0.500000 0.264239 0.376599
O O13 0.664422 0.500000 0.372458
O O14 0.741480 0.264179 0.330443
O O15 0.500000 0.181559 0.713395
O O16 0.721273 0.000000 0.703818
O O17 0.795998 0.500000 0.035779
O O18 0.000000 0.704579 0.036467
O O19 0.750596 0.750596 0.000000
#
# Coordination Sequence:
#
# PCOD8309527 Si02
#       6
#     8   8   8   8   8   8
#     4   9  19  37  59  81 106 138 178 222 266 313
#     4  10  20  34  53  77 105 136 171 213 261 312
#     4   9  19  36  56  78 106 141 180 221 264 312
#     4   9  17  31  53  78 103 135 176 219 262 310
#     4  10  20  33  51  78 111 143 176 218 266 314
#     4  11  24  39  56  81 111 141 176 218 263 314
#
# _framework density 18.807068999999998
#
# number of rings (size 3 to 8) (size 9 to 14) (size 15 to 20)
#    0.000    2.333    0.000    3.500    0.000    9.333 
#    0.000    5.833    0.000    5.000    0.000    0.000 
#    0.000    0.000    0.000    0.000    0.000    0.000 
#
# Total GULP energy -595332.824727 kJ/mol
# GULP energy per Si atom -12402.767182 kJ/mol
# Density = 1.876426 g / cm^3
# Si number density = 18.807069 Si / 1000 Ang^3
#
#
#
# Elastic Constant Matrix: (Units=GPa)
#
#
# Indices 1 2 3 4 5 6 
#
# 1 94.5748 64.8566 67.7963 0.0000 0.0000 0.0000
# 2 64.8566 94.5736 67.7952 0.0000 0.0000 0.0000
# 3 67.7963 67.7952 133.0267 0.0000 0.0000 0.0000
# 4 0.0000 0.0000 0.0000 11.2502 0.0000 0.0000
# 5 0.0000 0.0000 0.0000 0.0000 11.2506 0.0000
# 6 0.0000 0.0000 0.0000 0.0000 0.0000 28.5828
#
#
#
# Elastic Compliance Matrix: (Units=1/GPa)
#
#
# Indices 1 2 3 4 5 6 
#
# 1 0.022360 -0.011290 -0.005642 0.000000 0.000000 0.000000
# 2 -0.011290 0.022360 -0.005642 0.000000 0.000000 0.000000
# 3 -0.005642 -0.005642 0.013268 0.000000 0.000000 0.000000
# 4 0.000000 0.000000 0.000000 0.088887 0.000000 0.000000
# 5 0.000000 0.000000 0.000000 0.000000 0.088884 0.000000
# 6 0.000000 0.000000 0.000000 0.000000 0.000000 0.034986
#
#
# Mechanical properties :
#
#
# Convention : Reuss Voigt Hill
#
# Bulk Modulus (GPa) = 77.87383 80.34126 79.10754
# Shear Modulus (GPa) = 15.61646 18.33185 16.97416
#
# Velocity S-wave (km/s) = 2.88471 3.12546 3.00749
# Velocity P-wave (km/s) = 7.25203 7.47235 7.36302
#
# Compressibility (1/GPa) = 0.01284128
#
# Stress axis : x y z
#
# Youngs Moduli (GPa) = 44.72182 44.72177 75.36829
#
# Poissons Ratio (x) = 0.50489 0.42525
# Poissons Ratio (y) = 0.50490 0.42523
# Poissons Ratio (z) = 0.25233 0.25232
#
# Static dielectric constant tensor:
#      x y z
#    x 3.393520 0.000000 0.000000 
#    y 0.000000 3.393520 0.000000 
#    z 0.000000 0.000000 3.542200 
# 
# 
# High freq. dielectric constant tensor:
#      x y z
#    x 1.722500 0.000000 0.000000 
#    y 0.000000 1.722500 0.000000 
#    z 0.000000 0.000000 1.745060 
# 
# From -- ./inp_files/5989.got.cif
#   From: 2010.03.12/outbox.cif.g09.slc.cpg/sg115_3_cif.got.tgz:5989.got - 2010.04.14 02:11:21.
