data_PCOD8309212
_publ_section_title
;
Structure prediction by ZEFSAII (Michael W. Deem and Ramdas Pophale) SiO2 
 PCOD8309212
Probable space group: P -4 M 2
;
_chemical_formula_sum "Si O2"
_cell_formula_units_Z 38
_cell_length_a 11.717929
_cell_length_b 11.717929
_cell_length_c 14.352816
_cell_angle_alpha 90.000000
_cell_angle_beta 90.000000
_cell_angle_gamma 90.000000
_cell_volume 1970.783156
_symmetry_space_group_name_H-M "P -4 M 2"
_symmetry_group_IT_number 115
_symmetry_cell_setting 'tetragonal'
loop_
_space_group_symop_operation_xyz
x,y,z
y,-x,-z
-x,-y,z
-y,x,-z
y,x,-z
-y,-x,-z
-x,y,z
x,-y,z
loop_
_atom_site_type_symbol
_atom_site_label
_atom_site_fract_x
_atom_site_fract_y
_atom_site_fract_z
Si Si1 0.500000 0.875423 0.880589
Si Si2 0.500000 0.000000 0.699939
Si Si3 0.225179 0.867710 0.272264
Si Si4 0.138167 0.752392 0.089594
Si Si5 0.229160 0.375306 0.571878
Si Si6 0.348099 0.000000 0.528055
Si Si7 0.876742 0.000000 0.611549
O O1 0.500000 0.888038 0.766905
O O2 0.619500 0.817808 0.913314
O O3 0.500000 0.000000 0.928115
O O4 0.387396 0.000000 0.636072
O O5 0.206175 0.815209 0.171285
O O6 0.315104 0.789741 0.328612
O O7 0.107871 0.856961 0.325201
O O8 0.265975 0.000000 0.264934
O O9 0.000000 0.758958 0.101961
O O10 0.178202 0.821799 0.000000
O O11 0.307318 0.307318 0.500000
O O12 0.283896 0.500000 0.590310
O O13 0.108268 0.395848 0.523969
O O14 0.210453 0.000000 0.524634
O O15 0.000000 0.000000 0.565029
#
# Coordination Sequence:
#
# PCOD8309212 Si02
#       7
#     4   2   8   8   8   4   4
#     4   8  20  36  60  92 121 156 217 260 295 377
#     4  10  18  34  70  82 118 160 222 262 282 362
#     4  11  22  38  59  93 132 162 198 254 318 393
#     4  11  22  40  65  96 129 163 210 263 327 389
#     4  12  26  41  61  88 127 169 219 261 314 380
#     4  12  20  38  62  92 117 167 207 254 322 365
#     4  10  20  34  56  91 124 153 196 246 314 381
#
# _framework density 19.281676000000001
#
# number of rings (size 3 to 8) (size 9 to 14) (size 15 to 20)
#    0.316    0.842    5.263    1.895    0.000    1.263 
#    3.789    0.000    0.000    0.316    0.000    0.000 
#    0.000    0.000    0.000    0.000    0.000    0.000 
#
# Total GULP energy -470883.075702 kJ/mol
# GULP energy per Si atom -12391.659887 kJ/mol
# Density = 1.923779 g / cm^3
# Si number density = 19.281676 Si / 1000 Ang^3
#
#
#
# Elastic Constant Matrix: (Units=GPa)
#
#
# Indices 1 2 3 4 5 6 
#
# 1 115.0871 27.0938 47.4162 0.0000 0.0000 0.0000
# 2 27.0938 115.0861 47.4152 0.0000 0.0000 0.0000
# 3 47.4162 47.4152 120.4044 0.0000 0.0000 0.0000
# 4 0.0000 0.0000 0.0000 26.5287 0.0000 0.0000
# 5 0.0000 0.0000 0.0000 0.0000 26.5290 0.0000
# 6 0.0000 0.0000 0.0000 0.0000 0.0000 1.5941
#
#
#
# Elastic Compliance Matrix: (Units=1/GPa)
#
#
# Indices 1 2 3 4 5 6 
#
# 1 0.010452 -0.000913 -0.003756 0.000000 0.000000 0.000000
# 2 -0.000913 0.010452 -0.003756 0.000000 0.000000 0.000000
# 3 -0.003756 -0.003756 0.011264 0.000000 0.000000 0.000000
# 4 0.000000 0.000000 0.000000 0.037695 0.000000 0.000000
# 5 0.000000 0.000000 0.000000 0.000000 0.037695 0.000000
# 6 0.000000 0.000000 0.000000 0.000000 0.000000 0.627314
#
#
# Mechanical properties :
#
#
# Convention : Reuss Voigt Hill
#
# Bulk Modulus (GPa) = 65.29190 66.04756 65.66973
# Shear Modulus (GPa) = 6.60652 26.17384 16.39018
#
# Velocity S-wave (km/s) = 1.85304 3.68835 2.91871
# Velocity P-wave (km/s) = 6.20597 7.24341 6.74466
#
# Compressibility (1/GPa) = 0.01531583
#
# Stress axis : x y z
#
# Youngs Moduli (GPa) = 95.67864 95.67843 88.77902
#
# Poissons Ratio (x) = 0.08734 0.33349
# Poissons Ratio (y) = 0.08734 0.33349
# Poissons Ratio (z) = 0.35941 0.35940
#
# Static dielectric constant tensor:
#      x y z
#    x 3.561080 0.000000 0.000000 
#    y 0.000000 3.561080 0.000000 
#    z 0.000000 0.000000 3.465320 
# 
# 
# High freq. dielectric constant tensor:
#      x y z
#    x 1.741440 0.000000 0.000000 
#    y 0.000000 1.741440 0.000000 
#    z 0.000000 0.000000 1.746310 
# 
# From -- ./inp_files/3676.got.cif
#   From: 2010.03.12/outbox.cif.g09.slc.cpg/sg115_2_cif.got.tgz:3676.got - 2010.04.14 02:11:21.
