data_PCOD8309264
_publ_section_title
;
Structure prediction by ZEFSAII (Michael W. Deem and Ramdas Pophale) SiO2 
 PCOD8309264
Probable space group: P -4 M 2
;
_chemical_formula_sum "Si O2"
_cell_formula_units_Z 53
_cell_length_a 18.453927
_cell_length_b 18.453927
_cell_length_c 11.138469
_cell_angle_alpha 90.000000
_cell_angle_beta 90.000000
_cell_angle_gamma 90.000000
_cell_volume 3793.176900
_symmetry_space_group_name_H-M "P -4 M 2"
_symmetry_group_IT_number 115
_symmetry_cell_setting 'tetragonal'
loop_
_space_group_symop_operation_xyz
x,y,z
y,-x,-z
-x,-y,z
-y,x,-z
y,x,-z
-y,-x,-z
-x,y,z
x,-y,z
loop_
_atom_site_type_symbol
_atom_site_label
_atom_site_fract_x
_atom_site_fract_y
_atom_site_fract_z
Si Si1 0.414973 0.294851 0.495379
Si Si2 0.422101 0.500000 0.735840
Si Si3 0.644951 0.635224 0.864817
Si Si4 0.414895 0.225534 0.743407
Si Si5 0.585284 0.778090 0.246770
Si Si6 0.500000 0.500000 0.500000
Si Si7 0.919824 0.586101 0.139103
Si Si8 0.921476 0.585894 0.868995
O O1 0.368475 0.368475 0.500000
O O2 0.500000 0.315652 0.497833
O O3 0.394578 0.243460 0.606889
O O4 0.394355 0.246918 0.380199
O O5 0.500000 0.500000 0.800924
O O6 0.382363 0.426381 0.772009
O O7 0.430156 0.500000 0.590012
O O8 0.619150 0.714588 0.830313
O O9 0.731511 0.629538 0.852134
O O10 0.618824 0.618824 0.000000
O O11 0.500000 0.229009 0.765896
O O12 0.384331 0.145331 0.776220
O O13 0.500000 0.768969 0.222304
O O14 0.611646 0.860509 0.225383
O O15 0.919667 0.500000 0.142966
O O16 0.000000 0.613617 0.182116
O O17 0.904848 0.613810 0.003672
O O18 0.923657 0.500000 0.872693
O O19 0.000000 0.615664 0.825933
#
# Coordination Sequence:
#
# PCOD8309264 Si02
#       8
#     8   4   8   8   8   1   8   8
#     4  10  20  34  45  57  79 113 159 192 222 256
#     4  10  24  37  44  57  73 107 148 185 221 261
#     4  12  23  31  44  62  83 110 138 186 229 258
#     4  10  20  32  44  61  81 109 140 184 218 265
#     4  10  19  32  44  60  81 109 139 181 220 264
#     4   8  24  44  50  52  64 108 152 198 212 260
#     4   8  14  27  47  66  82 101 128 167 220 276
#     4   8  14  26  46  66  82 101 128 166 217 276
#
# _framework density 13.972455999999999
#
# number of rings (size 3 to 8) (size 9 to 14) (size 15 to 20)
#    0.226    2.113    2.264    2.264    2.113    2.566 
#    0.000    0.755    0.000    4.528    0.000    0.000 
#    0.000    0.000    0.000    0.000    0.000    0.755 
#
# Total GULP energy -656746.097943 kJ/mol
# GULP energy per Si atom -12391.435810 kJ/mol
# Density = 1.394065 g / cm^3
# Si number density = 13.972456 Si / 1000 Ang^3
#
#
#
# Elastic Constant Matrix: (Units=GPa)
#
#
# Indices 1 2 3 4 5 6 
#
# 1 79.1159 29.1513 41.2383 0.0000 0.0000 0.0000
# 2 29.1513 79.1159 41.2383 0.0000 0.0000 0.0000
# 3 41.2383 41.2383 96.3540 0.0000 0.0000 0.0000
# 4 0.0000 0.0000 0.0000 16.4472 0.0000 0.0000
# 5 0.0000 0.0000 0.0000 0.0000 16.4472 0.0000
# 6 0.0000 0.0000 0.0000 0.0000 0.0000 4.4307
#
#
#
# Elastic Compliance Matrix: (Units=1/GPa)
#
#
# Indices 1 2 3 4 5 6 
#
# 1 0.016859 -0.003155 -0.005865 0.000000 0.000000 0.000000
# 2 -0.003155 0.016859 -0.005865 0.000000 0.000000 0.000000
# 3 -0.005865 -0.005865 0.015399 0.000000 0.000000 0.000000
# 4 0.000000 0.000000 0.000000 0.060801 0.000000 0.000000
# 5 0.000000 0.000000 0.000000 0.000000 0.060801 0.000000
# 6 0.000000 0.000000 0.000000 0.000000 0.000000 0.225700
#
#
# Mechanical properties :
#
#
# Convention : Reuss Voigt Hill
#
# Bulk Modulus (GPa) = 51.68857 53.09351 52.39104
# Shear Modulus (GPa) = 11.55697 16.99554 14.27626
#
# Velocity S-wave (km/s) = 2.87910 3.49142 3.19994
# Velocity P-wave (km/s) = 6.93727 7.37120 7.15752
#
# Compressibility (1/GPa) = 0.01934664
#
# Stress axis : x y z
#
# Youngs Moduli (GPa) = 59.31422 59.31422 64.93916
#
# Poissons Ratio (x) = 0.18712 0.38089
# Poissons Ratio (y) = 0.18712 0.38089
# Poissons Ratio (z) = 0.34790 0.34790
#
# Static dielectric constant tensor:
#      x y z
#    x 2.802760 0.000000 0.000000 
#    y 0.000000 2.802760 0.000000 
#    z 0.000000 0.000000 2.895240 
# 
# 
# High freq. dielectric constant tensor:
#      x y z
#    x 1.501350 0.000000 0.000000 
#    y 0.000000 1.501350 0.000000 
#    z 0.000000 0.000000 1.540280 
# 
# From -- ./inp_files/3183.got.cif
#   From: 2010.03.12/outbox.cif.g09.slc.cpg/sg115_2_cif.got.tgz:3183.got - 2010.04.14 02:11:21.
