data_PCOD8309466
_publ_section_title
;
Structure prediction by ZEFSAII (Michael W. Deem and Ramdas Pophale) SiO2 
 PCOD8309466
Probable space group: P -4 M 2
;
_chemical_formula_sum "Si O2"
_cell_formula_units_Z 44
_cell_length_a 9.247245
_cell_length_b 9.247245
_cell_length_c 28.284441
_cell_angle_alpha 90.000000
_cell_angle_beta 90.000000
_cell_angle_gamma 90.000000
_cell_volume 2418.646110
_symmetry_space_group_name_H-M "P -4 M 2"
_symmetry_group_IT_number 115
_symmetry_cell_setting 'tetragonal'
loop_
_space_group_symop_operation_xyz
x,y,z
y,-x,-z
-x,-y,z
-y,x,-z
y,x,-z
-y,-x,-z
-x,y,z
x,-y,z
loop_
_atom_site_type_symbol
_atom_site_label
_atom_site_fract_x
_atom_site_fract_y
_atom_site_fract_z
Si Si1 0.162057 0.671392 0.539245
Si Si2 0.172034 0.162198 0.731801
Si Si3 0.165826 0.834175 0.000000
Si Si4 0.827829 0.661035 0.643555
Si Si5 0.831925 0.669514 0.824303
Si Si6 0.669962 0.833562 0.905729
O O1 0.267213 0.732788 0.500000
O O2 0.163847 0.500000 0.536325
O O3 0.217173 0.719033 0.591522
O O4 0.000000 0.729978 0.530293
O O5 0.235121 0.233461 0.683884
O O6 0.224497 0.254360 0.776635
O O7 0.000000 0.160768 0.729599
O O8 0.233893 0.000000 0.736115
O O9 0.266759 0.789909 0.956494
O O10 0.000000 0.808338 0.984862
O O11 0.765397 0.500000 0.652315
O O12 0.000000 0.654113 0.646105
O O13 0.804352 0.500000 0.818936
O O14 0.740279 0.729854 0.867412
O O15 0.000000 0.704312 0.833409
O O16 0.500000 0.806858 0.906715
O O17 0.708339 0.000000 0.893797
#
# Coordination Sequence:
#
# PCOD8309466 Si02
#       6
#     8   8   4   8   8   8
#     4   9  18  31  47  69  97 129 164 202 245 294
#     4   9  16  26  44  71  99 126 160 204 251 297
#     4   9  18  34  56  79 104 136 172 209 248 293
#     4   8  14  26  43  64  93 125 156 196 247 298
#     4  10  20  33  51  75 102 134 171 208 246 292
#     4  10  21  36  54  77 105 135 166 204 251 298
#
# _framework density 18.191998000000002
#
# number of rings (size 3 to 8) (size 9 to 14) (size 15 to 20)
#    0.000    2.818    0.000    2.727    0.000    6.182 
#    0.000    3.636    0.000    1.091    0.000    5.091 
#    0.000    0.000    0.000    0.000    0.000    0.000 
#
# Total GULP energy -545541.773548 kJ/mol
# GULP energy per Si atom -12398.676672 kJ/mol
# Density = 1.815059 g / cm^3
# Si number density = 18.191998 Si / 1000 Ang^3
#
#
#
# Elastic Constant Matrix: (Units=GPa)
#
#
# Indices 1 2 3 4 5 6 
#
# 1 69.2214 36.3166 65.5404 0.0000 0.0000 0.0000
# 2 36.3166 69.2235 65.5410 0.0000 0.0000 0.0000
# 3 65.5404 65.5410 164.1743 0.0000 0.0000 0.0000
# 4 0.0000 0.0000 0.0000 0.8766 0.0000 0.0000
# 5 0.0000 0.0000 0.0000 0.0000 0.8763 0.0000
# 6 0.0000 0.0000 0.0000 0.0000 0.0000 20.4199
#
#
#
# Elastic Compliance Matrix: (Units=1/GPa)
#
#
# Indices 1 2 3 4 5 6 
#
# 1 0.024592 -0.005798 -0.007503 0.000000 0.000000 0.000000
# 2 -0.005798 0.024591 -0.007503 0.000000 0.000000 0.000000
# 3 -0.007503 -0.007503 0.012081 0.000000 0.000000 0.000000
# 4 0.000000 0.000000 0.000000 1.140714 0.000000 0.000000
# 5 0.000000 0.000000 0.000000 0.000000 1.141154 0.000000
# 6 0.000000 0.000000 0.000000 0.000000 0.000000 0.048972
#
#
# Mechanical properties :
#
#
# Convention : Reuss Voigt Hill
#
# Bulk Modulus (GPa) = 50.86993 70.82391 60.84692
# Shear Modulus (GPa) = 2.04896 13.44932 7.74914
#
# Velocity S-wave (km/s) = 1.06242 2.72195 2.06613
# Velocity P-wave (km/s) = 5.43401 6.99247 6.26191
#
# Compressibility (1/GPa) = 0.01965798
#
# Stress axis : x y z
#
# Youngs Moduli (GPa) = 40.66339 40.66494 82.77153
#
# Poissons Ratio (x) = 0.23578 0.62102
# Poissons Ratio (y) = 0.23577 0.62100
# Poissons Ratio (z) = 0.30509 0.30509
#
# Static dielectric constant tensor:
#      x y z
#    x 3.198370 0.000000 0.000000 
#    y 0.000000 3.198370 0.000000 
#    z 0.000000 0.000000 3.576800 
# 
# 
# High freq. dielectric constant tensor:
#      x y z
#    x 1.681460 0.000000 0.000000 
#    y 0.000000 1.681460 0.000000 
#    z 0.000000 0.000000 1.720650 
# 
# From -- ./inp_files/5706.got.cif
#   From: 2010.03.12/outbox.cif.g09.slc.cpg/sg115_3_cif.got.tgz:5706.got - 2010.04.14 02:11:21.
