data_PCOD8309675
_publ_section_title
;
Structure prediction by ZEFSAII (Michael W. Deem and Ramdas Pophale) SiO2 
 PCOD8309675
Probable space group: P -4 M 2
;
_chemical_formula_sum "Si O2"
_cell_formula_units_Z 48
_cell_length_a 9.076463
_cell_length_b 9.076463
_cell_length_c 30.863991
_cell_angle_alpha 90.000000
_cell_angle_beta 90.000000
_cell_angle_gamma 90.000000
_cell_volume 2542.642880
_symmetry_space_group_name_H-M "P -4 M 2"
_symmetry_group_IT_number 115
_symmetry_cell_setting 'tetragonal'
loop_
_space_group_symop_operation_xyz
x,y,z
y,-x,-z
-x,-y,z
-y,x,-z
y,x,-z
-y,-x,-z
-x,y,z
x,-y,z
loop_
_atom_site_type_symbol
_atom_site_label
_atom_site_fract_x
_atom_site_fract_y
_atom_site_fract_z
Si Si1 0.324788 0.334106 0.829508
Si Si2 0.670599 0.172970 0.335103
Si Si3 0.327390 0.830042 0.587574
Si Si4 0.171212 0.171212 0.000000
Si Si5 0.169714 0.326819 0.085956
Si Si6 0.671066 0.827001 0.743492
Si Si7 0.831440 0.168561 0.500000
O O1 0.500000 0.330595 0.830770
O O2 0.263917 0.500000 0.826832
O O3 0.262921 0.258715 0.873049
O O4 0.268869 0.245323 0.787685
O O5 0.500000 0.211954 0.327793
O O6 0.724268 0.245295 0.379358
O O7 0.764289 0.235771 0.295745
O O8 0.697518 0.000000 0.338197
O O9 0.500000 0.800282 0.590802
O O10 0.273440 0.788458 0.539658
O O11 0.289415 0.000000 0.598346
O O12 0.253489 0.232951 0.957633
O O13 0.000000 0.204825 0.993679
O O14 0.191220 0.500000 0.081308
O O15 0.000000 0.283725 0.093041
O O16 0.500000 0.788744 0.735596
O O17 0.696480 0.000000 0.746992
O O18 0.000000 0.194001 0.514490
#
# Coordination Sequence:
#
# PCOD8309675 Si02
#       7
#     8   8   8   4   8   8   4
#     4   9  17  30  50  76 104 133 166 207 255 305
#     4  11  24  39  55  78 109 143 179 221 268 315
#     4  10  21  37  58  84 112 143 181 222 264 315
#     4   9  18  32  48  67  94 128 164 203 250 302
#     4   9  17  30  48  69  94 126 165 206 247 296
#     4  10  20  35  57  82 106 136 176 218 261 314
#     4   9  18  34  56  81 112 150 186 221 264 313
#
# _framework density 18.877994000000001
#
# number of rings (size 3 to 8) (size 9 to 14) (size 15 to 20)
#    0.000    2.333    0.000    2.500    0.000    8.667 
#    0.000    2.500    0.000    3.000    0.000    0.000 
#    0.000    0.000    0.000    0.000    0.000    0.000 
#
# Total GULP energy -595342.289612 kJ/mol
# GULP energy per Si atom -12402.964367 kJ/mol
# Density = 1.883503 g / cm^3
# Si number density = 18.877994 Si / 1000 Ang^3
#
#
#
# Elastic Constant Matrix: (Units=GPa)
#
#
# Indices 1 2 3 4 5 6 
#
# 1 71.8614 41.5078 55.8721 0.0000 0.0000 0.0000
# 2 41.5078 71.8612 55.8722 0.0000 0.0000 0.0000
# 3 55.8721 55.8722 143.4809 0.0000 0.0000 0.0000
# 4 0.0000 0.0000 0.0000 84.8908 0.0000 0.0000
# 5 0.0000 0.0000 0.0000 0.0000 84.8358 0.0000
# 6 0.0000 0.0000 0.0000 0.0000 0.0000 23.3510
#
#
#
# Elastic Compliance Matrix: (Units=1/GPa)
#
#
# Indices 1 2 3 4 5 6 
#
# 1 0.023630 -0.009315 -0.005574 0.000000 0.000000 0.000000
# 2 -0.009315 0.023630 -0.005574 0.000000 0.000000 0.000000
# 3 -0.005574 -0.005574 0.011311 0.000000 0.000000 0.000000
# 4 0.000000 0.000000 0.000000 0.011780 0.000000 0.000000
# 5 0.000000 0.000000 0.000000 0.000000 0.011787 0.000000
# 6 0.000000 0.000000 0.000000 0.000000 0.000000 0.042825
#
#
# Mechanical properties :
#
#
# Convention : Reuss Voigt Hill
#
# Bulk Modulus (GPa) = 56.67711 65.96752 61.32231
# Shear Modulus (GPa) = 29.10831 47.54561 38.32696
#
# Velocity S-wave (km/s) = 3.93099 5.02398 4.51071
# Velocity P-wave (km/s) = 7.11980 8.28697 7.72546
#
# Compressibility (1/GPa) = 0.01764381
#
# Stress axis : x y z
#
# Youngs Moduli (GPa) = 42.31884 42.31857 88.40960
#
# Poissons Ratio (x) = 0.39419 0.49283
# Poissons Ratio (y) = 0.39420 0.49284
# Poissons Ratio (z) = 0.23590 0.23590
#
# Static dielectric constant tensor:
#      x y z
#    x 3.239350 0.000000 0.000000 
#    y 0.000000 3.239170 0.000000 
#    z 0.000000 0.000000 3.676180 
# 
# 
# High freq. dielectric constant tensor:
#      x y z
#    x 1.723670 0.000000 0.000000 
#    y 0.000000 1.723670 0.000000 
#    z 0.000000 0.000000 1.749640 
# 
# From -- ./inp_files/6231.got.cif
#   From: 2010.03.12/outbox.cif.g09.slc.cpg/sg115_4_cif.got.tgz:6231.got - 2010.04.14 02:11:21.
