data_PCOD8309314
_publ_section_title
;
Structure prediction by ZEFSAII (Michael W. Deem and Ramdas Pophale) SiO2 
 PCOD8309314
Probable space group: P -4 M 2
;
_chemical_formula_sum "Si O2"
_cell_formula_units_Z 48
_cell_length_a 8.265125
_cell_length_b 8.265125
_cell_length_c 33.292550
_cell_angle_alpha 90.000000
_cell_angle_beta 90.000000
_cell_angle_gamma 90.000000
_cell_volume 2274.290373
_symmetry_space_group_name_H-M "P -4 M 2"
_symmetry_group_IT_number 115
_symmetry_cell_setting 'tetragonal'
loop_
_space_group_symop_operation_xyz
x,y,z
y,-x,-z
-x,-y,z
-y,x,-z
y,x,-z
-y,-x,-z
-x,y,z
x,-y,z
loop_
_atom_site_type_symbol
_atom_site_label
_atom_site_fract_x
_atom_site_fract_y
_atom_site_fract_z
Si Si1 0.813634 0.000000 0.141090
Si Si2 0.817099 0.815916 0.267333
Si Si3 0.313518 0.313518 0.000000
Si Si4 0.192729 0.680296 0.184602
Si Si5 0.819036 0.819135 0.422761
Si Si6 0.680794 0.319207 0.500000
Si Si7 0.683040 0.000000 0.055133
Si Si8 0.681637 0.680977 0.345297
O O1 0.735950 0.169005 0.158213
O O2 0.799382 0.000000 0.093218
O O3 0.000000 0.000000 0.153761
O O4 0.751512 0.706110 0.230770
O O5 0.716145 0.797021 0.307910
O O6 0.000000 0.767046 0.277950
O O7 0.805513 0.000000 0.252308
O O8 0.284227 0.168679 0.031638
O O9 0.295428 0.500000 0.017206
O O10 0.255021 0.500000 0.170686
O O11 0.000000 0.683739 0.181722
O O12 0.708711 0.792139 0.461492
O O13 0.789442 0.706757 0.384524
O O14 0.000000 0.789076 0.438046
O O15 0.790048 0.000000 0.407128
O O16 0.500000 0.289674 0.515534
O O17 0.500000 0.000000 0.070627
O O18 0.500000 0.711734 0.359811
O O19 0.710936 0.500000 0.329633
#
# Coordination Sequence:
#
# PCOD8309314 Si02
#       8
#     4   8   4   8   8   4   4   8
#     4  10  20  34  54  86 118 152 198 254 298 355
#     4  10  19  34  58  84 111 147 194 244 293 350
#     4   9  20  39  60  86 124 163 206 263 316 376
#     4   9  17  32  54  81 116 154 194 245 303 357
#     4  11  24  41  61  86 113 143 185 231 276 335
#     4  11  24  41  62  88 116 147 180 219 274 336
#     4  10  22  38  60  88 120 162 208 249 313 380
#     4  11  24  39  55  81 115 148 188 236 286 345
#
# _framework density 21.105485000000002
#
# number of rings (size 3 to 8) (size 9 to 14) (size 15 to 20)
#    0.000    1.833    0.833    3.000    1.167   10.000 
#    0.000    0.833    0.000    1.000    0.000    0.000 
#    0.000    0.000    0.000    0.000    0.000    0.000 
#
# Total GULP energy -594921.338907 kJ/mol
# GULP energy per Si atom -12394.194561 kJ/mol
# Density = 2.105745 g / cm^3
# Si number density = 21.105485 Si / 1000 Ang^3
#
#
#
# Elastic Constant Matrix: (Units=GPa)
#
#
# Indices 1 2 3 4 5 6 
#
# 1 86.0749 42.4868 40.0626 0.0000 0.0000 0.0000
# 2 42.4868 86.0747 40.0624 0.0000 0.0000 0.0000
# 3 40.0626 40.0624 112.5790 0.0000 0.0000 0.0000
# 4 0.0000 0.0000 0.0000 22.2015 0.0000 0.0000
# 5 0.0000 0.0000 0.0000 0.0000 22.2021 0.0000
# 6 0.0000 0.0000 0.0000 0.0000 0.0000 21.8287
#
#
#
# Elastic Compliance Matrix: (Units=1/GPa)
#
#
# Indices 1 2 3 4 5 6 
#
# 1 0.016469 -0.006473 -0.003557 0.000000 0.000000 0.000000
# 2 -0.006473 0.016469 -0.003557 0.000000 0.000000 0.000000
# 3 -0.003557 -0.003557 0.011414 0.000000 0.000000 0.000000
# 4 0.000000 0.000000 0.000000 0.045042 0.000000 0.000000
# 5 0.000000 0.000000 0.000000 0.000000 0.045041 0.000000
# 6 0.000000 0.000000 0.000000 0.000000 0.000000 0.045811
#
#
# Mechanical properties :
#
#
# Convention : Reuss Voigt Hill
#
# Bulk Modulus (GPa) = 58.21758 58.88359 58.55058
# Shear Modulus (GPa) = 23.45813 24.05424 23.75619
#
# Velocity S-wave (km/s) = 3.33749 3.37963 3.35863
# Velocity P-wave (km/s) = 6.51888 6.57187 6.54543
#
# Compressibility (1/GPa) = 0.01717694
#
# Stress axis : x y z
#
# Youngs Moduli (GPa) = 60.72152 60.72144 87.61035
#
# Poissons Ratio (x) = 0.39308 0.31162
# Poissons Ratio (y) = 0.39308 0.31162
# Poissons Ratio (z) = 0.21598 0.21598
#
# Static dielectric constant tensor:
#      x y z
#    x 3.866340 0.000000 0.000000 
#    y 0.000000 3.866330 0.000000 
#    z 0.000000 0.000000 3.463340 
# 
# 
# High freq. dielectric constant tensor:
#      x y z
#    x 1.825330 0.000000 0.000000 
#    y 0.000000 1.825330 0.000000 
#    z 0.000000 0.000000 1.813390 
# 
# From -- ./inp_files/6327.got.cif
#   From: 2010.03.12/outbox.cif.g09.slc.cpg/sg115_4_cif.got.tgz:6327.got - 2010.04.14 02:11:21.
