data_PCOD8309734
_publ_section_title
;
Structure prediction by ZEFSAII (Michael W. Deem and Ramdas Pophale) SiO2 
 PCOD8309734
Probable space group: P -4 M 2
;
_chemical_formula_sum "Si O2"
_cell_formula_units_Z 48
_cell_length_a 9.383477
_cell_length_b 9.383477
_cell_length_c 31.006028
_cell_angle_alpha 90.000000
_cell_angle_beta 90.000000
_cell_angle_gamma 90.000000
_cell_volume 2730.069622
_symmetry_space_group_name_H-M "P -4 M 2"
_symmetry_group_IT_number 115
_symmetry_cell_setting 'tetragonal'
loop_
_space_group_symop_operation_xyz
x,y,z
y,-x,-z
-x,-y,z
-y,x,-z
y,x,-z
-y,-x,-z
-x,y,z
x,-y,z
loop_
_atom_site_type_symbol
_atom_site_label
_atom_site_fract_x
_atom_site_fract_y
_atom_site_fract_z
Si Si1 0.334633 0.665368 0.000000
Si Si2 0.666222 0.666226 0.334096
Si Si3 0.834863 0.165174 0.166263
Si Si4 0.836113 0.665754 0.750149
Si Si5 0.834131 0.830616 0.593353
Si Si6 0.165286 0.665449 0.083181
Si Si7 0.834709 0.834709 0.500000
O O1 0.250055 0.721496 0.041605
O O2 0.500000 0.696299 0.008352
O O3 0.500000 0.693669 0.342670
O O4 0.702601 0.500000 0.331195
O O5 0.714932 0.739776 0.289755
O O6 0.753910 0.735721 0.372415
O O7 0.750087 0.218466 0.208084
O O8 0.778272 0.250845 0.124918
O O9 0.000000 0.197205 0.174758
O O10 0.805397 0.000000 0.157280
O O11 0.816777 0.500000 0.760087
O O12 0.000000 0.703610 0.739362
O O13 0.776169 0.776320 0.545968
O O14 0.000000 0.788930 0.600201
O O15 0.816399 0.000000 0.597617
O O16 0.195644 0.500000 0.091400
O O17 0.000000 0.697213 0.074892
O O18 0.000000 0.803146 0.501155
#
# Coordination Sequence:
#
# PCOD8309734 Si02
#       7
#     4   8   8   8   8   8   4
#     4   9  18  32  48  67  92 122 156 191 224 262
#     4  10  21  35  49  69 100 134 165 199 241 289
#     4   9  18  32  49  70  95 120 149 189 235 281
#     4   9  18  33  51  69  91 122 160 199 237 280
#     4   9  17  31  53  77  98 124 161 203 245 289
#     4   9  18  32  48  67  93 123 152 184 226 274
#     4   7  12  26  48  73  98 122 154 199 244 285
#
# _framework density 17.581968
#
# number of rings (size 3 to 8) (size 9 to 14) (size 15 to 20)
#    0.000    3.000    0.000    1.500    0.000    4.000 
#    0.000    2.500    0.000    4.000    0.000    0.000 
#    0.000    0.000    0.000    0.000    0.000    0.000 
#
# Total GULP energy -595029.270739 kJ/mol
# GULP energy per Si atom -12396.443140 kJ/mol
# Density = 1.754195 g / cm^3
# Si number density = 17.581968 Si / 1000 Ang^3
#
#
#
# Elastic Constant Matrix: (Units=GPa)
#
#
# Indices 1 2 3 4 5 6 
#
# 1 60.7674 37.4698 76.3443 0.0000 0.0000 0.0000
# 2 37.4698 60.7670 76.3443 0.0000 0.0000 0.0000
# 3 76.3443 76.3443 204.8381 0.0000 0.0000 0.0000
# 4 0.0000 0.0000 0.0000 -5.7026 0.0000 0.0000
# 5 0.0000 0.0000 0.0000 0.0000 -5.7092 0.0000
# 6 0.0000 0.0000 0.0000 0.0000 0.0000 22.7666
#
#
#
# Elastic Compliance Matrix: (Units=1/GPa)
#
#
# Indices 1 2 3 4 5 6 
#
# 1 0.033559 -0.009364 -0.009018 0.000000 0.000000 0.000000
# 2 -0.009364 0.033560 -0.009018 0.000000 0.000000 0.000000
# 3 -0.009018 -0.009018 0.011604 0.000000 0.000000 0.000000
# 4 0.000000 0.000000 0.000000 -0.175358 0.000000 0.000000
# 5 0.000000 0.000000 0.000000 0.000000 -0.175157 0.000000
# 6 0.000000 0.000000 0.000000 0.000000 0.000000 0.043924
#
#
# Mechanical properties :
#
#
# Convention : Reuss Voigt Hill
#
# Bulk Modulus (GPa) = 41.79892 78.52104 60.15998
# Shear Modulus (GPa) = -30.28588 11.35191 -9.46699
#
# Velocity S-wave (km/s) = -4.15487 2.54373 -2.32297
# Velocity P-wave (km/s) = 0.89895 7.30646 5.20541
#
# Compressibility (1/GPa) = 0.02392406
#
# Stress axis : x y z
#
# Youngs Moduli (GPa) = 29.79791 29.79752 86.17711
#
# Poissons Ratio (x) = 0.27901 0.77714
# Poissons Ratio (y) = 0.27902 0.77715
# Poissons Ratio (z) = 0.26871 0.26872
#
# Static dielectric constant tensor:
#      x y z
#    x 3.127560 0.000000 0.000000 
#    y 0.000000 3.127570 0.000000 
#    z 0.000000 0.000000 3.561450 
# 
# 
# High freq. dielectric constant tensor:
#      x y z
#    x 1.664090 0.000000 0.000000 
#    y 0.000000 1.664090 0.000000 
#    z 0.000000 0.000000 1.696140 
# 
# From -- ./inp_files/6220.got.cif
#   From: 2010.03.12/outbox.cif.g09.slc.cpg/sg115_4_cif.got.tgz:6220.got - 2010.04.14 02:11:21.
