data_PCOD8309421
_publ_section_title
;
Structure prediction by ZEFSAII (Michael W. Deem and Ramdas Pophale) SiO2 
 PCOD8309421
Probable space group: P -4 M 2
;
_chemical_formula_sum "Si O2"
_cell_formula_units_Z 48
_cell_length_a 9.211434
_cell_length_b 9.211434
_cell_length_c 31.182619
_cell_angle_alpha 90.000000
_cell_angle_beta 90.000000
_cell_angle_gamma 90.000000
_cell_volume 2645.861323
_symmetry_space_group_name_H-M "P -4 M 2"
_symmetry_group_IT_number 115
_symmetry_cell_setting 'tetragonal'
loop_
_space_group_symop_operation_xyz
x,y,z
y,-x,-z
-x,-y,z
-y,x,-z
y,x,-z
-y,-x,-z
-x,y,z
x,-y,z
loop_
_atom_site_type_symbol
_atom_site_label
_atom_site_fract_x
_atom_site_fract_y
_atom_site_fract_z
Si Si1 0.173157 0.664269 0.295134
Si Si2 0.672316 0.162875 0.036058
Si Si3 0.338926 0.827262 0.130041
Si Si4 0.827695 0.836201 0.377259
Si Si5 0.329166 0.831503 0.537527
Si Si6 0.166938 0.170599 0.787914
O O1 0.232395 0.500000 0.297148
O O2 0.235136 0.753666 0.335642
O O3 0.230846 0.740158 0.251897
O O4 0.000000 0.665538 0.296039
O O5 0.500000 0.164102 0.034211
O O6 0.721715 0.220548 0.083244
O O7 0.731067 0.000000 0.028064
O O8 0.732322 0.267679 0.000000
O O9 0.500000 0.763891 0.137538
O O10 0.237626 0.769065 0.168246
O O11 0.344215 0.000000 0.130328
O O12 0.778359 0.748215 0.419103
O O13 0.000000 0.841173 0.374484
O O14 0.764770 0.000000 0.378979
O O15 0.267543 0.732457 0.500000
O O16 0.500000 0.805943 0.542566
O O17 0.293927 0.000000 0.527834
O O18 0.000000 0.215885 0.780288
O O19 0.183262 0.000000 0.792274
#
# Coordination Sequence:
#
# PCOD8309421 Si02
#       6
#     8   8   8   8   8   8
#     4   9  16  26  41  64  96 128 154 187 236 286
#     4   9  18  32  49  70  95 123 157 197 241 290
#     4   8  15  29  47  65  88 119 153 189 230 277
#     4   9  16  27  46  71  97 125 159 199 239 280
#     4  10  20  33  50  73 100 130 164 201 242 288
#     4   9  16  26  43  67  91 116 151 192 230 272
#
# _framework density 18.141541
#
# number of rings (size 3 to 8) (size 9 to 14) (size 15 to 20)
#    0.000    3.000    0.000    2.500    0.000    6.000 
#    0.000    2.500    0.000    4.500    0.000    2.333 
#    0.000    0.000    0.000    0.000    0.000    0.000 
#
# Total GULP energy -595036.261371 kJ/mol
# GULP energy per Si atom -12396.588779 kJ/mol
# Density = 1.810025 g / cm^3
# Si number density = 18.141541 Si / 1000 Ang^3
#
#
#
# Elastic Constant Matrix: (Units=GPa)
#
#
# Indices 1 2 3 4 5 6 
#
# 1 61.5152 26.8954 58.4676 0.0000 0.0000 0.0000
# 2 26.8954 61.5137 58.4669 0.0000 0.0000 0.0000
# 3 58.4676 58.4669 190.8097 0.0000 0.0000 0.0000
# 4 0.0000 0.0000 0.0000 5.0877 0.0000 0.0000
# 5 0.0000 0.0000 0.0000 0.0000 5.0880 0.0000
# 6 0.0000 0.0000 0.0000 0.0000 0.0000 15.1770
#
#
#
# Elastic Compliance Matrix: (Units=1/GPa)
#
#
# Indices 1 2 3 4 5 6 
#
# 1 0.023952 -0.004933 -0.005828 0.000000 0.000000 0.000000
# 2 -0.004933 0.023953 -0.005828 0.000000 0.000000 0.000000
# 3 -0.005828 -0.005828 0.008812 0.000000 0.000000 0.000000
# 4 0.000000 0.000000 0.000000 0.196554 0.000000 0.000000
# 5 0.000000 0.000000 0.000000 0.000000 0.196542 0.000000
# 6 0.000000 0.000000 0.000000 0.000000 0.000000 0.065889
#
#
# Mechanical properties :
#
#
# Convention : Reuss Voigt Hill
#
# Bulk Modulus (GPa) = 42.48223 66.83317 54.65770
# Shear Modulus (GPa) = 8.98106 16.40443 12.69275
#
# Velocity S-wave (km/s) = 2.22740 3.01033 2.64796
# Velocity P-wave (km/s) = 5.48480 7.00019 6.28831
#
# Compressibility (1/GPa) = 0.02353926
#
# Stress axis : x y z
#
# Youngs Moduli (GPa) = 41.74999 41.74902 113.47840
#
# Poissons Ratio (x) = 0.20597 0.66132
# Poissons Ratio (y) = 0.20597 0.66132
# Poissons Ratio (z) = 0.24331 0.24330
#
# Static dielectric constant tensor:
#      x y z
#    x 3.132540 0.000000 0.000000 
#    y 0.000000 3.132540 0.000000 
#    z 0.000000 0.000000 3.689970 
# 
# 
# High freq. dielectric constant tensor:
#      x y z
#    x 1.671630 0.000000 0.000000 
#    y 0.000000 1.671630 0.000000 
#    z 0.000000 0.000000 1.722470 
# 
# From -- ./inp_files/6021.got.cif
#   From: 2010.03.12/outbox.cif.g09.slc.cpg/sg115_4_cif.got.tgz:6021.got - 2010.04.14 02:11:21.
