data_PCOD8309234
_publ_section_title
;
Structure prediction by ZEFSAII (Michael W. Deem and Ramdas Pophale) SiO2 
 PCOD8309234
Probable space group: P -4 M 2
;
_chemical_formula_sum "Si O2"
_cell_formula_units_Z 48
_cell_length_a 13.458776
_cell_length_b 13.458776
_cell_length_c 15.368679
_cell_angle_alpha 90.000000
_cell_angle_beta 90.000000
_cell_angle_gamma 90.000000
_cell_volume 2783.861788
_symmetry_space_group_name_H-M "P -4 M 2"
_symmetry_group_IT_number 115
_symmetry_cell_setting 'tetragonal'
loop_
_space_group_symop_operation_xyz
x,y,z
y,-x,-z
-x,-y,z
-y,x,-z
y,x,-z
-y,-x,-z
-x,y,z
x,-y,z
loop_
_atom_site_type_symbol
_atom_site_label
_atom_site_fract_x
_atom_site_fract_y
_atom_site_fract_z
Si Si1 0.612603 0.115693 0.171285
Si Si2 0.276949 0.116846 0.653340
Si Si3 0.884307 0.387397 0.171285
Si Si4 0.616681 0.227390 1.000000
Si Si5 0.116846 0.723052 0.653340
Si Si6 0.780047 0.616321 0.500000
O O1 0.500000 0.148936 0.192869
O O2 0.681941 0.144213 0.251817
O O3 0.616635 0.000000 0.151208
O O4 0.653427 0.169480 0.085480
O O5 0.318059 0.144213 0.748183
O O6 0.171987 0.171986 0.638780
O O7 0.357510 0.154455 0.584144
O O8 0.259069 0.000000 0.641333
O O9 0.851063 0.500000 0.192868
O O10 0.830520 0.346572 0.085480
O O11 0.000000 0.383366 0.151208
O O12 0.500000 0.240501 0.999999
O O13 0.663725 0.336276 0.000000
O O14 0.154454 0.642491 0.584144
O O15 0.000000 0.740932 0.641334
O O16 0.676396 0.676396 0.500000
O O17 0.754698 0.500000 0.500001
#
# Coordination Sequence:
#
# PCOD8309234 Si02
#       6
#     8   8   8   8   8   8
#     4   9  17  30  49  71  92 117 154 199 243 284
#     4  10  20  33  50  73 100 130 163 198 237 282
#     4   9  17  30  49  71  92 117 154 199 243 284
#     4  10  19  30  45  65  92 124 155 191 234 281
#     4  10  20  33  50  73 100 130 163 198 237 282
#     4  10  21  36  54  76 100 126 159 198 240 286
#
# _framework density 17.242235999999998
#
# number of rings (size 3 to 8) (size 9 to 14) (size 15 to 20)
#    0.000    2.333    0.000    3.000    0.000    5.333 
#    0.000    0.000    0.000    3.000    0.000    4.667 
#    0.000   12.000    0.000    0.000    0.000    0.000 
#
# Total GULP energy -595256.146209 kJ/mol
# GULP energy per Si atom -12401.169713 kJ/mol
# Density = 1.720299 g / cm^3
# Si number density = 17.242236 Si / 1000 Ang^3
#
#
#
# Elastic Constant Matrix: (Units=GPa)
#
#
# Indices 1 2 3 4 5 6 
#
# 1 87.7409 49.7381 52.3612 0.0000 0.0000 0.0000
# 2 49.7381 87.7380 52.3606 0.0000 0.0000 0.0000
# 3 52.3612 52.3606 128.2491 0.0000 0.0000 0.0000
# 4 0.0000 0.0000 0.0000 23.0815 0.0000 0.0000
# 5 0.0000 0.0000 0.0000 0.0000 23.0825 0.0000
# 6 0.0000 0.0000 0.0000 0.0000 0.0000 23.3126
#
#
#
# Elastic Compliance Matrix: (Units=1/GPa)
#
#
# Indices 1 2 3 4 5 6 
#
# 1 0.018436 -0.007879 -0.004310 0.000000 0.000000 0.000000
# 2 -0.007879 0.018436 -0.004310 0.000000 0.000000 0.000000
# 3 -0.004310 -0.004310 0.011317 0.000000 0.000000 0.000000
# 4 0.000000 0.000000 0.000000 0.043325 0.000000 0.000000
# 5 0.000000 0.000000 0.000000 0.000000 0.043323 0.000000
# 6 0.000000 0.000000 0.000000 0.000000 0.000000 0.042895
#
#
# Mechanical properties :
#
#
# Convention : Reuss Voigt Hill
#
# Bulk Modulus (GPa) = 65.83160 68.07198 66.95179
# Shear Modulus (GPa) = 23.17027 23.84653 23.50840
#
# Velocity S-wave (km/s) = 3.66978 3.72295 3.69646
# Velocity P-wave (km/s) = 7.49798 7.61879 7.55862
#
# Compressibility (1/GPa) = 0.01519027
#
# Stress axis : x y z
#
# Youngs Moduli (GPa) = 54.24266 54.24067 88.36396
#
# Poissons Ratio (x) = 0.42735 0.38086
# Poissons Ratio (y) = 0.42737 0.38088
# Poissons Ratio (z) = 0.23379 0.23379
#
# Static dielectric constant tensor:
#      x y z
#    x 3.064390 0.000000 0.000000 
#    y 0.000000 3.064400 0.000000 
#    z 0.000000 0.000000 3.432870 
# 
# 
# High freq. dielectric constant tensor:
#      x y z
#    x 1.657010 0.000000 0.000000 
#    y 0.000000 1.657010 0.000000 
#    z 0.000000 0.000000 1.685790 
# 
# From -- ./inp_files/2981.got.cif
#   From: 2010.03.12/outbox.cif.g09.slc.cpg/sg115_2_cif.got.tgz:2981.got - 2010.04.14 02:11:21.
