data_PCOD8309136
_publ_section_title
;
Structure prediction by ZEFSAII (Michael W. Deem and Ramdas Pophale) SiO2 
 PCOD8309136
Probable space group: P -4 21 C
;
_chemical_formula_sum "Si O2"
_cell_formula_units_Z 30
_cell_length_a 10.399057
_cell_length_b 10.399057
_cell_length_c 12.831449
_cell_angle_alpha 90.000000
_cell_angle_beta 90.000000
_cell_angle_gamma 90.000000
_cell_volume 1387.597854
_symmetry_space_group_name_H-M "P -4 21 C"
_symmetry_group_IT_number 114
_symmetry_cell_setting 'tetragonal'
loop_
_space_group_symop_operation_xyz
x,y,z
y,-x,-z
-x,-y,z
-y,x,-z
1/2+x,1/2-y,1/2-z
1/2-x,1/2+y,1/2-z
1/2-y,1/2-x,1/2+z
1/2+y,1/2+x,1/2+z
loop_
_atom_site_type_symbol
_atom_site_label
_atom_site_fract_x
_atom_site_fract_y
_atom_site_fract_z
Si Si1 0.113638 0.742466 0.524550
Si Si2 0.500000 0.000000 0.068731
Si Si3 0.878000 0.075354 0.331916
Si Si4 0.000000 0.000000 0.000000
Si Si5 0.763960 0.112128 0.120103
O O1 0.080640 0.825166 0.421588
O O2 0.264220 0.749085 0.547117
O O3 0.066865 0.599595 0.507702
O O4 0.034846 0.786973 0.624036
O O5 0.379772 0.946022 0.135709
O O6 0.810700 0.149654 0.236284
O O7 0.000000 0.000000 0.286862
O O8 0.869369 0.016366 0.068397
#
# Coordination Sequence:
#
# PCOD8309136 Si02
#       5
#     8   4   8   2   8
#     4  12  25  49  73 104 149 189 249 313 372 454
#     4  12  26  48  72 108 148 192 244 316 372 442
#     4  12  24  48  76 101 143 203 243 302 384 454
#     4  12  24  48  72 102 152 192 248 324 372 446
#     4  12  27  45  77 109 146 197 259 311 380 451
#
# _framework density 21.620096
#
# number of rings (size 3 to 8) (size 9 to 14) (size 15 to 20)
#    0.000    0.000    9.333    0.000    3.733    1.067 
#    9.600    0.000    0.000    0.000    0.000    0.000 
#    0.000    0.000    0.000    0.000    0.000    0.000 
#
# Total GULP energy -371969.364502 kJ/mol
# GULP energy per Si atom -12398.978817 kJ/mol
# Density = 2.157089 g / cm^3
# Si number density = 21.620096 Si / 1000 Ang^3
#
#
#
# Elastic Constant Matrix: (Units=GPa)
#
#
# Indices 1 2 3 4 5 6 
#
# 1 112.9695 23.1466 23.2731 0.0000 0.0000 0.0000
# 2 23.1466 112.9695 23.2731 0.0000 0.0000 0.0000
# 3 23.2731 23.2731 90.6150 0.0000 0.0000 0.0000
# 4 0.0000 0.0000 0.0000 34.7680 0.0000 0.0000
# 5 0.0000 0.0000 0.0000 0.0000 34.7680 0.0000
# 6 0.0000 0.0000 0.0000 0.0000 0.0000 43.5451
#
#
#
# Elastic Compliance Matrix: (Units=1/GPa)
#
#
# Indices 1 2 3 4 5 6 
#
# 1 0.009594 -0.001539 -0.002069 0.000000 0.000000 0.000000
# 2 -0.001539 0.009594 -0.002069 0.000000 0.000000 0.000000
# 3 -0.002069 -0.002069 0.012098 0.000000 0.000000 0.000000
# 4 0.000000 0.000000 0.000000 0.028762 0.000000 0.000000
# 5 0.000000 0.000000 0.000000 0.000000 0.028762 0.000000
# 6 0.000000 0.000000 0.000000 0.000000 0.000000 0.022965
#
#
# Mechanical properties :
#
#
# Convention : Reuss Voigt Hill
#
# Bulk Modulus (GPa) = 50.17034 50.65996 50.41515
# Shear Modulus (GPa) = 38.52931 39.07365 38.80148
#
# Velocity S-wave (km/s) = 4.22608 4.25583 4.24098
# Velocity P-wave (km/s) = 6.86067 6.90161 6.88117
#
# Compressibility (1/GPa) = 0.01993209
#
# Stress axis : x y z
#
# Youngs Moduli (GPa) = 104.23702 104.23702 82.65653
#
# Poissons Ratio (x) = 0.16047 0.17098
# Poissons Ratio (y) = 0.16047 0.17098
# Poissons Ratio (z) = 0.21562 0.21562
#
# Static dielectric constant tensor:
#      x y z
#    x 3.909440 0.000000 0.000000 
#    y 0.000000 3.909440 0.000000 
#    z 0.000000 0.000000 3.626490 
# 
# 
# High freq. dielectric constant tensor:
#      x y z
#    x 1.861880 0.000000 0.000000 
#    y 0.000000 1.861880 0.000000 
#    z 0.000000 0.000000 1.835970 
# 
# From -- ./inp_files/1331.got.cif
#   From: 2010.03.12/outbox.cif.g09.slc.cpg/sg114_1_cif.got.tgz:1331.got - 2010.04.14 02:08:34.
