data_PCOD8309111
_publ_section_title
;
Structure prediction by ZEFSAII (Michael W. Deem and Ramdas Pophale) SiO2 
 PCOD8309111
Probable space group: P -4 21 C
;
_chemical_formula_sum "Si O2"
_cell_formula_units_Z 42
_cell_length_a 11.553740
_cell_length_b 11.553740
_cell_length_c 15.450760
_cell_angle_alpha 90.000000
_cell_angle_beta 90.000000
_cell_angle_gamma 90.000000
_cell_volume 2062.505080
_symmetry_space_group_name_H-M "P -4 21 C"
_symmetry_group_IT_number 114
_symmetry_cell_setting 'tetragonal'
loop_
_space_group_symop_operation_xyz
x,y,z
y,-x,-z
-x,-y,z
-y,x,-z
1/2+x,1/2-y,1/2-z
1/2-x,1/2+y,1/2-z
1/2-y,1/2-x,1/2+z
1/2+y,1/2+x,1/2+z
loop_
_atom_site_type_symbol
_atom_site_label
_atom_site_fract_x
_atom_site_fract_y
_atom_site_fract_z
Si Si1 0.728850 0.749741 0.652914
Si Si2 0.501144 0.861146 0.593390
Si Si3 0.353365 0.621111 0.996964
Si Si4 0.242146 0.763846 0.147795
Si Si5 0.500000 0.500000 0.500000
Si Si6 0.243833 0.999257 0.918263
O O1 0.596536 0.792489 0.649168
O O2 0.801882 0.840323 0.595855
O O3 0.755373 0.727974 0.752549
O O4 0.768832 0.626643 0.616913
O O5 0.382364 0.796708 0.613707
O O6 0.529336 0.836179 0.493254
O O7 0.500000 0.000000 0.611597
O O8 0.484468 0.662072 0.001070
O O9 0.289967 0.666606 0.082952
O O10 0.103240 0.750979 0.149836
O O11 0.611348 0.503606 0.557629
#
# Coordination Sequence:
#
# PCOD8309111 Si02
#       6
#     8   8   8   8   2   8
#     4  12  27  44  70 104 138 180 232 288 349 415
#     4  12  24  46  70  99 139 182 232 294 342 412
#     4  11  25  48  69  95 142 190 228 279 345 422
#     4  12  27  44  70 104 138 180 232 288 349 415
#     4  12  16  44  72  92 124 170 236 280 344 400
#     4  12  22  44  72  97 133 184 228 287 350 411
#
# _framework density 20.363588
#
# number of rings (size 3 to 8) (size 9 to 14) (size 15 to 20)
#    0.000    0.190    7.619    1.143    8.000    0.000 
#    0.000    0.000    0.000    0.000    0.000    0.000 
#    0.000    0.000    0.000    0.000    0.000    0.000 
#
# Total GULP energy -520425.731878 kJ/mol
# GULP energy per Si atom -12391.088854 kJ/mol
# Density = 2.031724 g / cm^3
# Si number density = 20.363588 Si / 1000 Ang^3
#
#
#
# Elastic Constant Matrix: (Units=GPa)
#
#
# Indices 1 2 3 4 5 6 
#
# 1 51.8257 49.9721 13.5099 0.0000 0.0000 0.0000
# 2 49.9721 51.8257 13.5099 0.0000 0.0000 0.0000
# 3 13.5099 13.5099 109.8250 0.0000 0.0000 0.0000
# 4 0.0000 0.0000 0.0000 -13.7590 0.0000 0.0000
# 5 0.0000 0.0000 0.0000 0.0000 -13.7590 0.0000
# 6 0.0000 0.0000 0.0000 0.0000 0.0000 -24.2478
#
#
#
# Elastic Compliance Matrix: (Units=1/GPa)
#
#
# Indices 1 2 3 4 5 6 
#
# 1 0.274817 -0.264662 -0.001249 0.000000 0.000000 0.000000
# 2 -0.264662 0.274817 -0.001249 0.000000 0.000000 0.000000
# 3 -0.001249 -0.001249 0.009413 0.000000 0.000000 0.000000
# 4 0.000000 0.000000 0.000000 -0.072680 0.000000 0.000000
# 5 0.000000 0.000000 0.000000 0.000000 -0.072680 0.000000
# 6 0.000000 0.000000 0.000000 0.000000 0.000000 -0.041241
#
#
# Mechanical properties :
#
#
# Convention : Reuss Voigt Hill
#
# Bulk Modulus (GPa) = 40.44344 40.82891 40.63617
# Shear Modulus (GPa) = 5.46442 -1.25418 2.10512
#
# Velocity S-wave (km/s) = 1.63989 -0.78564 1.01785
# Velocity P-wave (km/s) = 4.84659 4.38982 4.62385
#
# Compressibility (1/GPa) = 0.02472589
#
# Stress axis : x y z
#
# Youngs Moduli (GPa) = 3.63878 3.63878 106.23916
#
# Poissons Ratio (x) = 0.96305 0.13271
# Poissons Ratio (y) = 0.96305 0.13271
# Poissons Ratio (z) = 0.00455 0.00455
#
# Static dielectric constant tensor:
#      x y z
#    x 3.889190 0.000000 0.000000 
#    y 0.000000 3.889190 0.000000 
#    z 0.000000 0.000000 5.098180 
# 
# 
# High freq. dielectric constant tensor:
#      x y z
#    x 1.814020 0.000000 0.000000 
#    y 0.000000 1.814020 0.000000 
#    z 0.000000 0.000000 1.788860 
# 
# From -- ./inp_files/2548.got.cif
#   From: 2010.03.12/outbox.cif.g09.slc.cpg/sg114_2_cif.got.tgz:2548.got - 2010.04.14 02:08:34.
