data_PCOD8309867
_publ_section_title
;
Structure prediction by ZEFSAII (Michael W. Deem and Ramdas Pophale) SiO2 
 PCOD8309867
Probable space group: P -4 M 2
;
_chemical_formula_sum "Si O2"
_cell_formula_units_Z 48
_cell_length_a 9.208905
_cell_length_b 9.208905
_cell_length_c 30.461688
_cell_angle_alpha 90.000000
_cell_angle_beta 90.000000
_cell_angle_gamma 90.000000
_cell_volume 2583.270896
_symmetry_space_group_name_H-M "P -4 M 2"
_symmetry_group_IT_number 115
_symmetry_cell_setting 'tetragonal'
loop_
_space_group_symop_operation_xyz
x,y,z
y,-x,-z
-x,-y,z
-y,x,-z
y,x,-z
-y,-x,-z
-x,y,z
x,-y,z
loop_
_atom_site_type_symbol
_atom_site_label
_atom_site_fract_x
_atom_site_fract_y
_atom_site_fract_z
Si Si1 0.667170 0.829433 0.961968
Si Si2 0.332973 0.669494 0.376353
Si Si3 0.668013 0.829600 0.710729
Si Si4 0.667216 0.332472 0.874617
Si Si5 0.170001 0.163732 0.550111
Si Si6 0.829234 0.667148 0.787014
O O1 0.500000 0.788493 0.971445
O O2 0.718088 0.762071 0.915904
O O3 0.691261 0.000000 0.959522
O O4 0.765913 0.765913 0.000000
O O5 0.500000 0.710017 0.368433
O O6 0.310059 0.500000 0.384063
O O7 0.243465 0.723039 0.334144
O O8 0.277562 0.748954 0.419511
O O9 0.500000 0.791334 0.719586
O O10 0.762962 0.768658 0.750053
O O11 0.694026 0.000000 0.706626
O O12 0.500000 0.302156 0.862568
O O13 0.693413 0.500000 0.886720
O O14 0.763693 0.284052 0.833495
O O15 0.205314 0.205314 0.500000
O O16 0.000000 0.174833 0.559163
O O17 0.224158 0.000000 0.560079
O O18 0.788437 0.500000 0.776997
O O19 0.000000 0.691359 0.788706
#
# Coordination Sequence:
#
# PCOD8309867 Si02
#       6
#     8   8   8   8   8   8
#     4  10  21  36  55  80 109 141 178 220 265 314
#     4  10  21  36  55  80 108 138 175 220 267 314
#     4  10  21  37  57  79 104 139 181 221 263 313
#     4   9  18  34  56  79 105 141 182 221 261 309
#     4   9  19  36  56  78 106 141 179 217 260 313
#     4  10  21  36  55  81 111 141 174 215 264 316
#
# _framework density 18.581095999999999
#
# number of rings (size 3 to 8) (size 9 to 14) (size 15 to 20)
#    0.000    2.333    0.000    2.500    0.000    7.000 
#    0.000    5.833    0.000    0.000    0.000    0.000 
#    0.000    0.000    0.000    0.000    0.000    0.000 
#
# Total GULP energy -595409.384885 kJ/mol
# GULP energy per Si atom -12404.362185 kJ/mol
# Density = 1.853880 g / cm^3
# Si number density = 18.581096 Si / 1000 Ang^3
#
#
#
# Elastic Constant Matrix: (Units=GPa)
#
#
# Indices 1 2 3 4 5 6 
#
# 1 82.5219 51.3168 74.8722 0.0000 0.0000 0.0000
# 2 51.3168 82.5219 74.8722 0.0000 0.0000 0.0000
# 3 74.8722 74.8722 151.9955 0.0000 0.0000 0.0000
# 4 0.0000 0.0000 0.0000 -33.8983 0.0000 0.0000
# 5 0.0000 0.0000 0.0000 0.0000 -33.8983 0.0000
# 6 0.0000 0.0000 0.0000 0.0000 0.0000 29.5416
#
#
#
# Elastic Compliance Matrix: (Units=1/GPa)
#
#
# Indices 1 2 3 4 5 6 
#
# 1 0.024346 -0.007700 -0.008200 0.000000 0.000000 0.000000
# 2 -0.007700 0.024346 -0.008200 0.000000 0.000000 0.000000
# 3 -0.008200 -0.008200 0.014657 0.000000 0.000000 0.000000
# 4 0.000000 0.000000 0.000000 -0.029500 0.000000 0.000000
# 5 0.000000 0.000000 0.000000 0.000000 -0.029500 0.000000
# 6 0.000000 0.000000 0.000000 0.000000 0.000000 0.033851
#
#
# Mechanical properties :
#
#
# Convention : Reuss Voigt Hill
#
# Bulk Modulus (GPa) = 66.00494 79.90683 72.95588
# Shear Modulus (GPa) = 54.67557 0.08089 27.37823
#
# Velocity S-wave (km/s) = 5.43040 0.20887 3.84271
# Velocity P-wave (km/s) = 8.65556 6.56931 7.68357
#
# Compressibility (1/GPa) = 0.01515038
#
# Stress axis : x y z
#
# Youngs Moduli (GPa) = 41.07465 41.07465 68.22531
#
# Poissons Ratio (x) = 0.31628 0.55942
# Poissons Ratio (y) = 0.31628 0.55942
# Poissons Ratio (z) = 0.33680 0.33680
#
# Static dielectric constant tensor:
#      x y z
#    x 3.405030 0.000000 0.000000 
#    y 0.000000 3.405030 0.000000 
#    z 0.000000 0.000000 3.477160 
# 
# 
# High freq. dielectric constant tensor:
#      x y z
#    x 1.718910 0.000000 0.000000 
#    y 0.000000 1.718910 0.000000 
#    z 0.000000 0.000000 1.731320 
# 
# From -- ./inp_files/5921.got.cif
#   From: 2010.03.12/outbox.cif.g09.slc.cpg/sg115_3_cif.got.tgz:5921.got - 2010.04.14 02:11:21.
