data_PCOD8309484
_publ_section_title
;
Structure prediction by ZEFSAII (Michael W. Deem and Ramdas Pophale) SiO2 
 PCOD8309484
Probable space group: P -4 M 2
;
_chemical_formula_sum "Si O2"
_cell_formula_units_Z 40
_cell_length_a 9.260561
_cell_length_b 9.260561
_cell_length_c 25.458781
_cell_angle_alpha 90.000000
_cell_angle_beta 90.000000
_cell_angle_gamma 90.000000
_cell_volume 2183.293887
_symmetry_space_group_name_H-M "P -4 M 2"
_symmetry_group_IT_number 115
_symmetry_cell_setting 'tetragonal'
loop_
_space_group_symop_operation_xyz
x,y,z
y,-x,-z
-x,-y,z
-y,x,-z
y,x,-z
-y,-x,-z
-x,y,z
x,-y,z
loop_
_atom_site_type_symbol
_atom_site_label
_atom_site_fract_x
_atom_site_fract_y
_atom_site_fract_z
Si Si1 0.828712 0.159581 0.645162
Si Si2 0.333779 0.829418 0.454287
Si Si3 0.332151 0.331063 0.147835
Si Si4 0.165569 0.833471 0.060692
Si Si5 0.165854 0.830342 0.762183
O O1 0.773655 0.272159 0.601560
O O2 0.779602 0.208608 0.703304
O O3 0.000000 0.150847 0.645232
O O4 0.766315 0.000000 0.632054
O O5 0.247602 0.752399 0.500000
O O6 0.500000 0.784334 0.457147
O O7 0.312023 0.000000 0.460534
O O8 0.500000 0.293872 0.150612
O O9 0.301806 0.500000 0.147340
O O10 0.269720 0.265782 0.094454
O O11 0.256458 0.265197 0.198473
O O12 0.000000 0.796054 0.074094
O O13 0.196386 0.000000 0.074252
O O14 0.198299 0.801702 0.000000
O O15 0.000000 0.783197 0.770384
O O16 0.182582 0.000000 0.772773
#
# Coordination Sequence:
#
# PCOD8309484 Si02
#       5
#     8   8   8   8   8
#     4   8  15  30  53  79 103 128 164 213 263 305
#     4  10  20  33  51  76 104 135 172 211 253 305
#     4  11  24  37  49  73 110 146 177 209 249 301
#     4   9  19  37  60  83 104 129 168 217 263 307
#     4   9  18  34  57  82 104 129 168 216 261 307
#
# _framework density 18.320941999999999
#
# number of rings (size 3 to 8) (size 9 to 14) (size 15 to 20)
#    0.000    2.600    0.000    3.600    0.000    7.600 
#    0.000    6.000    0.000    1.200    0.000    0.000 
#    0.000    0.000    0.000    0.000    0.000    0.000 
#
# Total GULP energy -495981.810785 kJ/mol
# GULP energy per Si atom -12399.545270 kJ/mol
# Density = 1.827924 g / cm^3
# Si number density = 18.320942 Si / 1000 Ang^3
#
#
#
# Elastic Constant Matrix: (Units=GPa)
#
#
# Indices 1 2 3 4 5 6 
#
# 1 73.8062 54.6457 64.4391 0.0000 0.0000 0.0000
# 2 54.6457 73.8008 64.4372 0.0000 0.0000 0.0000
# 3 64.4391 64.4372 143.3433 0.0000 0.0000 0.0000
# 4 0.0000 0.0000 0.0000 -9.5402 0.0000 0.0000
# 5 0.0000 0.0000 0.0000 0.0000 -9.5421 0.0000
# 6 0.0000 0.0000 0.0000 0.0000 0.0000 28.0248
#
#
#
# Elastic Compliance Matrix: (Units=1/GPa)
#
#
# Indices 1 2 3 4 5 6 
#
# 1 0.033188 -0.019008 -0.006375 0.000000 0.000000 0.000000
# 2 -0.019008 0.033191 -0.006375 0.000000 0.000000 0.000000
# 3 -0.006375 -0.006375 0.012708 0.000000 0.000000 0.000000
# 4 0.000000 0.000000 0.000000 -0.104820 0.000000 0.000000
# 5 0.000000 0.000000 0.000000 0.000000 -0.104798 0.000000
# 6 0.000000 0.000000 0.000000 0.000000 0.000000 0.035683
#
#
# Mechanical properties :
#
#
# Convention : Reuss Voigt Hill
#
# Bulk Modulus (GPa) = 64.22402 73.11049 68.66725
# Shear Modulus (GPa) = -191.27160 8.95038 -91.16061
#
# Velocity S-wave (km/s) = -10.22874 2.21268 -7.06156
# Velocity P-wave (km/s) = 10.21625 6.82055 5.37828
#
# Compressibility (1/GPa) = 0.01557050
#
# Stress axis : x y z
#
# Youngs Moduli (GPa) = 30.13103 30.12850 78.69084
#
# Poissons Ratio (x) = 0.57269 0.50164
# Poissons Ratio (y) = 0.57274 0.50169
# Poissons Ratio (z) = 0.19208 0.19208
#
# Static dielectric constant tensor:
#      x y z
#    x 3.289170 0.000000 0.000000 
#    y 0.000000 3.289170 0.000000 
#    z 0.000000 0.000000 3.613170 
# 
# 
# High freq. dielectric constant tensor:
#      x y z
#    x 1.695610 0.000000 0.000000 
#    y 0.000000 1.695610 0.000000 
#    z 0.000000 0.000000 1.728340 
# 
# From -- ./inp_files/5114.got.cif
#   From: 2010.03.12/outbox.cif.g09.slc.cpg/sg115_3_cif.got.tgz:5114.got - 2010.04.14 02:11:21.
