data_PCOD8309337
_publ_section_title
;
Structure prediction by ZEFSAII (Michael W. Deem and Ramdas Pophale) SiO2 
 PCOD8309337
Probable space group: P -4 M 2
;
_chemical_formula_sum "Si O2"
_cell_formula_units_Z 40
_cell_length_a 9.495664
_cell_length_b 9.495664
_cell_length_c 25.900749
_cell_angle_alpha 90.000000
_cell_angle_beta 90.000000
_cell_angle_gamma 90.000000
_cell_volume 2335.409277
_symmetry_space_group_name_H-M "P -4 M 2"
_symmetry_group_IT_number 115
_symmetry_cell_setting 'tetragonal'
loop_
_space_group_symop_operation_xyz
x,y,z
y,-x,-z
-x,-y,z
-y,x,-z
y,x,-z
-y,-x,-z
-x,y,z
x,-y,z
loop_
_atom_site_type_symbol
_atom_site_label
_atom_site_fract_x
_atom_site_fract_y
_atom_site_fract_z
Si Si1 0.166825 0.157481 0.139745
Si Si2 0.842084 0.167404 0.746464
Si Si3 0.666993 0.159955 0.540547
Si Si4 0.665320 0.165610 0.957228
Si Si5 0.832570 0.655667 0.345130
O O1 0.219276 0.207658 0.196565
O O2 0.216664 0.270390 0.097426
O O3 0.000000 0.149193 0.140471
O O4 0.225455 0.000000 0.127031
O O5 0.748710 0.234382 0.700785
O O6 0.000000 0.219839 0.736895
O O7 0.833730 0.000000 0.743808
O O8 0.737616 0.262385 0.500000
O O9 0.500000 0.173401 0.536138
O O10 0.715745 0.206530 0.598195
O O11 0.714683 0.000000 0.529311
O O12 0.500000 0.199685 0.957487
O O13 0.693533 0.000000 0.966984
O O14 0.743667 0.256334 0.000000
O O15 0.769214 0.500000 0.338300
O O16 0.000000 0.649737 0.340717
#
# Coordination Sequence:
#
# PCOD8309337 Si02
#       5
#     8   8   8   8   8
#     4   8  14  25  41  62  89 119 149 183 223 266
#     4   8  13  21  35  58  87 116 145 177 216 264
#     4   9  18  31  45  64  90 119 154 193 231 274
#     4  10  20  32  47  68  92 120 155 191 228 272
#     4   8  14  24  37  55  83 116 145 178 223 270
#
# _framework density 17.127617999999998
#
# number of rings (size 3 to 8) (size 9 to 14) (size 15 to 20)
#    0.000    3.400    0.000    3.000    0.000    3.200 
#    0.000    6.000    0.000    0.000    0.000    1.400 
#    0.000    8.000    0.000    0.000    0.000    0.000 
#
# Total GULP energy -495627.709479 kJ/mol
# GULP energy per Si atom -12390.692737 kJ/mol
# Density = 1.708864 g / cm^3
# Si number density = 17.127618 Si / 1000 Ang^3
#
#
#
# Elastic Constant Matrix: (Units=GPa)
#
#
# Indices 1 2 3 4 5 6 
#
# 1 51.2711 28.6259 59.9495 0.0000 0.0000 0.0000
# 2 28.6259 51.2696 59.9479 0.0000 0.0000 0.0000
# 3 59.9495 59.9479 177.0334 0.0000 0.0000 0.0000
# 4 0.0000 0.0000 0.0000 0.7324 0.0000 0.0000
# 5 0.0000 0.0000 0.0000 0.0000 0.7339 0.0000
# 6 0.0000 0.0000 0.0000 0.0000 0.0000 15.9535
#
#
#
# Elastic Compliance Matrix: (Units=1/GPa)
#
#
# Indices 1 2 3 4 5 6 
#
# 1 0.034804 -0.009356 -0.008618 0.000000 0.000000 0.000000
# 2 -0.009356 0.034805 -0.008617 0.000000 0.000000 0.000000
# 3 -0.008618 -0.008617 0.011485 0.000000 0.000000 0.000000
# 4 0.000000 0.000000 0.000000 1.365322 0.000000 0.000000
# 5 0.000000 0.000000 0.000000 0.000000 1.362657 0.000000
# 6 0.000000 0.000000 0.000000 0.000000 0.000000 0.062682
#
#
# Mechanical properties :
#
#
# Convention : Reuss Voigt Hill
#
# Bulk Modulus (GPa) = 35.82775 64.06896 49.94835
# Shear Modulus (GPa) = 1.70402 12.22067 6.96234
#
# Velocity S-wave (km/s) = 0.99853 2.67405 2.01837
# Velocity P-wave (km/s) = 4.72154 6.85727 5.88706
#
# Compressibility (1/GPa) = 0.02791133
#
# Stress axis : x y z
#
# Youngs Moduli (GPa) = 28.73201 28.73159 87.07055
#
# Poissons Ratio (x) = 0.26882 0.75034
# Poissons Ratio (y) = 0.26883 0.75032
# Poissons Ratio (z) = 0.24760 0.24759
#
# Static dielectric constant tensor:
#      x y z
#    x 2.955230 0.000000 0.000000 
#    y 0.000000 2.955230 0.000000 
#    z 0.000000 0.000000 3.715670 
# 
# 
# High freq. dielectric constant tensor:
#      x y z
#    x 1.622470 0.000000 0.000000 
#    y 0.000000 1.622470 0.000000 
#    z 0.000000 0.000000 1.680910 
# 
# From -- ./inp_files/5450.got.cif
#   From: 2010.03.12/outbox.cif.g09.slc.cpg/sg115_3_cif.got.tgz:5450.got - 2010.04.14 02:11:21.
