data_PCOD8309299
_publ_section_title
;
Structure prediction by ZEFSAII (Michael W. Deem and Ramdas Pophale) SiO2 
 PCOD8309299
Probable space group: P -4 M 2
;
_chemical_formula_sum "Si O2"
_cell_formula_units_Z 64
_cell_length_a 12.800348
_cell_length_b 12.800348
_cell_length_c 21.886755
_cell_angle_alpha 90.000000
_cell_angle_beta 90.000000
_cell_angle_gamma 90.000000
_cell_volume 3586.120927
_symmetry_space_group_name_H-M "P -4 M 2"
_symmetry_group_IT_number 115
_symmetry_cell_setting 'tetragonal'
loop_
_space_group_symop_operation_xyz
x,y,z
y,-x,-z
-x,-y,z
-y,x,-z
y,x,-z
-y,-x,-z
-x,y,z
x,-y,z
loop_
_atom_site_type_symbol
_atom_site_label
_atom_site_fract_x
_atom_site_fract_y
_atom_site_fract_z
Si Si1 0.620646 0.887247 0.587238
Si Si2 0.241644 0.268722 0.654725
Si Si3 0.379902 0.231074 0.468183
Si Si4 0.877357 0.382609 0.918968
Si Si5 0.256684 0.235730 0.840337
Si Si6 0.618549 0.122718 0.944454
Si Si7 0.121811 0.121957 0.741898
Si Si8 0.621078 0.621503 0.248421
O O1 0.500000 0.888017 0.602628
O O2 0.668240 0.809931 0.635846
O O3 0.639521 0.861148 0.516223
O O4 0.671794 0.000000 0.598136
O O5 0.195968 0.324018 0.594398
O O6 0.149832 0.202127 0.686943
O O7 0.298359 0.355327 0.696387
O O8 0.335810 0.335810 0.500000
O O9 0.500000 0.252484 0.453886
O O10 0.835755 0.500000 0.910540
O O11 0.828975 0.314130 0.865854
O O12 0.000000 0.378455 0.909903
O O13 0.847600 0.343521 0.987141
O O14 0.306965 0.176447 0.896464
O O15 0.197515 0.151773 0.797960
O O16 0.346867 0.301248 0.806293
O O17 0.500000 0.161257 0.934726
O O18 0.625177 0.000000 0.934316
O O19 0.000000 0.138437 0.758779
O O20 0.141755 0.000000 0.724519
O O21 0.500000 0.636425 0.229406
O O22 0.641714 0.500000 0.266091
#
# Coordination Sequence:
#
# PCOD8309299 Si02
#       8
#     8   8   8   8   8   8   8   8
#     4   9  17  30  49  73  98 120 147 190 240 285
#     4  10  19  33  53  70  93 129 168 198 233 289
#     4   9  18  31  48  74 102 128 159 194 236 287
#     4   9  18  32  50  73 100 128 159 197 241 291
#     4  11  19  32  53  73  95 128 166 201 242 295
#     4   9  18  32  50  74 101 126 156 197 244 294
#     4  10  22  37  51  70  96 127 166 213 258 294
#     4  10  21  34  48  70 100 131 162 199 238 276
#
# _framework density 17.846581
#
# number of rings (size 3 to 8) (size 9 to 14) (size 15 to 20)
#    0.000    2.375    0.000    3.750    0.000    1.125 
#    0.000    0.000    0.000   13.125    0.000   16.625 
#    0.000    0.000    0.000    0.000    0.000    0.000 
#
# Total GULP energy -793327.187234 kJ/mol
# GULP energy per Si atom -12395.737301 kJ/mol
# Density = 1.780596 g / cm^3
# Si number density = 17.846581 Si / 1000 Ang^3
#
#
#
# Elastic Constant Matrix: (Units=GPa)
#
#
# Indices 1 2 3 4 5 6 
#
# 1 66.7103 26.5739 14.8006 0.0000 0.0000 0.0000
# 2 26.5739 66.7103 14.8006 0.0000 0.0000 0.0000
# 3 14.8006 14.8006 59.3701 0.0000 0.0000 0.0000
# 4 0.0000 0.0000 0.0000 25.1854 0.0000 0.0000
# 5 0.0000 0.0000 0.0000 0.0000 25.1854 0.0000
# 6 0.0000 0.0000 0.0000 0.0000 0.0000 27.3075
#
#
#
# Elastic Compliance Matrix: (Units=1/GPa)
#
#
# Indices 1 2 3 4 5 6 
#
# 1 0.018278 -0.006637 -0.002902 0.000000 0.000000 0.000000
# 2 -0.006637 0.018278 -0.002902 0.000000 0.000000 0.000000
# 3 -0.002902 -0.002902 0.018290 0.000000 0.000000 0.000000
# 4 0.000000 0.000000 0.000000 0.039705 0.000000 0.000000
# 5 0.000000 0.000000 0.000000 0.000000 0.039705 0.000000
# 6 0.000000 0.000000 0.000000 0.000000 0.000000 0.036620
#
#
# Mechanical properties :
#
#
# Convention : Reuss Voigt Hill
#
# Bulk Modulus (GPa) = 33.37330 33.90453 33.63891
# Shear Modulus (GPa) = 24.30165 24.64338 24.47251
#
# Velocity S-wave (km/s) = 3.69412 3.72000 3.70709
# Velocity P-wave (km/s) = 6.07751 6.12293 6.10026
#
# Compressibility (1/GPa) = 0.02996407
#
# Stress axis : x y z
#
# Youngs Moduli (GPa) = 54.71082 54.71082 54.67350
#
# Poissons Ratio (x) = 0.36312 0.15866
# Poissons Ratio (y) = 0.36312 0.15866
# Poissons Ratio (z) = 0.15877 0.15877
#
# Static dielectric constant tensor:
#      x y z
#    x 3.311710 0.000000 0.000000 
#    y 0.000000 3.311710 0.000000 
#    z 0.000000 0.000000 3.351630 
# 
# 
# High freq. dielectric constant tensor:
#      x y z
#    x 1.689050 0.000000 0.000000 
#    y 0.000000 1.689050 0.000000 
#    z 0.000000 0.000000 1.695530 
# 
# From -- ./inp_files/5384.got.cif
#   From: 2010.03.12/outbox.cif.g09.slc.cpg/sg115_3_cif.got.tgz:5384.got - 2010.04.14 02:11:21.
