data_PCOD8309379
_publ_section_title
;
Structure prediction by ZEFSAII (Michael W. Deem and Ramdas Pophale) SiO2 
 PCOD8309379
Probable space group: P -4 M 2
;
_chemical_formula_sum "Si O2"
_cell_formula_units_Z 40
_cell_length_a 9.135778
_cell_length_b 9.135778
_cell_length_c 25.701855
_cell_angle_alpha 90.000000
_cell_angle_beta 90.000000
_cell_angle_gamma 90.000000
_cell_volume 2145.139522
_symmetry_space_group_name_H-M "P -4 M 2"
_symmetry_group_IT_number 115
_symmetry_cell_setting 'tetragonal'
loop_
_space_group_symop_operation_xyz
x,y,z
y,-x,-z
-x,-y,z
-y,x,-z
y,x,-z
-y,-x,-z
-x,y,z
x,-y,z
loop_
_atom_site_type_symbol
_atom_site_label
_atom_site_fract_x
_atom_site_fract_y
_atom_site_fract_z
Si Si1 0.174538 0.334612 0.250105
Si Si2 0.327897 0.830593 0.953837
Si Si3 0.671378 0.334682 0.440696
Si Si4 0.168205 0.828311 0.648302
Si Si5 0.826055 0.164945 0.149805
O O1 0.234343 0.500000 0.248179
O O2 0.233034 0.258723 0.302565
O O3 0.237455 0.246839 0.200523
O O4 0.000000 0.332302 0.248935
O O5 0.500000 0.807327 0.947625
O O6 0.251620 0.774452 0.901199
O O7 0.289314 0.000000 0.965045
O O8 0.268314 0.731687 0.000000
O O9 0.707808 0.292193 0.500000
O O10 0.500000 0.322005 0.430232
O O11 0.724809 0.500000 0.429036
O O12 0.754566 0.221806 0.404365
O O13 0.000000 0.788144 0.657784
O O14 0.191949 0.000000 0.642162
O O15 0.000000 0.162273 0.152703
O O16 0.763361 0.000000 0.147990
#
# Coordination Sequence:
#
# PCOD8309379 Si02
#       5
#     8   8   8   8   8
#     4   9  16  27  45  70 101 136 172 209 250 298
#     4  10  20  33  50  73 100 131 168 208 251 302
#     4   9  19  36  55  73  95 127 168 211 255 306
#     4  10  20  32  48  74 106 136 168 208 253 301
#     4   9  16  27  46  72 101 131 165 209 257 301
#
# _framework density 18.646806999999999
#
# number of rings (size 3 to 8) (size 9 to 14) (size 15 to 20)
#    0.000    2.600    0.000    3.000    0.000    8.400 
#    0.000    3.000    0.000    1.200    0.000    0.000 
#    0.000    0.000    0.000    0.000    0.000    0.000 
#
# Total GULP energy -496045.892729 kJ/mol
# GULP energy per Si atom -12401.147318 kJ/mol
# Density = 1.860437 g / cm^3
# Si number density = 18.646807 Si / 1000 Ang^3
#
#
#
# Elastic Constant Matrix: (Units=GPa)
#
#
# Indices 1 2 3 4 5 6 
#
# 1 79.6546 39.8686 64.0518 0.0000 0.0000 0.0000
# 2 39.8686 79.6559 64.0529 0.0000 0.0000 0.0000
# 3 64.0518 64.0529 159.5758 0.0000 0.0000 0.0000
# 4 0.0000 0.0000 0.0000 11.2059 0.0000 0.0000
# 5 0.0000 0.0000 0.0000 0.0000 11.2057 0.0000
# 6 0.0000 0.0000 0.0000 0.0000 0.0000 21.4031
#
#
#
# Elastic Compliance Matrix: (Units=1/GPa)
#
#
# Indices 1 2 3 4 5 6 
#
# 1 0.019909 -0.005225 -0.005894 0.000000 0.000000 0.000000
# 2 -0.005225 0.019909 -0.005894 0.000000 0.000000 0.000000
# 3 -0.005894 -0.005894 0.010998 0.000000 0.000000 0.000000
# 4 0.000000 0.000000 0.000000 0.089239 0.000000 0.000000
# 5 0.000000 0.000000 0.000000 0.000000 0.089240 0.000000
# 6 0.000000 0.000000 0.000000 0.000000 0.000000 0.046722
#
#
# Mechanical properties :
#
#
# Convention : Reuss Voigt Hill
#
# Bulk Modulus (GPa) = 59.56018 72.75923 66.15970
# Shear Modulus (GPa) = 15.84088 18.82381 17.33235
#
# Velocity S-wave (km/s) = 2.91782 3.18070 3.05209
# Velocity P-wave (km/s) = 6.58499 7.25214 6.92660
#
# Compressibility (1/GPa) = 0.01678974
#
# Stress axis : x y z
#
# Youngs Moduli (GPa) = 50.22892 50.22930 90.92497
#
# Poissons Ratio (x) = 0.26246 0.53589
# Poissons Ratio (y) = 0.26246 0.53590
# Poissons Ratio (z) = 0.29604 0.29605
#
# Static dielectric constant tensor:
#      x y z
#    x 3.232340 0.000000 0.000000 
#    y 0.000000 3.232340 0.000000 
#    z 0.000000 0.000000 3.575380 
# 
# 
# High freq. dielectric constant tensor:
#      x y z
#    x 1.702360 0.000000 0.000000 
#    y 0.000000 1.702360 0.000000 
#    z 0.000000 0.000000 1.740220 
# 
# From -- ./inp_files/5079.got.cif
#   From: 2010.03.12/outbox.cif.g09.slc.cpg/sg115_3_cif.got.tgz:5079.got - 2010.04.14 02:11:21.
