data_PCOD8309672
_publ_section_title
;
Structure prediction by ZEFSAII (Michael W. Deem and Ramdas Pophale) SiO2 
 PCOD8309672
Probable space group: P -4 M 2
;
_chemical_formula_sum "Si O2"
_cell_formula_units_Z 40
_cell_length_a 9.035195
_cell_length_b 9.035195
_cell_length_c 26.119441
_cell_angle_alpha 90.000000
_cell_angle_beta 90.000000
_cell_angle_gamma 90.000000
_cell_volume 2132.254002
_symmetry_space_group_name_H-M "P -4 M 2"
_symmetry_group_IT_number 115
_symmetry_cell_setting 'tetragonal'
loop_
_space_group_symop_operation_xyz
x,y,z
y,-x,-z
-x,-y,z
-y,x,-z
y,x,-z
-y,-x,-z
-x,y,z
x,-y,z
loop_
_atom_site_type_symbol
_atom_site_label
_atom_site_fract_x
_atom_site_fract_y
_atom_site_fract_z
Si Si1 0.171735 0.828265 0.000000
Si Si2 0.329511 0.674018 0.796027
Si Si3 0.172412 0.824234 0.889217
Si Si4 0.176007 0.666864 0.399060
Si Si5 0.828478 0.173717 0.297324
Si Si6 0.172553 0.172553 0.500000
O O1 0.232614 0.767792 0.945422
O O2 0.000000 0.795592 0.998667
O O3 0.500000 0.717661 0.787582
O O4 0.306678 0.500000 0.798856
O O5 0.273861 0.743238 0.848616
O O6 0.233806 0.736043 0.749773
O O7 0.000000 0.782293 0.881049
O O8 0.191512 0.000000 0.883759
O O9 0.236337 0.500000 0.396921
O O10 0.233968 0.752882 0.349174
O O11 0.237009 0.744427 0.450284
O O12 0.000000 0.672342 0.400044
O O13 0.000000 0.213958 0.288480
O O14 0.804593 0.000000 0.302090
O O15 0.000000 0.204120 0.508021
#
# Coordination Sequence:
#
# PCOD8309672 Si02
#       6
#     4   8   8   8   8   4
#     4   7  12  26  50  79 106 128 158 207 258 299
#     4  11  24  38  50  70 104 142 175 209 254 307
#     4   9  17  32  56  82 104 130 168 212 256 303
#     4   9  17  30  50  76 104 133 166 206 252 301
#     4  10  20  35  57  82 103 128 169 218 264 309
#     4   9  16  28  48  73 100 130 166 207 246 288
#
# _framework density 18.75949
#
# number of rings (size 3 to 8) (size 9 to 14) (size 15 to 20)
#    0.000    2.600    0.000    3.600    0.000    8.000 
#    0.000    2.000    0.000    8.700    0.000    0.000 
#    0.000    0.000    0.000    0.000    0.000    0.000 
#
# Total GULP energy -495809.479214 kJ/mol
# GULP energy per Si atom -12395.236980 kJ/mol
# Density = 1.871679 g / cm^3
# Si number density = 18.759490 Si / 1000 Ang^3
#
#
#
# Elastic Constant Matrix: (Units=GPa)
#
#
# Indices 1 2 3 4 5 6 
#
# 1 57.4689 29.1104 43.9052 0.0000 0.0000 0.0000
# 2 29.1104 57.4693 43.9052 0.0000 0.0000 0.0000
# 3 43.9052 43.9052 175.5785 0.0000 0.0000 0.0000
# 4 0.0000 0.0000 0.0000 -5.4092 0.0000 0.0000
# 5 0.0000 0.0000 0.0000 0.0000 -5.4090 0.0000
# 6 0.0000 0.0000 0.0000 0.0000 0.0000 22.2096
#
#
#
# Elastic Compliance Matrix: (Units=1/GPa)
#
#
# Indices 1 2 3 4 5 6 
#
# 1 0.025369 -0.009894 -0.003870 0.000000 0.000000 0.000000
# 2 -0.009894 0.025369 -0.003870 0.000000 0.000000 0.000000
# 3 -0.003870 -0.003870 0.007631 0.000000 0.000000 0.000000
# 4 0.000000 0.000000 0.000000 -0.184870 0.000000 0.000000
# 5 0.000000 0.000000 0.000000 0.000000 -0.184877 0.000000
# 6 0.000000 0.000000 0.000000 0.000000 0.000000 0.045026
#
#
# Mechanical properties :
#
#
# Convention : Reuss Voigt Hill
#
# Bulk Modulus (GPa) = 43.28690 58.26206 50.77448
# Shear Modulus (GPa) = -22.38266 13.85134 -4.26566
#
# Velocity S-wave (km/s) = -3.45793 2.72023 -1.50957
# Velocity P-wave (km/s) = 2.67987 6.40242 4.90779
#
# Compressibility (1/GPa) = 0.02310168
#
# Stress axis : x y z
#
# Youngs Moduli (GPa) = 39.41861 39.41891 131.04916
#
# Poissons Ratio (x) = 0.39001 0.50711
# Poissons Ratio (y) = 0.39001 0.50710
# Poissons Ratio (z) = 0.15254 0.15253
#
# Static dielectric constant tensor:
#      x y z
#    x 3.248740 0.000000 0.000000 
#    y 0.000000 3.248730 0.000000 
#    z 0.000000 0.000000 3.881400 
# 
# 
# High freq. dielectric constant tensor:
#      x y z
#    x 1.704090 0.000000 0.000000 
#    y 0.000000 1.704090 0.000000 
#    z 0.000000 0.000000 1.755670 
# 
# From -- ./inp_files/5569.got.cif
#   From: 2010.03.12/outbox.cif.g09.slc.cpg/sg115_3_cif.got.tgz:5569.got - 2010.04.14 02:11:21.
