data_PCOD8309881
_publ_section_title
;
Structure prediction by ZEFSAII (Michael W. Deem and Ramdas Pophale) SiO2 
 PCOD8309881
Probable space group: P -4 M 2
;
_chemical_formula_sum "Si O2"
_cell_formula_units_Z 32
_cell_length_a 9.018699
_cell_length_b 9.018699
_cell_length_c 20.511684
_cell_angle_alpha 90.000000
_cell_angle_beta 90.000000
_cell_angle_gamma 90.000000
_cell_volume 1668.357440
_symmetry_space_group_name_H-M "P -4 M 2"
_symmetry_group_IT_number 115
_symmetry_cell_setting 'tetragonal'
loop_
_space_group_symop_operation_xyz
x,y,z
y,-x,-z
-x,-y,z
-y,x,-z
y,x,-z
-y,-x,-z
-x,y,z
x,-y,z
loop_
_atom_site_type_symbol
_atom_site_label
_atom_site_fract_x
_atom_site_fract_y
_atom_site_fract_z
Si Si1 0.324475 0.167927 0.869652
Si Si2 0.829283 0.825503 0.618469
Si Si3 0.827769 0.671666 0.751504
Si Si4 0.672432 0.327569 0.500000
Si Si5 0.672209 0.327792 0.000000
O O1 0.500000 0.174625 0.865357
O O2 0.261763 0.265939 0.811874
O O3 0.270406 0.235488 0.938118
O O4 0.265490 0.000000 0.863976
O O5 0.776953 0.756221 0.686559
O O6 0.725820 0.761415 0.562682
O O7 0.000000 0.784123 0.603283
O O8 0.806335 0.000000 0.622430
O O9 0.789398 0.500000 0.742248
O O10 0.000000 0.698473 0.765310
O O11 0.500000 0.295196 0.488625
O O12 0.500000 0.297863 0.014567
#
# Coordination Sequence:
#
# PCOD8309881 Si02
#       5
#     8   8   8   4   4
#     4  10  21  36  55  81 112 145 182 225 274 328
#     4  10  21  38  60  84 110 143 183 226 274 327
#     4  10  21  37  58  83 111 145 184 226 273 325
#     4  11  24  39  56  82 114 147 184 225 270 322
#     4   9  18  34  54  75 104 144 186 227 272 323
#
# _framework density 19.180541000000002
#
# number of rings (size 3 to 8) (size 9 to 14) (size 15 to 20)
#    0.000    2.000    0.000    3.000    0.000    9.000 
#    0.000    2.500    0.000    0.000    0.000    0.000 
#    0.000    0.000    0.000    0.000    0.000    0.000 
#
# Total GULP energy -396965.779185 kJ/mol
# GULP energy per Si atom -12405.180600 kJ/mol
# Density = 1.913688 g / cm^3
# Si number density = 19.180541 Si / 1000 Ang^3
#
#
#
# Elastic Constant Matrix: (Units=GPa)
#
#
# Indices 1 2 3 4 5 6 
#
# 1 69.5957 34.5848 52.2799 0.0000 0.0000 0.0000
# 2 34.5848 69.5966 52.2796 0.0000 0.0000 0.0000
# 3 52.2799 52.2796 147.5373 0.0000 0.0000 0.0000
# 4 0.0000 0.0000 0.0000 40.9642 0.0000 0.0000
# 5 0.0000 0.0000 0.0000 0.0000 40.9645 0.0000
# 6 0.0000 0.0000 0.0000 0.0000 0.0000 29.3841
#
#
#
# Elastic Compliance Matrix: (Units=1/GPa)
#
#
# Indices 1 2 3 4 5 6 
#
# 1 0.021730 -0.006833 -0.005279 0.000000 0.000000 0.000000
# 2 -0.006833 0.021729 -0.005278 0.000000 0.000000 0.000000
# 3 -0.005279 -0.005278 0.010519 0.000000 0.000000 0.000000
# 4 0.000000 0.000000 0.000000 0.024412 0.000000 0.000000
# 5 0.000000 0.000000 0.000000 0.000000 0.024411 0.000000
# 6 0.000000 0.000000 0.000000 0.000000 0.000000 0.034032
#
#
# Mechanical properties :
#
#
# Convention : Reuss Voigt Hill
#
# Bulk Modulus (GPa) = 52.09010 62.77981 57.43495
# Shear Modulus (GPa) = 28.08808 32.10158 30.09483
#
# Velocity S-wave (km/s) = 3.83091 4.09547 3.96539
# Velocity P-wave (km/s) = 6.83992 7.42737 7.13969
#
# Compressibility (1/GPa) = 0.01919751
#
# Stress axis : x y z
#
# Youngs Moduli (GPa) = 46.02027 46.02135 95.06761
#
# Poissons Ratio (x) = 0.31446 0.50183
# Poissons Ratio (y) = 0.31445 0.50180
# Poissons Ratio (z) = 0.24293 0.24292
#
# Static dielectric constant tensor:
#      x y z
#    x 3.491020 0.000000 0.000000 
#    y 0.000000 3.491020 0.000000 
#    z 0.000000 0.000000 3.700240 
# 
# 
# High freq. dielectric constant tensor:
#      x y z
#    x 1.748250 0.000000 0.000000 
#    y 0.000000 1.748240 0.000000 
#    z 0.000000 0.000000 1.760850 
# 
# From -- ./inp_files/4646.got.cif
#   From: 2010.03.12/outbox.cif.g09.slc.cpg/sg115_3_cif.got.tgz:4646.got - 2010.04.14 02:11:21.
