data_PCOD8309676
_publ_section_title
;
Structure prediction by ZEFSAII (Michael W. Deem and Ramdas Pophale) SiO2 
 PCOD8309676
Probable space group: P -4 M 2
;
_chemical_formula_sum "Si O2"
_cell_formula_units_Z 48
_cell_length_a 9.119290
_cell_length_b 9.119290
_cell_length_c 30.649858
_cell_angle_alpha 90.000000
_cell_angle_beta 90.000000
_cell_angle_gamma 90.000000
_cell_volume 2548.886637
_symmetry_space_group_name_H-M "P -4 M 2"
_symmetry_group_IT_number 115
_symmetry_cell_setting 'tetragonal'
loop_
_space_group_symop_operation_xyz
x,y,z
y,-x,-z
-x,-y,z
-y,x,-z
y,x,-z
-y,-x,-z
-x,y,z
x,-y,z
loop_
_atom_site_type_symbol
_atom_site_label
_atom_site_fract_x
_atom_site_fract_y
_atom_site_fract_z
Si Si1 0.168410 0.672329 0.961492
Si Si2 0.334546 0.825579 0.788641
Si Si3 0.832024 0.169205 0.550511
Si Si4 0.171493 0.828998 0.297162
Si Si5 0.170402 0.170010 0.873890
Si Si6 0.668778 0.327380 0.624451
O O1 0.189155 0.500000 0.958100
O O2 0.223118 0.742324 0.916311
O O3 0.000000 0.716361 0.970574
O O4 0.267873 0.732128 0.000000
O O5 0.500000 0.765752 0.786664
O O6 0.248134 0.767117 0.746452
O O7 0.258477 0.766315 0.832558
O O8 0.329446 0.000000 0.789117
O O9 0.799909 0.200092 0.500000
O O10 0.723177 0.270529 0.577756
O O11 0.000000 0.208565 0.561917
O O12 0.801858 0.000000 0.562006
O O13 0.255353 0.765649 0.338249
O O14 0.000000 0.797567 0.303614
O O15 0.204684 0.000000 0.292980
O O16 0.000000 0.195434 0.864116
O O17 0.205945 0.000000 0.882107
O O18 0.500000 0.282297 0.630988
O O19 0.690433 0.500000 0.626233
#
# Coordination Sequence:
#
# PCOD8309676 Si02
#       6
#     8   8   8   8   8   8
#     4  10  21  36  54  77 105 138 177 219 263 313
#     4   9  17  30  51  79 107 135 171 216 264 313
#     4   9  19  37  60  84 108 136 175 221 265 312
#     4  10  20  35  57  82 106 136 178 224 266 311
#     4   9  17  31  52  76 102 133 171 215 261 310
#     4  11  24  38  52  76 111 146 179 217 263 316
#
# _framework density 18.831752999999999
#
# number of rings (size 3 to 8) (size 9 to 14) (size 15 to 20)
#    0.000    2.333    0.000    3.000    0.000    9.000 
#    0.000    5.000    0.000    3.000    0.000    0.000 
#    0.000    0.000    0.000    0.000    0.000    0.000 
#
# Total GULP energy -595358.571631 kJ/mol
# GULP energy per Si atom -12403.303576 kJ/mol
# Density = 1.878889 g / cm^3
# Si number density = 18.831753 Si / 1000 Ang^3
#
#
#
# Elastic Constant Matrix: (Units=GPa)
#
#
# Indices 1 2 3 4 5 6 
#
# 1 77.2728 46.6833 58.5552 0.0000 0.0000 0.0000
# 2 46.6833 77.2736 58.5564 0.0000 0.0000 0.0000
# 3 58.5552 58.5564 141.9442 0.0000 0.0000 0.0000
# 4 0.0000 0.0000 0.0000 2.7076 0.0000 0.0000
# 5 0.0000 0.0000 0.0000 0.0000 2.7071 0.0000
# 6 0.0000 0.0000 0.0000 0.0000 0.0000 24.6335
#
#
#
# Elastic Compliance Matrix: (Units=1/GPa)
#
#
# Indices 1 2 3 4 5 6 
#
# 1 0.022955 -0.009735 -0.005453 0.000000 0.000000 0.000000
# 2 -0.009735 0.022955 -0.005454 0.000000 0.000000 0.000000
# 3 -0.005453 -0.005454 0.011544 0.000000 0.000000 0.000000
# 4 0.000000 0.000000 0.000000 0.369336 0.000000 0.000000
# 5 0.000000 0.000000 0.000000 0.000000 0.369403 0.000000
# 6 0.000000 0.000000 0.000000 0.000000 0.000000 0.040595
#
#
# Mechanical properties :
#
#
# Convention : Reuss Voigt Hill
#
# Bulk Modulus (GPa) = 61.84333 69.34226 65.59280
# Shear Modulus (GPa) = 5.65955 14.85601 10.25778
#
# Velocity S-wave (km/s) = 1.73547 2.81175 2.33643
# Velocity P-wave (km/s) = 6.07676 6.88790 6.49501
#
# Compressibility (1/GPa) = 0.01616989
#
# Stress axis : x y z
#
# Youngs Moduli (GPa) = 43.56339 43.56327 86.62197
#
# Poissons Ratio (x) = 0.42411 0.47238
# Poissons Ratio (y) = 0.42411 0.47240
# Poissons Ratio (z) = 0.23756 0.23758
#
# Static dielectric constant tensor:
#      x y z
#    x 3.373450 0.000000 0.000000 
#    y 0.000000 3.373450 0.000000 
#    z 0.000000 0.000000 3.614350 
# 
# 
# High freq. dielectric constant tensor:
#      x y z
#    x 1.720660 0.000000 0.000000 
#    y 0.000000 1.720660 0.000000 
#    z 0.000000 0.000000 1.747620 
# 
# From -- ./inp_files/6115.got.cif
#   From: 2010.03.12/outbox.cif.g09.slc.cpg/sg115_4_cif.got.tgz:6115.got - 2010.04.14 02:11:21.
