data_PCOD8309326
_publ_section_title
;
Structure prediction by ZEFSAII (Michael W. Deem and Ramdas Pophale) SiO2 
 PCOD8309326
Probable space group: P -4 M 2
;
_chemical_formula_sum "Si O2"
_cell_formula_units_Z 40
_cell_length_a 9.568049
_cell_length_b 9.568049
_cell_length_c 25.595138
_cell_angle_alpha 90.000000
_cell_angle_beta 90.000000
_cell_angle_gamma 90.000000
_cell_volume 2343.172474
_symmetry_space_group_name_H-M "P -4 M 2"
_symmetry_group_IT_number 115
_symmetry_cell_setting 'tetragonal'
loop_
_space_group_symop_operation_xyz
x,y,z
y,-x,-z
-x,-y,z
-y,x,-z
y,x,-z
-y,-x,-z
-x,y,z
x,-y,z
loop_
_atom_site_type_symbol
_atom_site_label
_atom_site_fract_x
_atom_site_fract_y
_atom_site_fract_z
Si Si1 0.832986 0.844480 0.057096
Si Si2 0.161944 0.834755 0.639033
Si Si3 0.343251 0.166171 0.850577
Si Si4 0.656751 0.834028 0.735237
Si Si5 0.339682 0.659098 0.438875
O O1 0.768322 0.751712 0.103713
O O2 0.000000 0.845917 0.058519
O O3 0.774287 0.000000 0.065765
O O4 0.786251 0.786251 0.000000
O O5 0.235529 0.778224 0.691897
O O6 0.233000 0.760713 0.590008
O O7 0.000000 0.792969 0.641634
O O8 0.181767 0.000000 0.632376
O O9 0.500000 0.218703 0.860470
O O10 0.293589 0.216677 0.792899
O O11 0.336098 0.000000 0.853226
O O12 0.500000 0.777842 0.723278
O O13 0.653953 0.000000 0.734507
O O14 0.317097 0.682904 0.500000
O O15 0.500000 0.689017 0.423449
O O16 0.299690 0.500000 0.423757
#
# Coordination Sequence:
#
# PCOD8309326 Si02
#       5
#     8   8   8   8   8
#     4   8  13  20  30  47  73 103 132 165 211 264
#     4  10  20  31  45  70 101 127 151 183 227 277
#     4   8  13  21  34  53  77 106 141 179 216 255
#     4   8  14  25  40  58  83 116 151 185 221 261
#     4   9  19  36  55  72  90 117 156 195 227 265
#
# _framework density 17.070872999999999
#
# number of rings (size 3 to 8) (size 9 to 14) (size 15 to 20)
#    0.000    3.400    0.000    3.000    0.000    3.200 
#    0.000    7.000    0.000    0.000    0.000    1.400 
#    0.000    5.200    0.000    0.000    0.000    0.000 
#
# Total GULP energy -495696.010486 kJ/mol
# GULP energy per Si atom -12392.400262 kJ/mol
# Density = 1.703202 g / cm^3
# Si number density = 17.070873 Si / 1000 Ang^3
#
#
#
# Elastic Constant Matrix: (Units=GPa)
#
#
# Indices 1 2 3 4 5 6 
#
# 1 63.6627 34.8097 58.0912 0.0000 0.0000 0.0000
# 2 34.8097 63.6626 58.0912 0.0000 0.0000 0.0000
# 3 58.0912 58.0912 133.9194 0.0000 0.0000 0.0000
# 4 0.0000 0.0000 0.0000 9.4214 0.0000 0.0000
# 5 0.0000 0.0000 0.0000 0.0000 9.4213 0.0000
# 6 0.0000 0.0000 0.0000 0.0000 0.0000 16.3501
#
#
#
# Elastic Compliance Matrix: (Units=1/GPa)
#
#
# Indices 1 2 3 4 5 6 
#
# 1 0.027730 -0.006929 -0.009023 0.000000 0.000000 0.000000
# 2 -0.006929 0.027730 -0.009023 0.000000 0.000000 0.000000
# 3 -0.009023 -0.009023 0.015295 0.000000 0.000000 0.000000
# 4 0.000000 0.000000 0.000000 0.106142 0.000000 0.000000
# 5 0.000000 0.000000 0.000000 0.000000 0.106143 0.000000
# 6 0.000000 0.000000 0.000000 0.000000 0.000000 0.061162
#
#
# Mechanical properties :
#
#
# Convention : Reuss Voigt Hill
#
# Bulk Modulus (GPa) = 48.06540 62.58100 55.32320
# Shear Modulus (GPa) = 12.46618 14.38872 13.42745
#
# Velocity S-wave (km/s) = 2.70526 2.90639 2.80763
# Velocity P-wave (km/s) = 6.16242 6.92834 6.55658
#
# Compressibility (1/GPa) = 0.02080499
#
# Stress axis : x y z
#
# Youngs Moduli (GPa) = 36.06249 36.06248 65.38058
#
# Poissons Ratio (x) = 0.24987 0.58992
# Poissons Ratio (y) = 0.24987 0.58992
# Poissons Ratio (z) = 0.32539 0.32539
#
# Static dielectric constant tensor:
#      x y z
#    x 2.948900 0.000000 0.000000 
#    y 0.000000 2.948900 0.000000 
#    z 0.000000 0.000000 3.566450 
# 
# 
# High freq. dielectric constant tensor:
#      x y z
#    x 1.621770 0.000000 0.000000 
#    y 0.000000 1.621770 0.000000 
#    z 0.000000 0.000000 1.675670 
# 
# From -- ./inp_files/5448.got.cif
#   From: 2010.03.12/outbox.cif.g09.slc.cpg/sg115_3_cif.got.tgz:5448.got - 2010.04.14 02:11:21.
