data_PCOD8309257
_publ_section_title
;
Structure prediction by ZEFSAII (Michael W. Deem and Ramdas Pophale) SiO2 
 PCOD8309257
Probable space group: P -4 M 2
;
_chemical_formula_sum "Si O2"
_cell_formula_units_Z 56
_cell_length_a 13.990435
_cell_length_b 13.990435
_cell_length_c 13.444496
_cell_angle_alpha 90.000000
_cell_angle_beta 90.000000
_cell_angle_gamma 90.000000
_cell_volume 2631.521741
_symmetry_space_group_name_H-M "P -4 M 2"
_symmetry_group_IT_number 115
_symmetry_cell_setting 'tetragonal'
loop_
_space_group_symop_operation_xyz
x,y,z
y,-x,-z
-x,-y,z
-y,x,-z
y,x,-z
-y,-x,-z
-x,y,z
x,-y,z
loop_
_atom_site_type_symbol
_atom_site_label
_atom_site_fract_x
_atom_site_fract_y
_atom_site_fract_z
Si Si1 0.211144 0.610061 0.761786
Si Si2 0.890020 0.737198 0.900909
Si Si3 0.605228 0.109744 0.926558
Si Si4 0.109156 0.607781 0.562276
Si Si5 0.110460 0.227849 0.203473
Si Si6 0.392895 0.612251 0.886356
Si Si7 0.888707 0.775229 0.423579
O O1 0.201025 0.500000 0.793029
O O2 0.122681 0.667942 0.807039
O O3 0.193016 0.623003 0.644107
O O4 0.313043 0.650802 0.806168
O O5 0.834801 0.836189 0.880238
O O6 0.000000 0.762985 0.919434
O O7 0.844316 0.676744 0.992267
O O8 0.500000 0.159712 0.924126
O O9 0.658855 0.121481 0.820916
O O10 0.590508 0.000000 0.954997
O O11 0.111951 0.500000 0.523480
O O12 0.138262 0.672564 0.468694
O O13 0.000000 0.632286 0.599397
O O14 0.156720 0.212094 0.313237
O O15 0.000000 0.196866 0.197886
O O16 0.500000 0.654098 0.862985
O O17 0.399264 0.500000 0.875106
O O18 0.361870 0.638131 0.000000
O O19 0.856317 0.856317 0.500000
O O20 0.000000 0.786316 0.407797
#
# Coordination Sequence:
#
# PCOD8309257 Si02
#       7
#     8   8   8   8   8   8   8
#     4  10  19  31  51  79 109 143 185 234 291 353
#     4  11  22  36  56  83 118 155 190 232 284 343
#     4   9  19  37  60  86 116 147 182 229 282 338
#     4   9  18  33  54  80 107 137 180 234 290 346
#     4  10  22  39  59  84 114 153 199 241 287 345
#     4   8  15  29  48  72 106 146 185 227 277 337
#     4  10  21  37  57  81 111 148 191 242 294 340
#
# _framework density 21.280462
#
# number of rings (size 3 to 8) (size 9 to 14) (size 15 to 20)
#    0.000    2.429    0.000    2.571    0.000    5.286 
#    0.000    6.429    0.000    5.143    0.000    0.000 
#    0.000    1.143    0.000    0.000    0.000    0.571 
#
# Total GULP energy -693736.136139 kJ/mol
# GULP energy per Si atom -12388.145288 kJ/mol
# Density = 2.123203 g / cm^3
# Si number density = 21.280462 Si / 1000 Ang^3
#
#
#
# Elastic Constant Matrix: (Units=GPa)
#
#
# Indices 1 2 3 4 5 6 
#
# 1 62.9099 45.4325 31.2760 0.0000 0.0000 0.0000
# 2 45.4325 62.9099 31.2761 0.0000 0.0000 0.0000
# 3 31.2760 31.2761 93.7224 0.0000 0.0000 0.0000
# 4 0.0000 0.0000 0.0000 26.5646 0.0000 0.0000
# 5 0.0000 0.0000 0.0000 0.0000 26.5647 0.0000
# 6 0.0000 0.0000 0.0000 0.0000 0.0000 9.6422
#
#
#
# Elastic Compliance Matrix: (Units=1/GPa)
#
#
# Indices 1 2 3 4 5 6 
#
# 1 0.034325 -0.022892 -0.003815 0.000000 0.000000 0.000000
# 2 -0.022892 0.034325 -0.003815 0.000000 0.000000 0.000000
# 3 -0.003815 -0.003815 0.013216 0.000000 0.000000 0.000000
# 4 0.000000 0.000000 0.000000 0.037644 0.000000 0.000000
# 5 0.000000 0.000000 0.000000 0.000000 0.037644 0.000000
# 6 0.000000 0.000000 0.000000 0.000000 0.000000 0.103711
#
#
# Mechanical properties :
#
#
# Convention : Reuss Voigt Hill
#
# Bulk Modulus (GPa) = 48.02896 48.39015 48.20955
# Shear Modulus (GPa) = 15.20453 19.99148 17.59801
#
# Velocity S-wave (km/s) = 2.67588 3.06834 2.87880
# Velocity P-wave (km/s) = 5.67147 5.94487 5.80978
#
# Compressibility (1/GPa) = 0.02082077
#
# Stress axis : x y z
#
# Youngs Moduli (GPa) = 29.13358 29.13351 75.66498
#
# Poissons Ratio (x) = 0.66692 0.28867
# Poissons Ratio (y) = 0.66692 0.28868
# Poissons Ratio (z) = 0.11115 0.11115
#
# Static dielectric constant tensor:
#      x y z
#    x 3.967960 0.000000 0.000000 
#    y 0.000000 3.967970 0.000000 
#    z 0.000000 0.000000 3.859670 
# 
# 
# High freq. dielectric constant tensor:
#      x y z
#    x 1.832120 0.000000 0.000000 
#    y 0.000000 1.832120 0.000000 
#    z 0.000000 0.000000 1.819180 
# 
# From -- ./inp_files/3094.got.cif
#   From: 2010.03.12/outbox.cif.g09.slc.cpg/sg115_2_cif.got.tgz:3094.got - 2010.04.14 02:11:21.
