data_PCOD8309241
_publ_section_title
;
Structure prediction by ZEFSAII (Michael W. Deem and Ramdas Pophale) SiO2 
 PCOD8309241
Probable space group: P -4 M 2
;
_chemical_formula_sum "Si O2"
_cell_formula_units_Z 32
_cell_length_a 14.247366
_cell_length_b 14.247366
_cell_length_c 8.984018
_cell_angle_alpha 90.000000
_cell_angle_beta 90.000000
_cell_angle_gamma 90.000000
_cell_volume 1823.642796
_symmetry_space_group_name_H-M "P -4 M 2"
_symmetry_group_IT_number 115
_symmetry_cell_setting 'tetragonal'
loop_
_space_group_symop_operation_xyz
x,y,z
y,-x,-z
-x,-y,z
-y,x,-z
y,x,-z
-y,-x,-z
-x,y,z
x,-y,z
loop_
_atom_site_type_symbol
_atom_site_label
_atom_site_fract_x
_atom_site_fract_y
_atom_site_fract_z
Si Si1 0.896854 0.103596 0.822903
Si Si2 0.107828 0.390725 0.651622
Si Si3 0.609650 0.260920 0.589412
Si Si4 0.238030 0.261034 0.825814
O O1 0.816676 0.170818 0.760740
O O2 0.000000 0.136460 0.767850
O O3 0.875359 0.000000 0.761664
O O4 0.895244 0.104757 0.000000
O O5 0.105340 0.500000 0.685924
O O6 0.163062 0.370401 0.497197
O O7 0.168682 0.347175 0.786829
O O8 0.000000 0.352330 0.643158
O O9 0.650391 0.349610 0.500000
O O10 0.500000 0.277019 0.616844
O O11 0.660806 0.260959 0.748410
O O12 0.257666 0.257666 0.000000
#
# Coordination Sequence:
#
# PCOD8309241 Si02
#       4
#     8   8   8   8
#     4   8  14  25  41  63  94 130 162 189 223 274
#     4   9  18  34  53  71  96 132 171 207 244 292
#     4   9  19  35  53  72  94 127 169 208 248 297
#     4  10  19  30  49  76 104 131 159 203 256 303
#
# _framework density 17.547297
#
# number of rings (size 3 to 8) (size 9 to 14) (size 15 to 20)
#    0.000    3.000    0.000    1.500    0.000    3.250 
#    0.000    0.000    0.000    3.000    0.000   15.750 
#    0.000    0.000    0.000    0.000    0.000    0.000 
#
# Total GULP energy -396547.864517 kJ/mol
# GULP energy per Si atom -12392.120766 kJ/mol
# Density = 1.750736 g / cm^3
# Si number density = 17.547297 Si / 1000 Ang^3
#
#
#
# Elastic Constant Matrix: (Units=GPa)
#
#
# Indices 1 2 3 4 5 6 
#
# 1 119.1096 55.7932 51.3482 0.0000 0.0000 0.0000
# 2 55.7932 119.1083 51.3481 0.0000 0.0000 0.0000
# 3 51.3482 51.3481 86.9821 0.0000 0.0000 0.0000
# 4 0.0000 0.0000 0.0000 15.7698 0.0000 0.0000
# 5 0.0000 0.0000 0.0000 0.0000 15.7701 0.0000
# 6 0.0000 0.0000 0.0000 0.0000 0.0000 28.2072
#
#
#
# Elastic Compliance Matrix: (Units=1/GPa)
#
#
# Indices 1 2 3 4 5 6 
#
# 1 0.012272 -0.003522 -0.005166 0.000000 0.000000 0.000000
# 2 -0.003522 0.012272 -0.005166 0.000000 0.000000 0.000000
# 3 -0.005166 -0.005166 0.017596 0.000000 0.000000 0.000000
# 4 0.000000 0.000000 0.000000 0.063413 0.000000 0.000000
# 5 0.000000 0.000000 0.000000 0.000000 0.063411 0.000000
# 6 0.000000 0.000000 0.000000 0.000000 0.000000 0.035452
#
#
# Mechanical properties :
#
#
# Convention : Reuss Voigt Hill
#
# Bulk Modulus (GPa) = 69.28160 71.35323 70.31741
# Shear Modulus (GPa) = 21.10298 23.06344 22.08321
#
# Velocity S-wave (km/s) = 3.47166 3.62934 3.55138
# Velocity P-wave (km/s) = 7.45912 7.63639 7.54827
#
# Compressibility (1/GPa) = 0.01443385
#
# Stress axis : x y z
#
# Youngs Moduli (GPa) = 81.48527 81.48409 56.83228
#
# Poissons Ratio (x) = 0.28696 0.29358
# Poissons Ratio (y) = 0.28696 0.29358
# Poissons Ratio (z) = 0.42093 0.42093
#
# Static dielectric constant tensor:
#      x y z
#    x 3.450690 0.000000 0.000000 
#    y 0.000000 3.450670 0.000000 
#    z 0.000000 0.000000 2.922230 
# 
# 
# High freq. dielectric constant tensor:
#      x y z
#    x 1.683980 0.000000 0.000000 
#    y 0.000000 1.683980 0.000000 
#    z 0.000000 0.000000 1.649260 
# 
# From -- ./inp_files/1304.got.cif
#   From: 2010.03.12/outbox.cif.g09.slc.cpg/sg115_1_cif.got.tgz:1304.got - 2010.04.14 02:11:21.
