data_PCOD8309992
_publ_section_title
;
Structure prediction by ZEFSAII (Michael W. Deem and Ramdas Pophale) SiO2 
 PCOD8309992
Probable space group: P -4 M 2
;
_chemical_formula_sum "Si O2"
_cell_formula_units_Z 32
_cell_length_a 14.109674
_cell_length_b 14.109674
_cell_length_c 8.985251
_cell_angle_alpha 90.000000
_cell_angle_beta 90.000000
_cell_angle_gamma 90.000000
_cell_volume 1788.809830
_symmetry_space_group_name_H-M "P -4 M 2"
_symmetry_group_IT_number 115
_symmetry_cell_setting 'tetragonal'
loop_
_space_group_symop_operation_xyz
x,y,z
y,-x,-z
-x,-y,z
-y,x,-z
y,x,-z
-y,-x,-z
-x,y,z
x,-y,z
loop_
_atom_site_type_symbol
_atom_site_label
_atom_site_fract_x
_atom_site_fract_y
_atom_site_fract_z
Si Si1 0.391235 0.108692 0.849346
Si Si2 0.389054 0.393765 0.167402
Si Si3 0.238203 0.890063 0.093667
Si Si4 0.750315 0.267950 0.327166
O O1 0.500000 0.142750 0.869671
O O2 0.338887 0.165299 0.718472
O O3 0.387182 0.000000 0.800715
O O4 0.336433 0.125564 0.004455
O O5 0.500000 0.393366 0.188330
O O6 0.350015 0.500000 0.196154
O O7 0.346880 0.320309 0.284527
O O8 0.361119 0.361119 0.000000
O O9 0.244049 0.833762 0.247914
O O10 0.220105 0.000000 0.128918
O O11 0.149385 0.850616 0.000000
O O12 0.753643 0.246358 0.500000
#
# Coordination Sequence:
#
# PCOD8309992 Si02
#       4
#     8   8   8   8
#     4   9  18  35  57  76  96 128 172 216 253 293
#     4   9  18  33  52  72  97 135 182 223 253 287
#     4   9  19  36  57  78  98 127 170 215 254 296
#     4  11  22  32  48  76 109 140 164 199 253 312
#
# _framework density 17.888991000000001
#
# number of rings (size 3 to 8) (size 9 to 14) (size 15 to 20)
#    0.000    2.500    0.000    3.750    0.000    6.250 
#    0.000    1.250    0.000    3.000    0.000    3.500 
#    0.000    0.000    0.000    0.000    0.000    0.000 
#
# Total GULP energy -396770.808543 kJ/mol
# GULP energy per Si atom -12399.087767 kJ/mol
# Density = 1.784827 g / cm^3
# Si number density = 17.888991 Si / 1000 Ang^3
#
#
#
# Elastic Constant Matrix: (Units=GPa)
#
#
# Indices 1 2 3 4 5 6 
#
# 1 121.4460 53.0386 60.5452 0.0000 0.0000 0.0000
# 2 53.0386 121.4452 60.5453 0.0000 0.0000 0.0000
# 3 60.5452 60.5453 141.3137 0.0000 0.0000 0.0000
# 4 0.0000 0.0000 0.0000 15.6175 0.0000 0.0000
# 5 0.0000 0.0000 0.0000 0.0000 15.6166 0.0000
# 6 0.0000 0.0000 0.0000 0.0000 0.0000 26.0158
#
#
#
# Elastic Compliance Matrix: (Units=1/GPa)
#
#
# Indices 1 2 3 4 5 6 
#
# 1 0.011387 -0.003231 -0.003495 0.000000 0.000000 0.000000
# 2 -0.003231 0.011387 -0.003495 0.000000 0.000000 0.000000
# 3 -0.003495 -0.003495 0.010071 0.000000 0.000000 0.000000
# 4 0.000000 0.000000 0.000000 0.064031 0.000000 0.000000
# 5 0.000000 0.000000 0.000000 0.000000 0.064035 0.000000
# 6 0.000000 0.000000 0.000000 0.000000 0.000000 0.038438
#
#
# Mechanical properties :
#
#
# Convention : Reuss Voigt Hill
#
# Bulk Modulus (GPa) = 80.60997 81.38477 80.99737
# Shear Modulus (GPa) = 22.32897 25.45504 23.89200
#
# Velocity S-wave (km/s) = 3.53681 3.77629 3.65851
# Velocity P-wave (km/s) = 7.86370 8.03784 7.95125
#
# Compressibility (1/GPa) = 0.01240541
#
# Stress axis : x y z
#
# Youngs Moduli (GPa) = 87.81692 87.81607 99.29588
#
# Poissons Ratio (x) = 0.28373 0.34699
# Poissons Ratio (y) = 0.28374 0.34700
# Poissons Ratio (z) = 0.30688 0.30688
#
# Static dielectric constant tensor:
#      x y z
#    x 3.474060 0.000000 0.000000 
#    y 0.000000 3.474060 0.000000 
#    z 0.000000 0.000000 3.047600 
# 
# 
# High freq. dielectric constant tensor:
#      x y z
#    x 1.702300 0.000000 0.000000 
#    y 0.000000 1.702300 0.000000 
#    z 0.000000 0.000000 1.662330 
# 
# From -- ./inp_files/1294.got.cif
#   From: 2010.03.12/outbox.cif.g09.slc.cpg/sg115_1_cif.got.tgz:1294.got - 2010.04.14 02:11:21.
