data_PCOD8309112
_publ_section_title
;
Structure prediction by ZEFSAII (Michael W. Deem and Ramdas Pophale) SiO2 
 PCOD8309112
Probable space group: P -4 21 C
;
_chemical_formula_sum "Si O2"
_cell_formula_units_Z 26
_cell_length_a 9.298348
_cell_length_b 9.298348
_cell_length_c 13.727929
_cell_angle_alpha 90.000000
_cell_angle_beta 90.000000
_cell_angle_gamma 90.000000
_cell_volume 1186.906796
_symmetry_space_group_name_H-M "P -4 21 C"
_symmetry_group_IT_number 114
_symmetry_cell_setting 'tetragonal'
loop_
_space_group_symop_operation_xyz
x,y,z
y,-x,-z
-x,-y,z
-y,x,-z
1/2+x,1/2-y,1/2-z
1/2-x,1/2+y,1/2-z
1/2-y,1/2-x,1/2+z
1/2+y,1/2+x,1/2+z
loop_
_atom_site_type_symbol
_atom_site_label
_atom_site_fract_x
_atom_site_fract_y
_atom_site_fract_z
Si Si1 0.285563 0.346228 0.866518
Si Si2 0.070344 0.220591 0.010550
Si Si3 0.500000 0.500000 0.000000
Si Si4 0.535272 0.839702 0.291619
O O1 0.421141 0.380319 0.934830
O O2 0.264489 0.480203 0.794058
O O3 0.316658 0.204656 0.803321
O O4 0.142928 0.324226 0.931386
O O5 0.050808 0.307164 0.109714
O O6 0.916844 0.171191 0.967973
O O7 0.500000 0.000000 0.259118
#
# Coordination Sequence:
#
# PCOD8309112 Si02
#       4
#     8   8   2   8
#     4  11  27  43  74 102 147 187 243 296 362 433
#     4   9  21  44  70  99 138 184 233 292 354 423
#     4  12  28  48  72 104 150 192 240 308 364 428
#     4  11  26  43  70 105 141 188 240 293 360 431
#
# _framework density 21.905678000000002
#
# number of rings (size 3 to 8) (size 9 to 14) (size 15 to 20)
#    0.000    1.538    0.000    1.846   12.923    6.154 
#    0.000    0.000    0.000    0.000    0.000    0.000 
#    0.000    0.000    0.000    0.000    0.000    0.000 
#
# Total GULP energy -322590.626012 kJ/mol
# GULP energy per Si atom -12407.331770 kJ/mol
# Density = 2.185582 g / cm^3
# Si number density = 21.905678 Si / 1000 Ang^3
#
#
#
# Elastic Constant Matrix: (Units=GPa)
#
#
# Indices 1 2 3 4 5 6 
#
# 1 108.0682 38.7951 51.0636 0.0000 0.0000 0.0000
# 2 38.7951 108.0682 51.0636 0.0000 0.0000 0.0000
# 3 51.0636 51.0636 92.2927 0.0000 0.0000 0.0000
# 4 0.0000 0.0000 0.0000 36.7089 0.0000 0.0000
# 5 0.0000 0.0000 0.0000 0.0000 36.7089 0.0000
# 6 0.0000 0.0000 0.0000 0.0000 0.0000 32.7727
#
#
#
# Elastic Compliance Matrix: (Units=1/GPa)
#
#
# Indices 1 2 3 4 5 6 
#
# 1 0.012751 -0.001684 -0.006123 0.000000 0.000000 0.000000
# 2 -0.001684 0.012751 -0.006123 0.000000 0.000000 0.000000
# 3 -0.006123 -0.006123 0.017611 0.000000 0.000000 0.000000
# 4 0.000000 0.000000 0.000000 0.027241 0.000000 0.000000
# 5 0.000000 0.000000 0.000000 0.000000 0.027241 0.000000
# 6 0.000000 0.000000 0.000000 0.000000 0.000000 0.030513
#
#
# Mechanical properties :
#
#
# Convention : Reuss Voigt Hill
#
# Bulk Modulus (GPa) = 65.56445 65.58594 65.57519
# Shear Modulus (GPa) = 31.04539 32.40522 31.72531
#
# Velocity S-wave (km/s) = 3.76870 3.85035 3.80974
# Velocity P-wave (km/s) = 6.99519 7.05493 7.02513
#
# Compressibility (1/GPa) = 0.01525217
#
# Stress axis : x y z
#
# Youngs Moduli (GPa) = 78.42326 78.42326 56.78365
#
# Poissons Ratio (x) = 0.13209 0.34769
# Poissons Ratio (y) = 0.13209 0.34769
# Poissons Ratio (z) = 0.48020 0.48020
#
# Static dielectric constant tensor:
#      x y z
#    x 3.972540 0.000000 0.000000 
#    y 0.000000 3.972540 0.000000 
#    z 0.000000 0.000000 3.888240 
# 
# 
# High freq. dielectric constant tensor:
#      x y z
#    x 1.865400 0.000000 0.000000 
#    y 0.000000 1.865400 0.000000 
#    z 0.000000 0.000000 1.864770 
# 
# From -- ./inp_files/2360.got.cif
#   From: 2010.03.12/outbox.cif.g09.slc.cpg/sg114_2_cif.got.tgz:2360.got - 2010.04.14 02:08:34.
