data_PCOD8309551
_publ_section_title
;
Structure prediction by ZEFSAII (Michael W. Deem and Ramdas Pophale) SiO2 
 PCOD8309551
Probable space group: P -4 M 2
;
_chemical_formula_sum "Si O2"
_cell_formula_units_Z 44
_cell_length_a 8.136738
_cell_length_b 8.136738
_cell_length_c 31.523497
_cell_angle_alpha 90.000000
_cell_angle_beta 90.000000
_cell_angle_gamma 90.000000
_cell_volume 2087.060571
_symmetry_space_group_name_H-M "P -4 M 2"
_symmetry_group_IT_number 115
_symmetry_cell_setting 'tetragonal'
loop_
_space_group_symop_operation_xyz
x,y,z
y,-x,-z
-x,-y,z
-y,x,-z
y,x,-z
-y,-x,-z
-x,y,z
x,-y,z
loop_
_atom_site_type_symbol
_atom_site_label
_atom_site_fract_x
_atom_site_fract_y
_atom_site_fract_z
Si Si1 0.500000 0.190221 0.268204
Si Si2 0.193232 0.180063 0.128098
Si Si3 0.196109 0.500000 0.637619
Si Si4 0.809178 0.678891 0.041936
Si Si5 0.313075 0.313075 0.500000
Si Si6 0.815940 0.193155 0.414397
Si Si7 0.311715 0.185815 0.782563
O O1 0.500000 0.271724 0.314875
O O2 0.669824 0.231323 0.244573
O O3 0.500000 0.000000 0.275519
O O4 0.274370 0.245115 0.084261
O O5 0.235003 0.295314 0.167969
O O6 0.000000 0.168490 0.121389
O O7 0.266797 0.000000 0.137702
O O8 0.261668 0.331625 0.615410
O O9 0.000000 0.500000 0.637522
O O10 0.730580 0.500000 0.034029
O O11 0.000000 0.662658 0.051167
O O12 0.786656 0.786656 0.000000
O O13 0.282550 0.500000 0.514572
O O14 0.273521 0.196385 0.539416
O O15 0.000000 0.234946 0.396246
O O16 0.794487 0.000000 0.419642
O O17 0.500000 0.180558 0.770027
O O18 0.236082 0.000000 0.774535
#
# Coordination Sequence:
#
# PCOD8309551 Si02
#       7
#     4   8   4   8   4   8   8
#     4  11  23  39  63  93 123 161 207 259 315 369
#     4   9  17  32  57  85 111 142 185 239 293 350
#     4   9  20  39  59  85 123 159 201 261 311 360
#     4  10  20  34  52  76 108 146 187 231 283 345
#     4  11  22  35  54  84 122 163 204 253 308 362
#     4  10  20  36  60  87 116 158 207 252 308 370
#     4  10  21  39  62  89 122 159 199 249 312 376
#
# _framework density 21.082280999999998
#
# number of rings (size 3 to 8) (size 9 to 14) (size 15 to 20)
#    0.000    2.091    0.909    2.455    0.000    6.909 
#    1.636    3.636    0.000    0.000    0.000    0.000 
#    0.000    0.000    0.000    0.000    0.000    0.000 
#
# Total GULP energy -545272.579494 kJ/mol
# GULP energy per Si atom -12392.558625 kJ/mol
# Density = 2.103430 g / cm^3
# Si number density = 21.082281 Si / 1000 Ang^3
#
#
#
# Elastic Constant Matrix: (Units=GPa)
#
#
# Indices 1 2 3 4 5 6 
#
# 1 84.2667 29.7823 40.6853 0.0000 0.0000 0.0000
# 2 29.7823 84.2667 40.6853 0.0000 0.0000 0.0000
# 3 40.6853 40.6853 150.9416 0.0000 0.0000 0.0000
# 4 0.0000 0.0000 0.0000 13.9380 0.0000 0.0000
# 5 0.0000 0.0000 0.0000 0.0000 13.9380 0.0000
# 6 0.0000 0.0000 0.0000 0.0000 0.0000 20.5546
#
#
#
# Elastic Compliance Matrix: (Units=1/GPa)
#
#
# Indices 1 2 3 4 5 6 
#
# 1 0.014605 -0.003749 -0.002926 0.000000 0.000000 0.000000
# 2 -0.003749 0.014605 -0.002926 0.000000 0.000000 0.000000
# 3 -0.002926 -0.002926 0.008203 0.000000 0.000000 0.000000
# 4 0.000000 0.000000 0.000000 0.071746 0.000000 0.000000
# 5 0.000000 0.000000 0.000000 0.000000 0.071746 0.000000
# 6 0.000000 0.000000 0.000000 0.000000 0.000000 0.048651
#
#
# Mechanical properties :
#
#
# Convention : Reuss Voigt Hill
#
# Bulk Modulus (GPa) = 54.91566 60.19786 57.55676
# Shear Modulus (GPa) = 19.62106 23.57425 21.59765
#
# Velocity S-wave (km/s) = 3.05403 3.34758 3.20417
# Velocity P-wave (km/s) = 6.20813 6.59981 6.40697
#
# Compressibility (1/GPa) = 0.01820974
#
# Stress axis : x y z
#
# Youngs Moduli (GPa) = 68.47025 68.47025 121.91387
#
# Poissons Ratio (x) = 0.25670 0.35674
# Poissons Ratio (y) = 0.25670 0.35674
# Poissons Ratio (z) = 0.20035 0.20035
#
# Static dielectric constant tensor:
#      x y z
#    x 3.845320 0.000000 0.000000 
#    y 0.000000 3.845320 0.000000 
#    z 0.000000 0.000000 3.825490 
# 
# 
# High freq. dielectric constant tensor:
#      x y z
#    x 1.815490 0.000000 0.000000 
#    y 0.000000 1.815490 0.000000 
#    z 0.000000 0.000000 1.823120 
# 
# From -- ./inp_files/5884.got.cif
#   From: 2010.03.12/outbox.cif.g09.slc.cpg/sg115_3_cif.got.tgz:5884.got - 2010.04.14 02:11:21.
