data_PCOD8309884
_publ_section_title
;
Structure prediction by ZEFSAII (Michael W. Deem and Ramdas Pophale) SiO2 
 PCOD8309884
Probable space group: P -4 M 2
;
_chemical_formula_sum "Si O2"
_cell_formula_units_Z 48
_cell_length_a 8.888747
_cell_length_b 8.888747
_cell_length_c 30.571348
_cell_angle_alpha 90.000000
_cell_angle_beta 90.000000
_cell_angle_gamma 90.000000
_cell_volume 2415.436801
_symmetry_space_group_name_H-M "P -4 M 2"
_symmetry_group_IT_number 115
_symmetry_cell_setting 'tetragonal'
loop_
_space_group_symop_operation_xyz
x,y,z
y,-x,-z
-x,-y,z
-y,x,-z
y,x,-z
-y,-x,-z
-x,y,z
x,-y,z
loop_
_atom_site_type_symbol
_atom_site_label
_atom_site_fract_x
_atom_site_fract_y
_atom_site_fract_z
Si Si1 0.675373 0.173517 0.040620
Si Si2 0.326167 0.328103 0.626907
Si Si3 0.824373 0.674799 0.284199
Si Si4 0.822185 0.167440 0.548474
Si Si5 0.177328 0.327696 0.121974
Si Si6 0.676704 0.826380 0.203472
O O1 0.500000 0.200299 0.048275
O O2 0.760202 0.222058 0.084126
O O3 0.711669 0.000000 0.030608
O O4 0.727908 0.272093 0.000000
O O5 0.500000 0.302700 0.616611
O O6 0.290405 0.500000 0.639102
O O7 0.275006 0.224559 0.667359
O O8 0.237127 0.284551 0.583655
O O9 0.784671 0.500000 0.276079
O O10 0.732198 0.777187 0.250943
O O11 0.000000 0.706076 0.278117
O O12 0.775538 0.224462 0.500000
O O13 0.000000 0.160650 0.551235
O O14 0.756142 0.000000 0.557496
O O15 0.223773 0.500000 0.112729
O O16 0.242758 0.277370 0.168093
O O17 0.000000 0.309367 0.123767
O O18 0.500000 0.800235 0.199898
O O19 0.718973 0.000000 0.195324
#
# Coordination Sequence:
#
# PCOD8309884 Si02
#       6
#     8   8   8   8   8   8
#     4  11  24  41  62  90 122 156 197 242 288 341
#     4  10  21  36  55  81 112 145 182 226 277 332
#     4  10  21  38  60  84 110 145 189 232 277 333
#     4   9  19  36  56  78 106 142 184 228 275 329
#     4  11  24  41  62  89 119 153 195 239 285 340
#     4  11  24  40  59  86 118 151 189 233 282 337
#
# _framework density 19.872183
#
# number of rings (size 3 to 8) (size 9 to 14) (size 15 to 20)
#    0.000    1.667    0.000    4.500    0.000   13.667 
#    0.000    2.500    0.000    0.000    0.000    0.000 
#    0.000    0.000    0.000    0.000    0.000    0.000 
#
# Total GULP energy -595458.292260 kJ/mol
# GULP energy per Si atom -12405.381089 kJ/mol
# Density = 1.982695 g / cm^3
# Si number density = 19.872183 Si / 1000 Ang^3
#
#
#
# Elastic Constant Matrix: (Units=GPa)
#
#
# Indices 1 2 3 4 5 6 
#
# 1 62.8653 51.5967 32.7611 0.0000 0.0000 0.0000
# 2 51.5967 62.8636 32.7595 0.0000 0.0000 0.0000
# 3 32.7611 32.7595 110.4240 0.0000 0.0000 0.0000
# 4 0.0000 0.0000 0.0000 39.8400 0.0000 0.0000
# 5 0.0000 0.0000 0.0000 0.0000 39.8403 0.0000
# 6 0.0000 0.0000 0.0000 0.0000 0.0000 31.4625
#
#
#
# Elastic Compliance Matrix: (Units=1/GPa)
#
#
# Indices 1 2 3 4 5 6 
#
# 1 0.049636 -0.039113 -0.003123 0.000000 0.000000 0.000000
# 2 -0.039113 0.049637 -0.003122 0.000000 0.000000 0.000000
# 3 -0.003123 -0.003122 0.010909 0.000000 0.000000 0.000000
# 4 0.000000 0.000000 0.000000 0.025100 0.000000 0.000000
# 5 0.000000 0.000000 0.000000 0.000000 0.025100 0.000000
# 6 0.000000 0.000000 0.000000 0.000000 0.000000 0.031784
#
#
# Mechanical properties :
#
#
# Convention : Reuss Voigt Hill
#
# Bulk Modulus (GPa) = 51.36774 52.26527 51.81651
# Shear Modulus (GPa) = 17.27898 30.16427 23.72162
#
# Velocity S-wave (km/s) = 2.95194 3.90027 3.45876
# Velocity P-wave (km/s) = 6.12566 6.82939 6.48708
#
# Compressibility (1/GPa) = 0.01946747
#
# Stress axis : x y z
#
# Youngs Moduli (GPa) = 20.14662 20.14636 91.67121
#
# Poissons Ratio (x) = 0.78798 0.28626
# Poissons Ratio (y) = 0.78799 0.28616
# Poissons Ratio (z) = 0.06291 0.06289
#
# Static dielectric constant tensor:
#      x y z
#    x 3.681590 0.000000 0.000000 
#    y 0.000000 3.681590 0.000000 
#    z 0.000000 0.000000 4.459420 
# 
# 
# High freq. dielectric constant tensor:
#      x y z
#    x 1.779610 0.000000 0.000000 
#    y 0.000000 1.779610 0.000000 
#    z 0.000000 0.000000 1.789210 
# 
# From -- ./inp_files/5902.got.cif
#   From: 2010.03.12/outbox.cif.g09.slc.cpg/sg115_3_cif.got.tgz:5902.got - 2010.04.14 02:11:21.
