data_PCOD8309420
_publ_section_title
;
Structure prediction by ZEFSAII (Michael W. Deem and Ramdas Pophale) SiO2 
 PCOD8309420
Probable space group: P -4 M 2
;
_chemical_formula_sum "Si O2"
_cell_formula_units_Z 56
_cell_length_a 13.463754
_cell_length_b 13.463754
_cell_length_c 18.038477
_cell_angle_alpha 90.000000
_cell_angle_beta 90.000000
_cell_angle_gamma 90.000000
_cell_volume 3269.882920
_symmetry_space_group_name_H-M "P -4 M 2"
_symmetry_group_IT_number 115
_symmetry_cell_setting 'tetragonal'
loop_
_space_group_symop_operation_xyz
x,y,z
y,-x,-z
-x,-y,z
-y,x,-z
y,x,-z
-y,-x,-z
-x,y,z
x,-y,z
loop_
_atom_site_type_symbol
_atom_site_label
_atom_site_fract_x
_atom_site_fract_y
_atom_site_fract_z
Si Si1 0.226095 0.614109 0.082405
Si Si2 0.382580 0.222985 0.368683
Si Si3 0.890806 0.382457 0.777224
Si Si4 0.617543 0.890806 0.777224
Si Si5 0.883436 0.280777 0.500000
Si Si6 0.222986 0.617420 0.368683
Si Si7 0.773905 0.614109 0.917595
O O1 0.251183 0.500000 0.098454
O O2 0.149822 0.655907 0.143576
O O3 0.329966 0.670034 0.089478
O O4 0.179537 0.628609 0.000000
O O5 0.500000 0.240499 0.375602
O O6 0.349722 0.181869 0.288624
O O7 0.346959 0.142789 0.428614
O O8 0.328355 0.328355 0.381983
O O9 0.899957 0.500000 0.777956
O O10 0.850179 0.344093 0.856425
O O11 0.000000 0.335308 0.765291
O O12 0.500000 0.899955 0.777956
O O13 0.650279 0.818132 0.711375
O O14 0.664691 0.000000 0.765291
O O15 0.822620 0.177381 0.500000
O O16 0.857210 0.346960 0.428615
O O17 0.000000 0.255627 0.499999
O O18 0.240501 0.500000 0.375600
O O19 0.748818 0.500000 0.901547
#
# Coordination Sequence:
#
# PCOD8309420 Si02
#       7
#     8   8   8   8   8   8   8
#     4   9  17  28  42  62  89 120 153 189 230 280
#     4  10  20  33  50  73 100 130 163 197 236 286
#     4   9  17  29  45  64  87 118 155 193 233 276
#     4   9  17  29  45  64  87 118 155 193 233 276
#     4  10  21  36  54  76 100 128 165 206 246 288
#     4  10  20  33  50  73 100 130 163 197 236 286
#     4   9  17  28  42  62  89 120 153 189 230 280
#
# _framework density 17.125997000000002
#
# number of rings (size 3 to 8) (size 9 to 14) (size 15 to 20)
#    0.000    2.571    0.000    2.143    0.000    3.571 
#    0.000    4.286    0.000    7.714    0.000    0.000 
#    0.000    5.143    0.000   12.571    0.000    1.143 
#
# Total GULP energy -694244.339700 kJ/mol
# GULP energy per Si atom -12397.220352 kJ/mol
# Density = 1.708702 g / cm^3
# Si number density = 17.125997 Si / 1000 Ang^3
#
#
#
# Elastic Constant Matrix: (Units=GPa)
#
#
# Indices 1 2 3 4 5 6 
#
# 1 88.5986 40.6493 41.0958 0.0000 0.0000 0.0000
# 2 40.6493 88.5976 41.0955 0.0000 0.0000 0.0000
# 3 41.0958 41.0955 128.0706 0.0000 0.0000 0.0000
# 4 0.0000 0.0000 0.0000 19.7167 0.0000 0.0000
# 5 0.0000 0.0000 0.0000 0.0000 19.7165 0.0000
# 6 0.0000 0.0000 0.0000 0.0000 0.0000 10.9901
#
#
#
# Elastic Compliance Matrix: (Units=1/GPa)
#
#
# Indices 1 2 3 4 5 6 
#
# 1 0.015288 -0.005567 -0.003119 0.000000 0.000000 0.000000
# 2 -0.005567 0.015288 -0.003119 0.000000 0.000000 0.000000
# 3 -0.003119 -0.003119 0.009810 0.000000 0.000000 0.000000
# 4 0.000000 0.000000 0.000000 0.050718 0.000000 0.000000
# 5 0.000000 0.000000 0.000000 0.000000 0.050719 0.000000
# 6 0.000000 0.000000 0.000000 0.000000 0.000000 0.090991
#
#
# Mechanical properties :
#
#
# Convention : Reuss Voigt Hill
#
# Bulk Modulus (GPa) = 59.61418 61.21646 60.41532
# Shear Modulus (GPa) = 19.08268 22.24641 20.66454
#
# Velocity S-wave (km/s) = 3.34166 3.60805 3.47741
# Velocity P-wave (km/s) = 7.05505 7.29245 7.17473
#
# Compressibility (1/GPa) = 0.01677453
#
# Stress axis : x y z
#
# Youngs Moduli (GPa) = 65.41064 65.40994 101.93692
#
# Poissons Ratio (x) = 0.36417 0.31796
# Poissons Ratio (y) = 0.36417 0.31796
# Poissons Ratio (z) = 0.20403 0.20403
#
# Static dielectric constant tensor:
#      x y z
#    x 3.036260 0.000000 0.000000 
#    y 0.000000 3.036260 0.000000 
#    z 0.000000 0.000000 3.570810 
# 
# 
# High freq. dielectric constant tensor:
#      x y z
#    x 1.638990 0.000000 0.000000 
#    y 0.000000 1.638990 0.000000 
#    z 0.000000 0.000000 1.684860 
# 
# From -- ./inp_files/4908.got.cif
#   From: 2010.03.12/outbox.cif.g09.slc.cpg/sg115_3_cif.got.tgz:4908.got - 2010.04.14 02:11:21.
