data_PCOD8309698
_publ_section_title
;
Structure prediction by ZEFSAII (Michael W. Deem and Ramdas Pophale) SiO2 
 PCOD8309698
Probable space group: P -4 M 2
;
_chemical_formula_sum "Si O2"
_cell_formula_units_Z 26
_cell_length_a 7.685702
_cell_length_b 7.685702
_cell_length_c 21.867653
_cell_angle_alpha 90.000000
_cell_angle_beta 90.000000
_cell_angle_gamma 90.000000
_cell_volume 1291.722596
_symmetry_space_group_name_H-M "P -4 M 2"
_symmetry_group_IT_number 115
_symmetry_cell_setting 'tetragonal'
loop_
_space_group_symop_operation_xyz
x,y,z
y,-x,-z
-x,-y,z
-y,x,-z
y,x,-z
-y,-x,-z
-x,y,z
x,-y,z
loop_
_atom_site_type_symbol
_atom_site_label
_atom_site_fract_x
_atom_site_fract_y
_atom_site_fract_z
Si Si1 0.307238 0.698663 0.686376
Si Si2 0.000000 0.000000 0.500000
Si Si3 0.793187 0.500000 0.901432
Si Si4 0.000000 0.293186 0.598568
Si Si5 0.192763 0.198662 0.186377
Si Si6 0.500000 0.500000 0.000000
O O1 0.500000 0.721783 0.658028
O O2 0.264270 0.500000 0.702548
O O3 0.169478 0.765249 0.636824
O O4 0.301556 0.801552 0.750000
O O5 0.000000 0.178921 0.537856
O O6 0.734754 0.330521 0.863176
O O7 0.000000 0.500000 0.917236
O O8 0.678921 0.500000 0.962143
O O9 0.000000 0.500000 0.582765
O O10 0.000000 0.221781 0.158029
O O11 0.235731 0.000000 0.202551
#
# Coordination Sequence:
#
# PCOD8309698 Si02
#       6
#     8   1   4   4   8   1
#     4  10  20  35  61  94 128 160 200 258 322 375
#     4  12  28  44  68  88 124 180 228 242 292 408
#     4  10  24  44  62  88 128 172 204 263 312 360
#     4  10  24  44  62  88 128 172 204 263 312 360
#     4  10  20  35  61  94 128 160 200 258 322 375
#     4  12  28  44  68  88 124 180 228 242 292 408
#
# _framework density 20.128160999999999
#
# number of rings (size 3 to 8) (size 9 to 14) (size 15 to 20)
#    0.000    1.846    3.077    0.000    4.308    3.077 
#    0.000    0.000    0.000    0.000    0.000    0.000 
#    0.000    0.000    0.000    0.000    0.000    0.000 
#
# Total GULP energy -322411.332337 kJ/mol
# GULP energy per Si atom -12400.435859 kJ/mol
# Density = 2.008235 g / cm^3
# Si number density = 20.128161 Si / 1000 Ang^3
#
#
#
# Elastic Constant Matrix: (Units=GPa)
#
#
# Indices 1 2 3 4 5 6 
#
# 1 120.4321 39.9219 64.0774 0.0000 0.0000 0.0000
# 2 39.9219 120.4321 64.0774 0.0000 0.0000 0.0000
# 3 64.0774 64.0774 131.3804 0.0000 0.0000 0.0000
# 4 0.0000 0.0000 0.0000 24.6380 0.0000 0.0000
# 5 0.0000 0.0000 0.0000 0.0000 24.6380 0.0000
# 6 0.0000 0.0000 0.0000 0.0000 0.0000 18.1632
#
#
#
# Elastic Compliance Matrix: (Units=1/GPa)
#
#
# Indices 1 2 3 4 5 6 
#
# 1 0.011320 -0.001101 -0.004984 0.000000 0.000000 0.000000
# 2 -0.001101 0.011320 -0.004984 0.000000 0.000000 0.000000
# 3 -0.004984 -0.004984 0.012474 0.000000 0.000000 0.000000
# 4 0.000000 0.000000 0.000000 0.040588 0.000000 0.000000
# 5 0.000000 0.000000 0.000000 0.000000 0.040588 0.000000
# 6 0.000000 0.000000 0.000000 0.000000 0.000000 0.055056
#
#
# Mechanical properties :
#
#
# Convention : Reuss Voigt Hill
#
# Bulk Modulus (GPa) = 77.06921 78.71089 77.89005
# Shear Modulus (GPa) = 25.27680 27.09901 26.18791
#
# Velocity S-wave (km/s) = 3.54756 3.67321 3.61093
# Velocity P-wave (km/s) = 7.42648 7.56173 7.49441
#
# Compressibility (1/GPa) = 0.01297535
#
# Stress axis : x y z
#
# Youngs Moduli (GPa) = 88.33712 88.33712 80.16978
#
# Poissons Ratio (x) = 0.09722 0.39960
# Poissons Ratio (y) = 0.09722 0.39960
# Poissons Ratio (z) = 0.44031 0.44031
#
# Static dielectric constant tensor:
#      x y z
#    x 3.733260 0.000000 0.000000 
#    y 0.000000 3.733260 0.000000 
#    z 0.000000 0.000000 3.315870 
# 
# 
# High freq. dielectric constant tensor:
#      x y z
#    x 1.795290 0.000000 0.000000 
#    y 0.000000 1.795290 0.000000 
#    z 0.000000 0.000000 1.752590 
# 
# From -- ./inp_files/4084.got.cif
#   From: 2010.03.12/outbox.cif.g09.slc.cpg/sg115_3_cif.got.tgz:4084.got - 2010.04.14 02:11:21.
