data_PCOD8309819
_publ_section_title
;
Structure prediction by ZEFSAII (Michael W. Deem and Ramdas Pophale) SiO2 
 PCOD8309819
Probable space group: P -4 M 2
;
_chemical_formula_sum "Si O2"
_cell_formula_units_Z 32
_cell_length_a 9.391357
_cell_length_b 9.391357
_cell_length_c 20.570861
_cell_angle_alpha 90.000000
_cell_angle_beta 90.000000
_cell_angle_gamma 90.000000
_cell_volume 1814.300288
_symmetry_space_group_name_H-M "P -4 M 2"
_symmetry_group_IT_number 115
_symmetry_cell_setting 'tetragonal'
loop_
_space_group_symop_operation_xyz
x,y,z
y,-x,-z
-x,-y,z
-y,x,-z
y,x,-z
-y,-x,-z
-x,y,z
x,-y,z
loop_
_atom_site_type_symbol
_atom_site_label
_atom_site_fract_x
_atom_site_fract_y
_atom_site_fract_z
Si Si1 0.663420 0.665060 0.182347
Si Si2 0.335170 0.167436 0.945913
Si Si3 0.834880 0.334617 0.692275
Si Si4 0.830208 0.841387 0.570802
O O1 0.500000 0.704678 0.165359
O O2 0.678373 0.500000 0.199578
O O3 0.762269 0.708082 0.122254
O O4 0.719623 0.752554 0.244164
O O5 0.500000 0.200091 0.962505
O O6 0.305721 0.000000 0.941876
O O7 0.235459 0.235459 0.000000
O O8 0.807846 0.500000 0.680994
O O9 0.771797 0.257001 0.628700
O O10 0.000000 0.298447 0.702678
O O11 0.781214 0.781214 0.500000
O O12 0.000000 0.844122 0.570613
O O13 0.769827 0.000000 0.582364
#
# Coordination Sequence:
#
# PCOD8309819 Si02
#       4
#     8   8   8   8
#     4   9  18  33  51  69  93 127 161 191 230 283
#     4  10  21  36  54  76 101 129 162 200 241 287
#     4   9  17  29  46  68  92 118 152 194 234 273
#     4   8  14  26  44  64  87 118 154 188 226 277
#
# _framework density 17.637654999999999
#
# number of rings (size 3 to 8) (size 9 to 14) (size 15 to 20)
#    0.000    3.000    0.000    1.500    0.000    3.500 
#    0.000    3.750    0.000    1.500    0.000    0.000 
#    0.000    0.000    0.000    0.000    0.000    0.000 
#
# Total GULP energy -396752.148172 kJ/mol
# GULP energy per Si atom -12398.504630 kJ/mol
# Density = 1.759751 g / cm^3
# Si number density = 17.637655 Si / 1000 Ang^3
#
#
#
# Elastic Constant Matrix: (Units=GPa)
#
#
# Indices 1 2 3 4 5 6 
#
# 1 64.6799 39.3750 76.6168 0.0000 0.0000 0.0000
# 2 39.3750 64.6799 76.6168 0.0000 0.0000 0.0000
# 3 76.6168 76.6168 190.8960 0.0000 0.0000 0.0000
# 4 0.0000 0.0000 0.0000 33.2088 0.0000 0.0000
# 5 0.0000 0.0000 0.0000 0.0000 33.2088 0.0000
# 6 0.0000 0.0000 0.0000 0.0000 0.0000 18.4368
#
#
#
# Elastic Compliance Matrix: (Units=1/GPa)
#
#
# Indices 1 2 3 4 5 6 
#
# 1 0.031509 -0.008009 -0.009432 0.000000 0.000000 0.000000
# 2 -0.008009 0.031509 -0.009432 0.000000 0.000000 0.000000
# 3 -0.009432 -0.009432 0.012809 0.000000 0.000000 0.000000
# 4 0.000000 0.000000 0.000000 0.030113 0.000000 0.000000
# 5 0.000000 0.000000 0.000000 0.000000 0.030113 0.000000
# 6 0.000000 0.000000 0.000000 0.000000 0.000000 0.054239
#
#
# Mechanical properties :
#
#
# Convention : Reuss Voigt Hill
#
# Bulk Modulus (GPa) = 45.28606 78.38589 61.83597
# Shear Modulus (GPa) = 19.88885 25.48067 22.68476
#
# Velocity S-wave (km/s) = 3.36167 3.80501 3.59019
# Velocity P-wave (km/s) = 6.38743 7.99018 7.23334
#
# Compressibility (1/GPa) = 0.02208185
#
# Stress axis : x y z
#
# Youngs Moduli (GPa) = 31.73714 31.73714 78.06845
#
# Poissons Ratio (x) = 0.25419 0.73631
# Poissons Ratio (y) = 0.25419 0.73631
# Poissons Ratio (z) = 0.29933 0.29933
#
# Static dielectric constant tensor:
#      x y z
#    x 3.164320 0.000000 0.000000 
#    y 0.000000 3.164320 0.000000 
#    z 0.000000 0.000000 3.566090 
# 
# 
# High freq. dielectric constant tensor:
#      x y z
#    x 1.663580 0.000000 0.000000 
#    y 0.000000 1.663580 0.000000 
#    z 0.000000 0.000000 1.695280 
# 
# From -- ./inp_files/4563.got.cif
#   From: 2010.03.12/outbox.cif.g09.slc.cpg/sg115_3_cif.got.tgz:4563.got - 2010.04.14 02:11:21.
