data_PCOD8309335
_publ_section_title
;
Structure prediction by ZEFSAII (Michael W. Deem and Ramdas Pophale) SiO2 
 PCOD8309335
Probable space group: P -4 M 2
;
_chemical_formula_sum "Si O2"
_cell_formula_units_Z 56
_cell_length_a 14.045085
_cell_length_b 14.045085
_cell_length_c 16.409935
_cell_angle_alpha 90.000000
_cell_angle_beta 90.000000
_cell_angle_gamma 90.000000
_cell_volume 3237.096190
_symmetry_space_group_name_H-M "P -4 M 2"
_symmetry_group_IT_number 115
_symmetry_cell_setting 'tetragonal'
loop_
_space_group_symop_operation_xyz
x,y,z
y,-x,-z
-x,-y,z
-y,x,-z
y,x,-z
-y,-x,-z
-x,y,z
x,-y,z
loop_
_atom_site_type_symbol
_atom_site_label
_atom_site_fract_x
_atom_site_fract_y
_atom_site_fract_z
Si Si1 0.769944 0.254285 0.094360
Si Si2 0.394070 0.606124 0.096691
Si Si3 0.603665 0.887922 0.344719
Si Si4 0.113259 0.607876 0.475154
Si Si5 0.731624 0.112344 0.672034
Si Si6 0.778660 0.886398 0.238597
Si Si7 0.394749 0.111663 0.821313
O O1 0.676149 0.310280 0.126557
O O2 0.786279 0.159045 0.148279
O O3 0.856127 0.329148 0.103480
O O4 0.772300 0.227701 0.000000
O O5 0.500000 0.629522 0.129387
O O6 0.363213 0.500000 0.127133
O O7 0.393577 0.606423 0.000000
O O8 0.500000 0.845871 0.321673
O O9 0.635338 0.849651 0.434163
O O10 0.674446 0.861132 0.272441
O O11 0.596731 0.000000 0.353806
O O12 0.147500 0.500000 0.452711
O O13 0.152947 0.688536 0.412866
O O14 0.000000 0.609756 0.469469
O O15 0.836486 0.150584 0.696366
O O16 0.655500 0.146962 0.738932
O O17 0.742095 0.000000 0.669553
O O18 0.799476 0.000000 0.234473
O O19 0.500000 0.157271 0.827288
O O20 0.403290 0.000000 0.823792
#
# Coordination Sequence:
#
# PCOD8309335 Si02
#       7
#     8   8   8   8   8   8   8
#     4  10  20  32  47  65  87 119 160 204 244 290
#     4   8  14  26  45  68  91 111 133 171 230 296
#     4   8  15  29  47  66  91 123 155 186 222 267
#     4   8  13  24  46  73  96 118 146 181 222 272
#     4   9  17  29  47  71  95 120 151 189 236 288
#     4  10  21  34  46  63  91 128 165 202 244 286
#     4   9  17  30  48  69  92 114 141 189 251 299
#
# _framework density 17.299454999999998
#
# number of rings (size 3 to 8) (size 9 to 14) (size 15 to 20)
#    0.000    3.143    0.000    2.143    0.000    4.286 
#    0.000    0.000    0.000    1.714    0.000    6.000 
#    0.000    0.000    0.000   15.714    0.000    2.143 
#
# Total GULP energy -693730.682829 kJ/mol
# GULP energy per Si atom -12388.047908 kJ/mol
# Density = 1.726008 g / cm^3
# Si number density = 17.299455 Si / 1000 Ang^3
#
#
#
# Elastic Constant Matrix: (Units=GPa)
#
#
# Indices 1 2 3 4 5 6 
#
# 1 62.1047 24.0144 29.0938 0.0000 0.0000 0.0000
# 2 24.0144 62.1048 29.0938 0.0000 0.0000 0.0000
# 3 29.0938 29.0938 77.7732 0.0000 0.0000 0.0000
# 4 0.0000 0.0000 0.0000 19.6542 0.0000 0.0000
# 5 0.0000 0.0000 0.0000 0.0000 19.6543 0.0000
# 6 0.0000 0.0000 0.0000 0.0000 0.0000 23.6087
#
#
#
# Elastic Compliance Matrix: (Units=1/GPa)
#
#
# Indices 1 2 3 4 5 6 
#
# 1 0.020896 -0.005357 -0.005813 0.000000 0.000000 0.000000
# 2 -0.005357 0.020896 -0.005813 0.000000 0.000000 0.000000
# 3 -0.005813 -0.005813 0.017207 0.000000 0.000000 0.000000
# 4 0.000000 0.000000 0.000000 0.050880 0.000000 0.000000
# 5 0.000000 0.000000 0.000000 0.000000 0.050879 0.000000
# 6 0.000000 0.000000 0.000000 0.000000 0.000000 0.042357
#
#
# Mechanical properties :
#
#
# Convention : Reuss Voigt Hill
#
# Bulk Modulus (GPa) = 39.94613 40.70964 40.32789
# Shear Modulus (GPa) = 20.37263 20.56881 20.47072
#
# Velocity S-wave (km/s) = 3.43541 3.45191 3.44367
# Velocity P-wave (km/s) = 6.23515 6.28259 6.25892
#
# Compressibility (1/GPa) = 0.02503371
#
# Stress axis : x y z
#
# Youngs Moduli (GPa) = 47.85497 47.85500 58.11559
#
# Poissons Ratio (x) = 0.25636 0.33783
# Poissons Ratio (y) = 0.25636 0.33783
# Poissons Ratio (z) = 0.27819 0.27819
#
# Static dielectric constant tensor:
#      x y z
#    x 3.309450 0.000000 0.000000 
#    y 0.000000 3.309450 0.000000 
#    z 0.000000 0.000000 3.201190 
# 
# 
# High freq. dielectric constant tensor:
#      x y z
#    x 1.654090 0.000000 0.000000 
#    y 0.000000 1.654090 0.000000 
#    z 0.000000 0.000000 1.655490 
# 
# From -- ./inp_files/3808.got.cif
#   From: 2010.03.12/outbox.cif.g09.slc.cpg/sg115_2_cif.got.tgz:3808.got - 2010.04.14 02:11:21.
