data_PCOD8309445
_publ_section_title
;
Structure prediction by ZEFSAII (Michael W. Deem and Ramdas Pophale) SiO2 
 PCOD8309445
Probable space group: P -4 M 2
;
_chemical_formula_sum "Si O2"
_cell_formula_units_Z 40
_cell_length_a 8.841753
_cell_length_b 8.841753
_cell_length_c 26.298067
_cell_angle_alpha 90.000000
_cell_angle_beta 90.000000
_cell_angle_gamma 90.000000
_cell_volume 2055.893362
_symmetry_space_group_name_H-M "P -4 M 2"
_symmetry_group_IT_number 115
_symmetry_cell_setting 'tetragonal'
loop_
_space_group_symop_operation_xyz
x,y,z
y,-x,-z
-x,-y,z
-y,x,-z
y,x,-z
-y,-x,-z
-x,y,z
x,-y,z
loop_
_atom_site_type_symbol
_atom_site_label
_atom_site_fract_x
_atom_site_fract_y
_atom_site_fract_z
Si Si1 0.179445 0.172270 0.446483
Si Si2 0.329308 0.820349 0.763197
Si Si3 0.828861 0.819834 0.662642
Si Si4 0.323207 0.173513 0.142299
Si Si5 0.175546 0.325492 0.047421
O O1 0.244750 0.244750 0.500000
O O2 0.232435 0.244219 0.392261
O O3 0.000000 0.182075 0.451548
O O4 0.232318 0.000000 0.442343
O O5 0.500000 0.763441 0.772612
O O6 0.274585 0.758157 0.708371
O O7 0.218709 0.756299 0.805615
O O8 0.320689 0.000000 0.765188
O O9 0.000000 0.758238 0.669613
O O10 0.832974 0.000000 0.663617
O O11 0.500000 0.198236 0.148941
O O12 0.266570 0.279358 0.097196
O O13 0.283416 0.000000 0.129504
O O14 0.208805 0.500000 0.034805
O O15 0.000000 0.296837 0.058174
O O16 0.225566 0.225566 0.000000
#
# Coordination Sequence:
#
# PCOD8309445 Si02
#       5
#     8   8   8   8   8
#     4   7   9  14  27  51  83 116 152 197 248 300
#     4  10  20  33  50  74 103 135 172 213 258 310
#     4   8  13  22  38  61  90 124 161 204 255 306
#     4  11  24  40  58  81 107 137 176 219 262 309
#     4  11  24  41  62  89 118 147 180 215 252 298
#
# _framework density 19.456264000000001
#
# number of rings (size 3 to 8) (size 9 to 14) (size 15 to 20)
#    0.000    2.600    0.000    4.800    0.000    9.200 
#    0.000    0.000    0.000    0.000    0.000    1.400 
#    0.000    8.000    0.000    0.000    0.000    0.000 
#
# Total GULP energy -495592.607449 kJ/mol
# GULP energy per Si atom -12389.815186 kJ/mol
# Density = 1.941198 g / cm^3
# Si number density = 19.456264 Si / 1000 Ang^3
#
#
#
# Elastic Constant Matrix: (Units=GPa)
#
#
# Indices 1 2 3 4 5 6 
#
# 1 18.8444 37.3462 16.7144 0.0000 0.0000 0.0000
# 2 37.3462 18.8444 16.7144 0.0000 0.0000 0.0000
# 3 16.7144 16.7144 147.3301 0.0000 0.0000 0.0000
# 4 0.0000 0.0000 0.0000 -12.6214 0.0000 0.0000
# 5 0.0000 0.0000 0.0000 0.0000 -12.6214 0.0000
# 6 0.0000 0.0000 0.0000 0.0000 0.0000 18.9829
#
#
#
# Elastic Compliance Matrix: (Units=1/GPa)
#
#
# Indices 1 2 3 4 5 6 
#
# 1 -0.017482 0.036567 -0.002165 0.000000 0.000000 0.000000
# 2 0.036567 -0.017482 -0.002165 0.000000 0.000000 0.000000
# 3 -0.002165 -0.002165 0.007279 0.000000 0.000000 0.000000
# 4 0.000000 0.000000 0.000000 -0.079230 0.000000 0.000000
# 5 0.000000 0.000000 0.000000 0.000000 -0.079230 0.000000
# 6 0.000000 0.000000 0.000000 0.000000 0.000000 0.052679
#
#
# Mechanical properties :
#
#
# Convention : Reuss Voigt Hill
#
# Bulk Modulus (GPa) = 27.18312 36.28544 31.73428
# Shear Modulus (GPa) = -26.92833 6.36428 -10.28202
#
# Velocity S-wave (km/s) = -3.72431 1.81057 -2.30134
# Velocity P-wave (km/s) = 2.11949 4.80220 3.04704
#
# Compressibility (1/GPa) = 0.03678754
#
# Stress axis : x y z
#
# Youngs Moduli (GPa) = -57.20126 -57.20126 137.38642
#
# Poissons Ratio (x) = 2.09167 0.29746
# Poissons Ratio (y) = 2.09167 0.29746
# Poissons Ratio (z) = -0.12385 -0.12385
#
# Static dielectric constant tensor:
#      x y z
#    x 3.284540 0.000000 0.000000 
#    y 0.000000 3.284540 0.000000 
#    z 0.000000 0.000000 4.356380 
# 
# 
# High freq. dielectric constant tensor:
#      x y z
#    x 1.720310 0.000000 0.000000 
#    y 0.000000 1.720310 0.000000 
#    z 0.000000 0.000000 1.791350 
# 
# From -- ./inp_files/5466.got.cif
#   From: 2010.03.12/outbox.cif.g09.slc.cpg/sg115_3_cif.got.tgz:5466.got - 2010.04.14 02:11:21.
