data_PCOD8309968
_publ_section_title
;
Structure prediction by ZEFSAII (Michael W. Deem and Ramdas Pophale) SiO2 
 PCOD8309968
Probable space group: P -4 M 2
;
_chemical_formula_sum "Si O2"
_cell_formula_units_Z 56
_cell_length_a 13.803818
_cell_length_b 13.803818
_cell_length_c 13.964168
_cell_angle_alpha 90.000000
_cell_angle_beta 90.000000
_cell_angle_gamma 90.000000
_cell_volume 2660.807857
_symmetry_space_group_name_H-M "P -4 M 2"
_symmetry_group_IT_number 115
_symmetry_cell_setting 'tetragonal'
loop_
_space_group_symop_operation_xyz
x,y,z
y,-x,-z
-x,-y,z
-y,x,-z
y,x,-z
-y,-x,-z
-x,y,z
x,-y,z
loop_
_atom_site_type_symbol
_atom_site_label
_atom_site_fract_x
_atom_site_fract_y
_atom_site_fract_z
Si Si1 0.613511 0.756691 0.740096
Si Si2 0.143087 0.107144 0.108664
Si Si3 0.892535 0.635380 0.869519
Si Si4 0.895461 0.779762 0.282331
Si Si5 0.229679 0.392179 0.685299
Si Si6 0.244036 0.605122 0.037230
Si Si7 0.230767 0.884945 0.417999
O O1 0.500000 0.758071 0.708207
O O2 0.676801 0.844041 0.695406
O O3 0.665505 0.657789 0.705453
O O4 0.625506 0.776761 0.852359
O O5 0.251318 0.103848 0.145697
O O6 0.089968 0.189709 0.171128
O O7 0.095388 0.000000 0.117968
O O8 0.141520 0.141520 0.000000
O O9 0.824928 0.594252 0.786075
O O10 0.853609 0.607298 0.974710
O O11 0.000000 0.590819 0.860094
O O12 0.837074 0.870826 0.325674
O O13 0.000000 0.769376 0.331390
O O14 0.249321 0.500000 0.643953
O O15 0.163974 0.334702 0.607197
O O16 0.293497 0.500000 0.027310
O O17 0.316168 0.683833 0.000000
O O18 0.176572 0.823429 0.500000
O O19 0.241723 0.000000 0.441194
#
# Coordination Sequence:
#
# PCOD8309968 Si02
#       7
#     8   8   8   8   8   8   8
#     4  10  22  39  60  86 124 169 215 266 318 376
#     4  11  21  33  52  83 127 174 215 260 317 380
#     4  11  21  35  56  84 122 168 216 269 326 381
#     4  11  22  38  60  87 123 167 215 262 309 372
#     4  11  23  42  68  96 127 162 209 268 326 384
#     4  11  21  34  52  79 118 163 213 266 316 368
#     4  11  24  44  68  99 133 166 206 255 314 377
#
# _framework density 21.046237999999999
#
# number of rings (size 3 to 8) (size 9 to 14) (size 15 to 20)
#    0.000    1.143    4.286    3.429    0.000    7.000 
#    0.000    5.714    0.000    3.429    0.000    0.000 
#    0.000    0.000    0.000    0.000    0.000    0.000 
#
# Total GULP energy -693913.660854 kJ/mol
# GULP energy per Si atom -12391.315372 kJ/mol
# Density = 2.099834 g / cm^3
# Si number density = 21.046238 Si / 1000 Ang^3
#
#
#
# Elastic Constant Matrix: (Units=GPa)
#
#
# Indices 1 2 3 4 5 6 
#
# 1 154.2526 32.7190 23.1518 0.0000 0.0000 0.0000
# 2 32.7190 154.2497 23.1516 0.0000 0.0000 0.0000
# 3 23.1518 23.1516 68.4081 0.0000 0.0000 0.0000
# 4 0.0000 0.0000 0.0000 21.0738 0.0000 0.0000
# 5 0.0000 0.0000 0.0000 0.0000 21.0743 0.0000
# 6 0.0000 0.0000 0.0000 0.0000 0.0000 12.0171
#
#
#
# Elastic Compliance Matrix: (Units=1/GPa)
#
#
# Indices 1 2 3 4 5 6 
#
# 1 0.007033 -0.001195 -0.001976 0.000000 0.000000 0.000000
# 2 -0.001195 0.007033 -0.001976 0.000000 0.000000 0.000000
# 3 -0.001976 -0.001976 0.015955 0.000000 0.000000 0.000000
# 4 0.000000 0.000000 0.000000 0.047452 0.000000 0.000000
# 5 0.000000 0.000000 0.000000 0.000000 0.047451 0.000000
# 6 0.000000 0.000000 0.000000 0.000000 0.000000 0.083215
#
#
# Mechanical properties :
#
#
# Convention : Reuss Voigt Hill
#
# Bulk Modulus (GPa) = 50.68904 59.43946 55.06425
# Shear Modulus (GPa) = 22.22135 30.69225 26.45680
#
# Velocity S-wave (km/s) = 3.25289 3.82294 3.54938
# Velocity P-wave (km/s) = 6.18427 6.91304 6.55879
#
# Compressibility (1/GPa) = 0.01972813
#
# Stress axis : x y z
#
# Youngs Moduli (GPa) = 142.18816 142.18538 62.67458
#
# Poissons Ratio (x) = 0.16995 0.12382
# Poissons Ratio (y) = 0.16995 0.12383
# Poissons Ratio (z) = 0.28092 0.28092
#
# Static dielectric constant tensor:
#      x y z
#    x 4.004490 0.000000 0.000000 
#    y 0.000000 4.004500 0.000000 
#    z 0.000000 0.000000 3.634670 
# 
# 
# High freq. dielectric constant tensor:
#      x y z
#    x 1.826820 0.000000 0.000000 
#    y 0.000000 1.826820 0.000000 
#    z 0.000000 0.000000 1.808050 
# 
# From -- ./inp_files/3788.got.cif
#   From: 2010.03.12/outbox.cif.g09.slc.cpg/sg115_2_cif.got.tgz:3788.got - 2010.04.14 02:11:21.
