data_PCOD8309438
_publ_section_title
;
Structure prediction by ZEFSAII (Michael W. Deem and Ramdas Pophale) SiO2 
 PCOD8309438
Probable space group: P -4 M 2
;
_chemical_formula_sum "Si O2"
_cell_formula_units_Z 48
_cell_length_a 9.040129
_cell_length_b 9.040129
_cell_length_c 30.917174
_cell_angle_alpha 90.000000
_cell_angle_beta 90.000000
_cell_angle_gamma 90.000000
_cell_volume 2526.673036
_symmetry_space_group_name_H-M "P -4 M 2"
_symmetry_group_IT_number 115
_symmetry_cell_setting 'tetragonal'
loop_
_space_group_symop_operation_xyz
x,y,z
y,-x,-z
-x,-y,z
-y,x,-z
y,x,-z
-y,-x,-z
-x,y,z
x,-y,z
loop_
_atom_site_type_symbol
_atom_site_label
_atom_site_fract_x
_atom_site_fract_y
_atom_site_fract_z
Si Si1 0.169663 0.173634 0.626771
Si Si2 0.173806 0.670401 0.961046
Si Si3 0.830315 0.673130 0.538515
Si Si4 0.675996 0.333446 0.125484
Si Si5 0.833321 0.676105 0.790545
Si Si6 0.670349 0.326519 0.295744
O O1 0.221766 0.247641 0.582256
O O2 0.273739 0.232304 0.664412
O O3 0.000000 0.215875 0.637221
O O4 0.191530 0.000000 0.621983
O O5 0.216944 0.500000 0.970005
O O6 0.249394 0.729972 0.917358
O O7 0.000000 0.689808 0.955513
O O8 0.229994 0.770006 0.000000
O O9 0.727604 0.727604 0.500000
O O10 0.807705 0.500000 0.545021
O O11 0.000000 0.713528 0.527797
O O12 0.500000 0.333510 0.127584
O O13 0.738404 0.500000 0.124610
O O14 0.740892 0.250719 0.167573
O O15 0.832247 0.500000 0.792362
O O16 0.751645 0.731364 0.747417
O O17 0.000000 0.737907 0.790364
O O18 0.500000 0.283452 0.304411
O O19 0.689612 0.500000 0.289244
#
# Coordination Sequence:
#
# PCOD8309438 Si02
#       6
#     8   8   8   8   8   8
#     4  10  21  37  57  79 104 138 179 220 263 313
#     4  10  20  33  50  73 101 134 173 215 259 309
#     4  10  21  37  58  83 110 141 177 217 263 315
#     4   9  16  27  46  73 104 135 169 212 260 309
#     4   9  16  27  46  73 105 139 174 214 260 310
#     4  10  20  33  51  77 108 141 178 220 265 312
#
# _framework density 18.997312000000001
#
# number of rings (size 3 to 8) (size 9 to 14) (size 15 to 20)
#    0.000    2.333    0.000    3.000    0.000    8.667 
#    0.000    0.000    0.000    1.000    0.000    0.000 
#    0.000    0.000    0.000    0.000    0.000    0.000 
#
# Total GULP energy -595360.020801 kJ/mol
# GULP energy per Si atom -12403.333767 kJ/mol
# Density = 1.895407 g / cm^3
# Si number density = 18.997312 Si / 1000 Ang^3
#
#
#
# Elastic Constant Matrix: (Units=GPa)
#
#
# Indices 1 2 3 4 5 6 
#
# 1 82.5927 34.4490 61.0142 0.0000 0.0000 0.0000
# 2 34.4490 82.5927 61.0142 0.0000 0.0000 0.0000
# 3 61.0142 61.0142 170.1798 0.0000 0.0000 0.0000
# 4 0.0000 0.0000 0.0000 6.2869 0.0000 0.0000
# 5 0.0000 0.0000 0.0000 0.0000 6.2869 0.0000
# 6 0.0000 0.0000 0.0000 0.0000 0.0000 21.9648
#
#
#
# Elastic Compliance Matrix: (Units=1/GPa)
#
#
# Indices 1 2 3 4 5 6 
#
# 1 0.017208 -0.003563 -0.004892 0.000000 0.000000 0.000000
# 2 -0.003563 0.017208 -0.004892 0.000000 0.000000 0.000000
# 3 -0.004892 -0.004892 0.009384 0.000000 0.000000 0.000000
# 4 0.000000 0.000000 0.000000 0.159060 0.000000 0.000000
# 5 0.000000 0.000000 0.000000 0.000000 0.159060 0.000000
# 6 0.000000 0.000000 0.000000 0.000000 0.000000 0.045527
#
#
# Mechanical properties :
#
#
# Convention : Reuss Voigt Hill
#
# Bulk Modulus (GPa) = 58.46258 72.03558 65.24908
# Shear Modulus (GPa) = 11.36772 18.83360 15.10066
#
# Velocity S-wave (km/s) = 2.44885 3.15204 2.82243
# Velocity P-wave (km/s) = 6.23191 7.15879 6.71137
#
# Compressibility (1/GPa) = 0.01710496
#
# Stress axis : x y z
#
# Youngs Moduli (GPa) = 58.11362 58.11362 106.56602
#
# Poissons Ratio (x) = 0.20709 0.52130
# Poissons Ratio (y) = 0.20709 0.52130
# Poissons Ratio (z) = 0.28428 0.28428
#
# Static dielectric constant tensor:
#      x y z
#    x 3.326970 0.000000 0.000000 
#    y 0.000000 3.326970 0.000000 
#    z 0.000000 0.000000 3.634680 
# 
# 
# High freq. dielectric constant tensor:
#      x y z
#    x 1.721740 0.000000 0.000000 
#    y 0.000000 1.721740 0.000000 
#    z 0.000000 0.000000 1.754800 
# 
# From -- ./inp_files/6015.got.cif
#   From: 2010.03.12/outbox.cif.g09.slc.cpg/sg115_4_cif.got.tgz:6015.got - 2010.04.14 02:11:21.
