data_PCOD8309970
_publ_section_title
;
Structure prediction by ZEFSAII (Michael W. Deem and Ramdas Pophale) SiO2 
 PCOD8309970
Probable space group: P -4 M 2
;
_chemical_formula_sum "Si O2"
_cell_formula_units_Z 32
_cell_length_a 11.956038
_cell_length_b 11.956038
_cell_length_c 11.985349
_cell_angle_alpha 90.000000
_cell_angle_beta 90.000000
_cell_angle_gamma 90.000000
_cell_volume 1713.267822
_symmetry_space_group_name_H-M "P -4 M 2"
_symmetry_group_IT_number 115
_symmetry_cell_setting 'tetragonal'
loop_
_space_group_symop_operation_xyz
x,y,z
y,-x,-z
-x,-y,z
-y,x,-z
y,x,-z
-y,-x,-z
-x,y,z
x,-y,z
loop_
_atom_site_type_symbol
_atom_site_label
_atom_site_fract_x
_atom_site_fract_y
_atom_site_fract_z
Si Si1 0.123400 0.123400 0.000000
Si Si2 0.224244 0.271932 0.821679
Si Si3 0.738870 0.134314 0.597364
Si Si4 0.370657 0.370657 0.000000
Si Si5 0.500000 0.868238 0.264361
Si Si6 0.500000 0.868462 0.509795
O O1 0.209141 0.137098 0.100306
O O2 0.000000 0.140173 0.050330
O O3 0.237721 0.195741 0.713084
O O4 0.338246 0.295210 0.891649
O O5 0.171109 0.390770 0.798177
O O6 0.821215 0.178785 0.500000
O O7 0.611477 0.169868 0.572749
O O8 0.754294 0.000000 0.607522
O O9 0.347864 0.500000 0.973246
O O10 0.500000 0.813504 0.387421
O O11 0.500000 0.000000 0.271635
O O12 0.500000 0.000000 0.496659
#
# Coordination Sequence:
#
# PCOD8309970 Si02
#       6
#     4   8   8   4   4   4
#     4  10  22  40  60  84 118 156 196 246 296 344
#     4  11  22  38  62  88 118 156 198 246 296 358
#     4  11  23  39  61  91 124 157 198 245 301 360
#     4  10  22  40  60  86 118 154 198 252 308 354
#     4  11  20  36  60  85 116 160 200 236 285 356
#     4   9  20  38  57  82 119 157 194 242 289 350
#
# _framework density 18.677757
#
# number of rings (size 3 to 8) (size 9 to 14) (size 15 to 20)
#    0.000    1.500    3.750    1.500    1.750    1.250 
#    0.000    0.000    0.000    1.875    0.000    0.000 
#    0.000    0.000    0.000    0.000    0.000    0.000 
#
# Total GULP energy -396663.294476 kJ/mol
# GULP energy per Si atom -12395.727952 kJ/mol
# Density = 1.863525 g / cm^3
# Si number density = 18.677757 Si / 1000 Ang^3
#
#
#
# Elastic Constant Matrix: (Units=GPa)
#
#
# Indices 1 2 3 4 5 6 
#
# 1 122.7650 50.6854 59.2527 0.0000 0.0000 0.0000
# 2 50.6854 122.7652 59.2529 0.0000 0.0000 0.0000
# 3 59.2527 59.2529 141.2633 0.0000 0.0000 0.0000
# 4 0.0000 0.0000 0.0000 30.0879 0.0000 0.0000
# 5 0.0000 0.0000 0.0000 0.0000 30.0876 0.0000
# 6 0.0000 0.0000 0.0000 0.0000 0.0000 23.9707
#
#
#
# Elastic Compliance Matrix: (Units=1/GPa)
#
#
# Indices 1 2 3 4 5 6 
#
# 1 0.010977 -0.002896 -0.003390 0.000000 0.000000 0.000000
# 2 -0.002896 0.010977 -0.003390 0.000000 0.000000 0.000000
# 3 -0.003390 -0.003390 0.009923 0.000000 0.000000 0.000000
# 4 0.000000 0.000000 0.000000 0.033236 0.000000 0.000000
# 5 0.000000 0.000000 0.000000 0.000000 0.033236 0.000000
# 6 0.000000 0.000000 0.000000 0.000000 0.000000 0.041718
#
#
# Mechanical properties :
#
#
# Convention : Reuss Voigt Hill
#
# Bulk Modulus (GPa) = 79.83163 80.57507 80.20335
# Shear Modulus (GPa) = 30.56354 31.33606 30.94980
#
# Velocity S-wave (km/s) = 4.04958 4.10044 4.07509
# Velocity P-wave (km/s) = 8.04362 8.10256 8.07314
#
# Compressibility (1/GPa) = 0.01252636
#
# Stress axis : x y z
#
# Youngs Moduli (GPa) = 91.09632 91.09641 100.78031
#
# Poissons Ratio (x) = 0.26383 0.34161
# Poissons Ratio (y) = 0.26383 0.34161
# Poissons Ratio (z) = 0.30879 0.30879
#
# Static dielectric constant tensor:
#      x y z
#    x 3.525350 0.000000 0.000000 
#    y 0.000000 3.525350 0.000000 
#    z 0.000000 0.000000 3.623690 
# 
# 
# High freq. dielectric constant tensor:
#      x y z
#    x 1.728810 0.000000 0.000000 
#    y 0.000000 1.728810 0.000000 
#    z 0.000000 0.000000 1.735110 
# 
# From -- ./inp_files/2584.got.cif
#   From: 2010.03.12/outbox.cif.g09.slc.cpg/sg115_2_cif.got.tgz:2584.got - 2010.04.14 02:11:21.
