data_PCOD8309252
_publ_section_title
;
Structure prediction by ZEFSAII (Michael W. Deem and Ramdas Pophale) SiO2 
 PCOD8309252
Probable space group: P -4 M 2
;
_chemical_formula_sum "Si O2"
_cell_formula_units_Z 56
_cell_length_a 14.569683
_cell_length_b 14.569683
_cell_length_c 14.579578
_cell_angle_alpha 90.000000
_cell_angle_beta 90.000000
_cell_angle_gamma 90.000000
_cell_volume 3094.889582
_symmetry_space_group_name_H-M "P -4 M 2"
_symmetry_group_IT_number 115
_symmetry_cell_setting 'tetragonal'
loop_
_space_group_symop_operation_xyz
x,y,z
y,-x,-z
-x,-y,z
-y,x,-z
y,x,-z
-y,-x,-z
-x,y,z
x,-y,z
loop_
_atom_site_type_symbol
_atom_site_label
_atom_site_fract_x
_atom_site_fract_y
_atom_site_fract_z
Si Si1 0.168156 0.898747 0.594708
Si Si2 0.200200 0.604467 0.233753
Si Si3 0.400576 0.258607 0.460763
Si Si4 0.277386 0.790186 0.297740
Si Si5 0.100512 0.392136 0.054451
Si Si6 0.099633 0.622590 0.409863
Si Si7 0.395783 0.108956 0.149923
O O1 0.112850 0.887151 0.500000
O O2 0.158958 0.818081 0.671596
O O3 0.272132 0.897187 0.562485
O O4 0.142081 0.000000 0.636144
O O5 0.242553 0.500000 0.229535
O O6 0.269628 0.682093 0.271444
O O7 0.169608 0.641009 0.133583
O O8 0.112522 0.604585 0.301238
O O9 0.343155 0.343155 0.500000
O O10 0.500000 0.295666 0.426852
O O11 0.347640 0.205406 0.381300
O O12 0.424380 0.183410 0.538070
O O13 0.320277 0.845899 0.214474
O O14 0.088202 0.500000 0.064215
O O15 0.000000 0.345927 0.067463
O O16 0.139725 0.369099 0.953508
O O17 0.000000 0.581490 0.436955
O O18 0.500000 0.141261 0.173740
O O19 0.389983 0.000000 0.159148
#
# Coordination Sequence:
#
# PCOD8309252 Si02
#       7
#     8   8   8   8   8   8   8
#     4  10  19  35  54  74 106 142 175 215 262 311
#     4  10  19  31  51  77 110 140 168 209 263 316
#     4  12  23  38  53  73 105 143 182 222 264 313
#     4  11  21  36  52  81 108 138 178 221 262 307
#     4   8  15  30  52  80 109 135 169 214 265 318
#     4  10  19  33  55  80 105 134 170 219 275 318
#     4   9  19  36  57  79 105 138 174 218 270 315
#
# _framework density 18.094345000000001
#
# number of rings (size 3 to 8) (size 9 to 14) (size 15 to 20)
#    0.000    2.000    4.286    2.143    0.000    4.286 
#    0.000    0.000    0.000    1.286    0.000    0.000 
#    0.000    8.000    0.000    0.000    0.000    0.000 
#
# Total GULP energy -693732.186054 kJ/mol
# GULP energy per Si atom -12388.074751 kJ/mol
# Density = 1.805316 g / cm^3
# Si number density = 18.094345 Si / 1000 Ang^3
#
#
#
# Elastic Constant Matrix: (Units=GPa)
#
#
# Indices 1 2 3 4 5 6 
#
# 1 89.6816 26.4671 42.7408 0.0000 0.0000 0.0000
# 2 26.4671 89.6811 42.7403 0.0000 0.0000 0.0000
# 3 42.7408 42.7403 112.9382 0.0000 0.0000 0.0000
# 4 0.0000 0.0000 0.0000 18.3115 0.0000 0.0000
# 5 0.0000 0.0000 0.0000 0.0000 18.3116 0.0000
# 6 0.0000 0.0000 0.0000 0.0000 0.0000 -28.9737
#
#
#
# Elastic Compliance Matrix: (Units=1/GPa)
#
#
# Indices 1 2 3 4 5 6 
#
# 1 0.013876 -0.001943 -0.004516 0.000000 0.000000 0.000000
# 2 -0.001943 0.013876 -0.004516 0.000000 0.000000 0.000000
# 3 -0.004516 -0.004516 0.012273 0.000000 0.000000 0.000000
# 4 0.000000 0.000000 0.000000 0.054610 0.000000 0.000000
# 5 0.000000 0.000000 0.000000 0.000000 0.054610 0.000000
# 6 0.000000 0.000000 0.000000 0.000000 0.000000 -0.034514
#
#
# Mechanical properties :
#
#
# Convention : Reuss Voigt Hill
#
# Bulk Modulus (GPa) = 55.32527 57.35525 56.34026
# Shear Modulus (GPa) = 35.03685 13.55340 24.29513
#
# Velocity S-wave (km/s) = 4.40516 2.73983 3.66825
# Velocity P-wave (km/s) = 7.51773 6.46340 7.01042
#
# Compressibility (1/GPa) = 0.01807492
#
# Stress axis : x y z
#
# Youngs Moduli (GPa) = 72.06555 72.06536 81.48275
#
# Poissons Ratio (x) = 0.14002 0.36798
# Poissons Ratio (y) = 0.14002 0.36798
# Poissons Ratio (z) = 0.32546 0.32545
#
# Static dielectric constant tensor:
#      x y z
#    x 3.360220 0.000000 0.000000 
#    y 0.000000 3.360220 0.000000 
#    z 0.000000 0.000000 3.529090 
# 
# 
# High freq. dielectric constant tensor:
#      x y z
#    x 1.687170 0.000000 0.000000 
#    y 0.000000 1.687170 0.000000 
#    z 0.000000 0.000000 1.698200 
# 
# From -- ./inp_files/3879.got.cif
#   From: 2010.03.12/outbox.cif.g09.slc.cpg/sg115_2_cif.got.tgz:3879.got - 2010.04.14 02:11:21.
