data_PCOD8309603
_publ_section_title
;
Structure prediction by ZEFSAII (Michael W. Deem and Ramdas Pophale) SiO2 
 PCOD8309603
Probable space group: P -4 M 2
;
_chemical_formula_sum "Si O2"
_cell_formula_units_Z 48
_cell_length_a 9.105132
_cell_length_b 9.105132
_cell_length_c 30.815417
_cell_angle_alpha 90.000000
_cell_angle_beta 90.000000
_cell_angle_gamma 90.000000
_cell_volume 2554.703727
_symmetry_space_group_name_H-M "P -4 M 2"
_symmetry_group_IT_number 115
_symmetry_cell_setting 'tetragonal'
loop_
_space_group_symop_operation_xyz
x,y,z
y,-x,-z
-x,-y,z
-y,x,-z
y,x,-z
-y,-x,-z
-x,y,z
x,-y,z
loop_
_atom_site_type_symbol
_atom_site_label
_atom_site_fract_x
_atom_site_fract_y
_atom_site_fract_z
Si Si1 0.168951 0.330988 0.834902
Si Si2 0.825703 0.167484 0.329876
Si Si3 0.334301 0.825211 0.585432
Si Si4 0.328846 0.328846 0.000000
Si Si5 0.172403 0.169351 0.077521
Si Si6 0.670601 0.671047 0.747903
Si Si7 0.828882 0.171119 0.500000
O O1 0.197326 0.500000 0.847409
O O2 0.215635 0.232235 0.875519
O O3 0.268628 0.281485 0.794721
O O4 0.000000 0.304393 0.821950
O O5 0.764298 0.247388 0.372888
O O6 0.763044 0.246068 0.287984
O O7 0.000000 0.177267 0.327916
O O8 0.771344 0.000000 0.331034
O O9 0.500000 0.764628 0.587116
O O10 0.256867 0.767544 0.541797
O O11 0.331263 0.000000 0.585700
O O12 0.271738 0.246587 0.957762
O O13 0.295808 0.500000 0.994474
O O14 0.000000 0.196630 0.076532
O O15 0.211542 0.000000 0.067383
O O16 0.500000 0.710382 0.745932
O O17 0.700617 0.500000 0.739568
O O18 0.000000 0.201462 0.507953
#
# Coordination Sequence:
#
# PCOD8309603 Si02
#       7
#     8   8   8   4   8   8   4
#     4   9  18  34  55  77 105 143 182 218 259 310
#     4  10  20  34  54  79 105 136 177 222 265 311
#     4   9  17  30  49  73 101 132 167 210 260 311
#     4  11  24  39  56  80 110 145 184 223 264 314
#     4  10  21  37  58  84 112 141 176 220 268 316
#     4  10  21  36  54  78 109 143 177 216 264 316
#     4   9  16  28  48  71  94 124 166 211 252 302
#
# _framework density 18.788872999999999
#
# number of rings (size 3 to 8) (size 9 to 14) (size 15 to 20)
#    0.000    2.333    0.000    2.500    0.000    8.000 
#    0.000    4.167    0.000    3.250    0.000    0.000 
#    0.000    0.000    0.000    0.000    0.000    0.000 
#
# Total GULP energy -595361.636377 kJ/mol
# GULP energy per Si atom -12403.367425 kJ/mol
# Density = 1.874611 g / cm^3
# Si number density = 18.788873 Si / 1000 Ang^3
#
#
#
# Elastic Constant Matrix: (Units=GPa)
#
#
# Indices 1 2 3 4 5 6 
#
# 1 82.1727 41.2772 66.8464 0.0000 0.0000 0.0000
# 2 41.2772 82.1722 66.8464 0.0000 0.0000 0.0000
# 3 66.8464 66.8464 153.3078 0.0000 0.0000 0.0000
# 4 0.0000 0.0000 0.0000 -41.0645 0.0000 0.0000
# 5 0.0000 0.0000 0.0000 0.0000 -41.0786 0.0000
# 6 0.0000 0.0000 0.0000 0.0000 0.0000 24.5055
#
#
#
# Elastic Compliance Matrix: (Units=1/GPa)
#
#
# Indices 1 2 3 4 5 6 
#
# 1 0.019900 -0.004552 -0.006692 0.000000 0.000000 0.000000
# 2 -0.004552 0.019900 -0.006692 0.000000 0.000000 0.000000
# 3 -0.006692 -0.006692 0.012359 0.000000 0.000000 0.000000
# 4 0.000000 0.000000 0.000000 -0.024352 0.000000 0.000000
# 5 0.000000 0.000000 0.000000 0.000000 -0.024344 0.000000
# 6 0.000000 0.000000 0.000000 0.000000 0.000000 0.040807
#
#
# Mechanical properties :
#
#
# Convention : Reuss Voigt Hill
#
# Bulk Modulus (GPa) = 61.40233 74.17697 67.78965
# Shear Modulus (GPa) = 58.42981 -2.01535 28.20723
#
# Velocity S-wave (km/s) = 5.58262 -1.03680 3.87883
# Velocity P-wave (km/s) = 8.62005 6.17508 7.49790
#
# Compressibility (1/GPa) = 0.01628603
#
# Stress axis : x y z
#
# Youngs Moduli (GPa) = 50.25086 50.25037 80.91475
#
# Poissons Ratio (x) = 0.22876 0.54148
# Poissons Ratio (y) = 0.22876 0.54149
# Poissons Ratio (z) = 0.33628 0.33628
#
# Static dielectric constant tensor:
#      x y z
#    x 3.417040 0.000000 0.000000 
#    y 0.000000 3.417040 0.000000 
#    z 0.000000 0.000000 3.595480 
# 
# 
# High freq. dielectric constant tensor:
#      x y z
#    x 1.721480 0.000000 0.000000 
#    y 0.000000 1.721480 0.000000 
#    z 0.000000 0.000000 1.744920 
# 
# From -- ./inp_files/6232.got.cif
#   From: 2010.03.12/outbox.cif.g09.slc.cpg/sg115_4_cif.got.tgz:6232.got - 2010.04.14 02:11:21.
