data_PCOD8309272
_publ_section_title
;
Structure prediction by ZEFSAII (Michael W. Deem and Ramdas Pophale) SiO2 
 PCOD8309272
Probable space group: P -4 M 2
;
_chemical_formula_sum "Si O2"
_cell_formula_units_Z 40
_cell_length_a 13.451678
_cell_length_b 13.451678
_cell_length_c 12.367064
_cell_angle_alpha 90.000000
_cell_angle_beta 90.000000
_cell_angle_gamma 90.000000
_cell_volume 2237.791057
_symmetry_space_group_name_H-M "P -4 M 2"
_symmetry_group_IT_number 115
_symmetry_cell_setting 'tetragonal'
loop_
_space_group_symop_operation_xyz
x,y,z
y,-x,-z
-x,-y,z
-y,x,-z
y,x,-z
-y,-x,-z
-x,y,z
x,-y,z
loop_
_atom_site_type_symbol
_atom_site_label
_atom_site_fract_x
_atom_site_fract_y
_atom_site_fract_z
Si Si1 0.278749 0.882361 0.800740
Si Si2 0.883050 0.391922 0.641675
Si Si3 0.222004 0.383455 0.018133
Si Si4 0.261905 0.884985 0.552227
Si Si5 0.263649 0.883950 0.159801
O O1 0.287098 0.855141 0.674505
O O2 0.174794 0.840760 0.849963
O O3 0.284756 0.000000 0.821826
O O4 0.367246 0.823403 0.861772
O O5 0.833305 0.500000 0.658985
O O6 0.856534 0.356954 0.520674
O O7 0.843379 0.314897 0.730478
O O8 0.000000 0.400667 0.657894
O O9 0.238763 0.500000 0.997308
O O10 0.139490 0.338714 0.937450
O O11 0.327037 0.327037 0.000000
O O12 0.167010 0.832991 0.500000
O O13 0.235333 0.000000 0.544900
O O14 0.238646 0.000000 0.161827
#
# Coordination Sequence:
#
# PCOD8309272 Si02
#       5
#     8   8   8   8   8
#     4  10  21  34  51  78 112 147 181 219 267 322
#     4   9  17  29  47  71  96 129 176 224 267 309
#     4  10  22  39  58  81 107 137 178 225 275 328
#     4  10  19  32  49  72 106 144 179 219 265 321
#     4  10  19  33  53  77 107 142 180 220 262 314
#
# _framework density 17.874769000000001
#
# number of rings (size 3 to 8) (size 9 to 14) (size 15 to 20)
#    0.000    2.200    2.000    1.200    0.000    4.000 
#    0.000    4.000    0.000    3.600    0.000    0.000 
#    0.000    0.400    0.000    0.000    0.000    0.000 
#
# Total GULP energy -495857.885376 kJ/mol
# GULP energy per Si atom -12396.447134 kJ/mol
# Density = 1.783408 g / cm^3
# Si number density = 17.874769 Si / 1000 Ang^3
#
#
#
# Elastic Constant Matrix: (Units=GPa)
#
#
# Indices 1 2 3 4 5 6 
#
# 1 71.3083 23.1426 19.7779 0.0000 0.0000 0.0000
# 2 23.1426 71.3070 19.7788 0.0000 0.0000 0.0000
# 3 19.7779 19.7788 104.9395 0.0000 0.0000 0.0000
# 4 0.0000 0.0000 0.0000 19.6082 0.0000 0.0000
# 5 0.0000 0.0000 0.0000 0.0000 19.6073 0.0000
# 6 0.0000 0.0000 0.0000 0.0000 0.0000 12.7859
#
#
#
# Elastic Compliance Matrix: (Units=1/GPa)
#
#
# Indices 1 2 3 4 5 6 
#
# 1 0.016128 -0.004634 -0.002166 0.000000 0.000000 0.000000
# 2 -0.004634 0.016129 -0.002167 0.000000 0.000000 0.000000
# 3 -0.002166 -0.002167 0.010346 0.000000 0.000000 0.000000
# 4 0.000000 0.000000 0.000000 0.050999 0.000000 0.000000
# 5 0.000000 0.000000 0.000000 0.000000 0.051001 0.000000
# 6 0.000000 0.000000 0.000000 0.000000 0.000000 0.078211
#
#
# Mechanical properties :
#
#
# Convention : Reuss Voigt Hill
#
# Bulk Modulus (GPa) = 40.53531 41.43926 40.98729
# Shear Modulus (GPa) = 20.08267 22.72398 21.40333
#
# Velocity S-wave (km/s) = 3.35553 3.56938 3.46411
# Velocity P-wave (km/s) = 6.14324 6.34198 6.24340
#
# Compressibility (1/GPa) = 0.02466985
#
# Stress axis : x y z
#
# Youngs Moduli (GPa) = 62.00300 62.00148 96.65621
#
# Poissons Ratio (x) = 0.28729 0.20939
# Poissons Ratio (y) = 0.28729 0.20942
# Poissons Ratio (z) = 0.13432 0.13433
#
# Static dielectric constant tensor:
#      x y z
#    x 3.190390 0.000000 0.000000 
#    y 0.000000 3.190390 0.000000 
#    z 0.000000 0.000000 3.593740 
# 
# 
# High freq. dielectric constant tensor:
#      x y z
#    x 1.672970 0.000000 0.000000 
#    y 0.000000 1.672970 0.000000 
#    z 0.000000 0.000000 1.711290 
# 
# From -- ./inp_files/2743.got.cif
#   From: 2010.03.12/outbox.cif.g09.slc.cpg/sg115_2_cif.got.tgz:2743.got - 2010.04.14 02:11:21.
