data_PCOD8309630
_publ_section_title
;
Structure prediction by ZEFSAII (Michael W. Deem and Ramdas Pophale) SiO2 
 PCOD8309630
Probable space group: P -4 M 2
;
_chemical_formula_sum "Si O2"
_cell_formula_units_Z 40
_cell_length_a 8.839654
_cell_length_b 8.839654
_cell_length_c 25.651098
_cell_angle_alpha 90.000000
_cell_angle_beta 90.000000
_cell_angle_gamma 90.000000
_cell_volume 2004.363532
_symmetry_space_group_name_H-M "P -4 M 2"
_symmetry_group_IT_number 115
_symmetry_cell_setting 'tetragonal'
loop_
_space_group_symop_operation_xyz
x,y,z
y,-x,-z
-x,-y,z
-y,x,-z
y,x,-z
-y,-x,-z
-x,y,z
x,-y,z
loop_
_atom_site_type_symbol
_atom_site_label
_atom_site_fract_x
_atom_site_fract_y
_atom_site_fract_z
Si Si1 0.827927 0.320945 0.340126
Si Si2 0.325533 0.175538 0.048588
Si Si3 0.177849 0.673140 0.756800
Si Si4 0.331593 0.320082 0.443306
Si Si5 0.826525 0.323030 0.145808
O O1 0.809396 0.500000 0.334942
O O2 0.718678 0.243569 0.298807
O O3 0.778935 0.263884 0.397518
O O4 0.000000 0.270363 0.330248
O O5 0.500000 0.208718 0.035477
O O6 0.279756 0.266860 0.099607
O O7 0.296940 0.000000 0.059778
O O8 0.225296 0.225296 0.000000
O O9 0.222407 0.500000 0.768887
O O10 0.244826 0.781672 0.800591
O O11 0.000000 0.695471 0.755806
O O12 0.267449 0.267449 0.500000
O O13 0.500000 0.254128 0.433180
O O14 0.340154 0.500000 0.444287
O O15 0.802840 0.500000 0.152944
O O16 0.000000 0.283166 0.132496
#
# Coordination Sequence:
#
# PCOD8309630 Si02
#       5
#     8   8   8   8   8
#     4  10  20  34  54  81 111 144 183 226 275 332
#     4  11  24  41  62  90 122 156 196 238 280 330
#     4  11  24  40  58  82 111 145 187 232 279 333
#     4   8  14  27  49  75 103 139 183 228 273 322
#     4  11  24  41  62  89 118 149 188 232 280 336
#
# _framework density 19.95646
#
# number of rings (size 3 to 8) (size 9 to 14) (size 15 to 20)
#    0.000    1.800    0.000    4.800    0.000   13.200 
#    0.000    1.000    0.000    3.600    0.000    0.000 
#    0.000    0.000    0.000    0.000    0.000    0.000 
#
# Total GULP energy -496123.517374 kJ/mol
# GULP energy per Si atom -12403.087934 kJ/mol
# Density = 1.991104 g / cm^3
# Si number density = 19.956460 Si / 1000 Ang^3
#
#
#
# Elastic Constant Matrix: (Units=GPa)
#
#
# Indices 1 2 3 4 5 6 
#
# 1 56.9322 6.7178 19.3492 0.0000 0.0000 0.0000
# 2 6.7178 56.9322 19.3492 0.0000 0.0000 0.0000
# 3 19.3492 19.3492 119.6181 0.0000 0.0000 0.0000
# 4 0.0000 0.0000 0.0000 81.5988 0.0000 0.0000
# 5 0.0000 0.0000 0.0000 0.0000 81.5988 0.0000
# 6 0.0000 0.0000 0.0000 0.0000 0.0000 26.6606
#
#
#
# Elastic Compliance Matrix: (Units=1/GPa)
#
#
# Indices 1 2 3 4 5 6 
#
# 1 0.018670 -0.001245 -0.002819 0.000000 0.000000 0.000000
# 2 -0.001245 0.018670 -0.002819 0.000000 0.000000 0.000000
# 3 -0.002819 -0.002819 0.009272 0.000000 0.000000 0.000000
# 4 0.000000 0.000000 0.000000 0.012255 0.000000 0.000000
# 5 0.000000 0.000000 0.000000 0.000000 0.012255 0.000000
# 6 0.000000 0.000000 0.000000 0.000000 0.000000 0.037509
#
#
# Mechanical properties :
#
#
# Convention : Reuss Voigt Hill
#
# Bulk Modulus (GPa) = 30.44450 36.03499 33.23974
# Shear Modulus (GPa) = 37.49732 50.50940 44.00336
#
# Velocity S-wave (km/s) = 4.33940 5.03634 4.70080
# Velocity P-wave (km/s) = 6.35576 7.20525 6.79380
#
# Compressibility (1/GPa) = 0.03284666
#
# Stress axis : x y z
#
# Youngs Moduli (GPa) = 53.56304 53.56304 107.85410
#
# Poissons Ratio (x) = 0.06669 0.30399
# Poissons Ratio (y) = 0.06669 0.30399
# Poissons Ratio (z) = 0.15097 0.15097
#
# Static dielectric constant tensor:
#      x y z
#    x 3.606560 0.000000 0.000000 
#    y 0.000000 3.606560 0.000000 
#    z 0.000000 0.000000 3.243640 
# 
# 
# High freq. dielectric constant tensor:
#      x y z
#    x 1.772730 0.000000 0.000000 
#    y 0.000000 1.772730 0.000000 
#    z 0.000000 0.000000 1.796720 
# 
# From -- ./inp_files/5068.got.cif
#   From: 2010.03.12/outbox.cif.g09.slc.cpg/sg115_3_cif.got.tgz:5068.got - 2010.04.14 02:11:21.
