data_PCOD8309679
_publ_section_title
;
Structure prediction by ZEFSAII (Michael W. Deem and Ramdas Pophale) SiO2 
 PCOD8309679
Probable space group: P -4 M 2
;
_chemical_formula_sum "Si O2"
_cell_formula_units_Z 40
_cell_length_a 9.032623
_cell_length_b 9.032623
_cell_length_c 26.030913
_cell_angle_alpha 90.000000
_cell_angle_beta 90.000000
_cell_angle_gamma 90.000000
_cell_volume 2123.817373
_symmetry_space_group_name_H-M "P -4 M 2"
_symmetry_group_IT_number 115
_symmetry_cell_setting 'tetragonal'
loop_
_space_group_symop_operation_xyz
x,y,z
y,-x,-z
-x,-y,z
-y,x,-z
y,x,-z
-y,-x,-z
-x,y,z
x,-y,z
loop_
_atom_site_type_symbol
_atom_site_label
_atom_site_fract_x
_atom_site_fract_y
_atom_site_fract_z
Si Si1 0.168997 0.674740 0.844236
Si Si2 0.172701 0.673438 0.452586
Si Si3 0.675796 0.333968 0.255596
Si Si4 0.176653 0.834860 0.944346
Si Si5 0.328290 0.174413 0.358637
O O1 0.180448 0.500000 0.846214
O O2 0.261231 0.740017 0.796369
O O3 0.236785 0.735443 0.897570
O O4 0.000000 0.727123 0.837137
O O5 0.263613 0.736388 0.500000
O O6 0.204598 0.500000 0.447755
O O7 0.226390 0.752540 0.401304
O O8 0.000000 0.706186 0.461324
O O9 0.500000 0.335555 0.252604
O O10 0.738939 0.500000 0.261063
O O11 0.726684 0.237481 0.304172
O O12 0.000000 0.836197 0.945404
O O13 0.238565 0.000000 0.935734
O O14 0.229330 0.770671 0.000000
O O15 0.500000 0.214291 0.369146
O O16 0.303448 0.000000 0.358770
#
# Coordination Sequence:
#
# PCOD8309679 Si02
#       5
#     8   8   8   8   8
#     4   9  16  27  45  68  91 117 155 202 245 287
#     4  11  24  40  58  82 111 142 176 213 254 302
#     4   9  17  30  49  72  99 132 167 203 247 299
#     4   8  14  26  44  64  87 118 155 193 237 293
#     4  10  20  35  57  83 107 134 173 217 258 303
#
# _framework density 18.834012000000001
#
# number of rings (size 3 to 8) (size 9 to 14) (size 15 to 20)
#    0.000    2.600    0.000    3.000    0.000    7.600 
#    0.000    2.000    0.000    5.400    0.000    0.000 
#    0.000    0.000    0.000    0.000    0.000    0.000 
#
# Total GULP energy -495925.256618 kJ/mol
# GULP energy per Si atom -12398.131415 kJ/mol
# Density = 1.879114 g / cm^3
# Si number density = 18.834012 Si / 1000 Ang^3
#
#
#
# Elastic Constant Matrix: (Units=GPa)
#
#
# Indices 1 2 3 4 5 6 
#
# 1 61.4500 31.6457 45.2419 0.0000 0.0000 0.0000
# 2 31.6457 61.4527 45.2441 0.0000 0.0000 0.0000
# 3 45.2419 45.2441 167.3902 0.0000 0.0000 0.0000
# 4 0.0000 0.0000 0.0000 34.8273 0.0000 0.0000
# 5 0.0000 0.0000 0.0000 0.0000 34.8273 0.0000
# 6 0.0000 0.0000 0.0000 0.0000 0.0000 18.8232
#
#
#
# Elastic Compliance Matrix: (Units=1/GPa)
#
#
# Indices 1 2 3 4 5 6 
#
# 1 0.024060 -0.009491 -0.003938 0.000000 0.000000 0.000000
# 2 -0.009491 0.024059 -0.003938 0.000000 0.000000 0.000000
# 3 -0.003938 -0.003938 0.008103 0.000000 0.000000 0.000000
# 4 0.000000 0.000000 0.000000 0.028713 0.000000 0.000000
# 5 0.000000 0.000000 0.000000 0.000000 0.028713 0.000000
# 6 0.000000 0.000000 0.000000 0.000000 0.000000 0.053126
#
#
# Mechanical properties :
#
#
# Convention : Reuss Voigt Hill
#
# Bulk Modulus (GPa) = 46.53473 59.39517 52.96495
# Shear Modulus (GPa) = 23.96126 28.90632 26.43379
#
# Velocity S-wave (km/s) = 3.57071 3.92189 3.75041
# Velocity P-wave (km/s) = 6.46231 7.21893 6.85107
#
# Compressibility (1/GPa) = 0.02148933
#
# Stress axis : x y z
#
# Youngs Moduli (GPa) = 41.56258 41.56388 123.41609
#
# Poissons Ratio (x) = 0.39448 0.48596
# Poissons Ratio (y) = 0.39447 0.48599
# Poissons Ratio (z) = 0.16366 0.16367
#
# Static dielectric constant tensor:
#      x y z
#    x 3.325850 0.000000 0.000000 
#    y 0.000000 3.325850 0.000000 
#    z 0.000000 0.000000 3.957260 
# 
# 
# High freq. dielectric constant tensor:
#      x y z
#    x 1.708600 0.000000 0.000000 
#    y 0.000000 1.708600 0.000000 
#    z 0.000000 0.000000 1.754030 
# 
# From -- ./inp_files/5121.got.cif
#   From: 2010.03.12/outbox.cif.g09.slc.cpg/sg115_3_cif.got.tgz:5121.got - 2010.04.14 02:11:21.
