data_PCOD8309569
_publ_section_title
;
Structure prediction by ZEFSAII (Michael W. Deem and Ramdas Pophale) SiO2 
 PCOD8309569
Probable space group: P -4 M 2
;
_chemical_formula_sum "Si O2"
_cell_formula_units_Z 48
_cell_length_a 9.085249
_cell_length_b 9.085249
_cell_length_c 30.805796
_cell_angle_alpha 90.000000
_cell_angle_beta 90.000000
_cell_angle_gamma 90.000000
_cell_volume 2542.764293
_symmetry_space_group_name_H-M "P -4 M 2"
_symmetry_group_IT_number 115
_symmetry_cell_setting 'tetragonal'
loop_
_space_group_symop_operation_xyz
x,y,z
y,-x,-z
-x,-y,z
-y,x,-z
y,x,-z
-y,-x,-z
-x,y,z
x,-y,z
loop_
_atom_site_type_symbol
_atom_site_label
_atom_site_fract_x
_atom_site_fract_y
_atom_site_fract_z
Si Si1 0.828497 0.831152 0.124019
Si Si2 0.673171 0.334781 0.049085
Si Si3 0.674861 0.334030 0.374506
Si Si4 0.329714 0.826993 0.461066
Si Si5 0.674597 0.168531 0.289440
Si Si6 0.172430 0.329140 0.210681
O O1 0.747447 0.780947 0.080776
O O2 0.774003 0.735069 0.164726
O O3 0.000000 0.807756 0.116050
O O4 0.789215 0.000000 0.133710
O O5 0.500000 0.330336 0.056221
O O6 0.732001 0.500000 0.058450
O O7 0.712273 0.287728 0.000000
O O8 0.500000 0.335062 0.373252
O O9 0.737824 0.500000 0.374765
O O10 0.729110 0.250084 0.417412
O O11 0.735975 0.249416 0.332374
O O12 0.231050 0.768950 0.500000
O O13 0.500000 0.786948 0.470054
O O14 0.307737 0.000000 0.455563
O O15 0.500000 0.180505 0.286775
O O16 0.741085 0.246005 0.247859
O O17 0.726849 0.000000 0.291121
O O18 0.213615 0.500000 0.212182
O O19 0.000000 0.301368 0.217407
#
# Coordination Sequence:
#
# PCOD8309569 Si02
#       6
#     8   8   8   8   8   8
#     4  10  21  36  54  77 105 137 174 216 262 313
#     4   9  19  36  56  78 105 137 173 213 258 309
#     4   9  17  31  53  79 106 137 174 216 261 310
#     4  10  20  34  53  77 105 137 173 214 260 310
#     4  10  20  34  54  81 111 141 174 215 264 316
#     4  10  21  37  56  77 103 139 181 221 263 313
#
# _framework density 18.877095000000001
#
# number of rings (size 3 to 8) (size 9 to 14) (size 15 to 20)
#    0.000    2.333    0.000    3.000    0.000    7.667 
#    0.000    3.333    0.000    5.000    0.000    0.000 
#    0.000    0.000    0.000    0.000    0.000    0.000 
#
# Total GULP energy -595334.844458 kJ/mol
# GULP energy per Si atom -12402.809260 kJ/mol
# Density = 1.883413 g / cm^3
# Si number density = 18.877095 Si / 1000 Ang^3
#
#
#
# Elastic Constant Matrix: (Units=GPa)
#
#
# Indices 1 2 3 4 5 6 
#
# 1 81.6237 38.2036 60.8532 0.0000 0.0000 0.0000
# 2 38.2036 81.6238 60.8533 0.0000 0.0000 0.0000
# 3 60.8532 60.8533 156.3759 0.0000 0.0000 0.0000
# 4 0.0000 0.0000 0.0000 -23.2658 0.0000 0.0000
# 5 0.0000 0.0000 0.0000 0.0000 -23.2651 0.0000
# 6 0.0000 0.0000 0.0000 0.0000 0.0000 27.3629
#
#
#
# Elastic Compliance Matrix: (Units=1/GPa)
#
#
# Indices 1 2 3 4 5 6 
#
# 1 0.018415 -0.004616 -0.005370 0.000000 0.000000 0.000000
# 2 -0.004616 0.018415 -0.005370 0.000000 0.000000 0.000000
# 3 -0.005370 -0.005370 0.010574 0.000000 0.000000 0.000000
# 4 0.000000 0.000000 0.000000 -0.042982 0.000000 0.000000
# 5 0.000000 0.000000 0.000000 0.000000 -0.042983 0.000000
# 6 0.000000 0.000000 0.000000 0.000000 0.000000 0.036546
#
#
# Mechanical properties :
#
#
# Convention : Reuss Voigt Hill
#
# Bulk Modulus (GPa) = 59.90435 71.04929 65.47682
# Shear Modulus (GPa) = 145.93334 6.81395 76.37364
#
# Velocity S-wave (km/s) = 8.80198 1.90197 6.36759
# Velocity P-wave (km/s) = 11.62337 6.52249 9.42458
#
# Compressibility (1/GPa) = 0.01669328
#
# Stress axis : x y z
#
# Youngs Moduli (GPa) = 54.30290 54.30297 94.56833
#
# Poissons Ratio (x) = 0.25064 0.50784
# Poissons Ratio (y) = 0.25064 0.50784
# Poissons Ratio (z) = 0.29161 0.29161
#
# Static dielectric constant tensor:
#      x y z
#    x 3.415440 0.000000 0.000000 
#    y 0.000000 3.415440 0.000000 
#    z 0.000000 0.000000 3.609360 
# 
# 
# High freq. dielectric constant tensor:
#      x y z
#    x 1.725210 0.000000 0.000000 
#    y 0.000000 1.725210 0.000000 
#    z 0.000000 0.000000 1.748710 
# 
# From -- ./inp_files/6003.got.cif
#   From: 2010.03.12/outbox.cif.g09.slc.cpg/sg115_4_cif.got.tgz:6003.got - 2010.04.14 02:11:21.
