data_PCOD8309228
_publ_section_title
;
Structure prediction by ZEFSAII (Michael W. Deem and Ramdas Pophale) SiO2 
 PCOD8309228
Probable space group: P -4 M 2
;
_chemical_formula_sum "Si O2"
_cell_formula_units_Z 64
_cell_length_a 20.404638
_cell_length_b 20.404638
_cell_length_c 12.065310
_cell_angle_alpha 90.000000
_cell_angle_beta 90.000000
_cell_angle_gamma 90.000000
_cell_volume 5023.382793
_symmetry_space_group_name_H-M "P -4 M 2"
_symmetry_group_IT_number 115
_symmetry_cell_setting 'tetragonal'
loop_
_space_group_symop_operation_xyz
x,y,z
y,-x,-z
-x,-y,z
-y,x,-z
y,x,-z
-y,-x,-z
-x,y,z
x,-y,z
loop_
_atom_site_type_symbol
_atom_site_label
_atom_site_fract_x
_atom_site_fract_y
_atom_site_fract_z
Si Si1 0.422266 0.192648 0.874286
Si Si2 0.423431 0.319646 0.261136
Si Si3 0.927519 0.577991 0.268495
Si Si4 0.577193 0.680838 0.734307
Si Si5 0.422009 0.072306 0.263942
Si Si6 0.806689 0.422050 0.876940
Si Si7 0.878197 0.421780 0.502700
Si Si8 0.267285 0.423535 0.499996
O O1 0.500000 0.187987 0.877537
O O2 0.393523 0.127575 0.814675
O O3 0.401146 0.257040 0.807318
O O4 0.393694 0.196566 0.998579
O O5 0.500000 0.334292 0.241622
O O6 0.382694 0.383339 0.222453
O O7 0.399411 0.257325 0.190323
O O8 0.407253 0.307261 0.389717
O O9 0.923336 0.500000 0.268497
O O10 0.914641 0.604053 0.392879
O O11 0.000000 0.601325 0.230328
O O12 0.500000 0.666028 0.745130
O O13 0.600129 0.693540 0.608091
O O14 0.500000 0.076503 0.263688
O O15 0.393661 0.127823 0.181601
O O16 0.395777 0.084393 0.388491
O O17 0.398701 0.000000 0.224735
O O18 0.809474 0.500000 0.877589
O O19 0.876597 0.500000 0.503831
O O20 0.804893 0.391706 0.504355
O O21 0.255634 0.500000 0.487619
#
# Coordination Sequence:
#
# PCOD8309228 Si02
#       8
#     8   8   8   8   8   8   8   8
#     4   9  17  28  39  51  69  92 115 139 171 213
#     4  10  19  30  43  56  69  87 114 151 195 239
#     4   9  15  22  35  55  75  93 111 131 158 198
#     4  10  19  30  43  56  69  87 114 151 195 239
#     4   9  15  22  35  55  75  93 111 131 158 198
#     4   9  17  28  39  51  69  92 115 139 171 213
#     4   9  13  21  36  53  73  92 110 132 161 204
#     4   9  15  26  42  55  69  89 110 137 180 231
#
# _framework density 12.740418999999999
#
# number of rings (size 3 to 8) (size 9 to 14) (size 15 to 20)
#    0.000    2.750    2.500    0.750    0.000    2.750 
#    0.000    2.500    0.000    2.250    0.000    3.500 
#    0.000    0.000    0.000    0.000    0.000    0.000 
#
# Total GULP energy -793180.276474 kJ/mol
# GULP energy per Si atom -12393.441820 kJ/mol
# Density = 1.271142 g / cm^3
# Si number density = 12.740419 Si / 1000 Ang^3
#
#
#
# Elastic Constant Matrix: (Units=GPa)
#
#
# Indices 1 2 3 4 5 6 
#
# 1 54.4998 33.3449 26.4177 0.0000 0.0000 0.0000
# 2 33.3449 54.4998 26.4177 0.0000 0.0000 0.0000
# 3 26.4177 26.4177 91.1883 0.0000 0.0000 0.0000
# 4 0.0000 0.0000 0.0000 7.5785 0.0000 0.0000
# 5 0.0000 0.0000 0.0000 0.0000 7.5785 0.0000
# 6 0.0000 0.0000 0.0000 0.0000 0.0000 0.8246
#
#
#
# Elastic Compliance Matrix: (Units=1/GPa)
#
#
# Indices 1 2 3 4 5 6 
#
# 1 0.030528 -0.016742 -0.003994 0.000000 0.000000 0.000000
# 2 -0.016742 0.030528 -0.003994 0.000000 0.000000 0.000000
# 3 -0.003994 -0.003994 0.013280 0.000000 0.000000 0.000000
# 4 0.000000 0.000000 0.000000 0.131952 0.000000 0.000000
# 5 0.000000 0.000000 0.000000 0.000000 0.131952 0.000000
# 6 0.000000 0.000000 0.000000 0.000000 0.000000 1.212781
#
#
# Mechanical properties :
#
#
# Convention : Reuss Voigt Hill
#
# Bulk Modulus (GPa) = 40.19808 41.39425 40.79617
# Shear Modulus (GPa) = 3.10796 10.79682 6.95239
#
# Velocity S-wave (km/s) = 1.56357 2.91425 2.33855
# Velocity P-wave (km/s) = 5.90591 6.62456 6.27553
#
# Compressibility (1/GPa) = 0.02487681
#
# Stress axis : x y z
#
# Youngs Moduli (GPa) = 32.75667 32.75667 75.29900
#
# Poissons Ratio (x) = 0.54842 0.30073
# Poissons Ratio (y) = 0.54842 0.30073
# Poissons Ratio (z) = 0.13082 0.13082
#
# Static dielectric constant tensor:
#      x y z
#    x 2.334390 0.000000 0.000000 
#    y 0.000000 2.334390 0.000000 
#    z 0.000000 0.000000 2.832250 
# 
# 
# High freq. dielectric constant tensor:
#      x y z
#    x 1.441780 0.000000 0.000000 
#    y 0.000000 1.441780 0.000000 
#    z 0.000000 0.000000 1.498510 
# 
# From -- ./inp_files/3253.got.cif
#   From: 2010.03.12/outbox.cif.g09.slc.cpg/sg115_2_cif.got.tgz:3253.got - 2010.04.14 02:11:21.
