data_PCOD8309242
_publ_section_title
;
Structure prediction by ZEFSAII (Michael W. Deem and Ramdas Pophale) SiO2 
 PCOD8309242
Probable space group: P -4 M 2
;
_chemical_formula_sum "Si O2"
_cell_formula_units_Z 48
_cell_length_a 14.378490
_cell_length_b 14.378490
_cell_length_c 12.252946
_cell_angle_alpha 90.000000
_cell_angle_beta 90.000000
_cell_angle_gamma 90.000000
_cell_volume 2533.185999
_symmetry_space_group_name_H-M "P -4 M 2"
_symmetry_group_IT_number 115
_symmetry_cell_setting 'tetragonal'
loop_
_space_group_symop_operation_xyz
x,y,z
y,-x,-z
-x,-y,z
-y,x,-z
y,x,-z
-y,-x,-z
-x,y,z
x,-y,z
loop_
_atom_site_type_symbol
_atom_site_label
_atom_site_fract_x
_atom_site_fract_y
_atom_site_fract_z
Si Si1 0.389843 0.896954 0.307405
Si Si2 0.235819 0.604431 0.110122
Si Si3 0.109939 0.279179 0.248963
Si Si4 0.604395 0.889472 0.549632
Si Si5 0.742481 0.605749 0.858081
Si Si6 0.103227 0.110528 0.878081
O O1 0.500000 0.904352 0.298456
O O2 0.363198 0.859732 0.428294
O O3 0.352663 0.824392 0.217772
O O4 0.347131 0.000000 0.285838
O O5 0.244117 0.500000 0.151924
O O6 0.142893 0.649437 0.157162
O O7 0.328886 0.653335 0.155504
O O8 0.222490 0.610082 0.981179
O O9 0.148346 0.317281 0.365476
O O10 0.146606 0.175658 0.215072
O O11 0.000000 0.279394 0.248839
O O12 0.500000 0.850476 0.576172
O O13 0.599347 0.000000 0.555141
O O14 0.715252 0.500000 0.825205
O O15 0.000000 0.151580 0.853111
O O16 0.097599 0.000000 0.875913
O O17 0.139007 0.139007 0.000000
#
# Coordination Sequence:
#
# PCOD8309242 Si02
#       6
#     8   8   8   8   8   8
#     4   8  14  28  52  78 103 132 166 211 261 304
#     4  10  21  34  49  73 104 133 166 208 253 307
#     4  10  19  30  49  76 105 135 165 205 256 307
#     4   8  14  26  46  74 106 136 167 202 249 309
#     4   9  19  35  52  71  99 134 173 210 247 302
#     4   8  15  28  45  67  99 139 177 208 241 290
#
# _framework density 18.948468999999999
#
# number of rings (size 3 to 8) (size 9 to 14) (size 15 to 20)
#    0.000    3.167    0.000    2.000    2.333    2.000 
#    0.000    5.000    0.000    0.000    0.000    1.167 
#    0.000    5.333    0.000    0.667    0.000    0.000 
#
# Total GULP energy -594789.454180 kJ/mol
# GULP energy per Si atom -12391.446962 kJ/mol
# Density = 1.890534 g / cm^3
# Si number density = 18.948469 Si / 1000 Ang^3
#
#
#
# Elastic Constant Matrix: (Units=GPa)
#
#
# Indices 1 2 3 4 5 6 
#
# 1 73.5314 27.6102 55.0552 0.0000 0.0000 0.0000
# 2 27.6102 73.5314 55.0552 0.0000 0.0000 0.0000
# 3 55.0552 55.0552 99.3269 0.0000 0.0000 0.0000
# 4 0.0000 0.0000 0.0000 23.6761 0.0000 0.0000
# 5 0.0000 0.0000 0.0000 0.0000 23.6761 0.0000
# 6 0.0000 0.0000 0.0000 0.0000 0.0000 19.9420
#
#
#
# Elastic Compliance Matrix: (Units=1/GPa)
#
#
# Indices 1 2 3 4 5 6 
#
# 1 0.023354 0.001578 -0.013819 0.000000 0.000000 0.000000
# 2 0.001578 0.023354 -0.013819 0.000000 0.000000 0.000000
# 3 -0.013819 -0.013819 0.025387 0.000000 0.000000 0.000000
# 4 0.000000 0.000000 0.000000 0.042237 0.000000 0.000000
# 5 0.000000 0.000000 0.000000 0.000000 0.042237 0.000000
# 6 0.000000 0.000000 0.000000 0.000000 0.000000 0.050145
#
#
# Mechanical properties :
#
#
# Convention : Reuss Voigt Hill
#
# Bulk Modulus (GPa) = 50.06538 57.98120 54.02329
# Shear Modulus (GPa) = 18.83283 20.70348 19.76816
#
# Velocity S-wave (km/s) = 3.15603 3.30907 3.23346
# Velocity P-wave (km/s) = 6.30555 6.72798 6.52019
#
# Compressibility (1/GPa) = 0.01997388
#
# Stress axis : x y z
#
# Youngs Moduli (GPa) = 42.81903 42.81903 39.38976
#
# Poissons Ratio (x) = -0.06756 0.54434
# Poissons Ratio (y) = -0.06756 0.54434
# Poissons Ratio (z) = 0.59173 0.59173
#
# Static dielectric constant tensor:
#      x y z
#    x 3.559880 0.000000 0.000000 
#    y 0.000000 3.559880 0.000000 
#    z 0.000000 0.000000 3.781480 
# 
# 
# High freq. dielectric constant tensor:
#      x y z
#    x 1.719440 0.000000 0.000000 
#    y 0.000000 1.719440 0.000000 
#    z 0.000000 0.000000 1.731190 
# 
# From -- ./inp_files/2967.got.cif
#   From: 2010.03.12/outbox.cif.g09.slc.cpg/sg115_2_cif.got.tgz:2967.got - 2010.04.14 02:11:21.
