data_PCOD8309409
_publ_section_title
;
Structure prediction by ZEFSAII (Michael W. Deem and Ramdas Pophale) SiO2 
 PCOD8309409
Probable space group: P -4 M 2
;
_chemical_formula_sum "Si O2"
_cell_formula_units_Z 40
_cell_length_a 9.428344
_cell_length_b 9.428344
_cell_length_c 26.027288
_cell_angle_alpha 90.000000
_cell_angle_beta 90.000000
_cell_angle_gamma 90.000000
_cell_volume 2313.661166
_symmetry_space_group_name_H-M "P -4 M 2"
_symmetry_group_IT_number 115
_symmetry_cell_setting 'tetragonal'
loop_
_space_group_symop_operation_xyz
x,y,z
y,-x,-z
-x,-y,z
-y,x,-z
y,x,-z
-y,-x,-z
-x,y,z
x,-y,z
loop_
_atom_site_type_symbol
_atom_site_label
_atom_site_fract_x
_atom_site_fract_y
_atom_site_fract_z
Si Si1 0.668293 0.342141 0.140492
Si Si2 0.830957 0.841926 0.443923
Si Si3 0.342219 0.331319 0.252783
Si Si4 0.166238 0.666321 0.956848
Si Si5 0.665315 0.164813 0.651783
O O1 0.500000 0.351914 0.142878
O O2 0.729110 0.500000 0.127881
O O3 0.720523 0.287891 0.196675
O O4 0.717599 0.230829 0.097476
O O5 0.782726 0.782726 0.500000
O O6 0.772739 0.741205 0.398860
O O7 0.000000 0.845442 0.443806
O O8 0.770709 0.000000 0.434441
O O9 0.500000 0.268362 0.260859
O O10 0.347997 0.500000 0.254787
O O11 0.242232 0.272017 0.297882
O O12 0.196094 0.500000 0.966449
O O13 0.000000 0.700044 0.956852
O O14 0.242929 0.757072 0.000000
O O15 0.500000 0.195092 0.644796
O O16 0.698424 0.000000 0.659042
#
# Coordination Sequence:
#
# PCOD8309409 Si02
#       5
#     8   8   8   8   8
#     4   8  14  27  48  69  87 113 151 188 217 253
#     4   8  14  26  43  59  77 107 144 175 206 251
#     4   8  14  26  44  64  87 116 145 172 210 260
#     4  10  20  33  50  72  96 123 155 190 229 272
#     4   9  16  26  42  64  86 107 136 177 218 251
#
# _framework density 17.288616999999999
#
# number of rings (size 3 to 8) (size 9 to 14) (size 15 to 20)
#    0.000    3.400    0.000    2.400    0.000    1.200 
#    0.000    3.000    0.000    6.600    0.000    0.000 
#    0.000    0.000    0.000    0.000    0.000    0.000 
#
# Total GULP energy -495703.343185 kJ/mol
# GULP energy per Si atom -12392.583580 kJ/mol
# Density = 1.724927 g / cm^3
# Si number density = 17.288617 Si / 1000 Ang^3
#
#
#
# Elastic Constant Matrix: (Units=GPa)
#
#
# Indices 1 2 3 4 5 6 
#
# 1 53.9268 32.1145 64.1374 0.0000 0.0000 0.0000
# 2 32.1145 53.9278 64.1370 0.0000 0.0000 0.0000
# 3 64.1374 64.1370 201.5398 0.0000 0.0000 0.0000
# 4 0.0000 0.0000 0.0000 12.5106 0.0000 0.0000
# 5 0.0000 0.0000 0.0000 0.0000 12.5113 0.0000
# 6 0.0000 0.0000 0.0000 0.0000 0.0000 13.1416
#
#
#
# Elastic Compliance Matrix: (Units=1/GPa)
#
#
# Indices 1 2 3 4 5 6 
#
# 1 0.033980 -0.011865 -0.007038 0.000000 0.000000 0.000000
# 2 -0.011865 0.033979 -0.007037 0.000000 0.000000 0.000000
# 3 -0.007038 -0.007037 0.009441 0.000000 0.000000 0.000000
# 4 0.000000 0.000000 0.000000 0.079933 0.000000 0.000000
# 5 0.000000 0.000000 0.000000 0.000000 0.079928 0.000000
# 6 0.000000 0.000000 0.000000 0.000000 0.000000 0.076095
#
#
# Mechanical properties :
#
#
# Convention : Reuss Voigt Hill
#
# Bulk Modulus (GPa) = 39.18638 70.01913 54.60276
# Shear Modulus (GPa) = 13.37825 17.56639 15.47232
#
# Velocity S-wave (km/s) = 2.78478 3.19104 2.99480
# Velocity P-wave (km/s) = 5.74936 7.35969 6.60379
#
# Compressibility (1/GPa) = 0.02551907
#
# Stress axis : x y z
#
# Youngs Moduli (GPa) = 29.42918 29.43023 105.92149
#
# Poissons Ratio (x) = 0.34920 0.74544
# Poissons Ratio (y) = 0.34919 0.74539
# Poissons Ratio (z) = 0.20711 0.20711
#
# Static dielectric constant tensor:
#      x y z
#    x 3.011990 0.000000 0.000000 
#    y 0.000000 3.012000 0.000000 
#    z 0.000000 0.000000 3.829910 
# 
# 
# High freq. dielectric constant tensor:
#      x y z
#    x 1.630460 0.000000 0.000000 
#    y 0.000000 1.630460 0.000000 
#    z 0.000000 0.000000 1.688260 
# 
# From -- ./inp_files/5429.got.cif
#   From: 2010.03.12/outbox.cif.g09.slc.cpg/sg115_3_cif.got.tgz:5429.got - 2010.04.14 02:11:21.
