data_PCOD8309932
_publ_section_title
;
Structure prediction by ZEFSAII (Michael W. Deem and Ramdas Pophale) SiO2 
 PCOD8309932
Probable space group: P -4 M 2
;
_chemical_formula_sum "Si O2"
_cell_formula_units_Z 48
_cell_length_a 8.934126
_cell_length_b 8.934126
_cell_length_c 30.600004
_cell_angle_alpha 90.000000
_cell_angle_beta 90.000000
_cell_angle_gamma 90.000000
_cell_volume 2442.449705
_symmetry_space_group_name_H-M "P -4 M 2"
_symmetry_group_IT_number 115
_symmetry_cell_setting 'tetragonal'
loop_
_space_group_symop_operation_xyz
x,y,z
y,-x,-z
-x,-y,z
-y,x,-z
y,x,-z
-y,-x,-z
-x,y,z
x,-y,z
loop_
_atom_site_type_symbol
_atom_site_label
_atom_site_fract_x
_atom_site_fract_y
_atom_site_fract_z
Si Si1 0.327346 0.673920 0.209312
Si Si2 0.673241 0.174175 0.540415
Si Si3 0.676212 0.828626 0.379497
Si Si4 0.674833 0.828760 0.960428
Si Si5 0.171250 0.176327 0.129208
Si Si6 0.174858 0.828074 0.289217
O O1 0.500000 0.709792 0.218972
O O2 0.299093 0.500000 0.200853
O O3 0.277829 0.762510 0.166623
O O4 0.230351 0.724106 0.250422
O O5 0.769861 0.230139 0.500000
O O6 0.500000 0.206649 0.530471
O O7 0.720235 0.259607 0.583918
O O8 0.704657 0.000000 0.547373
O O9 0.500000 0.808473 0.377483
O O10 0.743022 0.777968 0.333310
O O11 0.721059 0.000000 0.390196
O O12 0.500000 0.808837 0.952704
O O13 0.757118 0.774079 0.916722
O O14 0.717826 0.000000 0.971180
O O15 0.725179 0.725179 0.000000
O O16 0.000000 0.224028 0.139044
O O17 0.188286 0.000000 0.126997
O O18 0.000000 0.803315 0.296175
O O19 0.212217 0.000000 0.277563
#
# Coordination Sequence:
#
# PCOD8309932 Si02
#       6
#     8   8   8   8   8   8
#     4  11  24  39  56  82 116 152 189 231 282 337
#     4  11  24  40  59  85 116 151 192 236 284 338
#     4  10  21  38  61  88 117 150 189 233 282 336
#     4  10  21  37  58  84 114 149 188 230 279 334
#     4  10  21  38  61  86 111 144 188 235 282 334
#     4  10  21  38  61  87 114 148 191 235 281 335
#
# _framework density 19.652401999999999
#
# number of rings (size 3 to 8) (size 9 to 14) (size 15 to 20)
#    0.000    1.667    0.000    4.000    0.000   12.000 
#    0.000    0.000    0.000    0.000    0.000    0.000 
#    0.000    0.000    0.000    0.000    0.000    0.000 
#
# Total GULP energy -595533.087202 kJ/mol
# GULP energy per Si atom -12406.939317 kJ/mol
# Density = 1.960767 g / cm^3
# Si number density = 19.652402 Si / 1000 Ang^3
#
#
#
# Elastic Constant Matrix: (Units=GPa)
#
#
# Indices 1 2 3 4 5 6 
#
# 1 73.4035 34.0570 44.5995 0.0000 0.0000 0.0000
# 2 34.0570 73.4052 44.6003 0.0000 0.0000 0.0000
# 3 44.5995 44.6003 127.1615 0.0000 0.0000 0.0000
# 4 0.0000 0.0000 0.0000 75.4782 0.0000 0.0000
# 5 0.0000 0.0000 0.0000 0.0000 75.4812 0.0000
# 6 0.0000 0.0000 0.0000 0.0000 0.0000 32.0805
#
#
#
# Elastic Compliance Matrix: (Units=1/GPa)
#
#
# Indices 1 2 3 4 5 6 
#
# 1 0.019271 -0.006144 -0.004604 0.000000 0.000000 0.000000
# 2 -0.006144 0.019271 -0.004604 0.000000 0.000000 0.000000
# 3 -0.004604 -0.004604 0.011094 0.000000 0.000000 0.000000
# 4 0.000000 0.000000 0.000000 0.013249 0.000000 0.000000
# 5 0.000000 0.000000 0.000000 0.000000 0.013248 0.000000
# 6 0.000000 0.000000 0.000000 0.000000 0.000000 0.031172
#
#
# Mechanical properties :
#
#
# Convention : Reuss Voigt Hill
#
# Bulk Modulus (GPa) = 52.82142 57.83153 55.32648
# Shear Modulus (GPa) = 34.64535 46.65554 40.65045
#
# Velocity S-wave (km/s) = 4.20325 4.87770 4.55298
# Velocity P-wave (km/s) = 7.10582 7.82391 7.47350
#
# Compressibility (1/GPa) = 0.01893171
#
# Stress axis : x y z
#
# Youngs Moduli (GPa) = 51.89065 51.89172 90.14068
#
# Poissons Ratio (x) = 0.31880 0.41503
# Poissons Ratio (y) = 0.31879 0.41503
# Poissons Ratio (z) = 0.23892 0.23892
#
# Static dielectric constant tensor:
#      x y z
#    x 3.640470 0.000000 0.000000 
#    y 0.000000 3.640470 0.000000 
#    z 0.000000 0.000000 4.215730 
# 
# 
# High freq. dielectric constant tensor:
#      x y z
#    x 1.771750 0.000000 0.000000 
#    y 0.000000 1.771750 0.000000 
#    z 0.000000 0.000000 1.779070 
# 
# From -- ./inp_files/5972.got.cif
#   From: 2010.03.12/outbox.cif.g09.slc.cpg/sg115_3_cif.got.tgz:5972.got - 2010.04.14 02:11:21.
