data_PCOD8309666
_publ_section_title
;
Structure prediction by ZEFSAII (Michael W. Deem and Ramdas Pophale) SiO2 
 PCOD8309666
Probable space group: P -4 M 2
;
_chemical_formula_sum "Si O2"
_cell_formula_units_Z 40
_cell_length_a 8.081879
_cell_length_b 8.081879
_cell_length_c 29.122354
_cell_angle_alpha 90.000000
_cell_angle_beta 90.000000
_cell_angle_gamma 90.000000
_cell_volume 1902.178045
_symmetry_space_group_name_H-M "P -4 M 2"
_symmetry_group_IT_number 115
_symmetry_cell_setting 'tetragonal'
loop_
_space_group_symop_operation_xyz
x,y,z
y,-x,-z
-x,-y,z
-y,x,-z
y,x,-z
-y,-x,-z
-x,y,z
x,-y,z
loop_
_atom_site_type_symbol
_atom_site_label
_atom_site_fract_x
_atom_site_fract_y
_atom_site_fract_z
Si Si1 0.690004 0.177876 0.044336
Si Si2 0.302705 0.500000 0.202004
Si Si3 0.810969 0.311339 0.453006
Si Si4 0.818424 0.305699 0.640275
Si Si5 0.500000 0.697763 0.693665
Si Si6 0.303342 0.810930 0.144677
O O1 0.500000 0.155853 0.055074
O O2 0.762919 0.239637 0.093262
O O3 0.768771 0.000000 0.031535
O O4 0.706584 0.293416 0.000000
O O5 0.500000 0.500000 0.199307
O O6 0.239716 0.500000 0.254144
O O7 0.231924 0.668571 0.178370
O O8 0.712592 0.287409 0.500000
O O9 0.791707 0.500000 0.436977
O O10 0.735586 0.198219 0.413317
O O11 0.000000 0.261217 0.461436
O O12 0.814131 0.500000 0.647095
O O13 0.666179 0.228537 0.669535
O O14 0.000000 0.239014 0.656704
O O15 0.500000 0.500000 0.690498
O O16 0.500000 0.806355 0.147868
O O17 0.243547 0.000000 0.156897
#
# Coordination Sequence:
#
# PCOD8309666 Si02
#       6
#     8   4   8   8   4   8
#     4   9  18  30  44  67  97 129 167 209 255 313
#     4   9  16  26  46  71  99 139 179 215 275 336
#     4  11  23  37  55  81 111 145 184 223 273 333
#     4  10  20  35  55  78 108 145 183 227 282 338
#     4   9  18  32  49  75 107 139 183 235 277 332
#     4   8  15  27  41  64 101 134 167 217 269 325
#
# _framework density 21.028527
#
# number of rings (size 3 to 8) (size 9 to 14) (size 15 to 20)
#    0.000    2.600    1.000    2.400    1.400    5.200 
#    0.000    4.000    0.000    0.000    0.000    2.800 
#    0.000    3.200    0.000    0.000    0.000    0.000 
#
# Total GULP energy -495533.904649 kJ/mol
# GULP energy per Si atom -12388.347616 kJ/mol
# Density = 2.098066 g / cm^3
# Si number density = 21.028527 Si / 1000 Ang^3
#
#
#
# Elastic Constant Matrix: (Units=GPa)
#
#
# Indices 1 2 3 4 5 6 
#
# 1 98.1312 5.2472 46.8818 0.0000 0.0000 0.0000
# 2 5.2472 98.1264 46.8822 0.0000 0.0000 0.0000
# 3 46.8818 46.8822 161.4961 0.0000 0.0000 0.0000
# 4 0.0000 0.0000 0.0000 7.6808 0.0000 0.0000
# 5 0.0000 0.0000 0.0000 0.0000 7.6807 0.0000
# 6 0.0000 0.0000 0.0000 0.0000 0.0000 7.9443
#
#
#
# Elastic Compliance Matrix: (Units=1/GPa)
#
#
# Indices 1 2 3 4 5 6 
#
# 1 0.011948 0.001182 -0.003812 0.000000 0.000000 0.000000
# 2 0.001182 0.011949 -0.003812 0.000000 0.000000 0.000000
# 3 -0.003812 -0.003812 0.008405 0.000000 0.000000 0.000000
# 4 0.000000 0.000000 0.000000 0.130195 0.000000 0.000000
# 5 0.000000 0.000000 0.000000 0.000000 0.130196 0.000000
# 6 0.000000 0.000000 0.000000 0.000000 0.000000 0.125877
#
#
# Mechanical properties :
#
#
# Convention : Reuss Voigt Hill
#
# Bulk Modulus (GPa) = 51.49456 61.75290 56.62373
# Shear Modulus (GPa) = 11.41745 21.91066 16.66405
#
# Velocity S-wave (km/s) = 2.33266 3.23143 2.81810
# Velocity P-wave (km/s) = 5.63881 6.58429 6.12980
#
# Compressibility (1/GPa) = 0.01941953
#
# Stress axis : x y z
#
# Youngs Moduli (GPa) = 83.69410 83.68911 118.97321
#
# Poissons Ratio (x) = -0.09894 0.45350
# Poissons Ratio (y) = -0.09895 0.45352
# Poissons Ratio (z) = 0.31902 0.31902
#
# Static dielectric constant tensor:
#      x y z
#    x 3.872860 0.000000 0.000000 
#    y 0.000000 3.872910 0.000000 
#    z 0.000000 0.000000 3.742210 
# 
# 
# High freq. dielectric constant tensor:
#      x y z
#    x 1.802170 0.000000 0.000000 
#    y 0.000000 1.802170 0.000000 
#    z 0.000000 0.000000 1.821080 
# 
# From -- ./inp_files/5522.got.cif
#   From: 2010.03.12/outbox.cif.g09.slc.cpg/sg115_3_cif.got.tgz:5522.got - 2010.04.14 02:11:21.
