data_PCOD8309739
_publ_section_title
;
Structure prediction by ZEFSAII (Michael W. Deem and Ramdas Pophale) SiO2 
 PCOD8309739
Probable space group: P -4 M 2
;
_chemical_formula_sum "Si O2"
_cell_formula_units_Z 32
_cell_length_a 9.440234
_cell_length_b 9.440234
_cell_length_c 20.342314
_cell_angle_alpha 90.000000
_cell_angle_beta 90.000000
_cell_angle_gamma 90.000000
_cell_volume 1812.866705
_symmetry_space_group_name_H-M "P -4 M 2"
_symmetry_group_IT_number 115
_symmetry_cell_setting 'tetragonal'
loop_
_space_group_symop_operation_xyz
x,y,z
y,-x,-z
-x,-y,z
-y,x,-z
y,x,-z
-y,-x,-z
-x,y,z
x,-y,z
loop_
_atom_site_type_symbol
_atom_site_label
_atom_site_fract_x
_atom_site_fract_y
_atom_site_fract_z
Si Si1 0.163651 0.839248 0.076391
Si Si2 0.168681 0.842339 0.571647
Si Si3 0.663959 0.333740 0.821155
Si Si4 0.163785 0.334744 0.694487
O O1 0.257067 0.728118 0.115859
O O2 0.000000 0.815980 0.094371
O O3 0.208937 0.000000 0.093944
O O4 0.190395 0.809606 0.000000
O O5 0.217257 0.782744 0.500000
O O6 0.224435 0.741743 0.629605
O O7 0.000000 0.847020 0.571194
O O8 0.229563 0.000000 0.583958
O O9 0.500000 0.292915 0.814003
O O10 0.685696 0.500000 0.831419
O O11 0.745632 0.280909 0.756258
O O12 0.184640 0.500000 0.682524
O O13 0.000000 0.295951 0.707733
#
# Coordination Sequence:
#
# PCOD8309739 Si02
#       4
#     8   8   8   8
#     4   9  19  36  56  77 100 126 159 200 244 290
#     4   8  14  26  45  68  92 118 151 193 240 288
#     4  10  21  35  50  71 101 134 166 201 241 287
#     4   9  17  30  48  68  91 123 162 199 236 283
#
# _framework density 17.651602
#
# number of rings (size 3 to 8) (size 9 to 14) (size 15 to 20)
#    0.000    3.000    0.000    2.250    0.000    4.000 
#    0.000    7.500    0.000    1.500    0.000    0.000 
#    0.000    0.000    0.000    0.000    0.000    0.000 
#
# Total GULP energy -396752.809304 kJ/mol
# GULP energy per Si atom -12398.525291 kJ/mol
# Density = 1.761143 g / cm^3
# Si number density = 17.651602 Si / 1000 Ang^3
#
#
#
# Elastic Constant Matrix: (Units=GPa)
#
#
# Indices 1 2 3 4 5 6 
#
# 1 68.0546 41.5852 62.3921 0.0000 0.0000 0.0000
# 2 41.5852 68.0549 62.3922 0.0000 0.0000 0.0000
# 3 62.3921 62.3922 133.6504 0.0000 0.0000 0.0000
# 4 0.0000 0.0000 0.0000 13.9637 0.0000 0.0000
# 5 0.0000 0.0000 0.0000 0.0000 13.9638 0.0000
# 6 0.0000 0.0000 0.0000 0.0000 0.0000 22.8653
#
#
#
# Elastic Compliance Matrix: (Units=1/GPa)
#
#
# Indices 1 2 3 4 5 6 
#
# 1 0.028620 -0.009159 -0.009085 0.000000 0.000000 0.000000
# 2 -0.009159 0.028620 -0.009085 0.000000 0.000000 0.000000
# 3 -0.009085 -0.009085 0.015964 0.000000 0.000000 0.000000
# 4 0.000000 0.000000 0.000000 0.071614 0.000000 0.000000
# 5 0.000000 0.000000 0.000000 0.000000 0.071614 0.000000
# 6 0.000000 0.000000 0.000000 0.000000 0.000000 0.043734
#
#
# Mechanical properties :
#
#
# Convention : Reuss Voigt Hill
#
# Bulk Modulus (GPa) = 53.91965 66.94431 60.43198
# Shear Modulus (GPa) = 15.57607 17.05127 16.31367
#
# Velocity S-wave (km/s) = 2.97377 3.11141 3.04337
# Velocity P-wave (km/s) = 6.51184 7.13551 6.83080
#
# Compressibility (1/GPa) = 0.01854611
#
# Stress axis : x y z
#
# Youngs Moduli (GPa) = 34.94085 34.94107 62.64018
#
# Poissons Ratio (x) = 0.32004 0.56907
# Poissons Ratio (y) = 0.32004 0.56906
# Poissons Ratio (z) = 0.31743 0.31743
#
# Static dielectric constant tensor:
#      x y z
#    x 3.144670 0.000000 0.000000 
#    y 0.000000 3.144670 0.000000 
#    z 0.000000 0.000000 3.479810 
# 
# 
# High freq. dielectric constant tensor:
#      x y z
#    x 1.664380 0.000000 0.000000 
#    y 0.000000 1.664380 0.000000 
#    z 0.000000 0.000000 1.694820 
# 
# From -- ./inp_files/4572.got.cif
#   From: 2010.03.12/outbox.cif.g09.slc.cpg/sg115_3_cif.got.tgz:4572.got - 2010.04.14 02:11:21.
