data_PCOD8309486
_publ_section_title
;
Structure prediction by ZEFSAII (Michael W. Deem and Ramdas Pophale) SiO2 
 PCOD8309486
Probable space group: P -4 M 2
;
_chemical_formula_sum "Si O2"
_cell_formula_units_Z 48
_cell_length_a 8.985654
_cell_length_b 8.985654
_cell_length_c 31.157831
_cell_angle_alpha 90.000000
_cell_angle_beta 90.000000
_cell_angle_gamma 90.000000
_cell_volume 2515.744899
_symmetry_space_group_name_H-M "P -4 M 2"
_symmetry_group_IT_number 115
_symmetry_cell_setting 'tetragonal'
loop_
_space_group_symop_operation_xyz
x,y,z
y,-x,-z
-x,-y,z
-y,x,-z
y,x,-z
-y,-x,-z
-x,y,z
x,-y,z
loop_
_atom_site_type_symbol
_atom_site_label
_atom_site_fract_x
_atom_site_fract_y
_atom_site_fract_z
Si Si1 0.325095 0.171603 0.676809
Si Si2 0.328692 0.825810 0.244546
Si Si3 0.674782 0.329084 0.078073
Si Si4 0.827317 0.172683 0.000000
Si Si5 0.167744 0.822591 0.591653
Si Si6 0.174057 0.671291 0.166426
Si Si7 0.173100 0.826901 0.500000
O O1 0.500000 0.190141 0.679452
O O2 0.252644 0.272781 0.712741
O O3 0.270787 0.231850 0.630596
O O4 0.277283 0.000000 0.683881
O O5 0.500000 0.783374 0.236755
O O6 0.233485 0.772978 0.204297
O O7 0.305588 0.000000 0.250411
O O8 0.500000 0.305777 0.081926
O O9 0.715260 0.500000 0.067229
O O10 0.747402 0.278967 0.122648
O O11 0.736316 0.224008 0.041218
O O12 0.000000 0.204848 0.008292
O O13 0.237873 0.765039 0.545632
O O14 0.000000 0.762076 0.599129
O O15 0.163687 0.000000 0.589515
O O16 0.210387 0.500000 0.177374
O O17 0.000000 0.698244 0.160919
O O18 0.000000 0.794116 0.504164
#
# Coordination Sequence:
#
# PCOD8309486 Si02
#       7
#     8   8   8   4   8   8   4
#     4  10  20  33  51  76 104 135 173 215 260 312
#     4  11  24  39  55  77 105 138 177 219 264 315
#     4  10  21  38  61  87 114 147 186 225 268 319
#     4  11  24  39  56  82 116 153 192 233 276 318
#     4   8  13  23  42  68  97 129 167 212 259 305
#     4  10  21  38  61  87 113 142 177 217 264 319
#     4   7  10  18  36  64  94 125 164 208 254 303
#
# _framework density 19.079837000000001
#
# number of rings (size 3 to 8) (size 9 to 14) (size 15 to 20)
#    0.000    2.333    0.000    4.000    0.000    8.667 
#    0.000    0.000    0.000    1.000    0.000    4.667 
#    0.000    0.000    0.000    0.000    0.000    0.000 
#
# Total GULP energy -595067.822094 kJ/mol
# GULP energy per Si atom -12397.246294 kJ/mol
# Density = 1.903641 g / cm^3
# Si number density = 19.079837 Si / 1000 Ang^3
#
#
#
# Elastic Constant Matrix: (Units=GPa)
#
#
# Indices 1 2 3 4 5 6 
#
# 1 59.6785 28.9933 44.0744 0.0000 0.0000 0.0000
# 2 28.9933 59.6787 44.0747 0.0000 0.0000 0.0000
# 3 44.0744 44.0747 153.1275 0.0000 0.0000 0.0000
# 4 0.0000 0.0000 0.0000 51.9506 0.0000 0.0000
# 5 0.0000 0.0000 0.0000 0.0000 51.9475 0.0000
# 6 0.0000 0.0000 0.0000 0.0000 0.0000 24.6139
#
#
#
# Elastic Compliance Matrix: (Units=1/GPa)
#
#
# Indices 1 2 3 4 5 6 
#
# 1 0.024193 -0.008396 -0.004547 0.000000 0.000000 0.000000
# 2 -0.008396 0.024193 -0.004547 0.000000 0.000000 0.000000
# 3 -0.004547 -0.004547 0.009148 0.000000 0.000000 0.000000
# 4 0.000000 0.000000 0.000000 0.019249 0.000000 0.000000
# 5 0.000000 0.000000 0.000000 0.000000 0.019250 0.000000
# 6 0.000000 0.000000 0.000000 0.000000 0.000000 0.040627
#
#
# Mechanical properties :
#
#
# Convention : Reuss Voigt Hill
#
# Bulk Modulus (GPa) = 44.33529 56.30771 50.32150
# Shear Modulus (GPa) = 27.90814 36.05856 31.98335
#
# Velocity S-wave (km/s) = 3.82868 4.35199 4.09869
# Velocity P-wave (km/s) = 6.54463 7.40464 6.98788
#
# Compressibility (1/GPa) = 0.02255539
#
# Stress axis : x y z
#
# Youngs Moduli (GPa) = 41.33371 41.33370 109.31282
#
# Poissons Ratio (x) = 0.34702 0.49705
# Poissons Ratio (y) = 0.34702 0.49706
# Poissons Ratio (z) = 0.18795 0.18795
#
# Static dielectric constant tensor:
#      x y z
#    x 3.365870 0.000000 0.000000 
#    y 0.000000 3.365870 0.000000 
#    z 0.000000 0.000000 4.050790 
# 
# 
# High freq. dielectric constant tensor:
#      x y z
#    x 1.723330 0.000000 0.000000 
#    y 0.000000 1.723330 0.000000 
#    z 0.000000 0.000000 1.766950 
# 
# From -- ./inp_files/6154.got.cif
#   From: 2010.03.12/outbox.cif.g09.slc.cpg/sg115_4_cif.got.tgz:6154.got - 2010.04.14 02:11:21.
