data_PCOD8309947
_publ_section_title
;
Structure prediction by ZEFSAII (Michael W. Deem and Ramdas Pophale) SiO2 
 PCOD8309947
Probable space group: P -4 M 2
;
_chemical_formula_sum "Si O2"
_cell_formula_units_Z 56
_cell_length_a 14.725870
_cell_length_b 14.725870
_cell_length_c 12.179172
_cell_angle_alpha 90.000000
_cell_angle_beta 90.000000
_cell_angle_gamma 90.000000
_cell_volume 2641.068639
_symmetry_space_group_name_H-M "P -4 M 2"
_symmetry_group_IT_number 115
_symmetry_cell_setting 'tetragonal'
loop_
_space_group_symop_operation_xyz
x,y,z
y,-x,-z
-x,-y,z
-y,x,-z
y,x,-z
-y,-x,-z
-x,y,z
x,-y,z
loop_
_atom_site_type_symbol
_atom_site_label
_atom_site_fract_x
_atom_site_fract_y
_atom_site_fract_z
Si Si1 0.900668 0.400583 0.495949
Si Si2 0.895047 0.705061 0.102292
Si Si3 0.661088 0.779750 0.694238
Si Si4 0.102480 0.097767 0.178324
Si Si5 0.605384 0.598515 0.621090
Si Si6 0.395043 0.893076 0.120770
Si Si7 0.267515 0.856894 0.313656
O O1 0.887575 0.500000 0.553628
O O2 0.828102 0.397329 0.398955
O O3 0.898587 0.318771 0.582767
O O4 0.000000 0.394855 0.441025
O O5 0.833740 0.654079 0.192030
O O6 0.876461 0.814435 0.102258
O O7 0.000000 0.684390 0.128605
O O8 0.866589 0.661612 0.987296
O O9 0.628740 0.675325 0.710799
O O10 0.762671 0.775938 0.649834
O O11 0.179670 0.086736 0.272419
O O12 0.000000 0.108112 0.228487
O O13 0.107635 0.000000 0.112706
O O14 0.635224 0.635224 0.500000
O O15 0.500000 0.581183 0.617876
O O16 0.651918 0.500000 0.648646
O O17 0.500000 0.861151 0.110782
O O18 0.343408 0.842761 0.219133
O O19 0.389952 0.000000 0.143639
#
# Coordination Sequence:
#
# PCOD8309947 Si02
#       7
#     8   8   8   8   8   8   8
#     4  11  23  38  59  87 119 156 197 243 296 352
#     4   9  20  38  58  84 117 151 193 241 290 352
#     4  11  22  35  56  84 117 152 186 233 293 354
#     4   9  18  34  57  83 114 155 199 245 297 350
#     4   9  18  33  52  74 103 141 186 234 281 335
#     4  10  21  38  60  84 113 152 196 244 297 348
#     4  11  22  37  57  85 119 154 196 247 292 343
#
# _framework density 21.203538999999999
#
# number of rings (size 3 to 8) (size 9 to 14) (size 15 to 20)
#    0.000    2.000    0.000    4.286    0.000    7.429 
#    0.000    3.571    0.000    5.143    0.000    8.000 
#    0.000    4.571    0.000    0.143    0.000    0.000 
#
# Total GULP energy -693783.607330 kJ/mol
# GULP energy per Si atom -12388.992988 kJ/mol
# Density = 2.115528 g / cm^3
# Si number density = 21.203539 Si / 1000 Ang^3
#
#
#
# Elastic Constant Matrix: (Units=GPa)
#
#
# Indices 1 2 3 4 5 6 
#
# 1 92.6773 22.1087 28.5180 0.0000 0.0000 0.0000
# 2 22.1087 92.6773 28.5180 0.0000 0.0000 0.0000
# 3 28.5180 28.5180 72.9412 0.0000 0.0000 0.0000
# 4 0.0000 0.0000 0.0000 19.9912 0.0000 0.0000
# 5 0.0000 0.0000 0.0000 0.0000 19.9912 0.0000
# 6 0.0000 0.0000 0.0000 0.0000 0.0000 26.3169
#
#
#
# Elastic Compliance Matrix: (Units=1/GPa)
#
#
# Indices 1 2 3 4 5 6 
#
# 1 0.012491 -0.001679 -0.004227 0.000000 0.000000 0.000000
# 2 -0.001679 0.012491 -0.004227 0.000000 0.000000 0.000000
# 3 -0.004227 -0.004227 0.017015 0.000000 0.000000 0.000000
# 4 0.000000 0.000000 0.000000 0.050022 0.000000 0.000000
# 5 0.000000 0.000000 0.000000 0.000000 0.050022 0.000000
# 6 0.000000 0.000000 0.000000 0.000000 0.000000 0.037998
#
#
# Mechanical properties :
#
#
# Convention : Reuss Voigt Hill
#
# Bulk Modulus (GPa) = 46.01802 46.28725 46.15264
# Shear Modulus (GPa) = 24.09035 25.20325 24.64680
#
# Velocity S-wave (km/s) = 3.37434 3.45140 3.41308
# Velocity P-wave (km/s) = 6.07714 6.14493 6.11113
#
# Compressibility (1/GPa) = 0.02173062
#
# Stress axis : x y z
#
# Youngs Moduli (GPa) = 80.05447 80.05447 58.77088
#
# Poissons Ratio (x) = 0.13442 0.24844
# Poissons Ratio (y) = 0.13442 0.24844
# Poissons Ratio (z) = 0.33842 0.33842
#
# Static dielectric constant tensor:
#      x y z
#    x 4.271840 0.000000 0.000000 
#    y 0.000000 4.271840 0.000000 
#    z 0.000000 0.000000 3.637450 
# 
# 
# High freq. dielectric constant tensor:
#      x y z
#    x 1.843100 0.000000 0.000000 
#    y 0.000000 1.843100 0.000000 
#    z 0.000000 0.000000 1.789390 
# 
# From -- ./inp_files/3087.got.cif
#   From: 2010.03.12/outbox.cif.g09.slc.cpg/sg115_2_cif.got.tgz:3087.got - 2010.04.14 02:11:21.
