data_PCOD8309182
_publ_section_title
;
Structure prediction by ZEFSAII (Michael W. Deem and Ramdas Pophale) SiO2 
 PCOD8309182
Probable space group: P -4 M 2
;
_chemical_formula_sum "Si O2"
_cell_formula_units_Z 48
_cell_length_a 14.335654
_cell_length_b 14.335654
_cell_length_c 15.142343
_cell_angle_alpha 90.000000
_cell_angle_beta 90.000000
_cell_angle_gamma 90.000000
_cell_volume 3111.917683
_symmetry_space_group_name_H-M "P -4 M 2"
_symmetry_group_IT_number 115
_symmetry_cell_setting 'tetragonal'
loop_
_space_group_symop_operation_xyz
x,y,z
y,-x,-z
-x,-y,z
-y,x,-z
y,x,-z
-y,-x,-z
-x,y,z
x,-y,z
loop_
_atom_site_type_symbol
_atom_site_label
_atom_site_fract_x
_atom_site_fract_y
_atom_site_fract_z
Si Si1 0.240084 0.108463 0.761845
Si Si2 0.251720 0.892546 0.965394
Si Si3 0.110683 0.603365 0.371178
Si Si4 0.396199 0.889699 0.108005
Si Si5 0.110679 0.273550 0.728443
Si Si6 0.889232 0.604359 0.567685
O O1 0.270725 0.124230 0.862543
O O2 0.324376 0.147011 0.701635
O O3 0.149747 0.169087 0.737773
O O4 0.216328 0.000000 0.743084
O O5 0.229371 0.000000 0.986036
O O6 0.162435 0.837566 0.000000
O O7 0.344208 0.860008 0.017781
O O8 0.149886 0.500000 0.349218
O O9 0.143869 0.634044 0.469393
O O10 0.000000 0.600276 0.368605
O O11 0.500000 0.845223 0.108297
O O12 0.337195 0.852311 0.191089
O O13 0.404923 0.000000 0.115049
O O14 0.148829 0.321281 0.638628
O O15 0.000000 0.264227 0.729195
O O16 0.852286 0.500000 0.589970
O O17 0.000000 0.602858 0.572767
#
# Coordination Sequence:
#
# PCOD8309182 Si02
#       6
#     8   8   8   8   8   8
#     4  10  20  30  43  63  90 124 157 184 215 263
#     4  10  19  31  44  61  87 120 156 188 220 262
#     4   8  15  29  46  63  84 111 146 188 230 267
#     4   9  17  29  45  64  85 110 145 191 237 270
#     4  10  18  28  43  64  92 123 152 183 217 258
#     4   8  14  26  45  65  84 111 147 185 227 269
#
# _framework density 15.424573000000001
#
# number of rings (size 3 to 8) (size 9 to 14) (size 15 to 20)
#    0.000    2.833    1.667    1.500    0.000    3.833 
#    0.000    5.000    0.000    0.000    0.000    4.667 
#    0.000    4.333    0.000    7.333    0.000    0.667 
#
# Total GULP energy -594956.894860 kJ/mol
# GULP energy per Si atom -12394.935310 kJ/mol
# Density = 1.538947 g / cm^3
# Si number density = 15.424573 Si / 1000 Ang^3
#
#
#
# Elastic Constant Matrix: (Units=GPa)
#
#
# Indices 1 2 3 4 5 6 
#
# 1 67.2624 35.9650 49.2085 0.0000 0.0000 0.0000
# 2 35.9650 67.2606 49.2089 0.0000 0.0000 0.0000
# 3 49.2085 49.2089 128.5535 0.0000 0.0000 0.0000
# 4 0.0000 0.0000 0.0000 23.2894 0.0000 0.0000
# 5 0.0000 0.0000 0.0000 0.0000 23.2894 0.0000
# 6 0.0000 0.0000 0.0000 0.0000 0.0000 2.9547
#
#
#
# Elastic Compliance Matrix: (Units=1/GPa)
#
#
# Indices 1 2 3 4 5 6 
#
# 1 0.023603 -0.008349 -0.005839 0.000000 0.000000 0.000000
# 2 -0.008349 0.023604 -0.005840 0.000000 0.000000 0.000000
# 3 -0.005839 -0.005840 0.012249 0.000000 0.000000 0.000000
# 4 0.000000 0.000000 0.000000 0.042938 0.000000 0.000000
# 5 0.000000 0.000000 0.000000 0.000000 0.042938 0.000000
# 6 0.000000 0.000000 0.000000 0.000000 0.000000 0.338450
#
#
# Mechanical properties :
#
#
# Convention : Reuss Voigt Hill
#
# Bulk Modulus (GPa) = 51.54252 59.09349 55.31801
# Shear Modulus (GPa) = 9.42855 18.48630 13.95743
#
# Velocity S-wave (km/s) = 2.47507 3.46569 3.01139
# Velocity P-wave (km/s) = 6.45417 7.37625 6.93056
#
# Compressibility (1/GPa) = 0.01940146
#
# Stress axis : x y z
#
# Youngs Moduli (GPa) = 42.36734 42.36550 81.63727
#
# Poissons Ratio (x) = 0.35370 0.47669
# Poissons Ratio (y) = 0.35372 0.47673
# Poissons Ratio (z) = 0.24739 0.24740
#
# Static dielectric constant tensor:
#      x y z
#    x 2.807300 0.000000 0.000000 
#    y 0.000000 2.807300 0.000000 
#    z 0.000000 0.000000 3.300220 
# 
# 
# High freq. dielectric constant tensor:
#      x y z
#    x 1.559040 0.000000 0.000000 
#    y 0.000000 1.559040 0.000000 
#    z 0.000000 0.000000 1.610920 
# 
# From -- ./inp_files/2939.got.cif
#   From: 2010.03.12/outbox.cif.g09.slc.cpg/sg115_2_cif.got.tgz:2939.got - 2010.04.14 02:11:21.
