data_PCOD8309261
_publ_section_title
;
Structure prediction by ZEFSAII (Michael W. Deem and Ramdas Pophale) SiO2 
 PCOD8309261
Probable space group: P -4 M 2
;
_chemical_formula_sum "Si O2"
_cell_formula_units_Z 56
_cell_length_a 14.945701
_cell_length_b 14.945701
_cell_length_c 14.097314
_cell_angle_alpha 90.000000
_cell_angle_beta 90.000000
_cell_angle_gamma 90.000000
_cell_volume 3148.973113
_symmetry_space_group_name_H-M "P -4 M 2"
_symmetry_group_IT_number 115
_symmetry_cell_setting 'tetragonal'
loop_
_space_group_symop_operation_xyz
x,y,z
y,-x,-z
-x,-y,z
-y,x,-z
y,x,-z
-y,-x,-z
-x,y,z
x,-y,z
loop_
_atom_site_type_symbol
_atom_site_label
_atom_site_fract_x
_atom_site_fract_y
_atom_site_fract_z
Si Si1 0.298822 0.749980 0.256671
Si Si2 0.098193 0.600817 0.644661
Si Si3 0.124030 0.599651 0.436511
Si Si4 0.900947 0.395328 0.061676
Si Si5 0.097965 0.291268 0.252672
Si Si6 0.607553 0.270445 0.057873
Si Si7 0.401665 0.671603 0.593321
O O1 0.334615 0.844444 0.290638
O O2 0.190483 0.764875 0.255204
O O3 0.340669 0.726454 0.156306
O O4 0.336918 0.672451 0.325251
O O5 0.138667 0.500000 0.644463
O O6 0.090398 0.637660 0.537190
O O7 0.000000 0.600521 0.690814
O O8 0.086804 0.500000 0.420400
O O9 0.086651 0.658451 0.351690
O O10 0.229292 0.601362 0.445364
O O11 0.892880 0.500000 0.072071
O O12 0.886508 0.359286 0.167065
O O13 0.000000 0.367734 0.022382
O O14 0.822535 0.361924 0.992109
O O15 0.000000 0.240658 0.238330
O O16 0.500000 0.277212 0.069821
O O17 0.643631 0.356370 0.000000
O O18 0.388390 0.611611 0.500000
O O19 0.500000 0.648681 0.636418
#
# Coordination Sequence:
#
# PCOD8309261 Si02
#       7
#     8   8   8   8   8   8   8
#     4  11  22  37  56  80 112 145 184 227 278 326
#     4  10  20  34  54  80 109 143 184 229 277 327
#     4   9  17  30  50  77 109 140 175 223 275 321
#     4   9  18  34  57  83 107 132 174 232 286 331
#     4  10  19  31  53  82 109 139 177 221 277 335
#     4  11  23  39  56  76 106 146 189 231 276 326
#     4  10  20  34  53  77 109 148 186 222 262 318
#
# _framework density 17.783576
#
# number of rings (size 3 to 8) (size 9 to 14) (size 15 to 20)
#    0.000    2.000    2.857    1.286    0.000    4.000 
#    0.000    1.429    0.000    0.429    0.000    0.000 
#    0.000    2.857    0.000    0.000    0.000    0.143 
#
# Total GULP energy -693791.866317 kJ/mol
# GULP energy per Si atom -12389.140470 kJ/mol
# Density = 1.774310 g / cm^3
# Si number density = 17.783576 Si / 1000 Ang^3
#
#
#
# Elastic Constant Matrix: (Units=GPa)
#
#
# Indices 1 2 3 4 5 6 
#
# 1 89.3054 35.7893 40.4934 0.0000 0.0000 0.0000
# 2 35.7893 89.3038 40.4938 0.0000 0.0000 0.0000
# 3 40.4934 40.4938 96.7231 0.0000 0.0000 0.0000
# 4 0.0000 0.0000 0.0000 49.4521 0.0000 0.0000
# 5 0.0000 0.0000 0.0000 0.0000 49.4614 0.0000
# 6 0.0000 0.0000 0.0000 0.0000 0.0000 21.1226
#
#
#
# Elastic Compliance Matrix: (Units=1/GPa)
#
#
# Indices 1 2 3 4 5 6 
#
# 1 0.014826 -0.003860 -0.004591 0.000000 0.000000 0.000000
# 2 -0.003860 0.014826 -0.004591 0.000000 0.000000 0.000000
# 3 -0.004591 -0.004591 0.014183 0.000000 0.000000 0.000000
# 4 0.000000 0.000000 0.000000 0.020222 0.000000 0.000000
# 5 0.000000 0.000000 0.000000 0.000000 0.020218 0.000000
# 6 0.000000 0.000000 0.000000 0.000000 0.000000 0.047343
#
#
# Mechanical properties :
#
#
# Convention : Reuss Voigt Hill
#
# Bulk Modulus (GPa) = 56.33423 56.54282 56.43853
# Shear Modulus (GPa) = 30.55879 34.57761 32.56820
#
# Velocity S-wave (km/s) = 4.14982 4.41427 4.28409
# Velocity P-wave (km/s) = 7.39647 7.60559 7.50176
#
# Compressibility (1/GPa) = 0.01775120
#
# Stress axis : x y z
#
# Youngs Moduli (GPa) = 67.44861 67.44686 70.50713
#
# Poissons Ratio (x) = 0.26034 0.32370
# Poissons Ratio (y) = 0.26035 0.32371
# Poissons Ratio (z) = 0.30966 0.30966
#
# Static dielectric constant tensor:
#      x y z
#    x 3.340880 0.000000 0.000000 
#    y 0.000000 3.340910 0.000000 
#    z 0.000000 0.000000 3.323030 
# 
# 
# High freq. dielectric constant tensor:
#      x y z
#    x 1.675890 0.000000 0.000000 
#    y 0.000000 1.675890 0.000000 
#    z 0.000000 0.000000 1.694080 
# 
# From -- ./inp_files/3848.got.cif
#   From: 2010.03.12/outbox.cif.g09.slc.cpg/sg115_2_cif.got.tgz:3848.got - 2010.04.14 02:11:21.
