data_PCOD8309185
_publ_section_title
;
Structure prediction by ZEFSAII (Michael W. Deem and Ramdas Pophale) SiO2 
 PCOD8309185
Probable space group: P -4 M 2
;
_chemical_formula_sum "Si O2"
_cell_formula_units_Z 48
_cell_length_a 13.150511
_cell_length_b 13.150511
_cell_length_c 16.610680
_cell_angle_alpha 90.000000
_cell_angle_beta 90.000000
_cell_angle_gamma 90.000000
_cell_volume 2872.583553
_symmetry_space_group_name_H-M "P -4 M 2"
_symmetry_group_IT_number 115
_symmetry_cell_setting 'tetragonal'
loop_
_space_group_symop_operation_xyz
x,y,z
y,-x,-z
-x,-y,z
-y,x,-z
y,x,-z
-y,-x,-z
-x,y,z
x,-y,z
loop_
_atom_site_type_symbol
_atom_site_label
_atom_site_fract_x
_atom_site_fract_y
_atom_site_fract_z
Si Si1 0.617386 0.382367 0.242100
Si Si2 0.751004 0.251112 0.361369
Si Si3 0.881689 0.215308 0.924685
Si Si4 0.717267 0.616641 0.926886
Si Si5 0.883138 0.881048 0.244119
Si Si6 0.618686 0.228321 0.499171
O O1 0.500000 0.363844 0.264758
O O2 0.646891 0.500000 0.250183
O O3 0.686627 0.318225 0.300676
O O4 0.641158 0.346678 0.152288
O O5 0.824920 0.176173 0.314995
O O6 0.672508 0.184605 0.417663
O O7 0.816938 0.327307 0.419874
O O8 0.821254 0.320335 0.930837
O O9 0.849169 0.158245 0.843152
O O10 0.000000 0.242469 0.924718
O O11 0.857320 0.142681 0.000000
O O12 0.750468 0.500000 0.931372
O O13 0.643390 0.643390 0.000000
O O14 0.000000 0.848454 0.248160
O O15 0.868425 0.000000 0.258952
O O16 0.649361 0.350640 0.500000
O O17 0.500000 0.206767 0.499071
#
# Coordination Sequence:
#
# PCOD8309185 Si02
#       6
#     8   8   8   8   8   8
#     4  10  18  28  48  75 104 139 175 207 243 298
#     4   9  18  32  50  78 106 134 169 216 265 308
#     4  10  20  35  55  80 106 136 174 221 270 316
#     4  10  20  33  49  73 107 144 176 211 254 307
#     4  10  20  36  58  80 102 132 176 227 273 316
#     4   8  18  31  50  76 106 138 167 207 255 308
#
# _framework density 16.709696999999998
#
# number of rings (size 3 to 8) (size 9 to 14) (size 15 to 20)
#    1.000    1.333    1.667    2.000    0.000    2.167 
#    0.000    3.333    0.000    9.000    0.000    0.000 
#    0.000    0.000    0.000    0.000    0.000    0.000 
#
# Total GULP energy -594738.760362 kJ/mol
# GULP energy per Si atom -12390.390841 kJ/mol
# Density = 1.667167 g / cm^3
# Si number density = 16.709697 Si / 1000 Ang^3
#
#
#
# Elastic Constant Matrix: (Units=GPa)
#
#
# Indices 1 2 3 4 5 6 
#
# 1 54.1339 47.5222 54.5131 0.0000 0.0000 0.0000
# 2 47.5222 54.1388 54.5132 0.0000 0.0000 0.0000
# 3 54.5131 54.5132 142.0373 0.0000 0.0000 0.0000
# 4 0.0000 0.0000 0.0000 20.9547 0.0000 0.0000
# 5 0.0000 0.0000 0.0000 0.0000 20.9546 0.0000
# 6 0.0000 0.0000 0.0000 0.0000 0.0000 24.0752
#
#
#
# Elastic Compliance Matrix: (Units=1/GPa)
#
#
# Indices 1 2 3 4 5 6 
#
# 1 0.083961 -0.067237 -0.006419 0.000000 0.000000 0.000000
# 2 -0.067237 0.083949 -0.006414 0.000000 0.000000 0.000000
# 3 -0.006419 -0.006414 0.011966 0.000000 0.000000 0.000000
# 4 0.000000 0.000000 0.000000 0.047722 0.000000 0.000000
# 5 0.000000 0.000000 0.000000 0.000000 0.047722 0.000000
# 6 0.000000 0.000000 0.000000 0.000000 0.000000 0.041537
#
#
# Mechanical properties :
#
#
# Convention : Reuss Voigt Hill
#
# Bulk Modulus (GPa) = 50.66741 62.60077 56.63409
# Shear Modulus (GPa) = 10.33966 19.44766 14.89366
#
# Velocity S-wave (km/s) = 2.49023 3.41523 2.98873
# Velocity P-wave (km/s) = 6.21742 7.28676 6.77322
#
# Compressibility (1/GPa) = 0.01973655
#
# Stress axis : x y z
#
# Youngs Moduli (GPa) = 11.91025 11.91196 83.57327
#
# Poissons Ratio (x) = 0.80092 0.53642
# Poissons Ratio (y) = 0.80081 0.53605
# Poissons Ratio (z) = 0.07645 0.07641
#
# Static dielectric constant tensor:
#      x y z
#    x 2.949650 0.000000 0.000000 
#    y 0.000000 2.949650 0.000000 
#    z 0.000000 0.000000 3.522780 
# 
# 
# High freq. dielectric constant tensor:
#      x y z
#    x 1.626750 0.000000 0.000000 
#    y 0.000000 1.626750 0.000000 
#    z 0.000000 0.000000 1.667160 
# 
# From -- ./inp_files/4285.got.cif
#   From: 2010.03.12/outbox.cif.g09.slc.cpg/sg115_3_cif.got.tgz:4285.got - 2010.04.14 02:11:21.
