data_PCOD8309275
_publ_section_title
;
Structure prediction by ZEFSAII (Michael W. Deem and Ramdas Pophale) SiO2 
 PCOD8309275
Probable space group: P -4 M 2
;
_chemical_formula_sum "Si O2"
_cell_formula_units_Z 44
_cell_length_a 14.236941
_cell_length_b 14.236941
_cell_length_c 12.619629
_cell_angle_alpha 90.000000
_cell_angle_beta 90.000000
_cell_angle_gamma 90.000000
_cell_volume 2557.878773
_symmetry_space_group_name_H-M "P -4 M 2"
_symmetry_group_IT_number 115
_symmetry_cell_setting 'tetragonal'
loop_
_space_group_symop_operation_xyz
x,y,z
y,-x,-z
-x,-y,z
-y,x,-z
y,x,-z
-y,-x,-z
-x,y,z
x,-y,z
loop_
_atom_site_type_symbol
_atom_site_label
_atom_site_fract_x
_atom_site_fract_y
_atom_site_fract_z
Si Si1 0.761589 0.893112 0.372061
Si Si2 0.106981 0.714238 0.860902
Si Si3 0.610345 0.763289 0.989440
Si Si4 0.274041 0.108098 0.599925
Si Si5 0.892618 0.892618 0.000000
Si Si6 0.107474 0.610363 0.204695
O O1 0.705560 0.873415 0.264379
O O2 0.696814 0.872270 0.476670
O O3 0.852145 0.828236 0.375762
O O4 0.798250 0.000000 0.374187
O O5 0.129344 0.819616 0.904620
O O6 0.000000 0.687858 0.887301
O O7 0.172427 0.634658 0.910356
O O8 0.500000 0.741217 0.986356
O O9 0.645289 0.821863 0.886787
O O10 0.664910 0.664910 0.000000
O O11 0.349918 0.147408 0.683629
O O12 0.265179 0.000000 0.622773
O O13 0.000000 0.879040 0.041523
O O14 0.111401 0.500000 0.214678
O O15 0.000000 0.642570 0.178943
#
# Coordination Sequence:
#
# PCOD8309275 Si02
#       6
#     8   8   8   8   4   8
#     4   9  18  30  43  66  99 133 165 197 233 282
#     4  10  19  32  50  72 103 135 165 200 243 291
#     4  11  22  36  53  74  98 125 160 200 249 301
#     4   9  17  29  46  66  94 131 168 202 237 274
#     4   9  18  30  46  72 103 136 172 204 237 282
#     4   9  18  33  54  77  96 118 157 206 247 286
#
# _framework density 17.201753
#
# number of rings (size 3 to 8) (size 9 to 14) (size 15 to 20)
#    0.000    2.455    0.909    1.636    0.000    2.364 
#    0.000    4.545    0.000    3.273    0.000    0.000 
#    0.000    0.000    0.000    9.636    0.000    0.000 
#
# Total GULP energy -545286.000518 kJ/mol
# GULP energy per Si atom -12392.863648 kJ/mol
# Density = 1.716260 g / cm^3
# Si number density = 17.201753 Si / 1000 Ang^3
#
#
#
# Elastic Constant Matrix: (Units=GPa)
#
#
# Indices 1 2 3 4 5 6 
#
# 1 61.0407 35.1634 47.7159 0.0000 0.0000 0.0000
# 2 35.1634 61.0407 47.7159 0.0000 0.0000 0.0000
# 3 47.7159 47.7159 138.4728 0.0000 0.0000 0.0000
# 4 0.0000 0.0000 0.0000 19.8035 0.0000 0.0000
# 5 0.0000 0.0000 0.0000 0.0000 19.8035 0.0000
# 6 0.0000 0.0000 0.0000 0.0000 0.0000 24.3432
#
#
#
# Elastic Compliance Matrix: (Units=1/GPa)
#
#
# Indices 1 2 3 4 5 6 
#
# 1 0.027218 -0.011425 -0.005442 0.000000 0.000000 0.000000
# 2 -0.011425 0.027218 -0.005442 0.000000 0.000000 0.000000
# 3 -0.005442 -0.005442 0.010972 0.000000 0.000000 0.000000
# 4 0.000000 0.000000 0.000000 0.050496 0.000000 0.000000
# 5 0.000000 0.000000 0.000000 0.000000 0.050496 0.000000
# 6 0.000000 0.000000 0.000000 0.000000 0.000000 0.041079
#
#
# Mechanical properties :
#
#
# Convention : Reuss Voigt Hill
#
# Bulk Modulus (GPa) = 48.10044 57.97163 53.03604
# Shear Modulus (GPa) = 19.30282 21.45397 20.37840
#
# Velocity S-wave (km/s) = 3.35347 3.53540 3.44564
# Velocity P-wave (km/s) = 6.55878 7.10208 6.83583
#
# Compressibility (1/GPa) = 0.02078983
#
# Stress axis : x y z
#
# Youngs Moduli (GPa) = 36.73989 36.73989 91.13999
#
# Poissons Ratio (x) = 0.41977 0.49599
# Poissons Ratio (y) = 0.41977 0.49599
# Poissons Ratio (z) = 0.19994 0.19994
#
# Static dielectric constant tensor:
#      x y z
#    x 3.064420 0.000000 0.000000 
#    y 0.000000 3.064420 0.000000 
#    z 0.000000 0.000000 3.638490 
# 
# 
# High freq. dielectric constant tensor:
#      x y z
#    x 1.642100 0.000000 0.000000 
#    y 0.000000 1.642100 0.000000 
#    z 0.000000 0.000000 1.677830 
# 
# From -- ./inp_files/2797.got.cif
#   From: 2010.03.12/outbox.cif.g09.slc.cpg/sg115_2_cif.got.tgz:2797.got - 2010.04.14 02:11:21.
