data_PCOD8309626
_publ_section_title
;
Structure prediction by ZEFSAII (Michael W. Deem and Ramdas Pophale) SiO2 
 PCOD8309626
Probable space group: P -4 M 2
;
_chemical_formula_sum "Si O2"
_cell_formula_units_Z 48
_cell_length_a 9.081238
_cell_length_b 9.081238
_cell_length_c 30.870891
_cell_angle_alpha 90.000000
_cell_angle_beta 90.000000
_cell_angle_gamma 90.000000
_cell_volume 2545.887917
_symmetry_space_group_name_H-M "P -4 M 2"
_symmetry_group_IT_number 115
_symmetry_cell_setting 'tetragonal'
loop_
_space_group_symop_operation_xyz
x,y,z
y,-x,-z
-x,-y,z
-y,x,-z
y,x,-z
-y,-x,-z
-x,y,z
x,-y,z
loop_
_atom_site_type_symbol
_atom_site_label
_atom_site_fract_x
_atom_site_fract_y
_atom_site_fract_z
Si Si1 0.333864 0.824708 0.210747
Si Si2 0.669309 0.172274 0.538280
Si Si3 0.671617 0.670829 0.373358
Si Si4 0.673074 0.831216 0.961520
Si Si5 0.170856 0.171092 0.125633
Si Si6 0.167390 0.825046 0.295425
O O1 0.500000 0.764300 0.213940
O O2 0.260970 0.766355 0.166501
O O3 0.241811 0.764178 0.251516
O O4 0.330879 0.000000 0.210844
O O5 0.772494 0.227506 0.500000
O O6 0.500000 0.209028 0.526902
O O7 0.718750 0.254518 0.581739
O O8 0.694089 0.000000 0.545375
O O9 0.500000 0.707796 0.376213
O O10 0.701005 0.500000 0.363640
O O11 0.742671 0.765715 0.335769
O O12 0.500000 0.812373 0.958070
O O13 0.742764 0.774934 0.916706
O O14 0.719183 0.000000 0.970280
O O15 0.731476 0.731476 0.000000
O O16 0.000000 0.199767 0.135318
O O17 0.203687 0.000000 0.117676
O O18 0.000000 0.767377 0.297159
O O19 0.172962 0.000000 0.296688
#
# Coordination Sequence:
#
# PCOD8309626 Si02
#       6
#     8   8   8   8   8   8
#     4   9  17  30  50  76 104 135 174 219 264 311
#     4  10  21  37  57  80 106 138 176 217 262 312
#     4  10  21  37  57  80 107 141 180 220 264 316
#     4  10  21  36  54  77 105 137 174 215 260 312
#     4   9  17  31  52  75  99 130 170 215 261 310
#     4  10  20  34  54  80 109 141 178 220 265 312
#
# _framework density 18.853933999999999
#
# number of rings (size 3 to 8) (size 9 to 14) (size 15 to 20)
#    0.000    2.333    0.000    2.500    0.000    7.333 
#    0.000    2.500    0.000    3.000    0.000    0.000 
#    0.000    0.000    0.000    0.000    0.000    0.000 
#
# Total GULP energy -595370.859397 kJ/mol
# GULP energy per Si atom -12403.559571 kJ/mol
# Density = 1.881102 g / cm^3
# Si number density = 18.853934 Si / 1000 Ang^3
#
#
#
# Elastic Constant Matrix: (Units=GPa)
#
#
# Indices 1 2 3 4 5 6 
#
# 1 76.9057 34.2034 61.5284 0.0000 0.0000 0.0000
# 2 34.2034 76.9057 61.5284 0.0000 0.0000 0.0000
# 3 61.5284 61.5284 165.3246 0.0000 0.0000 0.0000
# 4 0.0000 0.0000 0.0000 -12.4145 0.0000 0.0000
# 5 0.0000 0.0000 0.0000 0.0000 -12.4145 0.0000
# 6 0.0000 0.0000 0.0000 0.0000 0.0000 23.8051
#
#
#
# Elastic Compliance Matrix: (Units=1/GPa)
#
#
# Indices 1 2 3 4 5 6 
#
# 1 0.019365 -0.004053 -0.005698 0.000000 0.000000 0.000000
# 2 -0.004053 0.019365 -0.005698 0.000000 0.000000 0.000000
# 3 -0.005698 -0.005698 0.010290 0.000000 0.000000 0.000000
# 4 0.000000 0.000000 0.000000 -0.080551 0.000000 0.000000
# 5 0.000000 0.000000 0.000000 0.000000 -0.080551 0.000000
# 6 0.000000 0.000000 0.000000 0.000000 0.000000 0.042008
#
#
# Mechanical properties :
#
#
# Convention : Reuss Voigt Hill
#
# Bulk Modulus (GPa) = 55.18976 70.40627 62.79801
# Shear Modulus (GPa) = -150.90061 10.58692 -70.15684
#
# Velocity S-wave (km/s) = -8.95603 2.37222 -6.10668
# Velocity P-wave (km/s) = 8.80973 6.70278 4.04253
#
# Compressibility (1/GPa) = 0.01811930
#
# Stress axis : x y z
#
# Youngs Moduli (GPa) = 51.64059 51.64059 97.17998
#
# Poissons Ratio (x) = 0.20932 0.55377
# Poissons Ratio (y) = 0.20932 0.55377
# Poissons Ratio (z) = 0.29427 0.29427
#
# Static dielectric constant tensor:
#      x y z
#    x 3.400720 0.000000 0.000000 
#    y 0.000000 3.400720 0.000000 
#    z 0.000000 0.000000 3.625130 
# 
# 
# High freq. dielectric constant tensor:
#      x y z
#    x 1.723040 0.000000 0.000000 
#    y 0.000000 1.723040 0.000000 
#    z 0.000000 0.000000 1.747660 
# 
# From -- ./inp_files/6026.got.cif
#   From: 2010.03.12/outbox.cif.g09.slc.cpg/sg115_4_cif.got.tgz:6026.got - 2010.04.14 02:11:21.
