data_PCOD8309917
_publ_section_title
;
Structure prediction by ZEFSAII (Michael W. Deem and Ramdas Pophale) SiO2 
 PCOD8309917
Probable space group: P -4 M 2
;
_chemical_formula_sum "Si O2"
_cell_formula_units_Z 48
_cell_length_a 9.567607
_cell_length_b 9.567607
_cell_length_c 27.948238
_cell_angle_alpha 90.000000
_cell_angle_beta 90.000000
_cell_angle_gamma 90.000000
_cell_volume 2558.356657
_symmetry_space_group_name_H-M "P -4 M 2"
_symmetry_group_IT_number 115
_symmetry_cell_setting 'tetragonal'
loop_
_space_group_symop_operation_xyz
x,y,z
y,-x,-z
-x,-y,z
-y,x,-z
y,x,-z
-y,-x,-z
-x,y,z
x,-y,z
loop_
_atom_site_type_symbol
_atom_site_label
_atom_site_fract_x
_atom_site_fract_y
_atom_site_fract_z
Si Si1 0.339256 0.341736 0.443954
Si Si2 0.651967 0.735148 0.110634
Si Si3 0.843278 0.500000 0.972756
Si Si4 0.163396 0.662259 0.280390
Si Si5 0.162365 0.163559 0.626597
Si Si6 0.164782 0.500000 0.077959
Si Si7 0.155327 0.339384 0.788224
O O1 0.318354 0.318354 0.500000
O O2 0.500000 0.317964 0.429393
O O3 0.293702 0.500000 0.430069
O O4 0.244924 0.227296 0.417984
O O5 0.500000 0.659403 0.119415
O O6 0.638347 0.814997 0.059421
O O7 0.781041 0.631813 0.107504
O O8 0.680675 0.839466 0.154450
O O9 0.000000 0.500000 0.990166
O O10 0.765318 0.500000 0.024414
O O11 0.204218 0.500000 0.287806
O O12 0.207996 0.750673 0.326725
O O13 0.246218 0.724913 0.235619
O O14 0.000000 0.678672 0.269752
O O15 0.000000 0.205160 0.633367
O O16 0.178376 0.000000 0.616205
O O17 0.000000 0.500000 0.080048
O O18 0.181070 0.500000 0.773674
O O19 0.000000 0.291996 0.771774
#
# Coordination Sequence:
#
# PCOD8309917 Si02
#       7
#     8   8   4   8   8   4   8
#     4   9  19  36  57  82 114 151 191 235 284 335
#     4   9  20  34  56  76 110 141 179 220 269 321
#     4   9  18  34  58  78 106 145 185 223 270 323
#     4  10  22  39  59  82 111 147 186 229 280 336
#     4  10  21  37  57  82 112 148 191 234 278 333
#     4  11  21  33  51  85 115 141 177 225 272 323
#     4  10  21  38  59  82 107 141 184 227 274 330
#
# _framework density 18.762042000000001
#
# number of rings (size 3 to 8) (size 9 to 14) (size 15 to 20)
#    0.500    1.833    0.000    2.750    1.167    4.667 
#    1.500    2.500    0.000    1.500    0.000    4.667 
#    0.000    0.000    0.000    0.000    0.000    0.000 
#
# Total GULP energy -594906.173403 kJ/mol
# GULP energy per Si atom -12393.878613 kJ/mol
# Density = 1.871934 g / cm^3
# Si number density = 18.762042 Si / 1000 Ang^3
#
#
#
# Elastic Constant Matrix: (Units=GPa)
#
#
# Indices 1 2 3 4 5 6 
#
# 1 100.2291 51.8160 45.4129 0.0000 0.0000 0.0000
# 2 51.8160 100.2291 45.4129 0.0000 0.0000 0.0000
# 3 45.4129 45.4129 80.6621 0.0000 0.0000 0.0000
# 4 0.0000 0.0000 0.0000 31.0079 0.0000 0.0000
# 5 0.0000 0.0000 0.0000 0.0000 31.0079 0.0000
# 6 0.0000 0.0000 0.0000 0.0000 0.0000 25.4124
#
#
#
# Elastic Compliance Matrix: (Units=1/GPa)
#
#
# Indices 1 2 3 4 5 6 
#
# 1 0.015283 -0.005373 -0.005579 0.000000 0.000000 0.000000
# 2 -0.005373 0.015283 -0.005579 0.000000 0.000000 0.000000
# 3 -0.005579 -0.005579 0.018680 0.000000 0.000000 0.000000
# 4 0.000000 0.000000 0.000000 0.032250 0.000000 0.000000
# 5 0.000000 0.000000 0.000000 0.000000 0.032250 0.000000
# 6 0.000000 0.000000 0.000000 0.000000 0.000000 0.039351
#
#
# Mechanical properties :
#
#
# Convention : Reuss Voigt Hill
#
# Bulk Modulus (GPa) = 61.79591 62.93377 62.36484
# Shear Modulus (GPa) = 26.10254 26.71756 26.41005
#
# Velocity S-wave (km/s) = 3.73398 3.77772 3.75591
# Velocity P-wave (km/s) = 7.18320 7.25563 7.21950
#
# Compressibility (1/GPa) = 0.01618230
#
# Stress axis : x y z
#
# Youngs Moduli (GPa) = 65.43356 65.43356 53.53424
#
# Poissons Ratio (x) = 0.35157 0.29868
# Poissons Ratio (y) = 0.35157 0.29868
# Poissons Ratio (z) = 0.36507 0.36507
#
# Static dielectric constant tensor:
#      x y z
#    x 3.320880 0.000000 0.000000 
#    y 0.000000 3.320880 0.000000 
#    z 0.000000 0.000000 3.384670 
# 
# 
# High freq. dielectric constant tensor:
#      x y z
#    x 1.719790 0.000000 0.000000 
#    y 0.000000 1.719790 0.000000 
#    z 0.000000 0.000000 1.733530 
# 
# From -- ./inp_files/6209.got.cif
#   From: 2010.03.12/outbox.cif.g09.slc.cpg/sg115_4_cif.got.tgz:6209.got - 2010.04.14 02:11:21.
