data_PCOD8309667
_publ_section_title
;
Structure prediction by ZEFSAII (Michael W. Deem and Ramdas Pophale) SiO2 
 PCOD8309667
Probable space group: P -4 M 2
;
_chemical_formula_sum "Si O2"
_cell_formula_units_Z 48
_cell_length_a 8.189598
_cell_length_b 8.189598
_cell_length_c 34.137101
_cell_angle_alpha 90.000000
_cell_angle_beta 90.000000
_cell_angle_gamma 90.000000
_cell_volume 2289.558821
_symmetry_space_group_name_H-M "P -4 M 2"
_symmetry_group_IT_number 115
_symmetry_cell_setting 'tetragonal'
loop_
_space_group_symop_operation_xyz
x,y,z
y,-x,-z
-x,-y,z
-y,x,-z
y,x,-z
-y,-x,-z
-x,y,z
x,-y,z
loop_
_atom_site_type_symbol
_atom_site_label
_atom_site_fract_x
_atom_site_fract_y
_atom_site_fract_z
Si Si1 0.809429 0.179121 0.541670
Si Si2 0.808544 0.500000 0.745607
Si Si3 0.684280 0.817114 0.961874
Si Si4 0.314221 0.315562 0.381091
Si Si5 0.500000 0.195202 0.165751
Si Si6 0.812050 0.183834 0.879504
Si Si7 0.693482 0.182593 0.699213
O O1 0.744671 0.255330 0.500000
O O2 0.779574 0.295598 0.578379
O O3 0.000000 0.160897 0.535109
O O4 0.732065 0.000000 0.550461
O O5 0.741496 0.500000 0.789789
O O6 0.753789 0.329902 0.726243
O O7 0.000000 0.500000 0.745192
O O8 0.500000 0.801145 0.946916
O O9 0.794988 0.765431 0.925069
O O10 0.728169 0.000000 0.975143
O O11 0.706079 0.706079 0.000000
O O12 0.500000 0.303291 0.366922
O O13 0.260756 0.500000 0.389582
O O14 0.208023 0.241233 0.345329
O O15 0.332407 0.265830 0.145960
O O16 0.500000 0.000000 0.162099
O O17 0.000000 0.171318 0.868378
O O18 0.733960 0.000000 0.872100
O O19 0.500000 0.193022 0.698664
O O20 0.750677 0.000000 0.713395
#
# Coordination Sequence:
#
# PCOD8309667 Si02
#       7
#     8   4   8   8   4   8   8
#     4   9  19  35  52  73 106 146 186 229 281 344
#     4  11  23  39  61  93 127 153 191 251 307 367
#     4  10  21  35  52  78 112 147 186 235 285 337
#     4  10  20  35  56  80 108 143 187 238 286 342
#     4   9  20  37  59  85 113 151 193 237 297 357
#     4   9  18  35  58  80 107 148 196 239 281 343
#     4  10  21  40  64  86 116 159 201 243 296 363
#
# _framework density 20.964739000000002
#
# number of rings (size 3 to 8) (size 9 to 14) (size 15 to 20)
#    0.000    2.333    0.833    1.750    1.167    4.667 
#    0.000    5.833    0.000    2.000    0.000    0.000 
#    0.000    0.000    0.000    0.000    0.000    0.000 
#
# Total GULP energy -594740.303672 kJ/mol
# GULP energy per Si atom -12390.422993 kJ/mol
# Density = 2.091702 g / cm^3
# Si number density = 20.964739 Si / 1000 Ang^3
#
#
#
# Elastic Constant Matrix: (Units=GPa)
#
#
# Indices 1 2 3 4 5 6 
#
# 1 78.8551 27.4063 51.3900 0.0000 0.0000 0.0000
# 2 27.4063 78.8550 51.3900 0.0000 0.0000 0.0000
# 3 51.3900 51.3900 155.9125 0.0000 0.0000 0.0000
# 4 0.0000 0.0000 0.0000 25.7932 0.0000 0.0000
# 5 0.0000 0.0000 0.0000 0.0000 25.7933 0.0000
# 6 0.0000 0.0000 0.0000 0.0000 0.0000 20.2778
#
#
#
# Elastic Compliance Matrix: (Units=1/GPa)
#
#
# Indices 1 2 3 4 5 6 
#
# 1 0.016626 -0.002811 -0.004554 0.000000 0.000000 0.000000
# 2 -0.002811 0.016626 -0.004554 0.000000 0.000000 0.000000
# 3 -0.004554 -0.004554 0.009416 0.000000 0.000000 0.000000
# 4 0.000000 0.000000 0.000000 0.038770 0.000000 0.000000
# 5 0.000000 0.000000 0.000000 0.000000 0.038770 0.000000
# 6 0.000000 0.000000 0.000000 0.000000 0.000000 0.049315
#
#
# Mechanical properties :
#
#
# Convention : Reuss Voigt Hill
#
# Bulk Modulus (GPa) = 53.10214 63.77721 58.43968
# Shear Modulus (GPa) = 25.04565 26.60195 25.82380
#
# Velocity S-wave (km/s) = 3.46013 3.56601 3.51347
# Velocity P-wave (km/s) = 6.43021 6.88785 6.66296
#
# Compressibility (1/GPa) = 0.01883163
#
# Stress axis : x y z
#
# Youngs Moduli (GPa) = 60.14683 60.14675 106.20614
#
# Poissons Ratio (x) = 0.16906 0.48362
# Poissons Ratio (y) = 0.16906 0.48362
# Poissons Ratio (z) = 0.27388 0.27388
#
# Static dielectric constant tensor:
#      x y z
#    x 3.739960 0.000000 0.000000 
#    y 0.000000 3.739960 0.000000 
#    z 0.000000 0.000000 3.831520 
# 
# 
# High freq. dielectric constant tensor:
#      x y z
#    x 1.808350 0.000000 0.000000 
#    y 0.000000 1.808350 0.000000 
#    z 0.000000 0.000000 1.820520 
# 
# From -- ./inp_files/6164.got.cif
#   From: 2010.03.12/outbox.cif.g09.slc.cpg/sg115_4_cif.got.tgz:6164.got - 2010.04.14 02:11:21.
