data_PCOD8309014
_publ_section_title
;
Structure prediction by ZEFSAII (Michael W. Deem and Ramdas Pophale) SiO2 
 PCOD8309014
Probable space group: P -4 21 C
;
_chemical_formula_sum "Si O2"
_cell_formula_units_Z 60
_cell_length_a 11.074034
_cell_length_b 11.074034
_cell_length_c 21.421975
_cell_angle_alpha 90.000000
_cell_angle_beta 90.000000
_cell_angle_gamma 90.000000
_cell_volume 2627.067388
_symmetry_space_group_name_H-M "P -4 21 C"
_symmetry_group_IT_number 114
_symmetry_cell_setting 'tetragonal'
loop_
_space_group_symop_operation_xyz
x,y,z
y,-x,-z
-x,-y,z
-y,x,-z
1/2+x,1/2-y,1/2-z
1/2-x,1/2+y,1/2-z
1/2-y,1/2-x,1/2+z
1/2+y,1/2+x,1/2+z
loop_
_atom_site_type_symbol
_atom_site_label
_atom_site_fract_x
_atom_site_fract_y
_atom_site_fract_z
Si Si1 0.137098 0.030327 0.297998
Si Si2 0.087162 0.116465 0.582803
Si Si3 0.675391 0.113829 0.504869
Si Si4 0.254720 0.740885 0.124741
Si Si5 0.000000 0.000000 0.090523
Si Si6 0.388597 0.132079 0.070100
Si Si7 0.742328 0.957045 0.953747
Si Si8 0.503959 0.734134 0.666731
O O1 0.155330 0.152873 0.338465
O O2 0.171998 0.926747 0.347540
O O3 0.226848 0.038937 0.239635
O O4 0.000000 0.000000 0.275962
O O5 0.046534 0.217607 0.532902
O O6 0.226455 0.085523 0.577470
O O7 0.000000 0.000000 0.573944
O O8 0.732066 0.203649 0.554550
O O9 0.590326 0.183330 0.454851
O O10 0.590220 0.019007 0.542617
O O11 0.118237 0.693168 0.107499
O O12 0.250479 0.860757 0.165837
O O13 0.959870 0.112401 0.048223
O O14 0.888973 0.955361 0.133381
O O15 0.350095 0.070176 0.135452
O O16 0.284052 0.106377 0.020216
#
# Coordination Sequence:
#
# PCOD8309014 Si02
#       8
#     8   8   8   8   4   8   8   8
#     4  11  25  50  73 101 140 200 256 303 365 451
#     4  11  26  44  75 109 143 196 245 298 375 456
#     4  12  24  44  72 107 154 191 235 306 383 449
#     4  11  25  46  72 106 148 194 251 311 370 453
#     4  10  24  45  74 102 144 187 246 302 376 439
#     4  12  25  41  70 107 149 186 238 304 366 439
#     4  11  24  44  70 110 150 190 240 311 380 443
#     4  11  25  46  72 107 142 199 247 309 364 439
#
# _framework density 22.839155000000002
#
# number of rings (size 3 to 8) (size 9 to 14) (size 15 to 20)
#    0.000    0.800    3.333    3.600    3.733    1.067 
#    0.000    0.000    2.933    0.000    0.000    0.000 
#    0.000    0.000    0.000    0.000    0.000    0.000 
#
# Total GULP energy -743611.403752 kJ/mol
# GULP energy per Si atom -12393.523396 kJ/mol
# Density = 2.278717 g / cm^3
# Si number density = 22.839155 Si / 1000 Ang^3
#
#
#
# Elastic Constant Matrix: (Units=GPa)
#
#
# Indices 1 2 3 4 5 6 
#
# 1 95.3510 26.0507 36.1598 0.0000 0.0000 0.0000
# 2 26.0507 95.3510 36.1598 0.0000 0.0000 0.0000
# 3 36.1598 36.1598 111.9009 0.0000 0.0000 0.0000
# 4 0.0000 0.0000 0.0000 28.6078 0.0000 0.0000
# 5 0.0000 0.0000 0.0000 0.0000 28.6078 0.0000
# 6 0.0000 0.0000 0.0000 0.0000 0.0000 39.9147
#
#
#
# Elastic Compliance Matrix: (Units=1/GPa)
#
#
# Indices 1 2 3 4 5 6 
#
# 1 0.012315 -0.002115 -0.003296 0.000000 0.000000 0.000000
# 2 -0.002115 0.012315 -0.003296 0.000000 0.000000 0.000000
# 3 -0.003296 -0.003296 0.011067 0.000000 0.000000 0.000000
# 4 0.000000 0.000000 0.000000 0.034955 0.000000 0.000000
# 5 0.000000 0.000000 0.000000 0.000000 0.034955 0.000000
# 6 0.000000 0.000000 0.000000 0.000000 0.000000 0.025053
#
#
# Mechanical properties :
#
#
# Convention : Reuss Voigt Hill
#
# Bulk Modulus (GPa) = 54.69518 55.48262 55.08890
# Shear Modulus (GPa) = 32.43163 33.04159 32.73661
#
# Velocity S-wave (km/s) = 3.77238 3.80769 3.79007
# Velocity P-wave (km/s) = 6.55549 6.60884 6.58222
#
# Compressibility (1/GPa) = 0.01828315
#
# Stress axis : x y z
#
# Youngs Moduli (GPa) = 81.19960 81.19960 90.36036
#
# Poissons Ratio (x) = 0.17171 0.29785
# Poissons Ratio (y) = 0.17171 0.29785
# Poissons Ratio (z) = 0.26766 0.26766
#
# Static dielectric constant tensor:
#      x y z
#    x 4.268180 0.000000 0.000000 
#    y 0.000000 4.268180 0.000000 
#    z 0.000000 0.000000 4.069770 
# 
# 
# High freq. dielectric constant tensor:
#      x y z
#    x 1.910380 0.000000 0.000000 
#    y 0.000000 1.910380 0.000000 
#    z 0.000000 0.000000 1.883620 
# 
# From -- ./inp_files/3230.got.cif
#   From: 2010.03.12/outbox.cif.g09.slc.cpg/sg114_2_cif.got.tgz:3230.got - 2010.04.14 02:08:34.
