data_PCOD8309910
_publ_section_title
;
Structure prediction by ZEFSAII (Michael W. Deem and Ramdas Pophale) SiO2 
 PCOD8309910
Probable space group: P -4 M 2
;
_chemical_formula_sum "Si O2"
_cell_formula_units_Z 48
_cell_length_a 9.145736
_cell_length_b 9.145736
_cell_length_c 30.741241
_cell_angle_alpha 90.000000
_cell_angle_beta 90.000000
_cell_angle_gamma 90.000000
_cell_volume 2571.335333
_symmetry_space_group_name_H-M "P -4 M 2"
_symmetry_group_IT_number 115
_symmetry_cell_setting 'tetragonal'
loop_
_space_group_symop_operation_xyz
x,y,z
y,-x,-z
-x,-y,z
-y,x,-z
y,x,-z
-y,-x,-z
-x,y,z
x,-y,z
loop_
_atom_site_type_symbol
_atom_site_label
_atom_site_fract_x
_atom_site_fract_y
_atom_site_fract_z
Si Si1 0.328741 0.170405 0.164402
Si Si2 0.170735 0.832671 0.329133
Si Si3 0.830067 0.669792 0.585200
Si Si4 0.668935 0.828804 0.912500
Si Si5 0.332796 0.667205 0.000000
Si Si6 0.329976 0.329976 0.500000
Si Si7 0.169568 0.671635 0.242136
O O1 0.500000 0.201203 0.160611
O O2 0.252221 0.227676 0.121158
O O3 0.267286 0.255171 0.205633
O O4 0.293772 0.000000 0.169918
O O5 0.250509 0.770383 0.371808
O O6 0.219884 0.735472 0.288389
O O7 0.000000 0.818966 0.337818
O O8 0.217066 0.000000 0.319781
O O9 0.795170 0.500000 0.591058
O O10 0.749156 0.733041 0.542766
O O11 0.000000 0.702189 0.578831
O O12 0.500000 0.794191 0.901318
O O13 0.701032 0.000000 0.910298
O O14 0.709289 0.771951 0.960318
O O15 0.500000 0.692183 0.014750
O O16 0.296133 0.500000 0.494366
O O17 0.198410 0.500000 0.242067
O O18 0.000000 0.708355 0.232895
#
# Coordination Sequence:
#
# PCOD8309910 Si02
#       7
#     8   8   8   8   4   4   8
#     4  11  24  39  56  80 109 142 181 223 266 314
#     4   9  18  33  52  74 102 135 168 205 253 307
#     4   9  18  32  49  70  97 129 165 206 251 299
#     4  10  21  37  58  84 113 145 181 222 268 317
#     4   9  18  34  56  81 112 150 186 221 264 313
#     4   9  18  32  48  67  94 128 164 203 250 302
#     4  10  21  37  57  81 108 138 174 216 263 316
#
# _framework density 18.667342999999999
#
# number of rings (size 3 to 8) (size 9 to 14) (size 15 to 20)
#    0.000    2.333    0.000    2.000    0.000    8.000 
#    0.000    3.333    0.000    0.000    0.000    0.000 
#    0.000    0.000    0.000    0.000    0.000    0.000 
#
# Total GULP energy -595372.946902 kJ/mol
# GULP energy per Si atom -12403.603060 kJ/mol
# Density = 1.862486 g / cm^3
# Si number density = 18.667343 Si / 1000 Ang^3
#
#
#
# Elastic Constant Matrix: (Units=GPa)
#
#
# Indices 1 2 3 4 5 6 
#
# 1 76.7155 50.7070 70.8982 0.0000 0.0000 0.0000
# 2 50.7070 76.7153 70.8983 0.0000 0.0000 0.0000
# 3 70.8982 70.8983 157.7935 0.0000 0.0000 0.0000
# 4 0.0000 0.0000 0.0000 41.8110 0.0000 0.0000
# 5 0.0000 0.0000 0.0000 0.0000 41.8110 0.0000
# 6 0.0000 0.0000 0.0000 0.0000 0.0000 25.9143
#
#
#
# Elastic Compliance Matrix: (Units=1/GPa)
#
#
# Indices 1 2 3 4 5 6 
#
# 1 0.027072 -0.011377 -0.007052 0.000000 0.000000 0.000000
# 2 -0.011377 0.027072 -0.007052 0.000000 0.000000 0.000000
# 3 -0.007052 -0.007052 0.012675 0.000000 0.000000 0.000000
# 4 0.000000 0.000000 0.000000 0.023917 0.000000 0.000000
# 5 0.000000 0.000000 0.000000 0.000000 0.023917 0.000000
# 6 0.000000 0.000000 0.000000 0.000000 0.000000 0.038589
#
#
# Mechanical properties :
#
#
# Convention : Reuss Voigt Hill
#
# Bulk Modulus (GPa) = 63.06317 77.35902 70.21109
# Shear Modulus (GPa) = 23.86744 29.82200 26.84472
#
# Velocity S-wave (km/s) = 3.57958 4.00127 3.79629
# Velocity P-wave (km/s) = 7.13726 7.92955 7.54381
#
# Compressibility (1/GPa) = 0.01585712
#
# Stress axis : x y z
#
# Youngs Moduli (GPa) = 36.93814 36.93789 78.89747
#
# Poissons Ratio (x) = 0.42023 0.55640
# Poissons Ratio (y) = 0.42023 0.55641
# Poissons Ratio (z) = 0.26049 0.26050
#
# Static dielectric constant tensor:
#      x y z
#    x 3.419170 0.000000 0.000000 
#    y 0.000000 3.419170 0.000000 
#    z 0.000000 0.000000 3.633970 
# 
# 
# High freq. dielectric constant tensor:
#      x y z
#    x 1.721790 0.000000 0.000000 
#    y 0.000000 1.721790 0.000000 
#    z 0.000000 0.000000 1.738420 
# 
# From -- ./inp_files/6260.got.cif
#   From: 2010.03.12/outbox.cif.g09.slc.cpg/sg115_4_cif.got.tgz:6260.got - 2010.04.14 02:11:21.
