data_PCOD8309399
_publ_section_title
;
Structure prediction by ZEFSAII (Michael W. Deem and Ramdas Pophale) SiO2 
 PCOD8309399
Probable space group: P -4 M 2
;
_chemical_formula_sum "Si O2"
_cell_formula_units_Z 44
_cell_length_a 9.133191
_cell_length_b 9.133191
_cell_length_c 28.564947
_cell_angle_alpha 90.000000
_cell_angle_beta 90.000000
_cell_angle_gamma 90.000000
_cell_volume 2382.750134
_symmetry_space_group_name_H-M "P -4 M 2"
_symmetry_group_IT_number 115
_symmetry_cell_setting 'tetragonal'
loop_
_space_group_symop_operation_xyz
x,y,z
y,-x,-z
-x,-y,z
-y,x,-z
y,x,-z
-y,-x,-z
-x,y,z
x,-y,z
loop_
_atom_site_type_symbol
_atom_site_label
_atom_site_fract_x
_atom_site_fract_y
_atom_site_fract_z
Si Si1 0.669057 0.827856 0.958457
Si Si2 0.674148 0.835166 0.777598
Si Si3 0.163862 0.673780 0.325459
Si Si4 0.331515 0.326688 0.415801
Si Si5 0.674235 0.663815 0.866010
Si Si6 0.828612 0.828612 0.500000
O O1 0.500000 0.786048 0.967636
O O2 0.727084 0.757968 0.910239
O O3 0.691103 0.000000 0.954646
O O4 0.766272 0.766272 0.000000
O O5 0.500000 0.830673 0.779624
O O6 0.728009 0.782734 0.725981
O O7 0.740082 0.731945 0.818133
O O8 0.729109 0.000000 0.786783
O O9 0.159420 0.500000 0.325450
O O10 0.275317 0.729203 0.365169
O O11 0.000000 0.733553 0.335856
O O12 0.500000 0.281085 0.421208
O O13 0.310953 0.500000 0.421714
O O14 0.236222 0.247251 0.454466
O O15 0.500000 0.664100 0.863548
O O16 0.736013 0.500000 0.871287
O O17 0.000000 0.794999 0.502278
#
# Coordination Sequence:
#
# PCOD8309399 Si02
#       6
#     8   8   8   8   8   4
#     4  10  20  33  49  69  94 125 161 202 248 297
#     4   8  13  22  37  60  93 131 167 200 237 284
#     4   8  14  25  42  65  96 134 169 201 240 285
#     4  10  20  33  51  76 103 130 162 202 249 298
#     4   9  16  25  40  64  94 127 161 200 246 292
#     4  11  24  39  54  72  94 125 166 207 248 298
#
# _framework density 18.466056999999999
#
# number of rings (size 3 to 8) (size 9 to 14) (size 15 to 20)
#    0.000    2.818    0.000    3.273    0.000    6.909 
#    0.000    3.636    0.000    0.000    0.000    1.273 
#    0.000    1.455    0.000    0.000    0.000    0.000 
#
# Total GULP energy -545428.893222 kJ/mol
# GULP energy per Si atom -12396.111210 kJ/mol
# Density = 1.842403 g / cm^3
# Si number density = 18.466057 Si / 1000 Ang^3
#
#
#
# Elastic Constant Matrix: (Units=GPa)
#
#
# Indices 1 2 3 4 5 6 
#
# 1 58.2797 29.8321 50.1560 0.0000 0.0000 0.0000
# 2 29.8321 58.2797 50.1560 0.0000 0.0000 0.0000
# 3 50.1560 50.1560 167.4227 0.0000 0.0000 0.0000
# 4 0.0000 0.0000 0.0000 -2.3676 0.0000 0.0000
# 5 0.0000 0.0000 0.0000 0.0000 -2.3676 0.0000
# 6 0.0000 0.0000 0.0000 0.0000 0.0000 16.3239
#
#
#
# Elastic Compliance Matrix: (Units=1/GPa)
#
#
# Indices 1 2 3 4 5 6 
#
# 1 0.026188 -0.008964 -0.005160 0.000000 0.000000 0.000000
# 2 -0.008964 0.026188 -0.005160 0.000000 0.000000 0.000000
# 3 -0.005160 -0.005160 0.009064 0.000000 0.000000 0.000000
# 4 0.000000 0.000000 0.000000 -0.422360 0.000000 0.000000
# 5 0.000000 0.000000 0.000000 0.000000 -0.422360 0.000000
# 6 0.000000 0.000000 0.000000 0.000000 0.000000 0.061260
#
#
# Mechanical properties :
#
#
# Convention : Reuss Voigt Hill
#
# Bulk Modulus (GPa) = 43.72117 60.47449 52.09783
# Shear Modulus (GPa) = -7.39833 12.57359 2.58763
#
# Velocity S-wave (km/s) = -2.00378 2.61224 1.18505
# Velocity P-wave (km/s) = 4.28653 6.47445 5.49058
#
# Compressibility (1/GPa) = 0.02287222
#
# Stress axis : x y z
#
# Youngs Moduli (GPa) = 38.18564 38.18564 110.32196
#
# Poissons Ratio (x) = 0.34231 0.56923
# Poissons Ratio (y) = 0.34231 0.56923
# Poissons Ratio (z) = 0.19703 0.19703
#
# Static dielectric constant tensor:
#      x y z
#    x 3.189890 0.000000 0.000000 
#    y 0.000000 3.189890 0.000000 
#    z 0.000000 0.000000 3.863200 
# 
# 
# High freq. dielectric constant tensor:
#      x y z
#    x 1.683760 0.000000 0.000000 
#    y 0.000000 1.683760 0.000000 
#    z 0.000000 0.000000 1.738690 
# 
# From -- ./inp_files/5814.got.cif
#   From: 2010.03.12/outbox.cif.g09.slc.cpg/sg115_3_cif.got.tgz:5814.got - 2010.04.14 02:11:21.
