data_PCOD8309579
_publ_section_title
;
Structure prediction by ZEFSAII (Michael W. Deem and Ramdas Pophale) SiO2 
 PCOD8309579
Probable space group: P -4 M 2
;
_chemical_formula_sum "Si O2"
_cell_formula_units_Z 48
_cell_length_a 9.093160
_cell_length_b 9.093160
_cell_length_c 30.850744
_cell_angle_alpha 90.000000
_cell_angle_beta 90.000000
_cell_angle_gamma 90.000000
_cell_volume 2550.911007
_symmetry_space_group_name_H-M "P -4 M 2"
_symmetry_group_IT_number 115
_symmetry_cell_setting 'tetragonal'
loop_
_space_group_symop_operation_xyz
x,y,z
y,-x,-z
-x,-y,z
-y,x,-z
y,x,-z
-y,-x,-z
-x,y,z
x,-y,z
loop_
_atom_site_type_symbol
_atom_site_label
_atom_site_fract_x
_atom_site_fract_y
_atom_site_fract_z
Si Si1 0.826790 0.331330 0.287736
Si Si2 0.665791 0.674667 0.875004
Si Si3 0.668490 0.172914 0.461565
Si Si4 0.828031 0.670763 0.789509
Si Si5 0.669443 0.670313 0.374889
Si Si6 0.670322 0.827109 0.038919
O O1 0.780344 0.500000 0.278475
O O2 0.760855 0.227036 0.251400
O O3 0.764308 0.278804 0.333841
O O4 0.000000 0.312090 0.288511
O O5 0.500000 0.737130 0.875940
O O6 0.666581 0.500000 0.874434
O O7 0.746902 0.733461 0.832123
O O8 0.751716 0.730437 0.917340
O O9 0.767400 0.232601 0.500000
O O10 0.500000 0.220260 0.469793
O O11 0.725327 0.239370 0.416324
O O12 0.686817 0.000000 0.459076
O O13 0.790686 0.500000 0.782018
O O14 0.000000 0.696451 0.796038
O O15 0.500000 0.705076 0.364360
O O16 0.694891 0.500000 0.385457
O O17 0.500000 0.786820 0.030415
O O18 0.692709 0.000000 0.043789
O O19 0.767689 0.767689 0.000000
#
# Coordination Sequence:
#
# PCOD8309579 Si02
#       6
#     8   8   8   8   8   8
#     4  10  21  36  54  78 108 141 177 218 264 314
#     4   9  17  31  54  81 106 135 174 220 266 311
#     4  10  21  36  55  80 109 140 175 216 262 313
#     4  10  20  34  54  80 109 141 177 218 264 314
#     4   9  18  34  56  79 104 138 180 223 264 309
#     4  10  20  34  53  78 108 140 175 216 262 313
#
# _framework density 18.816807000000001
#
# number of rings (size 3 to 8) (size 9 to 14) (size 15 to 20)
#    0.000    2.333    0.000    2.500    0.000    7.333 
#    0.000    4.167    0.000    5.000    0.000    0.000 
#    0.000    0.000    0.000    0.000    0.000    0.000 
#
# Total GULP energy -595378.511045 kJ/mol
# GULP energy per Si atom -12403.718980 kJ/mol
# Density = 1.877398 g / cm^3
# Si number density = 18.816807 Si / 1000 Ang^3
#
#
#
# Elastic Constant Matrix: (Units=GPa)
#
#
# Indices 1 2 3 4 5 6 
#
# 1 75.6562 39.1286 64.5452 0.0000 0.0000 0.0000
# 2 39.1286 75.6575 64.5466 0.0000 0.0000 0.0000
# 3 64.5452 64.5466 168.8237 0.0000 0.0000 0.0000
# 4 0.0000 0.0000 0.0000 -1.1321 0.0000 0.0000
# 5 0.0000 0.0000 0.0000 0.0000 -1.1328 0.0000
# 6 0.0000 0.0000 0.0000 0.0000 0.0000 23.2144
#
#
#
# Elastic Compliance Matrix: (Units=1/GPa)
#
#
# Indices 1 2 3 4 5 6 
#
# 1 0.021330 -0.006046 -0.005843 0.000000 0.000000 0.000000
# 2 -0.006046 0.021330 -0.005843 0.000000 0.000000 0.000000
# 3 -0.005843 -0.005843 0.010391 0.000000 0.000000 0.000000
# 4 0.000000 0.000000 0.000000 -0.883277 0.000000 0.000000
# 5 0.000000 0.000000 0.000000 0.000000 -0.882735 0.000000
# 6 0.000000 0.000000 0.000000 0.000000 0.000000 0.043077
#
#
# Mechanical properties :
#
#
# Convention : Reuss Voigt Hill
#
# Bulk Modulus (GPa) = 56.86588 72.95313 64.90951
# Shear Modulus (GPa) = -3.07020 14.31769 5.62374
#
# Velocity S-wave (km/s) = -1.27874 2.76143 1.73066
# Velocity P-wave (km/s) = 5.30153 7.00155 6.20999
#
# Compressibility (1/GPa) = 0.01758524
#
# Stress axis : x y z
#
# Youngs Moduli (GPa) = 46.88269 46.88288 96.23306
#
# Poissons Ratio (x) = 0.28347 0.56231
# Poissons Ratio (y) = 0.28347 0.56233
# Poissons Ratio (z) = 0.27394 0.27395
#
# Static dielectric constant tensor:
#      x y z
#    x 3.356850 0.000000 0.000000 
#    y 0.000000 3.356850 0.000000 
#    z 0.000000 0.000000 3.607540 
# 
# 
# High freq. dielectric constant tensor:
#      x y z
#    x 1.719950 0.000000 0.000000 
#    y 0.000000 1.719950 0.000000 
#    z 0.000000 0.000000 1.746030 
# 
# From -- ./inp_files/5997.got.cif
#   From: 2010.03.12/outbox.cif.g09.slc.cpg/sg115_3_cif.got.tgz:5997.got - 2010.04.14 02:11:21.
