data_PCOD8309408
_publ_section_title
;
Structure prediction by ZEFSAII (Michael W. Deem and Ramdas Pophale) SiO2 
 PCOD8309408
Probable space group: P -4 M 2
;
_chemical_formula_sum "Si O2"
_cell_formula_units_Z 40
_cell_length_a 9.369326
_cell_length_b 9.369326
_cell_length_c 26.047636
_cell_angle_alpha 90.000000
_cell_angle_beta 90.000000
_cell_angle_gamma 90.000000
_cell_volume 2286.572704
_symmetry_space_group_name_H-M "P -4 M 2"
_symmetry_group_IT_number 115
_symmetry_cell_setting 'tetragonal'
loop_
_space_group_symop_operation_xyz
x,y,z
y,-x,-z
-x,-y,z
-y,x,-z
y,x,-z
-y,-x,-z
-x,y,z
x,-y,z
loop_
_atom_site_type_symbol
_atom_site_label
_atom_site_fract_x
_atom_site_fract_y
_atom_site_fract_z
Si Si1 0.658684 0.669431 0.358762
Si Si2 0.160250 0.329508 0.848623
Si Si3 0.330262 0.659063 0.246305
Si Si4 0.340861 0.329960 0.943670
Si Si5 0.332614 0.166779 0.543720
O O1 0.500000 0.730541 0.371199
O O2 0.649836 0.500000 0.356730
O O3 0.712507 0.721484 0.302533
O O4 0.769420 0.720434 0.401972
O O5 0.162515 0.500000 0.848526
O O6 0.238942 0.268758 0.798045
O O7 0.237686 0.269436 0.899524
O O8 0.000000 0.270149 0.848402
O O9 0.500000 0.651562 0.243158
O O10 0.267188 0.500000 0.237999
O O11 0.500000 0.269213 0.933857
O O12 0.346370 0.500000 0.942075
O O13 0.283056 0.283056 0.000000
O O14 0.244056 0.244056 0.500000
O O15 0.500000 0.196751 0.534893
O O16 0.297750 0.000000 0.543316
#
# Coordination Sequence:
#
# PCOD8309408 Si02
#       5
#     8   8   8   8   8
#     4   8  14  26  45  67  89 115 148 183 217 257
#     4   9  15  21  31  52  82 108 128 162 214 257
#     4   8  13  22  37  56  79 109 141 169 203 253
#     4   8  13  21  33  49  71 102 137 166 195 242
#     4  10  20  33  50  72  96 123 155 190 229 272
#
# _framework density 17.493431999999999
#
# number of rings (size 3 to 8) (size 9 to 14) (size 15 to 20)
#    0.000    3.400    0.000    3.000    0.000    3.600 
#    0.000    1.000    0.000    3.600    0.000    1.400 
#    0.000   11.600    0.000    0.000    0.000    0.000 
#
# Total GULP energy -495705.181201 kJ/mol
# GULP energy per Si atom -12392.629530 kJ/mol
# Density = 1.745362 g / cm^3
# Si number density = 17.493432 Si / 1000 Ang^3
#
#
#
# Elastic Constant Matrix: (Units=GPa)
#
#
# Indices 1 2 3 4 5 6 
#
# 1 63.7069 28.2793 64.0446 0.0000 0.0000 0.0000
# 2 28.2793 63.7069 64.0446 0.0000 0.0000 0.0000
# 3 64.0446 64.0446 199.6047 0.0000 0.0000 0.0000
# 4 0.0000 0.0000 0.0000 2.0905 0.0000 0.0000
# 5 0.0000 0.0000 0.0000 0.0000 2.0905 0.0000
# 6 0.0000 0.0000 0.0000 0.0000 0.0000 8.9883
#
#
#
# Elastic Compliance Matrix: (Units=1/GPa)
#
#
# Indices 1 2 3 4 5 6 
#
# 1 0.023939 -0.004288 -0.006305 0.000000 0.000000 0.000000
# 2 -0.004288 0.023939 -0.006305 0.000000 0.000000 0.000000
# 3 -0.006305 -0.006305 0.009056 0.000000 0.000000 0.000000
# 4 0.000000 0.000000 0.000000 0.478343 0.000000 0.000000
# 5 0.000000 0.000000 0.000000 0.000000 0.478343 0.000000
# 6 0.000000 0.000000 0.000000 0.000000 0.000000 0.111256
#
#
# Mechanical properties :
#
#
# Convention : Reuss Voigt Hill
#
# Bulk Modulus (GPa) = 43.22006 71.08393 57.15200
# Shear Modulus (GPa) = 4.28675 14.01056 9.14866
#
# Velocity S-wave (km/s) = 1.56710 2.83310 2.28935
# Velocity P-wave (km/s) = 5.29476 7.17111 6.30314
#
# Compressibility (1/GPa) = 0.02313740
#
# Stress axis : x y z
#
# Youngs Moduli (GPa) = 41.77323 41.77323 110.42384
#
# Poissons Ratio (x) = 0.17911 0.69624
# Poissons Ratio (y) = 0.17911 0.69624
# Poissons Ratio (z) = 0.26339 0.26339
#
# Static dielectric constant tensor:
#      x y z
#    x 2.918450 0.000000 0.000000 
#    y 0.000000 2.918450 0.000000 
#    z 0.000000 0.000000 3.789300 
# 
# 
# High freq. dielectric constant tensor:
#      x y z
#    x 1.625930 0.000000 0.000000 
#    y 0.000000 1.625930 0.000000 
#    z 0.000000 0.000000 1.699390 
# 
# From -- ./inp_files/5439.got.cif
#   From: 2010.03.12/outbox.cif.g09.slc.cpg/sg115_3_cif.got.tgz:5439.got - 2010.04.14 02:11:21.
