data_PCOD8309826
_publ_section_title
;
Structure prediction by ZEFSAII (Michael W. Deem and Ramdas Pophale) SiO2 
 PCOD8309826
Probable space group: P -4 M 2
;
_chemical_formula_sum "Si O2"
_cell_formula_units_Z 48
_cell_length_a 9.260123
_cell_length_b 9.260123
_cell_length_c 31.090421
_cell_angle_alpha 90.000000
_cell_angle_beta 90.000000
_cell_angle_gamma 90.000000
_cell_volume 2665.999807
_symmetry_space_group_name_H-M "P -4 M 2"
_symmetry_group_IT_number 115
_symmetry_cell_setting 'tetragonal'
loop_
_space_group_symop_operation_xyz
x,y,z
y,-x,-z
-x,-y,z
-y,x,-z
y,x,-z
-y,-x,-z
-x,y,z
x,-y,z
loop_
_atom_site_type_symbol
_atom_site_label
_atom_site_fract_x
_atom_site_fract_y
_atom_site_fract_z
Si Si1 0.828084 0.663110 0.293811
Si Si2 0.333590 0.169525 0.871138
Si Si3 0.833574 0.669521 0.536769
Si Si4 0.827818 0.163384 0.211846
Si Si5 0.167187 0.166913 0.622734
Si Si6 0.672106 0.660794 0.953254
O O1 0.767978 0.500000 0.292430
O O2 0.766210 0.750801 0.253042
O O3 0.774797 0.739623 0.337354
O O4 0.000000 0.663673 0.292210
O O5 0.500000 0.212592 0.863267
O O6 0.241740 0.229300 0.831083
O O7 0.270678 0.239023 0.914770
O O8 0.315451 0.000000 0.876160
O O9 0.733550 0.733550 0.500000
O O10 0.806887 0.500000 0.539992
O O11 0.786845 0.740196 0.581676
O O12 0.000000 0.706383 0.526284
O O13 0.000000 0.165019 0.212696
O O14 0.768753 0.000000 0.212947
O O15 0.000000 0.188687 0.634638
O O16 0.201096 0.000000 0.612550
O O17 0.500000 0.657205 0.953822
O O18 0.733701 0.500000 0.945591
O O19 0.722467 0.722467 0.000000
#
# Coordination Sequence:
#
# PCOD8309826 Si02
#       6
#     8   8   8   8   8   8
#     4   9  16  26  43  68  94 119 152 194 233 270
#     4   9  16  26  42  64  87 110 140 180 222 262
#     4  10  21  36  54  76 102 133 168 204 243 288
#     4   9  16  26  41  62  90 121 149 180 224 275
#     4   9  17  30  49  72  97 124 154 191 237 285
#     4   8  14  26  44  63  83 111 146 180 216 262
#
# _framework density 18.004501999999999
#
# number of rings (size 3 to 8) (size 9 to 14) (size 15 to 20)
#    0.000    3.000    0.000    2.000    0.000    5.667 
#    0.000    2.500    0.000    2.500    0.000    0.000 
#    0.000    0.000    0.000    0.000    0.000    0.000 
#
# Total GULP energy -595112.709610 kJ/mol
# GULP energy per Si atom -12398.181450 kJ/mol
# Density = 1.796352 g / cm^3
# Si number density = 18.004502 Si / 1000 Ang^3
#
#
#
# Elastic Constant Matrix: (Units=GPa)
#
#
# Indices 1 2 3 4 5 6 
#
# 1 67.5045 31.2827 69.0941 0.0000 0.0000 0.0000
# 2 31.2827 67.5045 69.0941 0.0000 0.0000 0.0000
# 3 69.0941 69.0941 196.2833 0.0000 0.0000 0.0000
# 4 0.0000 0.0000 0.0000 15.5020 0.0000 0.0000
# 5 0.0000 0.0000 0.0000 0.0000 15.5020 0.0000
# 6 0.0000 0.0000 0.0000 0.0000 0.0000 12.0435
#
#
#
# Elastic Compliance Matrix: (Units=1/GPa)
#
#
# Indices 1 2 3 4 5 6 
#
# 1 0.023775 -0.003832 -0.007020 0.000000 0.000000 0.000000
# 2 -0.003832 0.023775 -0.007020 0.000000 0.000000 0.000000
# 3 -0.007020 -0.007020 0.010037 0.000000 0.000000 0.000000
# 4 0.000000 0.000000 0.000000 0.064508 0.000000 0.000000
# 5 0.000000 0.000000 0.000000 0.000000 0.064508 0.000000
# 6 0.000000 0.000000 0.000000 0.000000 0.000000 0.083032
#
#
# Mechanical properties :
#
#
# Convention : Reuss Voigt Hill
#
# Bulk Modulus (GPa) = 45.78285 74.47045 60.12665
# Shear Modulus (GPa) = 15.99174 19.39760 17.69467
#
# Velocity S-wave (km/s) = 2.98351 3.28590 3.13835
# Velocity P-wave (km/s) = 6.11165 7.47316 6.82643
#
# Compressibility (1/GPa) = 0.02184224
#
# Stress axis : x y z
#
# Youngs Moduli (GPa) = 42.06050 42.06050 99.63115
#
# Poissons Ratio (x) = 0.16119 0.69942
# Poissons Ratio (y) = 0.16119 0.69942
# Poissons Ratio (z) = 0.29527 0.29527
#
# Static dielectric constant tensor:
#      x y z
#    x 3.111310 0.000000 0.000000 
#    y 0.000000 3.111310 0.000000 
#    z 0.000000 0.000000 3.630850 
# 
# 
# High freq. dielectric constant tensor:
#      x y z
#    x 1.666060 0.000000 0.000000 
#    y 0.000000 1.666060 0.000000 
#    z 0.000000 0.000000 1.715390 
# 
# From -- ./inp_files/6052.got.cif
#   From: 2010.03.12/outbox.cif.g09.slc.cpg/sg115_4_cif.got.tgz:6052.got - 2010.04.14 02:11:21.
