data_PCOD8309368
_publ_section_title
;
Structure prediction by ZEFSAII (Michael W. Deem and Ramdas Pophale) SiO2 
 PCOD8309368
Probable space group: P -4 M 2
;
_chemical_formula_sum "Si O2"
_cell_formula_units_Z 44
_cell_length_a 9.206786
_cell_length_b 9.206786
_cell_length_c 28.458070
_cell_angle_alpha 90.000000
_cell_angle_beta 90.000000
_cell_angle_gamma 90.000000
_cell_volume 2412.245698
_symmetry_space_group_name_H-M "P -4 M 2"
_symmetry_group_IT_number 115
_symmetry_cell_setting 'tetragonal'
loop_
_space_group_symop_operation_xyz
x,y,z
y,-x,-z
-x,-y,z
-y,x,-z
y,x,-z
-y,-x,-z
-x,y,z
x,-y,z
loop_
_atom_site_type_symbol
_atom_site_label
_atom_site_fract_x
_atom_site_fract_y
_atom_site_fract_z
Si Si1 0.669570 0.666891 0.867675
Si Si2 0.836272 0.829971 0.053657
Si Si3 0.829461 0.668511 0.691870
Si Si4 0.331125 0.331125 0.500000
Si Si5 0.829686 0.331509 0.225667
Si Si6 0.326805 0.663910 0.399528
O O1 0.500000 0.688241 0.876180
O O2 0.710831 0.500000 0.858754
O O3 0.749061 0.721965 0.913925
O O4 0.722142 0.758365 0.822792
O O5 0.000000 0.775569 0.064369
O O6 0.825440 0.000000 0.063397
O O7 0.794839 0.794839 0.000000
O O8 0.788720 0.500000 0.699852
O O9 0.762124 0.763239 0.732877
O O10 0.765668 0.727353 0.642609
O O11 0.000000 0.693135 0.690933
O O12 0.299002 0.500000 0.495653
O O13 0.268419 0.270662 0.549977
O O14 0.793793 0.500000 0.234987
O O15 0.000000 0.302119 0.222489
O O16 0.500000 0.659973 0.401595
O O17 0.268020 0.500000 0.391083
#
# Coordination Sequence:
#
# PCOD8309368 Si02
#       6
#     8   8   8   4   8   8
#     4  10  21  36  55  80 107 133 164 206 255 303
#     4   9  19  36  56  78 106 141 178 211 244 287
#     4  10  20  32  48  73 103 133 165 202 247 299
#     4   7  10  18  36  64  92 119 158 204 246 287
#     4  10  21  37  56  75  96 128 170 211 252 300
#     4   8  13  23  42  67  94 125 162 205 249 290
#
# _framework density 18.240264
#
# number of rings (size 3 to 8) (size 9 to 14) (size 15 to 20)
#    0.000    2.818    0.000    3.273    0.000    5.091 
#    0.000    2.727    0.000    1.091    0.000    5.091 
#    0.000    0.000    0.000    0.000    0.000    0.000 
#
# Total GULP energy -545371.634396 kJ/mol
# GULP energy per Si atom -12394.809873 kJ/mol
# Density = 1.819875 g / cm^3
# Si number density = 18.240264 Si / 1000 Ang^3
#
#
#
# Elastic Constant Matrix: (Units=GPa)
#
#
# Indices 1 2 3 4 5 6 
#
# 1 66.6375 42.3068 65.8921 0.0000 0.0000 0.0000
# 2 42.3068 66.6375 65.8921 0.0000 0.0000 0.0000
# 3 65.8921 65.8921 168.6163 0.0000 0.0000 0.0000
# 4 0.0000 0.0000 0.0000 -5.2058 0.0000 0.0000
# 5 0.0000 0.0000 0.0000 0.0000 -5.2058 0.0000
# 6 0.0000 0.0000 0.0000 0.0000 0.0000 24.4132
#
#
#
# Elastic Compliance Matrix: (Units=1/GPa)
#
#
# Indices 1 2 3 4 5 6 
#
# 1 0.029254 -0.011846 -0.006803 0.000000 0.000000 0.000000
# 2 -0.011846 0.029254 -0.006803 0.000000 0.000000 0.000000
# 3 -0.006803 -0.006803 0.011247 0.000000 0.000000 0.000000
# 4 0.000000 0.000000 0.000000 -0.192095 0.000000 0.000000
# 5 0.000000 0.000000 0.000000 0.000000 -0.192095 0.000000
# 6 0.000000 0.000000 0.000000 0.000000 0.000000 0.040961
#
#
# Mechanical properties :
#
#
# Convention : Reuss Voigt Hill
#
# Bulk Modulus (GPa) = 53.04378 72.23039 62.63708
# Shear Modulus (GPa) = -23.11760 11.32035 -5.89863
#
# Velocity S-wave (km/s) = -3.56391 2.49394 -1.80024
# Velocity P-wave (km/s) = 3.49406 6.92664 5.48575
#
# Compressibility (1/GPa) = 0.01885235
#
# Stress axis : x y z
#
# Youngs Moduli (GPa) = 34.18321 34.18321 88.90999
#
# Poissons Ratio (x) = 0.40494 0.60482
# Poissons Ratio (y) = 0.40494 0.60482
# Poissons Ratio (z) = 0.23254 0.23254
#
# Static dielectric constant tensor:
#      x y z
#    x 3.157380 0.000000 0.000000 
#    y 0.000000 3.157380 0.000000 
#    z 0.000000 0.000000 3.720990 
# 
# 
# High freq. dielectric constant tensor:
#      x y z
#    x 1.681750 0.000000 0.000000 
#    y 0.000000 1.681750 0.000000 
#    z 0.000000 0.000000 1.729620 
# 
# From -- ./inp_files/5801.got.cif
#   From: 2010.03.12/outbox.cif.g09.slc.cpg/sg115_3_cif.got.tgz:5801.got - 2010.04.14 02:11:21.
