data_PCOD8309660
_publ_section_title
;
Structure prediction by ZEFSAII (Michael W. Deem and Ramdas Pophale) SiO2 
 PCOD8309660
Probable space group: P -4 M 2
;
_chemical_formula_sum "Si O2"
_cell_formula_units_Z 48
_cell_length_a 8.176884
_cell_length_b 8.176884
_cell_length_c 34.128511
_cell_angle_alpha 90.000000
_cell_angle_beta 90.000000
_cell_angle_gamma 90.000000
_cell_volume 2281.881116
_symmetry_space_group_name_H-M "P -4 M 2"
_symmetry_group_IT_number 115
_symmetry_cell_setting 'tetragonal'
loop_
_space_group_symop_operation_xyz
x,y,z
y,-x,-z
-x,-y,z
-y,x,-z
y,x,-z
-y,-x,-z
-x,y,z
x,-y,z
loop_
_atom_site_type_symbol
_atom_site_label
_atom_site_fract_x
_atom_site_fract_y
_atom_site_fract_z
Si Si1 0.808920 0.814162 0.879992
Si Si2 0.687234 0.194211 0.376810
Si Si3 0.676036 0.811661 0.462638
Si Si4 0.692702 0.000000 0.759813
Si Si5 0.804921 0.000000 0.671610
Si Si6 0.309873 0.679527 0.802453
Si Si7 0.183126 0.687469 0.961158
O O1 0.717585 0.700866 0.848803
O O2 0.741126 0.783039 0.923906
O O3 0.000000 0.770836 0.879122
O O4 0.773197 0.000000 0.868174
O O5 0.500000 0.252670 0.365615
O O6 0.733860 0.261116 0.420705
O O7 0.832549 0.261910 0.348966
O O8 0.691540 0.000000 0.374739
O O9 0.792247 0.792247 0.500000
O O10 0.500000 0.735761 0.474044
O O11 0.657064 0.000000 0.453853
O O12 0.770137 0.166419 0.778928
O O13 0.500000 0.000000 0.767503
O O14 0.731871 0.000000 0.714471
O O15 0.000000 0.000000 0.672507
O O16 0.500000 0.676566 0.793141
O O17 0.236737 0.500000 0.790012
O O18 0.183169 0.500000 0.949065
O O19 0.000000 0.751054 0.970068
O O20 0.289262 0.710739 0.000000
#
# Coordination Sequence:
#
# PCOD8309660 Si02
#       7
#     8   8   8   4   4   8   8
#     4  10  20  35  58  85 112 143 181 229 284 338
#     4   8  16  32  51  75 109 141 177 229 280 328
#     4   9  18  31  48  73 104 138 177 222 269 319
#     4  10  22  40  56  80 116 144 176 232 286 336
#     4  10  20  34  58  82 104 142 190 228 276 342
#     4  10  21  38  60  83 110 147 185 224 279 344
#     4  10  21  36  53  76 107 144 185 227 272 323
#
# _framework density 21.035274999999999
#
# number of rings (size 3 to 8) (size 9 to 14) (size 15 to 20)
#    0.000    2.500    0.833    2.000    1.167    4.333 
#    0.000    0.833    0.000    1.000    0.000    0.000 
#    0.000    0.000    0.000    0.000    0.000    0.000 
#
# Total GULP energy -594682.658802 kJ/mol
# GULP energy per Si atom -12389.222058 kJ/mol
# Density = 2.098740 g / cm^3
# Si number density = 21.035275 Si / 1000 Ang^3
#
#
#
# Elastic Constant Matrix: (Units=GPa)
#
#
# Indices 1 2 3 4 5 6 
#
# 1 78.2392 20.8720 40.5869 0.0000 0.0000 0.0000
# 2 20.8720 78.2396 40.5872 0.0000 0.0000 0.0000
# 3 40.5869 40.5872 141.5680 0.0000 0.0000 0.0000
# 4 0.0000 0.0000 0.0000 20.7328 0.0000 0.0000
# 5 0.0000 0.0000 0.0000 0.0000 20.7329 0.0000
# 6 0.0000 0.0000 0.0000 0.0000 0.0000 12.8049
#
#
#
# Elastic Compliance Matrix: (Units=1/GPa)
#
#
# Indices 1 2 3 4 5 6 
#
# 1 0.015309 -0.002123 -0.003780 0.000000 0.000000 0.000000
# 2 -0.002123 0.015309 -0.003780 0.000000 0.000000 0.000000
# 3 -0.003780 -0.003780 0.009231 0.000000 0.000000 0.000000
# 4 0.000000 0.000000 0.000000 0.048233 0.000000 0.000000
# 5 0.000000 0.000000 0.000000 0.000000 0.048233 0.000000
# 6 0.000000 0.000000 0.000000 0.000000 0.000000 0.078095
#
#
# Mechanical properties :
#
#
# Convention : Reuss Voigt Hill
#
# Bulk Modulus (GPa) = 48.82412 55.79324 52.30868
# Shear Modulus (GPa) = 20.78110 23.92083 22.35097
#
# Velocity S-wave (km/s) = 3.14652 3.37586 3.26321
# Velocity P-wave (km/s) = 6.03836 6.46348 6.25453
#
# Compressibility (1/GPa) = 0.02048168
#
# Stress axis : x y z
#
# Youngs Moduli (GPa) = 65.32241 65.32260 108.32644
#
# Poissons Ratio (x) = 0.13867 0.40951
# Poissons Ratio (y) = 0.13867 0.40951
# Poissons Ratio (z) = 0.24694 0.24694
#
# Static dielectric constant tensor:
#      x y z
#    x 3.832170 0.000000 0.000000 
#    y 0.000000 3.832160 0.000000 
#    z 0.000000 0.000000 3.741640 
# 
# 
# High freq. dielectric constant tensor:
#      x y z
#    x 1.806840 0.000000 0.000000 
#    y 0.000000 1.806840 0.000000 
#    z 0.000000 0.000000 1.823960 
# 
# From -- ./inp_files/6177.got.cif
#   From: 2010.03.12/outbox.cif.g09.slc.cpg/sg115_4_cif.got.tgz:6177.got - 2010.04.14 02:11:21.
