data_PCOD8309670
_publ_section_title
;
Structure prediction by ZEFSAII (Michael W. Deem and Ramdas Pophale) SiO2 
 PCOD8309670
Probable space group: P -4 M 2
;
_chemical_formula_sum "Si O2"
_cell_formula_units_Z 37
_cell_length_a 8.169265
_cell_length_b 8.169265
_cell_length_c 25.802359
_cell_angle_alpha 90.000000
_cell_angle_beta 90.000000
_cell_angle_gamma 90.000000
_cell_volume 1721.969211
_symmetry_space_group_name_H-M "P -4 M 2"
_symmetry_group_IT_number 115
_symmetry_cell_setting 'tetragonal'
loop_
_space_group_symop_operation_xyz
x,y,z
y,-x,-z
-x,-y,z
-y,x,-z
y,x,-z
-y,-x,-z
-x,y,z
x,-y,z
loop_
_atom_site_type_symbol
_atom_site_label
_atom_site_fract_x
_atom_site_fract_y
_atom_site_fract_z
Si Si1 0.810555 0.312037 0.865449
Si Si2 0.178747 0.808362 0.243619
Si Si3 0.683374 0.182364 0.550367
Si Si4 0.500000 0.500000 0.000000
Si Si5 0.500000 0.188252 0.925880
Si Si6 0.810801 0.322396 0.651814
O O1 0.792029 0.500000 0.882584
O O2 0.772597 0.299329 0.804225
O O3 0.670428 0.207396 0.894142
O O4 0.000000 0.252106 0.877128
O O5 0.242024 0.726911 0.297305
O O6 0.000000 0.733937 0.230736
O O7 0.162041 0.000000 0.252595
O O8 0.706033 0.293968 0.500000
O O9 0.500000 0.204156 0.570675
O O10 0.795930 0.219449 0.599425
O O11 0.721783 0.000000 0.531219
O O12 0.328864 0.500000 0.030853
O O13 0.500000 0.000000 0.947737
O O14 0.729380 0.500000 0.642741
O O15 0.000000 0.343076 0.664340
#
# Coordination Sequence:
#
# PCOD8309670 Si02
#       6
#     8   8   8   1   4   8
#     4  10  20  39  68 101 140 183 228 282 342 405
#     4   9  17  31  55  89 127 166 210 259 313 379
#     4  11  24  40  57  78 104 138 186 242 300 368
#     4  12  28  52  68 104 148 180 236 288 342 396
#     4  12  26  46  74 104 140 186 234 287 343 402
#     4  10  20  35  56  83 115 152 195 245 306 371
#
# _framework density 21.487026
#
# number of rings (size 3 to 8) (size 9 to 14) (size 15 to 20)
#    0.000    1.730    1.081    3.243    0.000   10.378 
#    1.946    0.000    0.000    0.000    0.000    0.000 
#    0.000    0.000    0.000    0.000    0.000    0.000 
#
# Total GULP energy -458499.466561 kJ/mol
# GULP energy per Si atom -12391.877475 kJ/mol
# Density = 2.143812 g / cm^3
# Si number density = 21.487026 Si / 1000 Ang^3
#
#
#
# Elastic Constant Matrix: (Units=GPa)
#
#
# Indices 1 2 3 4 5 6 
#
# 1 89.2692 43.5378 36.9793 0.0000 0.0000 0.0000
# 2 43.5378 89.2681 36.9792 0.0000 0.0000 0.0000
# 3 36.9793 36.9792 115.6975 0.0000 0.0000 0.0000
# 4 0.0000 0.0000 0.0000 24.5856 0.0000 0.0000
# 5 0.0000 0.0000 0.0000 0.0000 24.5856 0.0000
# 6 0.0000 0.0000 0.0000 0.0000 0.0000 20.9099
#
#
#
# Elastic Compliance Matrix: (Units=1/GPa)
#
#
# Indices 1 2 3 4 5 6 
#
# 1 0.015514 -0.006353 -0.002928 0.000000 0.000000 0.000000
# 2 -0.006353 0.015514 -0.002928 0.000000 0.000000 0.000000
# 3 -0.002928 -0.002928 0.010515 0.000000 0.000000 0.000000
# 4 0.000000 0.000000 0.000000 0.040674 0.000000 0.000000
# 5 0.000000 0.000000 0.000000 0.000000 0.040674 0.000000
# 6 0.000000 0.000000 0.000000 0.000000 0.000000 0.047824
#
#
# Mechanical properties :
#
#
# Convention : Reuss Voigt Hill
#
# Bulk Modulus (GPa) = 58.39738 58.80305 58.60022
# Shear Modulus (GPa) = 24.89534 25.79879 25.34706
#
# Velocity S-wave (km/s) = 3.40755 3.46882 3.43832
# Velocity P-wave (km/s) = 6.53596 6.59317 6.56463
#
# Compressibility (1/GPa) = 0.01712406
#
# Stress axis : x y z
#
# Youngs Moduli (GPa) = 64.45977 64.45891 95.10416
#
# Poissons Ratio (x) = 0.40954 0.27844
# Poissons Ratio (y) = 0.40954 0.27845
# Poissons Ratio (z) = 0.18872 0.18872
#
# Static dielectric constant tensor:
#      x y z
#    x 3.932880 0.000000 0.000000 
#    y 0.000000 3.932880 0.000000 
#    z 0.000000 0.000000 3.691980 
# 
# 
# High freq. dielectric constant tensor:
#      x y z
#    x 1.836810 0.000000 0.000000 
#    y 0.000000 1.836810 0.000000 
#    z 0.000000 0.000000 1.836940 
# 
# From -- ./inp_files/5150.got.cif
#   From: 2010.03.12/outbox.cif.g09.slc.cpg/sg115_3_cif.got.tgz:5150.got - 2010.04.14 02:11:21.
