data_PCOD8309128
_publ_section_title
;
Structure prediction by ZEFSAII (Michael W. Deem and Ramdas Pophale) SiO2 
 PCOD8309128
Probable space group: P -4 21 C
;
_chemical_formula_sum "Si O2"
_cell_formula_units_Z 42
_cell_length_a 14.255390
_cell_length_b 14.255390
_cell_length_c 9.385049
_cell_angle_alpha 90.000000
_cell_angle_beta 90.000000
_cell_angle_gamma 90.000000
_cell_volume 1907.193470
_symmetry_space_group_name_H-M "P -4 21 C"
_symmetry_group_IT_number 114
_symmetry_cell_setting 'tetragonal'
loop_
_space_group_symop_operation_xyz
x,y,z
y,-x,-z
-x,-y,z
-y,x,-z
1/2+x,1/2-y,1/2-z
1/2-x,1/2+y,1/2-z
1/2-y,1/2-x,1/2+z
1/2+y,1/2+x,1/2+z
loop_
_atom_site_type_symbol
_atom_site_label
_atom_site_fract_x
_atom_site_fract_y
_atom_site_fract_z
Si Si1 0.515924 0.892650 0.446306
Si Si2 0.500000 0.500000 0.000000
Si Si3 0.413189 0.178106 0.157226
Si Si4 0.266893 0.705652 0.189057
Si Si5 0.319867 0.824537 0.424347
Si Si6 0.495572 0.293513 0.915856
O O1 0.527198 0.876235 0.277033
O O2 0.606876 0.865495 0.540861
O O3 0.420371 0.842200 0.498857
O O4 0.500000 0.000000 0.475656
O O5 0.404381 0.479059 0.087868
O O6 0.332825 0.233045 0.243038
O O7 0.475274 0.256471 0.076838
O O8 0.342298 0.753576 0.294141
O O9 0.277980 0.593373 0.186276
O O10 0.276340 0.747018 0.031896
O O11 0.270704 0.918703 0.360794
#
# Coordination Sequence:
#
# PCOD8309128 Si02
#       6
#     8   2   8   8   8   8
#     4  12  25  39  70 104 142 173 220 284 357 412
#     4  12  24  44  64  96 122 192 232 264 322 420
#     4  12  23  45  67 103 140 180 222 287 347 413
#     4  12  24  45  66 100 135 183 228 278 340 408
#     4  12  26  43  69 102 137 179 228 282 346 409
#     4  12  24  45  70  94 139 179 232 286 335 411
#
# _framework density 22.021887
#
# number of rings (size 3 to 8) (size 9 to 14) (size 15 to 20)
#    0.000    0.000    7.619    1.714    5.333    0.000 
#    0.000    0.000    0.000    0.000    0.000    2.667 
#    0.000    0.000    0.000    0.000    0.000    0.000 
#
# Total GULP energy -520691.082948 kJ/mol
# GULP energy per Si atom -12397.406737 kJ/mol
# Density = 2.197176 g / cm^3
# Si number density = 22.021887 Si / 1000 Ang^3
#
#
#
# Elastic Constant Matrix: (Units=GPa)
#
#
# Indices 1 2 3 4 5 6 
#
# 1 112.7539 9.7672 32.2430 0.0000 0.0000 0.0000
# 2 9.7672 112.7539 32.2430 0.0000 0.0000 0.0000
# 3 32.2430 32.2430 95.6469 0.0000 0.0000 0.0000
# 4 0.0000 0.0000 0.0000 65.8426 0.0000 0.0000
# 5 0.0000 0.0000 0.0000 0.0000 65.8426 0.0000
# 6 0.0000 0.0000 0.0000 0.0000 0.0000 24.0674
#
#
#
# Elastic Compliance Matrix: (Units=1/GPa)
#
#
# Indices 1 2 3 4 5 6 
#
# 1 0.009816 0.000106 -0.003345 0.000000 0.000000 0.000000
# 2 0.000106 0.009816 -0.003345 0.000000 0.000000 0.000000
# 3 -0.003345 -0.003345 0.012710 0.000000 0.000000 0.000000
# 4 0.000000 0.000000 0.000000 0.015188 0.000000 0.000000
# 5 0.000000 0.000000 0.000000 0.000000 0.015188 0.000000
# 6 0.000000 0.000000 0.000000 0.000000 0.000000 0.041550
#
#
# Mechanical properties :
#
#
# Convention : Reuss Voigt Hill
#
# Bulk Modulus (GPa) = 52.14994 52.18459 52.16727
# Shear Modulus (GPa) = 40.37894 47.61062 43.99478
#
# Velocity S-wave (km/s) = 4.28668 4.65474 4.47450
# Velocity P-wave (km/s) = 6.94501 7.25513 7.10177
#
# Compressibility (1/GPa) = 0.01917548
#
# Stress axis : x y z
#
# Youngs Moduli (GPa) = 101.87277 101.87277 78.67662
#
# Poissons Ratio (x) = -0.01082 0.26316
# Poissons Ratio (y) = -0.01082 0.26316
# Poissons Ratio (z) = 0.34075 0.34075
#
# Static dielectric constant tensor:
#      x y z
#    x 3.656010 0.000000 0.000000 
#    y 0.000000 3.656010 0.000000 
#    z 0.000000 0.000000 3.945510 
# 
# 
# High freq. dielectric constant tensor:
#      x y z
#    x 1.870880 0.000000 0.000000 
#    y 0.000000 1.870880 0.000000 
#    z 0.000000 0.000000 1.852380 
# 
# From -- ./inp_files/814.got.cif
#   From: 2010.03.12/outbox.cif.g09.slc.cpg/sg114_1_cif.got.tgz:814.got - 2010.04.14 02:08:34.
