data_PCOD8309779
_publ_section_title
;
Structure prediction by ZEFSAII (Michael W. Deem and Ramdas Pophale) SiO2 
 PCOD8309779
Probable space group: P -4 M 2
;
_chemical_formula_sum "Si O2"
_cell_formula_units_Z 44
_cell_length_a 8.131685
_cell_length_b 8.131685
_cell_length_c 31.441275
_cell_angle_alpha 90.000000
_cell_angle_beta 90.000000
_cell_angle_gamma 90.000000
_cell_volume 2079.032330
_symmetry_space_group_name_H-M "P -4 M 2"
_symmetry_group_IT_number 115
_symmetry_cell_setting 'tetragonal'
loop_
_space_group_symop_operation_xyz
x,y,z
y,-x,-z
-x,-y,z
-y,x,-z
y,x,-z
-y,-x,-z
-x,y,z
x,-y,z
loop_
_atom_site_type_symbol
_atom_site_label
_atom_site_fract_x
_atom_site_fract_y
_atom_site_fract_z
Si Si1 0.500000 0.307935 0.265941
Si Si2 0.184642 0.184959 0.128522
Si Si3 0.195143 0.500000 0.638907
Si Si4 0.690771 0.679560 0.044887
Si Si5 0.313480 0.313480 0.500000
Si Si6 0.815745 0.192449 0.414518
Si Si7 0.311238 0.184623 0.782330
O O1 0.500000 0.500000 0.254858
O O2 0.500000 0.279742 0.315768
O O3 0.668863 0.229686 0.246071
O O4 0.288873 0.207049 0.085946
O O5 0.239192 0.296838 0.168293
O O6 0.000000 0.227827 0.115177
O O7 0.205046 0.000000 0.144886
O O8 0.256825 0.332360 0.615612
O O9 0.000000 0.500000 0.644031
O O10 0.500000 0.659564 0.035854
O O11 0.770199 0.500000 0.054666
O O12 0.758620 0.758620 0.000000
O O13 0.283306 0.500000 0.515087
O O14 0.276254 0.195935 0.539547
O O15 0.000000 0.232405 0.396061
O O16 0.792967 0.000000 0.421197
O O17 0.500000 0.170043 0.769639
O O18 0.230760 0.000000 0.775273
#
# Coordination Sequence:
#
# PCOD8309779 Si02
#       7
#     4   8   4   8   4   8   8
#     4  10  22  38  60  86 112 146 192 242 292 352
#     4  10  21  35  52  78 110 140 174 223 278 334
#     4  10  22  40  58  84 122 156 196 250 302 360
#     4   9  19  35  53  74 102 139 182 223 266 324
#     4  11  22  35  56  88 124 159 202 255 304 356
#     4  10  21  38  60  85 117 161 207 248 299 361
#     4   9  19  37  58  81 110 145 186 234 291 350
#
# _framework density 21.163692999999999
#
# number of rings (size 3 to 8) (size 9 to 14) (size 15 to 20)
#    0.000    2.273    0.909    1.636    1.273    6.182 
#    0.000    2.727    0.000    0.000    0.000    0.000 
#    0.000    0.000    0.000    0.000    0.000    0.000 
#
# Total GULP energy -545215.993573 kJ/mol
# GULP energy per Si atom -12391.272581 kJ/mol
# Density = 2.111552 g / cm^3
# Si number density = 21.163693 Si / 1000 Ang^3
#
#
#
# Elastic Constant Matrix: (Units=GPa)
#
#
# Indices 1 2 3 4 5 6 
#
# 1 79.4577 28.1225 43.4133 0.0000 0.0000 0.0000
# 2 28.1225 79.4577 43.4133 0.0000 0.0000 0.0000
# 3 43.4133 43.4133 137.1953 0.0000 0.0000 0.0000
# 4 0.0000 0.0000 0.0000 21.8191 0.0000 0.0000
# 5 0.0000 0.0000 0.0000 0.0000 21.8191 0.0000
# 6 0.0000 0.0000 0.0000 0.0000 0.0000 17.2780
#
#
#
# Elastic Compliance Matrix: (Units=1/GPa)
#
#
# Indices 1 2 3 4 5 6 
#
# 1 0.015982 -0.003498 -0.003950 0.000000 0.000000 0.000000
# 2 -0.003498 0.015982 -0.003950 0.000000 0.000000 0.000000
# 3 -0.003950 -0.003950 0.009789 0.000000 0.000000 0.000000
# 4 0.000000 0.000000 0.000000 0.045831 0.000000 0.000000
# 5 0.000000 0.000000 0.000000 0.000000 0.045831 0.000000
# 6 0.000000 0.000000 0.000000 0.000000 0.000000 0.057877
#
#
# Mechanical properties :
#
#
# Convention : Reuss Voigt Hill
#
# Bulk Modulus (GPa) = 52.75633 58.44546 55.60090
# Shear Modulus (GPa) = 22.68522 24.26066 23.47294
#
# Velocity S-wave (km/s) = 3.27753 3.38943 3.33395
# Velocity P-wave (km/s) = 6.26935 6.55694 6.41476
#
# Compressibility (1/GPa) = 0.01895507
#
# Stress axis : x y z
#
# Youngs Moduli (GPa) = 62.57154 62.57154 102.15694
#
# Poissons Ratio (x) = 0.21888 0.40354
# Poissons Ratio (y) = 0.21888 0.40354
# Poissons Ratio (z) = 0.24717 0.24717
#
# Static dielectric constant tensor:
#      x y z
#    x 3.836110 0.000000 0.000000 
#    y 0.000000 3.836110 0.000000 
#    z 0.000000 0.000000 3.642280 
# 
# 
# High freq. dielectric constant tensor:
#      x y z
#    x 1.818980 0.000000 0.000000 
#    y 0.000000 1.818980 0.000000 
#    z 0.000000 0.000000 1.823560 
# 
# From -- ./inp_files/5883.got.cif
#   From: 2010.03.12/outbox.cif.g09.slc.cpg/sg115_3_cif.got.tgz:5883.got - 2010.04.14 02:11:21.
