data_PCOD8309163
_publ_section_title
;
Structure prediction by ZEFSAII (Michael W. Deem and Ramdas Pophale) SiO2 
 PCOD8309163
Probable space group: P -4 M 2
;
_chemical_formula_sum "Si O2"
_cell_formula_units_Z 48
_cell_length_a 9.770038
_cell_length_b 9.770038
_cell_length_c 27.970271
_cell_angle_alpha 90.000000
_cell_angle_beta 90.000000
_cell_angle_gamma 90.000000
_cell_volume 2669.864249
_symmetry_space_group_name_H-M "P -4 M 2"
_symmetry_group_IT_number 115
_symmetry_cell_setting 'tetragonal'
loop_
_space_group_symop_operation_xyz
x,y,z
y,-x,-z
-x,-y,z
-y,x,-z
y,x,-z
-y,-x,-z
-x,y,z
x,-y,z
loop_
_atom_site_type_symbol
_atom_site_label
_atom_site_fract_x
_atom_site_fract_y
_atom_site_fract_z
Si Si1 0.500000 0.339716 0.223130
Si Si2 0.758119 0.662463 0.283102
Si Si3 0.840894 0.157858 0.630139
Si Si4 0.000000 0.339106 0.215210
Si Si5 0.662212 0.741498 0.948825
Si Si6 0.000000 0.337561 0.108890
Si Si7 0.662810 0.500000 0.882858
Si Si8 0.663311 0.841807 0.535381
O O1 0.500000 0.500000 0.214468
O O2 0.374606 0.294007 0.254823
O O3 0.500000 0.271320 0.170397
O O4 0.766366 0.500000 0.296980
O O5 0.760228 0.758799 0.329413
O O6 0.872187 0.708106 0.245874
O O7 0.749914 0.180212 0.583258
O O8 0.000000 0.208777 0.623784
O O9 0.842267 0.000000 0.644783
O O10 0.000000 0.500000 0.208051
O O11 0.000000 0.271931 0.162234
O O12 0.500000 0.732422 0.957098
O O13 0.713887 0.874764 0.922169
O O14 0.716058 0.627437 0.912756
O O15 0.734048 0.734048 0.000000
O O16 0.000000 0.500000 0.113927
O O17 0.500000 0.500000 0.878890
O O18 0.731166 0.731166 0.500000
O O19 0.500000 0.810964 0.542282
O O20 0.681662 0.000000 0.517714
#
# Coordination Sequence:
#
# PCOD8309163 Si02
#       8
#     4   8   8   4   8   4   4   8
#     4   9  18  30  45  75 109 141 165 217 274 325
#     4  10  18  31  52  78 109 139 178 220 273 324
#     4  10  20  35  57  85 110 147 192 233 274 318
#     4   9  16  28  49  75 103 131 173 221 266 315
#     4  10  17  27  44  70  97 127 163 211 262 314
#     4   9  18  28  42  72 102 128 162 214 265 312
#     4   9  16  26  46  70 102 126 168 212 263 314
#     4  10  21  38  61  88 119 152 191 237 284 332
#
# _framework density 17.978441
#
# number of rings (size 3 to 8) (size 9 to 14) (size 15 to 20)
#    0.000    2.333    1.667    2.000    0.000    5.667 
#    1.500    0.417    0.000    0.250   13.000    0.000 
#    0.000    0.000    0.000    0.000    0.000    0.000 
#
# Total GULP energy -594705.491851 kJ/mol
# GULP energy per Si atom -12389.697747 kJ/mol
# Density = 1.793752 g / cm^3
# Si number density = 17.978441 Si / 1000 Ang^3
#
#
#
# Elastic Constant Matrix: (Units=GPa)
#
#
# Indices 1 2 3 4 5 6 
#
# 1 109.7906 34.1761 64.8489 0.0000 0.0000 0.0000
# 2 34.1761 109.7906 64.8489 0.0000 0.0000 0.0000
# 3 64.8489 64.8489 147.8932 0.0000 0.0000 0.0000
# 4 0.0000 0.0000 0.0000 17.5848 0.0000 0.0000
# 5 0.0000 0.0000 0.0000 0.0000 17.5848 0.0000
# 6 0.0000 0.0000 0.0000 0.0000 0.0000 19.1371
#
#
#
# Elastic Compliance Matrix: (Units=1/GPa)
#
#
# Indices 1 2 3 4 5 6 
#
# 1 0.012353 -0.000872 -0.005034 0.000000 0.000000 0.000000
# 2 -0.000872 0.012353 -0.005034 0.000000 0.000000 0.000000
# 3 -0.005034 -0.005034 0.011177 0.000000 0.000000 0.000000
# 4 0.000000 0.000000 0.000000 0.056867 0.000000 0.000000
# 5 0.000000 0.000000 0.000000 0.000000 0.056867 0.000000
# 6 0.000000 0.000000 0.000000 0.000000 0.000000 0.052254
#
#
# Mechanical properties :
#
#
# Convention : Reuss Voigt Hill
#
# Bulk Modulus (GPa) = 71.41891 77.24691 74.33291
# Shear Modulus (GPa) = 21.88939 24.43470 23.16204
#
# Velocity S-wave (km/s) = 3.49311 3.69061 3.59322
# Velocity P-wave (km/s) = 7.48866 7.82435 7.65835
#
# Compressibility (1/GPa) = 0.01400189
#
# Stress axis : x y z
#
# Youngs Moduli (GPa) = 80.95028 80.95028 89.47164
#
# Poissons Ratio (x) = 0.07056 0.45044
# Poissons Ratio (y) = 0.07056 0.45044
# Poissons Ratio (z) = 0.40754 0.40754
#
# Static dielectric constant tensor:
#      x y z
#    x 3.158190 0.000000 0.000000 
#    y 0.000000 3.158190 0.000000 
#    z 0.000000 0.000000 3.480840 
# 
# 
# High freq. dielectric constant tensor:
#      x y z
#    x 1.672170 0.000000 0.000000 
#    y 0.000000 1.672170 0.000000 
#    z 0.000000 0.000000 1.713910 
# 
# From -- ./inp_files/6292.got.cif
#   From: 2010.03.12/outbox.cif.g09.slc.cpg/sg115_4_cif.got.tgz:6292.got - 2010.04.14 02:11:21.
