data_PCOD8309267
_publ_section_title
;
Structure prediction by ZEFSAII (Michael W. Deem and Ramdas Pophale) SiO2 
 PCOD8309267
Probable space group: P -4 M 2
;
_chemical_formula_sum "Si O2"
_cell_formula_units_Z 60
_cell_length_a 17.982197
_cell_length_b 17.982197
_cell_length_c 12.548168
_cell_angle_alpha 90.000000
_cell_angle_beta 90.000000
_cell_angle_gamma 90.000000
_cell_volume 4057.568188
_symmetry_space_group_name_H-M "P -4 M 2"
_symmetry_group_IT_number 115
_symmetry_cell_setting 'tetragonal'
loop_
_space_group_symop_operation_xyz
x,y,z
y,-x,-z
-x,-y,z
-y,x,-z
y,x,-z
-y,-x,-z
-x,y,z
x,-y,z
loop_
_atom_site_type_symbol
_atom_site_label
_atom_site_fract_x
_atom_site_fract_y
_atom_site_fract_z
Si Si1 0.312060 0.088826 0.941037
Si Si2 0.329441 0.914420 0.551224
Si Si3 0.315112 0.911405 0.316167
Si Si4 0.418194 0.087922 0.132546
Si Si5 0.416888 0.911443 0.747821
Si Si6 0.086678 0.840637 0.778248
Si Si7 0.916556 0.163605 0.406402
Si Si8 0.158295 0.841706 0.000000
O O1 0.357036 0.113235 0.835931
O O2 0.291910 0.000000 0.942603
O O3 0.364798 0.112080 0.037863
O O4 0.240067 0.141791 0.951780
O O5 0.327450 0.876365 0.434051
O O6 0.390750 0.880152 0.631939
O O7 0.250926 0.904847 0.609810
O O8 0.349410 0.000000 0.532728
O O9 0.383810 0.884392 0.244210
O O10 0.239148 0.882281 0.261675
O O11 0.309834 0.000000 0.321953
O O12 0.500000 0.123853 0.118593
O O13 0.425361 0.000000 0.132750
O O14 0.500000 0.880781 0.772715
O O15 0.418662 0.000000 0.746371
O O16 0.126264 0.903152 0.707619
O O17 0.101484 0.854798 0.902902
O O18 0.000000 0.847199 0.757557
O O19 0.863244 0.136757 0.500000
O O20 0.000000 0.145681 0.443973
#
# Coordination Sequence:
#
# PCOD8309267 Si02
#       8
#     8   8   8   8   8   8   8   4
#     4  10  19  32  46  63  87 115 151 191 230 274
#     4   9  17  29  45  63  84 107 136 177 228 279
#     4   9  16  29  44  60  84 108 132 174 227 275
#     4   9  16  27  46  67  84 106 137 175 221 271
#     4   9  17  29  46  68  91 111 136 179 232 282
#     4  11  22  35  46  59  82 112 150 201 247 278
#     4  11  21  33  48  63  81 113 157 204 248 283
#     4  12  22  32  50  63  82 120 154 191 240 284
#
# _framework density 14.787183000000001
#
# number of rings (size 3 to 8) (size 9 to 14) (size 15 to 20)
#    0.000    2.133    2.667    2.000    0.000    5.200 
#    0.000    2.667    0.000    1.800    0.000    0.000 
#    0.000    0.000    0.000    0.000    0.000    5.333 
#
# Total GULP energy -743614.466836 kJ/mol
# GULP energy per Si atom -12393.574447 kJ/mol
# Density = 1.475353 g / cm^3
# Si number density = 14.787183 Si / 1000 Ang^3
#
#
#
# Elastic Constant Matrix: (Units=GPa)
#
#
# Indices 1 2 3 4 5 6 
#
# 1 40.3113 27.7545 19.3862 0.0000 0.0000 0.0000
# 2 27.7545 40.3087 19.3861 0.0000 0.0000 0.0000
# 3 19.3862 19.3861 106.4267 0.0000 0.0000 0.0000
# 4 0.0000 0.0000 0.0000 19.5108 0.0000 0.0000
# 5 0.0000 0.0000 0.0000 0.0000 19.5110 0.0000
# 6 0.0000 0.0000 0.0000 0.0000 0.0000 3.2126
#
#
#
# Elastic Compliance Matrix: (Units=1/GPa)
#
#
# Indices 1 2 3 4 5 6 
#
# 1 0.048018 -0.031627 -0.002986 0.000000 0.000000 0.000000
# 2 -0.031627 0.048021 -0.002986 0.000000 0.000000 0.000000
# 3 -0.002986 -0.002986 0.010484 0.000000 0.000000 0.000000
# 4 0.000000 0.000000 0.000000 0.051254 0.000000 0.000000
# 5 0.000000 0.000000 0.000000 0.000000 0.051253 0.000000
# 6 0.000000 0.000000 0.000000 0.000000 0.000000 0.311274
#
#
# Mechanical properties :
#
#
# Convention : Reuss Voigt Hill
#
# Bulk Modulus (GPa) = 31.92276 35.56670 33.74473
# Shear Modulus (GPa) = 8.25159 16.48154 12.36656
#
# Velocity S-wave (km/s) = 2.36481 3.34216 2.89503
# Velocity P-wave (km/s) = 5.39365 6.24484 5.83478
#
# Compressibility (1/GPa) = 0.03132561
#
# Stress axis : x y z
#
# Youngs Moduli (GPa) = 20.82553 20.82406 95.38360
#
# Poissons Ratio (x) = 0.65860 0.28479
# Poissons Ratio (y) = 0.65864 0.28485
# Poissons Ratio (z) = 0.06218 0.06219
#
# Static dielectric constant tensor:
#      x y z
#    x 2.726590 0.000000 0.000000 
#    y 0.000000 2.726590 0.000000 
#    z 0.000000 0.000000 3.197120 
# 
# 
# High freq. dielectric constant tensor:
#      x y z
#    x 1.524690 0.000000 0.000000 
#    y 0.000000 1.524690 0.000000 
#    z 0.000000 0.000000 1.592160 
# 
# From -- ./inp_files/3212.got.cif
#   From: 2010.03.12/outbox.cif.g09.slc.cpg/sg115_2_cif.got.tgz:3212.got - 2010.04.14 02:11:21.
