data_PCOD8309620
_publ_section_title
;
Structure prediction by ZEFSAII (Michael W. Deem and Ramdas Pophale) SiO2 
 PCOD8309620
Probable space group: P -4 M 2
;
_chemical_formula_sum "Si O2"
_cell_formula_units_Z 48
_cell_length_a 9.081147
_cell_length_b 9.081147
_cell_length_c 30.793087
_cell_angle_alpha 90.000000
_cell_angle_beta 90.000000
_cell_angle_gamma 90.000000
_cell_volume 2539.420614
_symmetry_space_group_name_H-M "P -4 M 2"
_symmetry_group_IT_number 115
_symmetry_cell_setting 'tetragonal'
loop_
_space_group_symop_operation_xyz
x,y,z
y,-x,-z
-x,-y,z
-y,x,-z
y,x,-z
-y,-x,-z
-x,y,z
x,-y,z
loop_
_atom_site_type_symbol
_atom_site_label
_atom_site_fract_x
_atom_site_fract_y
_atom_site_fract_z
Si Si1 0.670467 0.173132 0.211221
Si Si2 0.826568 0.165079 0.048977
Si Si3 0.328943 0.172637 0.710227
Si Si4 0.674526 0.831445 0.368357
Si Si5 0.671150 0.331049 0.123996
Si Si6 0.674993 0.663931 0.452589
O O1 0.500000 0.212984 0.219917
O O2 0.769429 0.245095 0.247847
O O3 0.723714 0.235800 0.165074
O O4 0.696954 0.000000 0.211507
O O5 0.754598 0.280783 0.081154
O O6 0.000000 0.167787 0.055588
O O7 0.766766 0.000000 0.058236
O O8 0.786571 0.213429 0.000000
O O9 0.500000 0.211848 0.714842
O O10 0.267177 0.250651 0.667817
O O11 0.301478 0.000000 0.705934
O O12 0.500000 0.815148 0.363577
O O13 0.730214 0.774180 0.415224
O O14 0.724248 0.000000 0.362944
O O15 0.500000 0.306927 0.115274
O O16 0.709711 0.500000 0.133717
O O17 0.725086 0.725086 0.500000
O O18 0.500000 0.654683 0.452896
O O19 0.739602 0.500000 0.443807
#
# Coordination Sequence:
#
# PCOD8309620 Si02
#       6
#     8   8   8   8   8   8
#     4  10  21  38  60  83 106 137 177 217 261 316
#     4   9  19  36  56  78 106 142 183 223 264 313
#     4  11  24  39  55  78 107 139 176 218 265 315
#     4  10  20  34  54  80 108 140 178 217 261 315
#     4  10  21  36  55  81 111 141 175 217 264 313
#     4   8  14  27  49  75 102 135 176 219 260 303
#
# _framework density 18.901948999999998
#
# number of rings (size 3 to 8) (size 9 to 14) (size 15 to 20)
#    0.000    2.333    0.000    3.500    0.000    8.000 
#    0.000    3.333    0.000    3.000    0.000    0.000 
#    0.000    0.000    0.000    0.000    0.000    0.000 
#
# Total GULP energy -595259.857815 kJ/mol
# GULP energy per Si atom -12401.247038 kJ/mol
# Density = 1.885893 g / cm^3
# Si number density = 18.901949 Si / 1000 Ang^3
#
#
#
# Elastic Constant Matrix: (Units=GPa)
#
#
# Indices 1 2 3 4 5 6 
#
# 1 64.4048 33.5665 48.8013 0.0000 0.0000 0.0000
# 2 33.5665 64.4047 48.8013 0.0000 0.0000 0.0000
# 3 48.8013 48.8013 142.3654 0.0000 0.0000 0.0000
# 4 0.0000 0.0000 0.0000 137.8012 0.0000 0.0000
# 5 0.0000 0.0000 0.0000 0.0000 137.7944 0.0000
# 6 0.0000 0.0000 0.0000 0.0000 0.0000 27.2589
#
#
#
# Elastic Compliance Matrix: (Units=1/GPa)
#
#
# Indices 1 2 3 4 5 6 
#
# 1 0.023964 -0.008463 -0.005313 0.000000 0.000000 0.000000
# 2 -0.008463 0.023964 -0.005313 0.000000 0.000000 0.000000
# 3 -0.005313 -0.005313 0.010667 0.000000 0.000000 0.000000
# 4 0.000000 0.000000 0.000000 0.007257 0.000000 0.000000
# 5 0.000000 0.000000 0.000000 0.000000 0.007257 0.000000
# 6 0.000000 0.000000 0.000000 0.000000 0.000000 0.036685
#
#
# Mechanical properties :
#
#
# Convention : Reuss Voigt Hill
#
# Bulk Modulus (GPa) = 48.98527 59.27923 54.13225
# Shear Modulus (GPa) = 32.30410 69.90463 51.10436
#
# Velocity S-wave (km/s) = 4.13853 6.08794 5.20531
# Velocity P-wave (km/s) = 6.98630 8.99149 8.05156
#
# Compressibility (1/GPa) = 0.02041430
#
# Stress axis : x y z
#
# Youngs Moduli (GPa) = 41.72947 41.72946 93.74780
#
# Poissons Ratio (x) = 0.35317 0.49812
# Poissons Ratio (y) = 0.35317 0.49812
# Poissons Ratio (z) = 0.22172 0.22172
#
# Static dielectric constant tensor:
#      x y z
#    x 3.364350 0.000000 0.000000 
#    y 0.000000 3.364350 0.000000 
#    z 0.000000 0.000000 3.806160 
# 
# 
# High freq. dielectric constant tensor:
#      x y z
#    x 1.724550 0.000000 0.000000 
#    y 0.000000 1.724550 0.000000 
#    z 0.000000 0.000000 1.751430 
# 
# From -- ./inp_files/5976.got.cif
#   From: 2010.03.12/outbox.cif.g09.slc.cpg/sg115_3_cif.got.tgz:5976.got - 2010.04.14 02:11:21.
