data_PCOD8309755
_publ_section_title
;
Structure prediction by ZEFSAII (Michael W. Deem and Ramdas Pophale) SiO2 
 PCOD8309755
Probable space group: P -4 M 2
;
_chemical_formula_sum "Si O2"
_cell_formula_units_Z 48
_cell_length_a 9.415536
_cell_length_b 9.415536
_cell_length_c 30.617740
_cell_angle_alpha 90.000000
_cell_angle_beta 90.000000
_cell_angle_gamma 90.000000
_cell_volume 2714.333628
_symmetry_space_group_name_H-M "P -4 M 2"
_symmetry_group_IT_number 115
_symmetry_cell_setting 'tetragonal'
loop_
_space_group_symop_operation_xyz
x,y,z
y,-x,-z
-x,-y,z
-y,x,-z
y,x,-z
-y,-x,-z
-x,y,z
x,-y,z
loop_
_atom_site_type_symbol
_atom_site_label
_atom_site_fract_x
_atom_site_fract_y
_atom_site_fract_z
Si Si1 0.335126 0.836048 0.796310
Si Si2 0.169193 0.158491 0.548076
Si Si3 0.834675 0.835801 0.711320
Si Si4 0.335754 0.333577 0.119412
Si Si5 0.161173 0.835591 0.050597
Si Si6 0.830787 0.340033 0.628260
O O1 0.500000 0.809371 0.786619
O O2 0.248857 0.785318 0.754081
O O3 0.281239 0.743676 0.837015
O O4 0.303623 0.000000 0.807218
O O5 0.214882 0.214882 0.500000
O O6 0.230613 0.263512 0.584976
O O7 0.000000 0.152610 0.550025
O O8 0.229683 0.000000 0.556596
O O9 0.777236 0.743900 0.670841
O O10 0.000000 0.808444 0.719978
O O11 0.804331 0.000000 0.700458
O O12 0.500000 0.292926 0.123886
O O13 0.312728 0.500000 0.112480
O O14 0.271604 0.256286 0.077676
O O15 0.000000 0.789744 0.061879
O O16 0.183378 0.000000 0.062068
O O17 0.192959 0.807042 0.000000
O O18 0.771286 0.500000 0.629813
O O19 0.000000 0.338883 0.626862
#
# Coordination Sequence:
#
# PCOD8309755 Si02
#       6
#     8   8   8   8   8   8
#     4   9  18  33  51  69  92 125 162 197 235 280
#     4   8  13  22  38  59  81 108 144 182 218 260
#     4   9  17  29  46  68  92 118 150 189 232 277
#     4  10  21  35  51  74 103 133 165 201 242 289
#     4   9  19  36  56  77 101 130 165 204 245 289
#     4   9  16  25  39  62  91 118 144 180 227 273
#
# _framework density 17.683896000000001
#
# number of rings (size 3 to 8) (size 9 to 14) (size 15 to 20)
#    0.000    3.000    0.000    2.000    0.000    5.333 
#    0.000    4.167    0.000    1.000    0.000    4.667 
#    0.000    0.000    0.000    0.000    0.000    0.000 
#
# Total GULP energy -595178.667832 kJ/mol
# GULP energy per Si atom -12399.555580 kJ/mol
# Density = 1.764365 g / cm^3
# Si number density = 17.683896 Si / 1000 Ang^3
#
#
#
# Elastic Constant Matrix: (Units=GPa)
#
#
# Indices 1 2 3 4 5 6 
#
# 1 71.1809 37.5583 68.3029 0.0000 0.0000 0.0000
# 2 37.5583 71.1810 68.3029 0.0000 0.0000 0.0000
# 3 68.3029 68.3029 154.3818 0.0000 0.0000 0.0000
# 4 0.0000 0.0000 0.0000 8.6630 0.0000 0.0000
# 5 0.0000 0.0000 0.0000 0.0000 8.6630 0.0000
# 6 0.0000 0.0000 0.0000 0.0000 0.0000 18.6254
#
#
#
# Elastic Compliance Matrix: (Units=1/GPa)
#
#
# Indices 1 2 3 4 5 6 
#
# 1 0.025223 -0.004519 -0.009160 0.000000 0.000000 0.000000
# 2 -0.004519 0.025223 -0.009160 0.000000 0.000000 0.000000
# 3 -0.009160 -0.009160 0.014583 0.000000 0.000000 0.000000
# 4 0.000000 0.000000 0.000000 0.115433 0.000000 0.000000
# 5 0.000000 0.000000 0.000000 0.000000 0.115433 0.000000
# 6 0.000000 0.000000 0.000000 0.000000 0.000000 0.053690
#
#
# Mechanical properties :
#
#
# Convention : Reuss Voigt Hill
#
# Bulk Modulus (GPa) = 51.67874 71.67467 61.67670
# Shear Modulus (GPa) = 12.44673 15.36226 13.90450
#
# Velocity S-wave (km/s) = 2.65589 2.95059 2.80711
# Velocity P-wave (km/s) = 6.22029 7.22683 6.74237
#
# Compressibility (1/GPa) = 0.01935032
#
# Stress axis : x y z
#
# Youngs Moduli (GPa) = 39.64684 39.64689 68.57492
#
# Poissons Ratio (x) = 0.17917 0.62813
# Poissons Ratio (y) = 0.17917 0.62813
# Poissons Ratio (z) = 0.36316 0.36316
#
# Static dielectric constant tensor:
#      x y z
#    x 3.125300 0.000000 0.000000 
#    y 0.000000 3.125300 0.000000 
#    z 0.000000 0.000000 3.444860 
# 
# 
# High freq. dielectric constant tensor:
#      x y z
#    x 1.661160 0.000000 0.000000 
#    y 0.000000 1.661160 0.000000 
#    z 0.000000 0.000000 1.696550 
# 
# From -- ./inp_files/6066.got.cif
#   From: 2010.03.12/outbox.cif.g09.slc.cpg/sg115_4_cif.got.tgz:6066.got - 2010.04.14 02:11:21.
