data_PCOD8309007
_publ_section_title
;
Structure prediction by ZEFSAII (Michael W. Deem and Ramdas Pophale) SiO2 
 PCOD8309007
Probable space group: P -4 21 C
;
_chemical_formula_sum "Si O2"
_cell_formula_units_Z 54
_cell_length_a 14.308003
_cell_length_b 14.308003
_cell_length_c 12.656572
_cell_angle_alpha 90.000000
_cell_angle_beta 90.000000
_cell_angle_gamma 90.000000
_cell_volume 2591.040129
_symmetry_space_group_name_H-M "P -4 21 C"
_symmetry_group_IT_number 114
_symmetry_cell_setting 'tetragonal'
loop_
_space_group_symop_operation_xyz
x,y,z
y,-x,-z
-x,-y,z
-y,x,-z
1/2+x,1/2-y,1/2-z
1/2-x,1/2+y,1/2-z
1/2-y,1/2-x,1/2+z
1/2+y,1/2+x,1/2+z
loop_
_atom_site_type_symbol
_atom_site_label
_atom_site_fract_x
_atom_site_fract_y
_atom_site_fract_z
Si Si1 0.266159 0.194375 0.997197
Si Si2 0.098610 0.190251 0.498107
Si Si3 0.000000 0.000000 0.000000
Si Si4 0.036484 0.671874 0.398103
Si Si5 0.500000 0.000000 0.972151
Si Si6 0.462009 0.186149 0.341877
Si Si7 0.642839 0.597003 0.641383
Si Si8 0.972007 0.105532 0.652687
O O1 0.249652 0.305958 0.986982
O O2 0.364079 0.180897 0.050631
O O3 0.187051 0.153044 0.070218
O O4 0.267480 0.133551 0.888464
O O5 0.116290 0.087238 0.453719
O O6 0.023567 0.236109 0.419784
O O7 0.060630 0.173796 0.620441
O O8 0.913544 0.020032 0.923898
O O9 0.981071 0.587534 0.452345
O O10 0.056765 0.653483 0.276259
O O11 0.593479 0.991334 0.903842
O O12 0.548650 0.258228 0.335118
O O13 0.587137 0.636082 0.744521
O O14 0.000000 0.000000 0.675763
#
# Coordination Sequence:
#
# PCOD8309007 Si02
#       8
#     8   8   2   8   4   8   8   8
#     4  11  26  42  65 101 139 172 227 285 345 418
#     4  12  22  43  66 101 136 173 225 294 339 412
#     4  12  24  44  68  94 140 176 224 280 348 422
#     4  11  23  41  67  94 129 179 228 275 344 410
#     4  10  24  44  62  92 134 182 224 286 340 416
#     4  11  24  43  67  94 136 179 229 286 341 418
#     4  12  25  44  67 101 135 182 224 284 350 416
#     4  12  22  39  70 100 132 171 225 283 349 399
#
# _framework density 20.841052000000001
#
# number of rings (size 3 to 8) (size 9 to 14) (size 15 to 20)
#    0.000    0.593    6.667    1.333    2.074    0.000 
#    0.000    2.963    0.000    0.000    0.000    0.000 
#    0.000    0.000    0.000    0.000    0.000    0.000 
#
# Total GULP energy -669328.667234 kJ/mol
# GULP energy per Si atom -12394.975319 kJ/mol
# Density = 2.079362 g / cm^3
# Si number density = 20.841052 Si / 1000 Ang^3
#
#
#
# Elastic Constant Matrix: (Units=GPa)
#
#
# Indices 1 2 3 4 5 6 
#
# 1 87.0411 26.5049 42.5165 0.0000 0.0000 0.0000
# 2 26.5049 87.0411 42.5165 0.0000 0.0000 0.0000
# 3 42.5165 42.5165 139.3584 0.0000 0.0000 0.0000
# 4 0.0000 0.0000 0.0000 44.8815 0.0000 0.0000
# 5 0.0000 0.0000 0.0000 0.0000 44.8815 0.0000
# 6 0.0000 0.0000 0.0000 0.0000 0.0000 34.6789
#
#
#
# Elastic Compliance Matrix: (Units=1/GPa)
#
#
# Indices 1 2 3 4 5 6 
#
# 1 0.013967 -0.002552 -0.003483 0.000000 0.000000 0.000000
# 2 -0.002552 0.013967 -0.003483 0.000000 0.000000 0.000000
# 3 -0.003483 -0.003483 0.009301 0.000000 0.000000 0.000000
# 4 0.000000 0.000000 0.000000 0.022281 0.000000 0.000000
# 5 0.000000 0.000000 0.000000 0.000000 0.022281 0.000000
# 6 0.000000 0.000000 0.000000 0.000000 0.000000 0.028836
#
#
# Mechanical properties :
#
#
# Convention : Reuss Voigt Hill
#
# Bulk Modulus (GPa) = 54.94355 59.61291 57.27823
# Shear Modulus (GPa) = 36.83683 38.34858 37.59271
#
# Velocity S-wave (km/s) = 4.20874 4.29423 4.25170
# Velocity P-wave (km/s) = 7.07378 7.29746 7.18649
#
# Compressibility (1/GPa) = 0.01820050
#
# Stress axis : x y z
#
# Youngs Moduli (GPa) = 71.59708 71.59708 107.51844
#
# Poissons Ratio (x) = 0.18271 0.37444
# Poissons Ratio (y) = 0.18271 0.37444
# Poissons Ratio (z) = 0.24934 0.24934
#
# Static dielectric constant tensor:
#      x y z
#    x 3.827000 0.000000 0.000000 
#    y 0.000000 3.827000 0.000000 
#    z 0.000000 0.000000 3.849700 
# 
# 
# High freq. dielectric constant tensor:
#      x y z
#    x 1.820800 0.000000 0.000000 
#    y 0.000000 1.820800 0.000000 
#    z 0.000000 0.000000 1.816010 
# 
# From -- ./inp_files/1775.got.cif
#   From: 2010.03.12/outbox.cif.g09.slc.cpg/sg114_1_cif.got.tgz:1775.got - 2010.04.14 02:08:34.
