data_PCOD8309001
_publ_section_title
;
Structure prediction by ZEFSAII (Michael W. Deem and Ramdas Pophale) SiO2 
 PCOD8309001
Probable space group: P -4 21 C
;
_chemical_formula_sum "Si O2"
_cell_formula_units_Z 60
_cell_length_a 18.126451
_cell_length_b 18.126451
_cell_length_c 8.385932
_cell_angle_alpha 90.000000
_cell_angle_beta 90.000000
_cell_angle_gamma 90.000000
_cell_volume 2755.350799
_symmetry_space_group_name_H-M "P -4 21 C"
_symmetry_group_IT_number 114
_symmetry_cell_setting 'tetragonal'
loop_
_space_group_symop_operation_xyz
x,y,z
y,-x,-z
-x,-y,z
-y,x,-z
1/2+x,1/2-y,1/2-z
1/2-x,1/2+y,1/2-z
1/2-y,1/2-x,1/2+z
1/2+y,1/2+x,1/2+z
loop_
_atom_site_type_symbol
_atom_site_label
_atom_site_fract_x
_atom_site_fract_y
_atom_site_fract_z
Si Si1 0.500000 0.000000 0.584282
Si Si2 0.388987 0.647897 0.186362
Si Si3 0.138541 0.025746 0.875230
Si Si4 0.226633 0.632129 0.131207
Si Si5 0.349062 0.266695 0.228304
Si Si6 0.097378 0.235122 0.633471
Si Si7 0.994974 0.627126 0.665292
Si Si8 0.890470 0.005091 0.230621
O O1 0.574512 0.988327 0.484196
O O2 0.485738 0.925671 0.683219
O O3 0.443433 0.668429 0.333331
O O4 0.301934 0.649199 0.229648
O O5 0.405527 0.561200 0.142853
O O6 0.407845 0.703397 0.044962
O O7 0.199454 0.084418 0.827456
O O8 0.065064 0.044000 0.770038
O O9 0.116686 0.034537 0.058482
O O10 0.173332 0.700146 0.159485
O O11 0.185116 0.560241 0.195249
O O12 0.242227 0.621174 0.944119
O O13 0.279055 0.321232 0.204729
O O14 0.039877 0.189294 0.738022
O O15 0.078577 0.322534 0.639100
#
# Coordination Sequence:
#
# PCOD8309001 Si02
#       8
#     4   8   8   8   8   8   8   8
#     4  10  26  42  76  98 120 170 228 286 346 400
#     4  11  23  39  63  97 128 177 218 269 333 407
#     4  11  23  40  60  94 140 171 227 273 328 407
#     4  11  23  42  68  94 136 175 226 276 341 409
#     4  10  25  41  63  98 130 183 221 273 339 414
#     4  10  24  42  65  93 137 172 220 275 339 406
#     4  11  22  46  67 100 130 165 223 286 341 398
#     4  11  22  38  61  94 129 179 215 268 329 396
#
# _framework density 21.775811000000001
#
# number of rings (size 3 to 8) (size 9 to 14) (size 15 to 20)
#    0.000    1.333    2.667    2.000    5.600    3.200 
#    0.000    2.667    0.000    0.000    0.000    0.000 
#    0.000    0.000    0.000    0.000    0.000    0.000 
#
# Total GULP energy -743702.378197 kJ/mol
# GULP energy per Si atom -12395.039637 kJ/mol
# Density = 2.172625 g / cm^3
# Si number density = 21.775811 Si / 1000 Ang^3
#
#
#
# Elastic Constant Matrix: (Units=GPa)
#
#
# Indices 1 2 3 4 5 6 
#
# 1 100.8771 30.5165 19.3315 0.0000 0.0000 0.0000
# 2 30.5165 100.8771 19.3315 0.0000 0.0000 0.0000
# 3 19.3315 19.3315 47.0857 0.0000 0.0000 0.0000
# 4 0.0000 0.0000 0.0000 33.5390 0.0000 0.0000
# 5 0.0000 0.0000 0.0000 0.0000 33.5390 0.0000
# 6 0.0000 0.0000 0.0000 0.0000 0.0000 36.3301
#
#
#
# Elastic Compliance Matrix: (Units=1/GPa)
#
#
# Indices 1 2 3 4 5 6 
#
# 1 0.011435 -0.002778 -0.003554 0.000000 0.000000 0.000000
# 2 -0.002778 0.011435 -0.003554 0.000000 0.000000 0.000000
# 3 -0.003554 -0.003554 0.024156 0.000000 0.000000 0.000000
# 4 0.000000 0.000000 0.000000 0.029816 0.000000 0.000000
# 5 0.000000 0.000000 0.000000 0.000000 0.029816 0.000000
# 6 0.000000 0.000000 0.000000 0.000000 0.000000 0.027525
#
#
# Mechanical properties :
#
#
# Convention : Reuss Voigt Hill
#
# Bulk Modulus (GPa) = 36.69306 43.02208 39.85757
# Shear Modulus (GPa) = 30.66752 32.65899 31.66326
#
# Velocity S-wave (km/s) = 3.75684 3.87690 3.81735
# Velocity P-wave (km/s) = 5.97540 6.31191 6.14596
#
# Compressibility (1/GPa) = 0.02725311
#
# Stress axis : x y z
#
# Youngs Moduli (GPa) = 87.45463 87.45463 41.39736
#
# Poissons Ratio (x) = 0.24295 0.14713
# Poissons Ratio (y) = 0.24295 0.14713
# Poissons Ratio (z) = 0.31081 0.31081
#
# Static dielectric constant tensor:
#      x y z
#    x 3.889250 0.000000 0.000000 
#    y 0.000000 3.889250 0.000000 
#    z 0.000000 0.000000 3.719980 
# 
# 
# High freq. dielectric constant tensor:
#      x y z
#    x 1.860470 0.000000 0.000000 
#    y 0.000000 1.860470 0.000000 
#    z 0.000000 0.000000 1.841830 
# 
# From -- ./inp_files/1030.got.cif
#   From: 2010.03.12/outbox.cif.g09.slc.cpg/sg114_1_cif.got.tgz:1030.got - 2010.04.14 02:08:34.
