data_PCOD8309042
_publ_section_title
;
Structure prediction by ZEFSAII (Michael W. Deem and Ramdas Pophale) SiO2 
 PCOD8309042
Probable space group: P -4 21 C
;
_chemical_formula_sum "Si O2"
_cell_formula_units_Z 64
_cell_length_a 19.551448
_cell_length_b 19.551448
_cell_length_c 9.625445
_cell_angle_alpha 90.000000
_cell_angle_beta 90.000000
_cell_angle_gamma 90.000000
_cell_volume 3679.414125
_symmetry_space_group_name_H-M "P -4 21 C"
_symmetry_group_IT_number 114
_symmetry_cell_setting 'tetragonal'
loop_
_space_group_symop_operation_xyz
x,y,z
y,-x,-z
-x,-y,z
-y,x,-z
1/2+x,1/2-y,1/2-z
1/2-x,1/2+y,1/2-z
1/2-y,1/2-x,1/2+z
1/2+y,1/2+x,1/2+z
loop_
_atom_site_type_symbol
_atom_site_label
_atom_site_fract_x
_atom_site_fract_y
_atom_site_fract_z
Si Si1 0.356225 0.765108 0.478640
Si Si2 0.764851 0.343361 0.786960
Si Si3 0.158539 0.050069 0.648746
Si Si4 0.849481 0.731647 0.709692
Si Si5 0.351617 0.242151 0.524500
Si Si6 0.653959 0.451819 0.350042
Si Si7 0.842777 0.041258 0.902297
Si Si8 0.046118 0.161374 0.599933
O O1 0.334017 0.829472 0.383753
O O2 0.373012 0.790800 0.635534
O O3 0.297697 0.708102 0.484269
O O4 0.423633 0.731812 0.410392
O O5 0.725044 0.402447 0.871325
O O6 0.716842 0.277890 0.772713
O O7 0.785712 0.367209 0.631198
O O8 0.830723 0.321838 0.877675
O O9 0.089408 0.092166 0.619526
O O10 0.158677 0.026222 0.808154
O O11 0.163818 0.982040 0.556286
O O12 0.909095 0.771798 0.629917
O O13 0.418835 0.276211 0.591338
O O14 0.634559 0.517225 0.444304
O O15 0.593293 0.397953 0.343143
O O16 0.663201 0.478719 0.194770
#
# Coordination Sequence:
#
# PCOD8309042 Si02
#       8
#     8   8   8   8   8   8   8   8
#     4   9  18  32  51  72  94 126 169 218 267 303
#     4   9  18  33  51  71  95 126 169 219 265 303
#     4  11  23  36  49  72 107 143 180 215 248 298
#     4   9  18  33  51  71  95 126 169 219 265 303
#     4   9  18  32  51  72  94 126 169 218 267 303
#     4  11  21  34  51  72 102 140 178 212 248 300
#     4  11  21  34  51  72 102 140 178 212 248 300
#     4  11  23  36  49  72 107 143 180 215 248 298
#
# _framework density 17.394072999999999
#
# number of rings (size 3 to 8) (size 9 to 14) (size 15 to 20)
#    0.000    2.000    2.500    1.500    3.500    3.000 
#    0.000    0.000    0.000    0.000    0.000    0.000 
#    0.000    6.000    0.000    0.000    0.000    0.000 
#
# Total GULP energy -793593.557002 kJ/mol
# GULP energy per Si atom -12399.899328 kJ/mol
# Density = 1.735448 g / cm^3
# Si number density = 17.394073 Si / 1000 Ang^3
#
#
#
# Elastic Constant Matrix: (Units=GPa)
#
#
# Indices 1 2 3 4 5 6 
#
# 1 44.6506 40.4359 26.5889 0.0000 0.0000 0.0000
# 2 40.4359 44.6506 26.5889 0.0000 0.0000 0.0000
# 3 26.5889 26.5889 78.8734 0.0000 0.0000 0.0000
# 4 0.0000 0.0000 0.0000 27.7016 0.0000 0.0000
# 5 0.0000 0.0000 0.0000 0.0000 27.7016 0.0000
# 6 0.0000 0.0000 0.0000 0.0000 0.0000 19.7817
#
#
#
# Elastic Compliance Matrix: (Units=1/GPa)
#
#
# Indices 1 2 3 4 5 6 
#
# 1 0.126078 -0.111188 -0.005020 0.000000 0.000000 0.000000
# 2 -0.111188 0.126078 -0.005020 0.000000 0.000000 0.000000
# 3 -0.005020 -0.005020 0.016063 0.000000 0.000000 0.000000
# 4 0.000000 0.000000 0.000000 0.036099 0.000000 0.000000
# 5 0.000000 0.000000 0.000000 0.000000 0.036099 0.000000
# 6 0.000000 0.000000 0.000000 0.000000 0.000000 0.050552
#
#
# Mechanical properties :
#
#
# Convention : Reuss Voigt Hill
#
# Bulk Modulus (GPa) = 38.81310 39.48912 39.15111
# Shear Modulus (GPa) = 7.78804 20.00769 13.89787
#
# Velocity S-wave (km/s) = 2.11829 3.39523 2.82973
# Velocity P-wave (km/s) = 5.32403 6.17430 5.76486
#
# Compressibility (1/GPa) = 0.02576450
#
# Stress axis : x y z
#
# Youngs Moduli (GPa) = 7.93162 7.93162 62.25571
#
# Poissons Ratio (x) = 0.88190 0.31249
# Poissons Ratio (y) = 0.88190 0.31249
# Poissons Ratio (z) = 0.03981 0.03981
#
# Static dielectric constant tensor:
#      x y z
#    x 3.041430 0.000000 0.000000 
#    y 0.000000 3.041430 0.000000 
#    z 0.000000 0.000000 3.428510 
# 
# 
# High freq. dielectric constant tensor:
#      x y z
#    x 1.641070 0.000000 0.000000 
#    y 0.000000 1.641070 0.000000 
#    z 0.000000 0.000000 1.690080 
# 
# From -- ./inp_files/1099.got.cif
#   From: 2010.03.12/outbox.cif.g09.slc.cpg/sg114_1_cif.got.tgz:1099.got - 2010.04.14 02:08:34.
