data_PCOD8309648
_publ_section_title
;
Structure prediction by ZEFSAII (Michael W. Deem and Ramdas Pophale) SiO2 
 PCOD8309648
Probable space group: P -4 M 2
;
_chemical_formula_sum "Si O2"
_cell_formula_units_Z 48
_cell_length_a 9.092421
_cell_length_b 9.092421
_cell_length_c 30.796130
_cell_angle_alpha 90.000000
_cell_angle_beta 90.000000
_cell_angle_gamma 90.000000
_cell_volume 2545.981344
_symmetry_space_group_name_H-M "P -4 M 2"
_symmetry_group_IT_number 115
_symmetry_cell_setting 'tetragonal'
loop_
_space_group_symop_operation_xyz
x,y,z
y,-x,-z
-x,-y,z
-y,x,-z
y,x,-z
-y,-x,-z
-x,y,z
x,-y,z
loop_
_atom_site_type_symbol
_atom_site_label
_atom_site_fract_x
_atom_site_fract_y
_atom_site_fract_z
Si Si1 0.826458 0.669467 0.118032
Si Si2 0.827045 0.669351 0.538781
Si Si3 0.162659 0.174275 0.798054
Si Si4 0.828370 0.672895 0.960145
Si Si5 0.827758 0.830931 0.298407
Si Si6 0.328426 0.330957 0.374691
O O1 0.782976 0.500000 0.111717
O O2 0.774312 0.720197 0.165929
O O3 0.740641 0.768702 0.084103
O O4 0.000000 0.693447 0.111419
O O5 0.766855 0.766855 0.500000
O O6 0.782143 0.500000 0.530738
O O7 0.758006 0.728825 0.583525
O O8 0.000000 0.689872 0.541940
O O9 0.209974 0.229174 0.750140
O O10 0.000000 0.235889 0.809870
O O11 0.154068 0.000000 0.796530
O O12 0.798551 0.500000 0.960287
O O13 0.000000 0.709319 0.964554
O O14 0.743687 0.743687 0.000000
O O15 0.748590 0.724138 0.331469
O O16 0.000000 0.803194 0.302527
O O17 0.788738 0.000000 0.308866
O O18 0.500000 0.305045 0.368254
O O19 0.288111 0.500000 0.382296
#
# Coordination Sequence:
#
# PCOD8309648 Si02
#       6
#     8   8   8   8   8   8
#     4  10  20  34  55  83 111 140 177 219 264 315
#     4  10  21  37  57  79 103 134 172 213 260 313
#     4   8  15  30  52  77 106 141 180 221 264 310
#     4  11  24  40  58  81 108 139 177 218 262 315
#     4   9  18  33  54  80 108 139 178 223 268 313
#     4  10  21  36  54  77 106 141 179 217 260 313
#
# _framework density 18.853242999999999
#
# number of rings (size 3 to 8) (size 9 to 14) (size 15 to 20)
#    0.000    2.333    0.000    3.500    0.000    8.000 
#    0.000    2.500    0.000    1.000    0.000    0.000 
#    0.000    0.000    0.000    0.000    0.000    0.000 
#
# Total GULP energy -595235.366968 kJ/mol
# GULP energy per Si atom -12400.736812 kJ/mol
# Density = 1.881033 g / cm^3
# Si number density = 18.853243 Si / 1000 Ang^3
#
#
#
# Elastic Constant Matrix: (Units=GPa)
#
#
# Indices 1 2 3 4 5 6 
#
# 1 63.3619 43.0643 47.6759 0.0000 0.0000 0.0000
# 2 43.0643 63.3619 47.6759 0.0000 0.0000 0.0000
# 3 47.6759 47.6759 136.6448 0.0000 0.0000 0.0000
# 4 0.0000 0.0000 0.0000 82.0291 0.0000 0.0000
# 5 0.0000 0.0000 0.0000 0.0000 82.0291 0.0000
# 6 0.0000 0.0000 0.0000 0.0000 0.0000 28.2741
#
#
#
# Elastic Compliance Matrix: (Units=1/GPa)
#
#
# Indices 1 2 3 4 5 6 
#
# 1 0.031468 -0.017799 -0.004769 0.000000 0.000000 0.000000
# 2 -0.017799 0.031468 -0.004769 0.000000 0.000000 0.000000
# 3 -0.004769 -0.004769 0.010646 0.000000 0.000000 0.000000
# 4 0.000000 0.000000 0.000000 0.012191 0.000000 0.000000
# 5 0.000000 0.000000 0.000000 0.000000 0.012191 0.000000
# 6 0.000000 0.000000 0.000000 0.000000 0.000000 0.035368
#
#
# Mechanical properties :
#
#
# Convention : Reuss Voigt Hill
#
# Bulk Modulus (GPa) = 52.88864 60.02229 56.45546
# Shear Modulus (GPa) = 25.73220 46.79662 36.26441
#
# Velocity S-wave (km/s) = 3.69842 4.98753 4.39054
# Velocity P-wave (km/s) = 6.80819 8.06678 7.46406
#
# Compressibility (1/GPa) = 0.01890765
#
# Stress axis : x y z
#
# Youngs Moduli (GPa) = 31.77831 31.77831 93.92985
#
# Poissons Ratio (x) = 0.56562 0.44797
# Poissons Ratio (y) = 0.56562 0.44797
# Poissons Ratio (z) = 0.15156 0.15156
#
# Static dielectric constant tensor:
#      x y z
#    x 3.371800 0.000000 0.000000 
#    y 0.000000 3.371800 0.000000 
#    z 0.000000 0.000000 3.818690 
# 
# 
# High freq. dielectric constant tensor:
#      x y z
#    x 1.723420 0.000000 0.000000 
#    y 0.000000 1.723420 0.000000 
#    z 0.000000 0.000000 1.749630 
# 
# From -- ./inp_files/5960.got.cif
#   From: 2010.03.12/outbox.cif.g09.slc.cpg/sg115_3_cif.got.tgz:5960.got - 2010.04.14 02:11:21.
