data_PCOD8309131
_publ_section_title
;
Structure prediction by ZEFSAII (Michael W. Deem and Ramdas Pophale) SiO2 
 PCOD8309131
Probable space group: P -4 21 C
;
_chemical_formula_sum "Si O2"
_cell_formula_units_Z 40
_cell_length_a 9.095920
_cell_length_b 9.095920
_cell_length_c 21.963418
_cell_angle_alpha 90.000000
_cell_angle_beta 90.000000
_cell_angle_gamma 90.000000
_cell_volume 1817.160095
_symmetry_space_group_name_H-M "P -4 21 C"
_symmetry_group_IT_number 114
_symmetry_cell_setting 'tetragonal'
loop_
_space_group_symop_operation_xyz
x,y,z
y,-x,-z
-x,-y,z
-y,x,-z
1/2+x,1/2-y,1/2-z
1/2-x,1/2+y,1/2-z
1/2-y,1/2-x,1/2+z
1/2+y,1/2+x,1/2+z
loop_
_atom_site_type_symbol
_atom_site_label
_atom_site_fract_x
_atom_site_fract_y
_atom_site_fract_z
Si Si1 0.000000 0.000000 0.000000
Si Si2 0.586130 0.225360 0.577671
Si Si3 0.000000 0.500000 0.516334
Si Si4 0.927002 0.843039 0.705565
Si Si5 0.246561 0.092247 0.407270
Si Si6 0.500000 0.500000 0.000000
Si Si7 0.653380 0.924668 0.194799
O O1 0.880076 0.065235 0.045408
O O2 0.740561 0.214295 0.614420
O O3 0.452261 0.189522 0.623698
O O4 0.599202 0.103957 0.525379
O O5 0.101347 0.597769 0.559504
O O6 0.749850 0.850803 0.707921
O O7 0.981451 0.742205 0.649715
O O8 0.993435 0.780668 0.767813
O O9 0.000000 0.000000 0.693343
O O10 0.134582 0.032590 0.456499
O O11 0.500000 0.000000 0.213304
#
# Coordination Sequence:
#
# PCOD8309131 Si02
#       7
#     2   8   4   8   8   2   8
#     4  12  28  44  70 104 152 188 240 290 368 420
#     4  12  26  46  70 106 145 191 236 298 358 438
#     4  12  26  42  70 104 146 184 236 288 360 426
#     4  12  28  50  77 106 141 190 245 303 370 436
#     4  12  26  44  72 104 145 187 239 295 360 434
#     4  12  24  40  70 104 140 180 232 286 360 428
#     4  12  28  50  77 104 145 188 246 304 366 441
#
# _framework density 22.012371999999999
#
# number of rings (size 3 to 8) (size 9 to 14) (size 15 to 20)
#    0.000    0.000    6.000    3.600    8.400    0.000 
#    0.000    0.000    0.000    0.000    0.000    0.000 
#    0.000    0.000    0.000    0.000    0.000    0.000 
#
# Total GULP energy -496103.992692 kJ/mol
# GULP energy per Si atom -12402.599817 kJ/mol
# Density = 2.196227 g / cm^3
# Si number density = 22.012372 Si / 1000 Ang^3
#
#
#
# Elastic Constant Matrix: (Units=GPa)
#
#
# Indices 1 2 3 4 5 6 
#
# 1 123.4416 14.8729 32.0735 0.0000 0.0000 0.0000
# 2 14.8729 123.4416 32.0735 0.0000 0.0000 0.0000
# 3 32.0735 32.0735 91.0960 0.0000 0.0000 0.0000
# 4 0.0000 0.0000 0.0000 37.8841 0.0000 0.0000
# 5 0.0000 0.0000 0.0000 0.0000 37.8841 0.0000
# 6 0.0000 0.0000 0.0000 0.0000 0.0000 28.7910
#
#
#
# Elastic Compliance Matrix: (Units=1/GPa)
#
#
# Indices 1 2 3 4 5 6 
#
# 1 0.008926 -0.000285 -0.003042 0.000000 0.000000 0.000000
# 2 -0.000285 0.008926 -0.003042 0.000000 0.000000 0.000000
# 3 -0.003042 -0.003042 0.013120 0.000000 0.000000 0.000000
# 4 0.000000 0.000000 0.000000 0.026396 0.000000 0.000000
# 5 0.000000 0.000000 0.000000 0.000000 0.026396 0.000000
# 6 0.000000 0.000000 0.000000 0.000000 0.000000 0.034733
#
#
# Mechanical properties :
#
#
# Convention : Reuss Voigt Hill
#
# Bulk Modulus (GPa) = 54.84803 55.11322 54.98062
# Shear Modulus (GPa) = 36.41303 38.17580 37.29441
#
# Velocity S-wave (km/s) = 4.07161 4.16900 4.12059
# Velocity P-wave (km/s) = 6.86112 6.94736 6.90437
#
# Compressibility (1/GPa) = 0.01823219
#
# Stress axis : x y z
#
# Youngs Moduli (GPa) = 112.03476 112.03476 76.22109
#
# Poissons Ratio (x) = 0.03192 0.23189
# Poissons Ratio (y) = 0.03192 0.23189
# Poissons Ratio (z) = 0.34084 0.34084
#
# Static dielectric constant tensor:
#      x y z
#    x 4.554640 0.000000 0.000000 
#    y 0.000000 4.554640 0.000000 
#    z 0.000000 0.000000 3.981500 
# 
# 
# High freq. dielectric constant tensor:
#      x y z
#    x 1.876350 0.000000 0.000000 
#    y 0.000000 1.876350 0.000000 
#    z 0.000000 0.000000 1.871760 
# 
# From -- ./inp_files/3470.got.cif
#   From: 2010.03.12/outbox.cif.g09.slc.cpg/sg114_2_cif.got.tgz:3470.got - 2010.04.14 02:08:34.
