data_PCOD8309814
_publ_section_title
;
Structure prediction by ZEFSAII (Michael W. Deem and Ramdas Pophale) SiO2 
 PCOD8309814
Probable space group: P -4 M 2
;
_chemical_formula_sum "Si O2"
_cell_formula_units_Z 48
_cell_length_a 9.059023
_cell_length_b 9.059023
_cell_length_c 30.920382
_cell_angle_alpha 90.000000
_cell_angle_beta 90.000000
_cell_angle_gamma 90.000000
_cell_volume 2537.508907
_symmetry_space_group_name_H-M "P -4 M 2"
_symmetry_group_IT_number 115
_symmetry_cell_setting 'tetragonal'
loop_
_space_group_symop_operation_xyz
x,y,z
y,-x,-z
-x,-y,z
-y,x,-z
y,x,-z
-y,-x,-z
-x,y,z
x,-y,z
loop_
_atom_site_type_symbol
_atom_site_label
_atom_site_fract_x
_atom_site_fract_y
_atom_site_fract_z
Si Si1 0.172765 0.672190 0.539658
Si Si2 0.830122 0.828745 0.293476
Si Si3 0.176268 0.164640 0.046821
Si Si4 0.326625 0.170264 0.617540
Si Si5 0.168373 0.326771 0.130651
Si Si6 0.673892 0.331161 0.216699
O O1 0.236636 0.763365 0.500000
O O2 0.204171 0.500000 0.531876
O O3 0.251471 0.723244 0.583186
O O4 0.000000 0.705155 0.543630
O O5 0.787269 0.738397 0.336074
O O6 0.729480 0.772037 0.254889
O O7 0.000000 0.801455 0.280955
O O8 0.797433 0.000000 0.302174
O O9 0.237251 0.260844 0.086622
O O10 0.000000 0.164586 0.046115
O O11 0.237646 0.000000 0.053672
O O12 0.228947 0.228947 0.000000
O O13 0.500000 0.200777 0.618038
O O14 0.291809 0.000000 0.605862
O O15 0.180812 0.500000 0.126057
O O16 0.259716 0.270215 0.171861
O O17 0.000000 0.274448 0.137057
O O18 0.500000 0.319262 0.213699
O O19 0.725157 0.500000 0.225025
#
# Coordination Sequence:
#
# PCOD8309814 Si02
#       6
#     8   8   8   8   8   8
#     4  11  24  40  59  85 116 150 188 228 271 319
#     4  10  21  37  58  83 109 139 177 220 266 316
#     4   8  14  26  45  68  93 122 158 201 249 302
#     4  10  21  38  61  87 113 143 181 223 267 317
#     4   9  17  30  49  71  95 126 166 210 254 304
#     4  10  21  36  53  74 103 139 176 215 262 314
#
# _framework density 18.916191000000001
#
# number of rings (size 3 to 8) (size 9 to 14) (size 15 to 20)
#    0.000    2.333    0.000    3.000    0.000    7.667 
#    0.000    2.500    0.000    1.000    0.000    0.000 
#    0.000    0.000    0.000    0.000    0.000    0.000 
#
# Total GULP energy -595251.693082 kJ/mol
# GULP energy per Si atom -12401.076939 kJ/mol
# Density = 1.887314 g / cm^3
# Si number density = 18.916191 Si / 1000 Ang^3
#
#
#
# Elastic Constant Matrix: (Units=GPa)
#
#
# Indices 1 2 3 4 5 6 
#
# 1 71.4436 39.9731 57.2580 0.0000 0.0000 0.0000
# 2 39.9731 71.4415 57.2564 0.0000 0.0000 0.0000
# 3 57.2580 57.2564 151.7311 0.0000 0.0000 0.0000
# 4 0.0000 0.0000 0.0000 694.1205 0.0000 0.0000
# 5 0.0000 0.0000 0.0000 0.0000 693.1059 0.0000
# 6 0.0000 0.0000 0.0000 0.0000 0.0000 24.8313
#
#
#
# Elastic Compliance Matrix: (Units=1/GPa)
#
#
# Indices 1 2 3 4 5 6 
#
# 1 0.023219 -0.008557 -0.005533 0.000000 0.000000 0.000000
# 2 -0.008557 0.023220 -0.005533 0.000000 0.000000 0.000000
# 3 -0.005533 -0.005533 0.010766 0.000000 0.000000 0.000000
# 4 0.000000 0.000000 0.000000 0.001441 0.000000 0.000000
# 5 0.000000 0.000000 0.000000 0.000000 0.001443 0.000000
# 6 0.000000 0.000000 0.000000 0.000000 0.000000 0.040272
#
#
# Mechanical properties :
#
#
# Convention : Reuss Voigt Hill
#
# Bulk Modulus (GPa) = 55.68196 67.06567 61.37382
# Shear Modulus (GPa) = 34.34222 291.75347 163.04785
#
# Velocity S-wave (km/s) = 4.26548 12.43260 9.29419
# Velocity P-wave (km/s) = 7.33206 15.54426 12.15284
#
# Compressibility (1/GPa) = 0.01795914
#
# Stress axis : x y z
#
# Youngs Moduli (GPa) = 43.06758 43.06678 92.88139
#
# Poissons Ratio (x) = 0.36854 0.51391
# Poissons Ratio (y) = 0.36854 0.51390
# Poissons Ratio (z) = 0.23829 0.23828
#
# Static dielectric constant tensor:
#      x y z
#    x 3.363950 0.000000 0.000000 
#    y 0.000000 3.363880 0.000000 
#    z 0.000000 0.000000 3.833450 
# 
# 
# High freq. dielectric constant tensor:
#      x y z
#    x 1.724100 0.000000 0.000000 
#    y 0.000000 1.724100 0.000000 
#    z 0.000000 0.000000 1.752830 
# 
# From -- ./inp_files/5980.got.cif
#   From: 2010.03.12/outbox.cif.g09.slc.cpg/sg115_3_cif.got.tgz:5980.got - 2010.04.14 02:11:21.
