data_PCOD8309315
_publ_section_title
;
Structure prediction by ZEFSAII (Michael W. Deem and Ramdas Pophale) SiO2 
 PCOD8309315
Probable space group: P -4 M 2
;
_chemical_formula_sum "Si O2"
_cell_formula_units_Z 37
_cell_length_a 8.224868
_cell_length_b 8.224868
_cell_length_c 25.849947
_cell_angle_alpha 90.000000
_cell_angle_beta 90.000000
_cell_angle_gamma 90.000000
_cell_volume 1748.708941
_symmetry_space_group_name_H-M "P -4 M 2"
_symmetry_group_IT_number 115
_symmetry_cell_setting 'tetragonal'
loop_
_space_group_symop_operation_xyz
x,y,z
y,-x,-z
-x,-y,z
-y,x,-z
y,x,-z
-y,-x,-z
-x,y,z
x,-y,z
loop_
_atom_site_type_symbol
_atom_site_label
_atom_site_fract_x
_atom_site_fract_y
_atom_site_fract_z
Si Si1 0.308311 0.679815 0.358123
Si Si2 0.000000 0.000000 0.500000
Si Si3 0.695191 0.000000 0.424635
Si Si4 0.817704 0.317891 0.949816
Si Si5 0.821860 0.688380 0.746399
Si Si6 0.317527 0.183898 0.848956
O O1 0.500000 0.665835 0.356641
O O2 0.240361 0.500000 0.376398
O O3 0.237672 0.713724 0.300277
O O4 0.261351 0.833777 0.393788
O O5 0.000000 0.826440 0.529523
O O6 0.500000 0.000000 0.440652
O O7 0.790785 0.500000 0.929457
O O8 0.783372 0.202247 0.901467
O O9 0.000000 0.285954 0.968836
O O10 0.707388 0.292613 0.000000
O O11 0.843396 0.500000 0.734491
O O12 0.741853 0.705403 0.802277
O O13 0.000000 0.771887 0.746490
O O14 0.500000 0.234161 0.862923
O O15 0.302869 0.000000 0.829568
#
# Coordination Sequence:
#
# PCOD8309315 Si02
#       6
#     8   1   4   8   8   8
#     4   9  17  34  63  93 124 168 214 260 321 381
#     4  12  28  44  68 104 132 180 228 264 338 376
#     4  10  22  44  66  94 136 172 220 277 317 382
#     4  11  24  41  61  84 108 141 188 241 299 365
#     4  10  19  34  58  88 121 158 202 253 307 369
#     4  11  24  39  54  80 117 154 197 247 298 362
#
# _framework density 21.158466000000001
#
# number of rings (size 3 to 8) (size 9 to 14) (size 15 to 20)
#    0.000    1.730    1.081    3.243    0.000   10.811 
#    1.946    0.000    0.000    0.000    0.000    0.000 
#    0.000    0.000    0.000    0.000    0.000    0.000 
#
# Total GULP energy -458495.741687 kJ/mol
# GULP energy per Si atom -12391.776802 kJ/mol
# Density = 2.111031 g / cm^3
# Si number density = 21.158466 Si / 1000 Ang^3
#
#
#
# Elastic Constant Matrix: (Units=GPa)
#
#
# Indices 1 2 3 4 5 6 
#
# 1 81.8112 50.0897 41.7351 0.0000 0.0000 0.0000
# 2 50.0897 81.8102 41.7351 0.0000 0.0000 0.0000
# 3 41.7351 41.7351 127.3806 0.0000 0.0000 0.0000
# 4 0.0000 0.0000 0.0000 26.1592 0.0000 0.0000
# 5 0.0000 0.0000 0.0000 0.0000 26.1592 0.0000
# 6 0.0000 0.0000 0.0000 0.0000 0.0000 19.6831
#
#
#
# Elastic Compliance Matrix: (Units=1/GPa)
#
#
# Indices 1 2 3 4 5 6 
#
# 1 0.020545 -0.010980 -0.003134 0.000000 0.000000 0.000000
# 2 -0.010980 0.020545 -0.003134 0.000000 0.000000 0.000000
# 3 -0.003134 -0.003134 0.009904 0.000000 0.000000 0.000000
# 4 0.000000 0.000000 0.000000 0.038228 0.000000 0.000000
# 5 0.000000 0.000000 0.000000 0.000000 0.038227 0.000000
# 6 0.000000 0.000000 0.000000 0.000000 0.000000 0.050805
#
#
# Mechanical properties :
#
#
# Convention : Reuss Voigt Hill
#
# Bulk Modulus (GPa) = 60.61279 62.01354 61.31316
# Shear Modulus (GPa) = 22.90972 24.89644 23.90308
#
# Velocity S-wave (km/s) = 3.29411 3.43398 3.36477
# Velocity P-wave (km/s) = 6.57096 6.71533 6.64354
#
# Compressibility (1/GPa) = 0.01649817
#
# Stress axis : x y z
#
# Youngs Moduli (GPa) = 48.67466 48.67397 100.96946
#
# Poissons Ratio (x) = 0.53445 0.31641
# Poissons Ratio (y) = 0.53445 0.31642
# Poissons Ratio (z) = 0.15253 0.15254
#
# Static dielectric constant tensor:
#      x y z
#    x 3.953490 0.000000 0.000000 
#    y 0.000000 3.953490 0.000000 
#    z 0.000000 0.000000 3.595610 
# 
# 
# High freq. dielectric constant tensor:
#      x y z
#    x 1.827680 0.000000 0.000000 
#    y 0.000000 1.827680 0.000000 
#    z 0.000000 0.000000 1.818250 
# 
# From -- ./inp_files/5161.got.cif
#   From: 2010.03.12/outbox.cif.g09.slc.cpg/sg115_3_cif.got.tgz:5161.got - 2010.04.14 02:11:21.
