data_PCOD8309460
_publ_section_title
;
Structure prediction by ZEFSAII (Michael W. Deem and Ramdas Pophale) SiO2 
 PCOD8309460
Probable space group: P -4 M 2
;
_chemical_formula_sum "Si O2"
_cell_formula_units_Z 48
_cell_length_a 9.234862
_cell_length_b 9.234862
_cell_length_c 31.116790
_cell_angle_alpha 90.000000
_cell_angle_beta 90.000000
_cell_angle_gamma 90.000000
_cell_volume 2653.723125
_symmetry_space_group_name_H-M "P -4 M 2"
_symmetry_group_IT_number 115
_symmetry_cell_setting 'tetragonal'
loop_
_space_group_symop_operation_xyz
x,y,z
y,-x,-z
-x,-y,z
-y,x,-z
y,x,-z
-y,-x,-z
-x,y,z
x,-y,z
loop_
_atom_site_type_symbol
_atom_site_label
_atom_site_fract_x
_atom_site_fract_y
_atom_site_fract_z
Si Si1 0.666865 0.830371 0.463245
Si Si2 0.828089 0.834866 0.301611
Si Si3 0.326806 0.660959 0.953325
Si Si4 0.327642 0.839845 0.873963
Si Si5 0.668385 0.667943 0.623992
Si Si6 0.661593 0.827443 0.780286
O O1 0.770495 0.770495 0.500000
O O2 0.500000 0.799368 0.475575
O O3 0.709590 0.748961 0.419755
O O4 0.695757 0.000000 0.456844
O O5 0.761915 0.737244 0.338615
O O6 0.772934 0.772840 0.255915
O O7 0.000000 0.824519 0.305111
O O8 0.774238 0.000000 0.305913
O O9 0.500000 0.660407 0.952502
O O10 0.265898 0.500000 0.947338
O O11 0.260884 0.751050 0.913699
O O12 0.276570 0.723431 0.000000
O O13 0.500000 0.845104 0.877307
O O14 0.286716 0.770597 0.827363
O O15 0.261664 0.000000 0.877691
O O16 0.500000 0.707717 0.619089
O O17 0.690651 0.500000 0.635129
O O18 0.500000 0.769176 0.769330
O O19 0.656822 0.000000 0.782432
#
# Coordination Sequence:
#
# PCOD8309460 Si02
#       6
#     8   8   8   8   8   8
#     4  10  21  37  57  80 106 137 171 206 245 288
#     4  10  20  33  51  75 101 130 164 201 244 294
#     4   8  13  21  34  54  80 107 135 173 223 273
#     4   8  13  22  38  58  78 105 144 185 223 267
#     4  10  21  37  57  79 103 134 171 208 247 291
#     4   8  14  26  44  65  89 117 151 193 236 277
#
# _framework density 18.087793000000001
#
# number of rings (size 3 to 8) (size 9 to 14) (size 15 to 20)
#    0.000    3.000    0.000    3.000    0.000    3.667 
#    0.000    0.833    0.000    4.000    0.000    0.000 
#    0.000    0.000    0.000    0.000    0.000    0.000 
#
# Total GULP energy -594944.936997 kJ/mol
# GULP energy per Si atom -12394.686187 kJ/mol
# Density = 1.804662 g / cm^3
# Si number density = 18.087793 Si / 1000 Ang^3
#
#
#
# Elastic Constant Matrix: (Units=GPa)
#
#
# Indices 1 2 3 4 5 6 
#
# 1 67.1611 29.8542 60.8998 0.0000 0.0000 0.0000
# 2 29.8542 67.1610 60.8997 0.0000 0.0000 0.0000
# 3 60.8998 60.8997 171.3191 0.0000 0.0000 0.0000
# 4 0.0000 0.0000 0.0000 -5.6370 0.0000 0.0000
# 5 0.0000 0.0000 0.0000 0.0000 -5.6378 0.0000
# 6 0.0000 0.0000 0.0000 0.0000 0.0000 18.6311
#
#
#
# Elastic Compliance Matrix: (Units=1/GPa)
#
#
# Indices 1 2 3 4 5 6 
#
# 1 0.022710 -0.004095 -0.006617 0.000000 0.000000 0.000000
# 2 -0.004095 0.022710 -0.006617 0.000000 0.000000 0.000000
# 3 -0.006617 -0.006617 0.010542 0.000000 0.000000 0.000000
# 4 0.000000 0.000000 0.000000 -0.177399 0.000000 0.000000
# 5 0.000000 0.000000 0.000000 0.000000 -0.177374 0.000000
# 6 0.000000 0.000000 0.000000 0.000000 0.000000 0.053674
#
#
# Mechanical properties :
#
#
# Convention : Reuss Voigt Hill
#
# Bulk Modulus (GPa) = 46.94106 67.66095 57.30101
# Shear Modulus (GPa) = -24.58486 11.73709 -6.42388
#
# Velocity S-wave (km/s) = -3.69073 2.55011 -1.88659
# Velocity P-wave (km/s) = 2.80110 6.79403 5.19640
#
# Compressibility (1/GPa) = 0.02130331
#
# Stress axis : x y z
#
# Youngs Moduli (GPa) = 44.03326 44.03315 94.86137
#
# Poissons Ratio (x) = 0.18030 0.62773
# Poissons Ratio (y) = 0.18030 0.62773
# Poissons Ratio (z) = 0.29138 0.29138
#
# Static dielectric constant tensor:
#      x y z
#    x 3.189400 0.000000 0.000000 
#    y 0.000000 3.189400 0.000000 
#    z 0.000000 0.000000 3.728850 
# 
# 
# High freq. dielectric constant tensor:
#      x y z
#    x 1.670550 0.000000 0.000000 
#    y 0.000000 1.670550 0.000000 
#    z 0.000000 0.000000 1.720950 
# 
# From -- ./inp_files/5910.got.cif
#   From: 2010.03.12/outbox.cif.g09.slc.cpg/sg115_3_cif.got.tgz:5910.got - 2010.04.14 02:11:21.
