data_PCOD8309462
_publ_section_title
;
Structure prediction by ZEFSAII (Michael W. Deem and Ramdas Pophale) SiO2 
 PCOD8309462
Probable space group: P -4 M 2
;
_chemical_formula_sum "Si O2"
_cell_formula_units_Z 48
_cell_length_a 9.350686
_cell_length_b 9.350686
_cell_length_c 30.881222
_cell_angle_alpha 90.000000
_cell_angle_beta 90.000000
_cell_angle_gamma 90.000000
_cell_volume 2700.109795
_symmetry_space_group_name_H-M "P -4 M 2"
_symmetry_group_IT_number 115
_symmetry_cell_setting 'tetragonal'
loop_
_space_group_symop_operation_xyz
x,y,z
y,-x,-z
-x,-y,z
-y,x,-z
y,x,-z
-y,-x,-z
-x,y,z
x,-y,z
loop_
_atom_site_type_symbol
_atom_site_label
_atom_site_fract_x
_atom_site_fract_y
_atom_site_fract_z
Si Si1 0.166773 0.165701 0.284797
Si Si2 0.667769 0.334202 0.212809
Si Si3 0.829590 0.840782 0.952878
Si Si4 0.169434 0.842275 0.381644
Si Si5 0.831626 0.334023 0.463007
Si Si6 0.165090 0.332893 0.871149
O O1 0.254728 0.268049 0.253877
O O2 0.220100 0.201646 0.333554
O O3 0.000000 0.199982 0.279179
O O4 0.197811 0.000000 0.273935
O O5 0.500000 0.309401 0.218938
O O6 0.707489 0.500000 0.209003
O O7 0.722959 0.255469 0.169603
O O8 0.772778 0.741045 0.914315
O O9 0.000000 0.844602 0.953288
O O10 0.768495 0.000000 0.945030
O O11 0.780096 0.780096 0.000000
O O12 0.222157 0.727338 0.416839
O O13 0.000000 0.850439 0.381029
O O14 0.230055 0.000000 0.393757
O O15 0.748048 0.251953 0.500000
O O16 0.792011 0.500000 0.464549
O O17 0.000000 0.307808 0.469518
O O18 0.185354 0.500000 0.878103
O O19 0.000000 0.291947 0.862938
#
# Coordination Sequence:
#
# PCOD8309462 Si02
#       6
#     8   8   8   8   8   8
#     4   9  18  33  54  79 102 124 157 202 248 294
#     4  10  21  35  49  68  98 134 168 201 240 288
#     4   8  14  26  45  68  92 117 147 187 236 287
#     4   8  15  30  52  76 100 126 159 201 246 290
#     4  10  20  33  51  75 101 131 167 203 241 287
#     4   9  17  30  48  67  88 119 159 198 235 279
#
# _framework density 17.777054
#
# number of rings (size 3 to 8) (size 9 to 14) (size 15 to 20)
#    0.000    3.000    0.000    2.500    0.000    3.667 
#    0.000    5.000    0.000    2.000    0.000    0.000 
#    0.000    0.000    0.000    0.000    0.000    0.000 
#
# Total GULP energy -595046.590796 kJ/mol
# GULP energy per Si atom -12396.803975 kJ/mol
# Density = 1.773659 g / cm^3
# Si number density = 17.777054 Si / 1000 Ang^3
#
#
#
# Elastic Constant Matrix: (Units=GPa)
#
#
# Indices 1 2 3 4 5 6 
#
# 1 63.8671 42.1501 67.3491 0.0000 0.0000 0.0000
# 2 42.1501 63.8700 67.3501 0.0000 0.0000 0.0000
# 3 67.3491 67.3501 173.7281 0.0000 0.0000 0.0000
# 4 0.0000 0.0000 0.0000 -0.1655 0.0000 0.0000
# 5 0.0000 0.0000 0.0000 0.0000 -0.1643 0.0000
# 6 0.0000 0.0000 0.0000 0.0000 0.0000 21.5203
#
#
#
# Elastic Compliance Matrix: (Units=1/GPa)
#
#
# Indices 1 2 3 4 5 6 
#
# 1 0.032317 -0.013728 -0.007206 0.000000 0.000000 0.000000
# 2 -0.013728 0.032315 -0.007206 0.000000 0.000000 0.000000
# 3 -0.007206 -0.007206 0.011343 0.000000 0.000000 0.000000
# 4 0.000000 0.000000 0.000000 -6.041815 0.000000 0.000000
# 5 0.000000 0.000000 0.000000 0.000000 -6.085232 0.000000
# 6 0.000000 0.000000 0.000000 0.000000 0.000000 0.046468
#
#
# Mechanical properties :
#
#
# Convention : Reuss Voigt Hill
#
# Bulk Modulus (GPa) = 50.77498 72.79597 61.78547
# Shear Modulus (GPa) = -0.41870 12.54582 6.06356
#
# Velocity S-wave (km/s) = -0.48584 2.65944 1.84886
# Velocity P-wave (km/s) = 5.32066 7.10412 6.27606
#
# Compressibility (1/GPa) = 0.01969474
#
# Stress axis : x y z
#
# Youngs Moduli (GPa) = 30.94381 30.94560 88.15880
#
# Poissons Ratio (x) = 0.42483 0.63528
# Poissons Ratio (y) = 0.42480 0.63524
# Poissons Ratio (z) = 0.22298 0.22298
#
# Static dielectric constant tensor:
#      x y z
#    x 3.141080 0.000000 0.000000 
#    y 0.000000 3.141080 0.000000 
#    z 0.000000 0.000000 3.641790 
# 
# 
# High freq. dielectric constant tensor:
#      x y z
#    x 1.664850 0.000000 0.000000 
#    y 0.000000 1.664850 0.000000 
#    z 0.000000 0.000000 1.704480 
# 
# From -- ./inp_files/5984.got.cif
#   From: 2010.03.12/outbox.cif.g09.slc.cpg/sg115_3_cif.got.tgz:5984.got - 2010.04.14 02:11:21.
