data_PCOD8309983
_publ_section_title
;
Structure prediction by ZEFSAII (Michael W. Deem and Ramdas Pophale) SiO2 
 PCOD8309983
Probable space group: P -4 M 2
;
_chemical_formula_sum "Si O2"
_cell_formula_units_Z 56
_cell_length_a 14.799112
_cell_length_b 14.799112
_cell_length_c 17.486835
_cell_angle_alpha 90.000000
_cell_angle_beta 90.000000
_cell_angle_gamma 90.000000
_cell_volume 3829.856714
_symmetry_space_group_name_H-M "P -4 M 2"
_symmetry_group_IT_number 115
_symmetry_cell_setting 'tetragonal'
loop_
_space_group_symop_operation_xyz
x,y,z
y,-x,-z
-x,-y,z
-y,x,-z
y,x,-z
-y,-x,-z
-x,y,z
x,-y,z
loop_
_atom_site_type_symbol
_atom_site_label
_atom_site_fract_x
_atom_site_fract_y
_atom_site_fract_z
Si Si1 0.399371 0.607136 0.416341
Si Si2 0.397945 0.097165 0.784478
Si Si3 0.402367 0.402367 0.000000
Si Si4 0.336324 0.717867 0.126658
Si Si5 0.100512 0.899489 0.000000
Si Si6 0.717180 0.863682 0.926260
Si Si7 0.289380 0.605859 0.271216
Si Si8 0.899880 0.603967 0.923385
O O1 0.362439 0.637562 0.500000
O O2 0.500000 0.646806 0.399787
O O3 0.405874 0.500000 0.416943
O O4 0.329055 0.639954 0.351917
O O5 0.500000 0.111038 0.816975
O O6 0.327244 0.088664 0.853540
O O7 0.375293 0.181207 0.728723
O O8 0.391914 0.000000 0.740476
O O9 0.402873 0.328325 0.066711
O O10 0.391951 0.500000 0.040531
O O11 0.241926 0.708222 0.084200
O O12 0.338023 0.666232 0.207083
O O13 0.365152 0.822969 0.137446
O O14 0.111452 0.823374 0.065908
O O15 0.000000 0.889523 0.963121
O O16 0.664638 0.893545 0.001440
O O17 0.310716 0.500000 0.256922
O O18 0.885539 0.500000 0.946605
O O19 0.000000 0.618067 0.886961
#
# Coordination Sequence:
#
# PCOD8309983 Si02
#       8
#     8   8   4   8   4   8   8   8
#     4   8  14  26  44  65  88 112 137 165 199 245
#     4   9  17  28  43  62  84 110 139 174 213 251
#     4  11  21  30  40  54  79 113 138 164 204 249
#     4  11  20  31  43  59  82 109 139 177 211 248
#     4  11  21  30  42  58  75  97 130 178 230 269
#     4  11  19  31  44  57  75 105 138 181 219 250
#     4   9  18  29  44  66  89 112 139 169 211 257
#     4  11  21  31  44  57  72 102 144 184 213 239
#
# _framework density 14.621956000000001
#
# number of rings (size 3 to 8) (size 9 to 14) (size 15 to 20)
#    0.000    2.000    2.857    3.000    0.000    3.429 
#    0.000    1.429    0.000    0.000    0.000    1.000 
#    0.000    3.429    0.000    0.000    0.000    0.000 
#
# Total GULP energy -693847.724619 kJ/mol
# GULP energy per Si atom -12390.137940 kJ/mol
# Density = 1.458868 g / cm^3
# Si number density = 14.621956 Si / 1000 Ang^3
#
#
#
# Elastic Constant Matrix: (Units=GPa)
#
#
# Indices 1 2 3 4 5 6 
#
# 1 85.9103 23.3944 41.4652 0.0000 0.0000 0.0000
# 2 23.3944 85.9109 41.4651 0.0000 0.0000 0.0000
# 3 41.4652 41.4651 87.5739 0.0000 0.0000 0.0000
# 4 0.0000 0.0000 0.0000 8.8066 0.0000 0.0000
# 5 0.0000 0.0000 0.0000 0.0000 8.8069 0.0000
# 6 0.0000 0.0000 0.0000 0.0000 0.0000 17.5676
#
#
#
# Elastic Compliance Matrix: (Units=1/GPa)
#
#
# Indices 1 2 3 4 5 6 
#
# 1 0.015137 -0.000859 -0.006760 0.000000 0.000000 0.000000
# 2 -0.000859 0.015137 -0.006760 0.000000 0.000000 0.000000
# 3 -0.006760 -0.006760 0.017821 0.000000 0.000000 0.000000
# 4 0.000000 0.000000 0.000000 0.113551 0.000000 0.000000
# 5 0.000000 0.000000 0.000000 0.000000 0.113548 0.000000
# 6 0.000000 0.000000 0.000000 0.000000 0.000000 0.056923
#
#
# Mechanical properties :
#
#
# Convention : Reuss Voigt Hill
#
# Bulk Modulus (GPa) = 51.71966 52.44939 52.08453
# Shear Modulus (GPa) = 13.61210 17.24092 15.42651
#
# Velocity S-wave (km/s) = 3.05443 3.43754 3.25164
# Velocity P-wave (km/s) = 6.92008 7.19053 7.05660
#
# Compressibility (1/GPa) = 0.01933501
#
# Stress axis : x y z
#
# Youngs Moduli (GPa) = 66.06357 66.06432 56.11402
#
# Poissons Ratio (x) = 0.05675 0.37936
# Poissons Ratio (y) = 0.05675 0.37935
# Poissons Ratio (z) = 0.44662 0.44662
#
# Static dielectric constant tensor:
#      x y z
#    x 3.073180 0.000000 0.000000 
#    y 0.000000 3.073170 0.000000 
#    z 0.000000 0.000000 2.672300 
# 
# 
# High freq. dielectric constant tensor:
#      x y z
#    x 1.564880 0.000000 0.000000 
#    y 0.000000 1.564880 0.000000 
#    z 0.000000 0.000000 1.502300 
# 
# From -- ./inp_files/4401.got.cif
#   From: 2010.03.12/outbox.cif.g09.slc.cpg/sg115_3_cif.got.tgz:4401.got - 2010.04.14 02:11:21.
