data_PCOD8309963
_publ_section_title
;
Structure prediction by ZEFSAII (Michael W. Deem and Ramdas Pophale) SiO2 
 PCOD8309963
Probable space group: P -4 M 2
;
_chemical_formula_sum "Si O2"
_cell_formula_units_Z 33
_cell_length_a 8.174816
_cell_length_b 8.174816
_cell_length_c 23.094496
_cell_angle_alpha 90.000000
_cell_angle_beta 90.000000
_cell_angle_gamma 90.000000
_cell_volume 1543.350125
_symmetry_space_group_name_H-M "P -4 M 2"
_symmetry_group_IT_number 115
_symmetry_cell_setting 'tetragonal'
loop_
_space_group_symop_operation_xyz
x,y,z
y,-x,-z
-x,-y,z
-y,x,-z
y,x,-z
-y,-x,-z
-x,y,z
x,-y,z
loop_
_atom_site_type_symbol
_atom_site_label
_atom_site_fract_x
_atom_site_fract_y
_atom_site_fract_z
Si Si1 0.700053 0.000000 0.913635
Si Si2 0.315674 0.686301 0.615228
Si Si3 0.184925 0.184925 0.500000
Si Si4 0.813403 0.186238 0.268298
Si Si5 0.678586 0.687872 0.155754
Si Si6 0.000000 0.000000 0.000000
O O1 0.755558 0.836051 0.878814
O O2 0.824181 0.000000 0.967420
O O3 0.500000 0.000000 0.927614
O O4 0.500000 0.746433 0.605443
O O5 0.307256 0.500000 0.635767
O O6 0.222075 0.701791 0.554707
O O7 0.235624 0.793866 0.665137
O O8 0.000000 0.215466 0.479794
O O9 0.703418 0.291247 0.224658
O O10 0.000000 0.214781 0.250620
O O11 0.759797 0.000000 0.260658
O O12 0.500000 0.767184 0.138485
O O13 0.666055 0.500000 0.140820
#
# Coordination Sequence:
#
# PCOD8309963 Si02
#       6
#     4   8   4   8   8   1
#     4  10  24  46  68 100 142 180 221 281 328 373
#     4  11  24  40  58  83 115 154 203 255 313 384
#     4  11  24  41  60  82 110 147 198 255 316 380
#     4  11  23  37  58  90 127 162 207 262 321 385
#     4  10  21  39  65  95 130 174 219 266 328 392
#     4  12  28  44  76 104 140 180 240 266 316 404
#
# _framework density 21.382058000000001
#
# number of rings (size 3 to 8) (size 9 to 14) (size 15 to 20)
#    0.000    1.333    1.212    3.636    1.697   13.091 
#    0.000    0.000    0.000    0.000    0.000    0.000 
#    0.000    0.000    0.000    0.000    0.000    0.000 
#
# Total GULP energy -409041.056106 kJ/mol
# GULP energy per Si atom -12395.183518 kJ/mol
# Density = 2.133339 g / cm^3
# Si number density = 21.382058 Si / 1000 Ang^3
#
#
#
# Elastic Constant Matrix: (Units=GPa)
#
#
# Indices 1 2 3 4 5 6 
#
# 1 98.8498 35.8835 38.2927 0.0000 0.0000 0.0000
# 2 35.8835 98.8498 38.2927 0.0000 0.0000 0.0000
# 3 38.2927 38.2927 113.2046 0.0000 0.0000 0.0000
# 4 0.0000 0.0000 0.0000 33.6553 0.0000 0.0000
# 5 0.0000 0.0000 0.0000 0.0000 33.6553 0.0000
# 6 0.0000 0.0000 0.0000 0.0000 0.0000 23.0205
#
#
#
# Elastic Compliance Matrix: (Units=1/GPa)
#
#
# Indices 1 2 3 4 5 6 
#
# 1 0.012535 -0.003346 -0.003108 0.000000 0.000000 0.000000
# 2 -0.003346 0.012535 -0.003108 0.000000 0.000000 0.000000
# 3 -0.003108 -0.003108 0.010936 0.000000 0.000000 0.000000
# 4 0.000000 0.000000 0.000000 0.029713 0.000000 0.000000
# 5 0.000000 0.000000 0.000000 0.000000 0.029713 0.000000
# 6 0.000000 0.000000 0.000000 0.000000 0.000000 0.043440
#
#
# Mechanical properties :
#
#
# Convention : Reuss Voigt Hill
#
# Bulk Modulus (GPa) = 59.23770 59.53799 59.38784
# Shear Modulus (GPa) = 30.55768 31.29523 30.92646
#
# Velocity S-wave (km/s) = 3.78448 3.82988 3.80725
# Velocity P-wave (km/s) = 6.84550 6.88931 6.86744
#
# Compressibility (1/GPa) = 0.01688114
#
# Stress axis : x y z
#
# Youngs Moduli (GPa) = 79.77544 79.77544 91.43816
#
# Poissons Ratio (x) = 0.26695 0.28421
# Poissons Ratio (y) = 0.26695 0.28421
# Poissons Ratio (z) = 0.24796 0.24796
#
# Static dielectric constant tensor:
#      x y z
#    x 4.122180 0.000000 0.000000 
#    y 0.000000 4.122180 0.000000 
#    z 0.000000 0.000000 3.496680 
# 
# 
# High freq. dielectric constant tensor:
#      x y z
#    x 1.846850 0.000000 0.000000 
#    y 0.000000 1.846850 0.000000 
#    z 0.000000 0.000000 1.824270 
# 
# From -- ./inp_files/4721.got.cif
#   From: 2010.03.12/outbox.cif.g09.slc.cpg/sg115_3_cif.got.tgz:4721.got - 2010.04.14 02:11:21.
