data_PCOD8309013
_publ_section_title
;
Structure prediction by ZEFSAII (Michael W. Deem and Ramdas Pophale) SiO2 
 PCOD8309013
Probable space group: P -4 21 C
;
_chemical_formula_sum "Si O2"
_cell_formula_units_Z 60
_cell_length_a 17.128877
_cell_length_b 17.128877
_cell_length_c 8.688783
_cell_angle_alpha 90.000000
_cell_angle_beta 90.000000
_cell_angle_gamma 90.000000
_cell_volume 2549.275267
_symmetry_space_group_name_H-M "P -4 21 C"
_symmetry_group_IT_number 114
_symmetry_cell_setting 'tetragonal'
loop_
_space_group_symop_operation_xyz
x,y,z
y,-x,-z
-x,-y,z
-y,x,-z
1/2+x,1/2-y,1/2-z
1/2-x,1/2+y,1/2-z
1/2-y,1/2-x,1/2+z
1/2+y,1/2+x,1/2+z
loop_
_atom_site_type_symbol
_atom_site_label
_atom_site_fract_x
_atom_site_fract_y
_atom_site_fract_z
Si Si1 0.270585 0.994431 0.877427
Si Si2 0.584966 0.148461 0.649284
Si Si3 0.119530 0.737644 0.645218
Si Si4 0.398223 0.138659 0.140666
Si Si5 0.871085 0.765556 0.364158
Si Si6 0.002783 0.117794 0.953115
Si Si7 0.000000 0.500000 0.853741
Si Si8 0.201733 0.954407 0.335209
O O1 0.227227 0.928350 0.779384
O O2 0.309262 0.059261 0.769627
O O3 0.337249 0.959774 0.988321
O O4 0.200515 0.028338 0.982244
O O5 0.674176 0.136340 0.598570
O O6 0.580441 0.219059 0.766146
O O7 0.547571 0.070188 0.732596
O O8 0.098992 0.677331 0.782109
O O9 0.137492 0.692082 0.489648
O O10 0.195590 0.789105 0.683931
O O11 0.044434 0.790705 0.617227
O O12 0.454051 0.071829 0.062096
O O13 0.904068 0.813965 0.511657
O O14 0.047811 0.131526 0.789693
O O15 0.926191 0.063610 0.933154
#
# Coordination Sequence:
#
# PCOD8309013 Si02
#       8
#     8   8   8   8   8   8   4   8
#     4  11  24  43  68 102 136 185 233 288 356 429
#     4  11  24  42  71 103 140 191 234 295 365 435
#     4  12  28  46  66 108 145 191 241 304 368 439
#     4  12  27  44  71 102 144 187 238 294 368 437
#     4  12  26  43  70 103 145 188 242 300 366 437
#     4  10  24  45  73  99 131 181 236 290 354 422
#     4  12  22  46  72 102 144 184 248 292 362 452
#     4  11  24  47  67 102 141 187 234 302 361 433
#
# _framework density 23.536103000000001
#
# number of rings (size 3 to 8) (size 9 to 14) (size 15 to 20)
#    0.000    0.667    4.000    2.400    7.467    3.200 
#    0.000    0.000    0.000    1.600    0.000    0.000 
#    0.000    0.000    0.000    0.000    0.000    0.000 
#
# Total GULP energy -743517.821934 kJ/mol
# GULP energy per Si atom -12391.963699 kJ/mol
# Density = 2.348253 g / cm^3
# Si number density = 23.536103 Si / 1000 Ang^3
#
#
#
# Elastic Constant Matrix: (Units=GPa)
#
#
# Indices 1 2 3 4 5 6 
#
# 1 100.5769 45.4428 13.8867 0.0000 0.0000 0.0000
# 2 45.4428 100.5769 13.8867 0.0000 0.0000 0.0000
# 3 13.8867 13.8867 75.8235 0.0000 0.0000 0.0000
# 4 0.0000 0.0000 0.0000 31.5621 0.0000 0.0000
# 5 0.0000 0.0000 0.0000 0.0000 31.5621 0.0000
# 6 0.0000 0.0000 0.0000 0.0000 0.0000 52.1109
#
#
#
# Elastic Compliance Matrix: (Units=1/GPa)
#
#
# Indices 1 2 3 4 5 6 
#
# 1 0.012617 -0.005521 -0.001300 0.000000 0.000000 0.000000
# 2 -0.005521 0.012617 -0.001300 0.000000 0.000000 0.000000
# 3 -0.001300 -0.001300 0.013665 0.000000 0.000000 0.000000
# 4 0.000000 0.000000 0.000000 0.031684 0.000000 0.000000
# 5 0.000000 0.000000 0.000000 0.000000 0.031684 0.000000
# 6 0.000000 0.000000 0.000000 0.000000 0.000000 0.019190
#
#
# Mechanical properties :
#
#
# Convention : Reuss Voigt Hill
#
# Bulk Modulus (GPa) = 44.13538 47.04556 45.59047
# Shear Modulus (GPa) = 34.42405 36.63109 35.52757
#
# Velocity S-wave (km/s) = 3.82855 3.94938 3.88943
# Velocity P-wave (km/s) = 6.19166 6.38974 6.29148
#
# Compressibility (1/GPa) = 0.02265756
#
# Stress axis : x y z
#
# Youngs Moduli (GPa) = 79.26080 79.26080 73.18224
#
# Poissons Ratio (x) = 0.43760 0.09510
# Poissons Ratio (y) = 0.43760 0.09510
# Poissons Ratio (z) = 0.10300 0.10300
#
# Static dielectric constant tensor:
#      x y z
#    x 4.250710 0.000000 0.000000 
#    y 0.000000 4.250710 0.000000 
#    z 0.000000 0.000000 4.120480 
# 
# 
# High freq. dielectric constant tensor:
#      x y z
#    x 1.936220 0.000000 0.000000 
#    y 0.000000 1.936220 0.000000 
#    z 0.000000 0.000000 1.919190 
# 
# From -- ./inp_files/1018.got.cif
#   From: 2010.03.12/outbox.cif.g09.slc.cpg/sg114_1_cif.got.tgz:1018.got - 2010.04.14 02:08:34.
