data_PCOD8309680
_publ_section_title
;
Structure prediction by ZEFSAII (Michael W. Deem and Ramdas Pophale) SiO2 
 PCOD8309680
Probable space group: P -4 M 2
;
_chemical_formula_sum "Si O2"
_cell_formula_units_Z 48
_cell_length_a 8.948956
_cell_length_b 8.948956
_cell_length_c 31.143683
_cell_angle_alpha 90.000000
_cell_angle_beta 90.000000
_cell_angle_gamma 90.000000
_cell_volume 2494.104901
_symmetry_space_group_name_H-M "P -4 M 2"
_symmetry_group_IT_number 115
_symmetry_cell_setting 'tetragonal'
loop_
_space_group_symop_operation_xyz
x,y,z
y,-x,-z
-x,-y,z
-y,x,-z
y,x,-z
-y,-x,-z
-x,y,z
x,-y,z
loop_
_atom_site_type_symbol
_atom_site_label
_atom_site_fract_x
_atom_site_fract_y
_atom_site_fract_z
Si Si1 0.666797 0.321632 0.046461
Si Si2 0.826669 0.325095 0.460127
Si Si3 0.330088 0.823502 0.869320
Si Si4 0.675764 0.826825 0.698935
Si Si5 0.177392 0.832784 0.214511
Si Si6 0.672770 0.824222 0.380347
O O1 0.500000 0.259613 0.053490
O O2 0.666348 0.500000 0.045452
O O3 0.765880 0.260461 0.085818
O O4 0.731942 0.268059 0.000000
O O5 0.731245 0.268756 0.500000
O O6 0.799049 0.500000 0.453962
O O7 0.774593 0.242736 0.417505
O O8 0.000000 0.289386 0.468599
O O9 0.500000 0.767642 0.864071
O O10 0.237481 0.757003 0.829282
O O11 0.321585 0.000000 0.869866
O O12 0.500000 0.801849 0.696442
O O13 0.732729 0.772171 0.745289
O O14 0.755046 0.723001 0.664428
O O15 0.717647 0.000000 0.690555
O O16 0.000000 0.834837 0.211693
O O17 0.241068 0.000000 0.220052
O O18 0.500000 0.784599 0.389098
O O19 0.698787 0.000000 0.378731
#
# Coordination Sequence:
#
# PCOD8309680 Si02
#       6
#     8   8   8   8   8   8
#     4   8  14  26  44  64  87 118 155 193 237 293
#     4  11  24  41  62  89 118 149 188 230 271 318
#     4   9  16  27  45  68  91 117 155 202 245 288
#     4  10  20  35  57  83 107 135 177 224 266 313
#     4   9  17  30  49  72  99 132 167 204 251 306
#     4  11  24  40  58  83 115 149 184 222 267 320
#
# _framework density 19.245381999999999
#
# number of rings (size 3 to 8) (size 9 to 14) (size 15 to 20)
#    0.000    2.333    0.000    3.500    0.000    9.667 
#    0.000    1.667    0.000    4.500    0.000    0.000 
#    0.000    0.000    0.000    0.000    0.000    0.000 
#
# Total GULP energy -595177.624102 kJ/mol
# GULP energy per Si atom -12399.533835 kJ/mol
# Density = 1.920158 g / cm^3
# Si number density = 19.245382 Si / 1000 Ang^3
#
#
#
# Elastic Constant Matrix: (Units=GPa)
#
#
# Indices 1 2 3 4 5 6 
#
# 1 64.5907 28.2815 35.0926 0.0000 0.0000 0.0000
# 2 28.2815 64.5893 35.0971 0.0000 0.0000 0.0000
# 3 35.0926 35.0971 144.7112 0.0000 0.0000 0.0000
# 4 0.0000 0.0000 0.0000 35.5928 0.0000 0.0000
# 5 0.0000 0.0000 0.0000 0.0000 35.5928 0.0000
# 6 0.0000 0.0000 0.0000 0.0000 0.0000 21.1680
#
#
#
# Elastic Compliance Matrix: (Units=1/GPa)
#
#
# Indices 1 2 3 4 5 6 
#
# 1 0.020362 -0.007179 -0.003197 0.000000 0.000000 0.000000
# 2 -0.007179 0.020364 -0.003198 0.000000 0.000000 0.000000
# 3 -0.003197 -0.003198 0.008461 0.000000 0.000000 0.000000
# 4 0.000000 0.000000 0.000000 0.028096 0.000000 0.000000
# 5 0.000000 0.000000 0.000000 0.000000 0.028096 0.000000
# 6 0.000000 0.000000 0.000000 0.000000 0.000000 0.047241
#
#
# Mechanical properties :
#
#
# Convention : Reuss Voigt Hill
#
# Bulk Modulus (GPa) = 45.37242 52.31483 48.84362
# Shear Modulus (GPa) = 26.72186 30.16541 28.44364
#
# Velocity S-wave (km/s) = 3.73028 3.96335 3.84858
# Velocity P-wave (km/s) = 6.49463 6.94163 6.72185
#
# Compressibility (1/GPa) = 0.02203982
#
# Stress axis : x y z
#
# Youngs Moduli (GPa) = 49.11056 49.10744 118.18753
#
# Poissons Ratio (x) = 0.35253 0.37782
# Poissons Ratio (y) = 0.35256 0.37795
# Poissons Ratio (z) = 0.15699 0.15704
#
# Static dielectric constant tensor:
#      x y z
#    x 3.442490 0.000000 0.000000 
#    y 0.000000 3.442490 0.000000 
#    z 0.000000 0.000000 0.330170 
# 
# 
# High freq. dielectric constant tensor:
#      x y z
#    x 1.731200 0.000000 0.000000 
#    y 0.000000 1.731200 0.000000 
#    z 0.000000 0.000000 1.770670 
# 
# From -- ./inp_files/6005.got.cif
#   From: 2010.03.12/outbox.cif.g09.slc.cpg/sg115_4_cif.got.tgz:6005.got - 2010.04.14 02:11:21.
