data_PCOD8309625
_publ_section_title
;
Structure prediction by ZEFSAII (Michael W. Deem and Ramdas Pophale) SiO2 
 PCOD8309625
Probable space group: P -4 M 2
;
_chemical_formula_sum "Si O2"
_cell_formula_units_Z 40
_cell_length_a 8.058252
_cell_length_b 8.058252
_cell_length_c 29.256594
_cell_angle_alpha 90.000000
_cell_angle_beta 90.000000
_cell_angle_gamma 90.000000
_cell_volume 1899.789374
_symmetry_space_group_name_H-M "P -4 M 2"
_symmetry_group_IT_number 115
_symmetry_cell_setting 'tetragonal'
loop_
_space_group_symop_operation_xyz
x,y,z
y,-x,-z
-x,-y,z
-y,x,-z
y,x,-z
-y,-x,-z
-x,y,z
x,-y,z
loop_
_atom_site_type_symbol
_atom_site_label
_atom_site_fract_x
_atom_site_fract_y
_atom_site_fract_z
Si Si1 0.817033 0.697482 0.734323
Si Si2 0.316018 0.190224 0.545983
Si Si3 0.302561 0.500000 0.208712
Si Si4 0.500000 0.805889 0.894409
Si Si5 0.815816 0.195101 0.947858
Si Si6 0.307160 0.315153 0.359810
O O1 0.815036 0.500000 0.735079
O O2 0.666781 0.763619 0.766052
O O3 0.789656 0.766169 0.682562
O O4 0.000000 0.760881 0.750831
O O5 0.212176 0.212176 0.500000
O O6 0.500000 0.265524 0.537932
O O7 0.230689 0.274646 0.590569
O O8 0.325533 0.000000 0.558155
O O9 0.500000 0.500000 0.206483
O O10 0.226323 0.500000 0.158923
O O11 0.330901 0.727863 0.916236
O O12 0.500000 0.000000 0.905250
O O13 0.000000 0.271271 0.936358
O O14 0.828119 0.000000 0.940030
O O15 0.766336 0.233665 0.000000
O O16 0.500000 0.330326 0.350962
O O17 0.227140 0.500000 0.360034
#
# Coordination Sequence:
#
# PCOD8309625 Si02
#       6
#     8   8   4   4   8   8
#     4   9  17  31  54  78 100 135 179 222 272 330
#     4  10  21  35  51  74 105 140 173 211 264 322
#     4  10  20  36  52  74 112 140 172 224 278 319
#     4  10  20  34  54  80 108 146 186 224 274 331
#     4   8  15  31  54  77 105 143 184 227 273 323
#     4   9  16  30  53  76  96 125 170 221 268 317
#
# _framework density 21.054967000000001
#
# number of rings (size 3 to 8) (size 9 to 14) (size 15 to 20)
#    0.000    2.800    1.000    1.200    0.000    2.800 
#    1.800    3.000    0.000    1.200    0.000    0.000 
#    0.000    0.000    0.000    0.000    0.000    0.000 
#
# Total GULP energy -495587.151985 kJ/mol
# GULP energy per Si atom -12389.678800 kJ/mol
# Density = 2.100704 g / cm^3
# Si number density = 21.054967 Si / 1000 Ang^3
#
#
#
# Elastic Constant Matrix: (Units=GPa)
#
#
# Indices 1 2 3 4 5 6 
#
# 1 80.9931 20.5589 47.7974 0.0000 0.0000 0.0000
# 2 20.5589 80.9929 47.7973 0.0000 0.0000 0.0000
# 3 47.7974 47.7973 157.1361 0.0000 0.0000 0.0000
# 4 0.0000 0.0000 0.0000 17.3391 0.0000 0.0000
# 5 0.0000 0.0000 0.0000 0.0000 17.3391 0.0000
# 6 0.0000 0.0000 0.0000 0.0000 0.0000 8.4504
#
#
#
# Elastic Compliance Matrix: (Units=1/GPa)
#
#
# Indices 1 2 3 4 5 6 
#
# 1 0.015172 -0.001374 -0.004197 0.000000 0.000000 0.000000
# 2 -0.001374 0.015173 -0.004197 0.000000 0.000000 0.000000
# 3 -0.004197 -0.004197 0.008917 0.000000 0.000000 0.000000
# 4 0.000000 0.000000 0.000000 0.057673 0.000000 0.000000
# 5 0.000000 0.000000 0.000000 0.000000 0.057673 0.000000
# 6 0.000000 0.000000 0.000000 0.000000 0.000000 0.118337
#
#
# Mechanical properties :
#
#
# Convention : Reuss Voigt Hill
#
# Bulk Modulus (GPa) = 50.69695 61.26993 55.98344
# Shear Modulus (GPa) = 16.71915 22.15695 19.43805
#
# Velocity S-wave (km/s) = 2.82098 3.24750 3.04173
# Velocity P-wave (km/s) = 5.89417 6.57456 6.24364
#
# Compressibility (1/GPa) = 0.01972505
#
# Stress axis : x y z
#
# Youngs Moduli (GPa) = 65.90884 65.90871 112.14258
#
# Poissons Ratio (x) = 0.09059 0.47067
# Poissons Ratio (y) = 0.09059 0.47067
# Poissons Ratio (z) = 0.27662 0.27662
#
# Static dielectric constant tensor:
#      x y z
#    x 3.837540 0.000000 0.000000 
#    y 0.000000 3.837540 0.000000 
#    z 0.000000 0.000000 3.786610 
# 
# 
# High freq. dielectric constant tensor:
#      x y z
#    x 1.799110 0.000000 0.000000 
#    y 0.000000 1.799110 0.000000 
#    z 0.000000 0.000000 1.823820 
# 
# From -- ./inp_files/5540.got.cif
#   From: 2010.03.12/outbox.cif.g09.slc.cpg/sg115_3_cif.got.tgz:5540.got - 2010.04.14 02:11:21.
