data_PCOD8309378
_publ_section_title
;
Structure prediction by ZEFSAII (Michael W. Deem and Ramdas Pophale) SiO2 
 PCOD8309378
Probable space group: P -4 M 2
;
_chemical_formula_sum "Si O2"
_cell_formula_units_Z 44
_cell_length_a 9.409139
_cell_length_b 9.409139
_cell_length_c 27.758830
_cell_angle_alpha 90.000000
_cell_angle_beta 90.000000
_cell_angle_gamma 90.000000
_cell_volume 2457.541871
_symmetry_space_group_name_H-M "P -4 M 2"
_symmetry_group_IT_number 115
_symmetry_cell_setting 'tetragonal'
loop_
_space_group_symop_operation_xyz
x,y,z
y,-x,-z
-x,-y,z
-y,x,-z
y,x,-z
-y,-x,-z
-x,y,z
x,-y,z
loop_
_atom_site_type_symbol
_atom_site_label
_atom_site_fract_x
_atom_site_fract_y
_atom_site_fract_z
Si Si1 0.667973 0.836723 0.857341
Si Si2 0.838835 0.664604 0.669425
Si Si3 0.833629 0.664236 0.406532
Si Si4 0.337728 0.836228 0.218945
Si Si5 0.835310 0.164691 0.500000
Si Si6 0.330860 0.658348 0.947265
O O1 0.500000 0.817695 0.852708
O O2 0.737697 0.767163 0.810823
O O3 0.726947 0.762064 0.905783
O O4 0.713296 0.000000 0.859866
O O5 0.816958 0.500000 0.656942
O O6 0.727805 0.755663 0.639479
O O7 0.807365 0.693579 0.725228
O O8 0.000000 0.710680 0.656834
O O9 0.792630 0.500000 0.411963
O O10 0.782751 0.744977 0.454474
O O11 0.000000 0.686427 0.398383
O O12 0.500000 0.795837 0.206581
O O13 0.308910 0.000000 0.206138
O O14 0.000000 0.193396 0.511669
O O15 0.500000 0.652239 0.946850
O O16 0.269437 0.500000 0.937811
O O17 0.283362 0.716639 0.000000
#
# Coordination Sequence:
#
# PCOD8309378 Si02
#       6
#     8   8   8   8   4   8
#     4  10  20  32  48  74 106 135 163 200 249 301
#     4   9  19  36  56  76  99 130 169 211 252 296
#     4  10  21  35  52  78 109 136 165 205 251 298
#     4   9  19  36  55  74  97 129 171 212 249 294
#     4   9  18  34  54  73  98 138 182 213 240 285
#     4   8  14  27  48  70  92 125 170 212 246 286
#
# _framework density 17.904067999999999
#
# number of rings (size 3 to 8) (size 9 to 14) (size 15 to 20)
#    0.000    2.818    0.000    2.727    0.000    5.091 
#    0.000    8.182    0.000    3.273    0.000    0.000 
#    0.000    0.000    0.000    0.000    0.000    0.000 
#
# Total GULP energy -545608.711668 kJ/mol
# GULP energy per Si atom -12400.197992 kJ/mol
# Density = 1.786332 g / cm^3
# Si number density = 17.904068 Si / 1000 Ang^3
#
#
#
# Elastic Constant Matrix: (Units=GPa)
#
#
# Indices 1 2 3 4 5 6 
#
# 1 81.0508 48.0896 64.3229 0.0000 0.0000 0.0000
# 2 48.0896 81.0501 64.3229 0.0000 0.0000 0.0000
# 3 64.3229 64.3229 120.3643 0.0000 0.0000 0.0000
# 4 0.0000 0.0000 0.0000 22.0012 0.0000 0.0000
# 5 0.0000 0.0000 0.0000 0.0000 21.9997 0.0000
# 6 0.0000 0.0000 0.0000 0.0000 0.0000 27.7507
#
#
#
# Elastic Compliance Matrix: (Units=1/GPa)
#
#
# Indices 1 2 3 4 5 6 
#
# 1 0.023449 -0.006890 -0.008849 0.000000 0.000000 0.000000
# 2 -0.006890 0.023449 -0.008849 0.000000 0.000000 0.000000
# 3 -0.008849 -0.008849 0.017766 0.000000 0.000000 0.000000
# 4 0.000000 0.000000 0.000000 0.045452 0.000000 0.000000
# 5 0.000000 0.000000 0.000000 0.000000 0.045455 0.000000
# 6 0.000000 0.000000 0.000000 0.000000 0.000000 0.036035
#
#
# Mechanical properties :
#
#
# Convention : Reuss Voigt Hill
#
# Bulk Modulus (GPa) = 64.56895 70.65956 67.61425
# Shear Modulus (GPa) = 20.32978 21.39896 20.86437
#
# Velocity S-wave (km/s) = 3.37335 3.46092 3.41741
# Velocity P-wave (km/s) = 7.16343 7.45130 7.30879
#
# Compressibility (1/GPa) = 0.01548732
#
# Stress axis : x y z
#
# Youngs Moduli (GPa) = 42.64640 42.64577 56.28760
#
# Poissons Ratio (x) = 0.29384 0.49808
# Poissons Ratio (y) = 0.29384 0.49809
# Poissons Ratio (z) = 0.37737 0.37737
#
# Static dielectric constant tensor:
#      x y z
#    x 3.199120 0.000000 0.000000 
#    y 0.000000 3.199130 0.000000 
#    z 0.000000 0.000000 3.416100 
# 
# 
# High freq. dielectric constant tensor:
#      x y z
#    x 1.680060 0.000000 0.000000 
#    y 0.000000 1.680060 0.000000 
#    z 0.000000 0.000000 1.703830 
# 
# From -- ./inp_files/5727.got.cif
#   From: 2010.03.12/outbox.cif.g09.slc.cpg/sg115_3_cif.got.tgz:5727.got - 2010.04.14 02:11:21.
