data_PCOD8309769
_publ_section_title
;
Structure prediction by ZEFSAII (Michael W. Deem and Ramdas Pophale) SiO2 
 PCOD8309769
Probable space group: P -4 M 2
;
_chemical_formula_sum "Si O2"
_cell_formula_units_Z 40
_cell_length_a 9.339226
_cell_length_b 9.339226
_cell_length_c 25.328973
_cell_angle_alpha 90.000000
_cell_angle_beta 90.000000
_cell_angle_gamma 90.000000
_cell_volume 2209.221958
_symmetry_space_group_name_H-M "P -4 M 2"
_symmetry_group_IT_number 115
_symmetry_cell_setting 'tetragonal'
loop_
_space_group_symop_operation_xyz
x,y,z
y,-x,-z
-x,-y,z
-y,x,-z
y,x,-z
-y,-x,-z
-x,y,z
x,-y,z
loop_
_atom_site_type_symbol
_atom_site_label
_atom_site_fract_x
_atom_site_fract_y
_atom_site_fract_z
Si Si1 0.833763 0.164157 0.148711
Si Si2 0.334567 0.332240 0.646304
Si Si3 0.165361 0.333371 0.748395
Si Si4 0.165742 0.331703 0.044575
Si Si5 0.162479 0.833720 0.560850
O O1 0.748146 0.218981 0.199615
O O2 0.787740 0.262675 0.099947
O O3 0.000000 0.180851 0.161788
O O4 0.794247 0.000000 0.134995
O O5 0.500000 0.292434 0.651800
O O6 0.309095 0.500000 0.639086
O O7 0.255247 0.276191 0.698737
O O8 0.272307 0.256367 0.595079
O O9 0.192663 0.500000 0.758278
O O10 0.000000 0.299286 0.736701
O O11 0.194046 0.500000 0.047460
O O12 0.000000 0.296717 0.032104
O O13 0.264260 0.264260 0.000000
O O14 0.197671 0.802330 0.500000
O O15 0.000000 0.786679 0.573801
O O16 0.183069 0.000000 0.573754
#
# Coordination Sequence:
#
# PCOD8309769 Si02
#       5
#     8   8   8   8   8
#     4   9  18  33  53  76 101 131 169 212 256 301
#     4  10  21  35  51  75 107 140 173 209 252 304
#     4   9  18  33  52  73  99 134 174 211 249 298
#     4  10  21  36  54  77 105 137 173 212 255 305
#     4   9  19  36  56  77 101 131 170 215 260 306
#
# _framework density 18.105920999999999
#
# number of rings (size 3 to 8) (size 9 to 14) (size 15 to 20)
#    0.000    2.600    0.000    1.800    0.000    6.000 
#    0.000    7.000    0.000    0.000    0.000    0.000 
#    0.000    0.000    0.000    0.000    0.000    0.000 
#
# Total GULP energy -496131.194591 kJ/mol
# GULP energy per Si atom -12403.279865 kJ/mol
# Density = 1.806471 g / cm^3
# Si number density = 18.105921 Si / 1000 Ang^3
#
#
#
# Elastic Constant Matrix: (Units=GPa)
#
#
# Indices 1 2 3 4 5 6 
#
# 1 79.2568 51.5339 75.7973 0.0000 0.0000 0.0000
# 2 51.5339 79.2569 75.7973 0.0000 0.0000 0.0000
# 3 75.7973 75.7973 149.9316 0.0000 0.0000 0.0000
# 4 0.0000 0.0000 0.0000 5.1872 0.0000 0.0000
# 5 0.0000 0.0000 0.0000 0.0000 5.1875 0.0000
# 6 0.0000 0.0000 0.0000 0.0000 0.0000 26.6953
#
#
#
# Elastic Compliance Matrix: (Units=1/GPa)
#
#
# Indices 1 2 3 4 5 6 
#
# 1 0.027269 -0.008803 -0.009336 0.000000 0.000000 0.000000
# 2 -0.008803 0.027269 -0.009336 0.000000 0.000000 0.000000
# 3 -0.009336 -0.009336 0.016109 0.000000 0.000000 0.000000
# 4 0.000000 0.000000 0.000000 0.192784 0.000000 0.000000
# 5 0.000000 0.000000 0.000000 0.000000 0.192770 0.000000
# 6 0.000000 0.000000 0.000000 0.000000 0.000000 0.037460
#
#
# Mechanical properties :
#
#
# Convention : Reuss Voigt Hill
#
# Bulk Modulus (GPa) = 63.69765 79.41137 71.55451
# Shear Modulus (GPa) = 9.02786 14.43510 11.73148
#
# Velocity S-wave (km/s) = 2.23539 2.82664 2.54822
# Velocity P-wave (km/s) = 6.47453 7.38971 6.94720
#
# Compressibility (1/GPa) = 0.01569917
#
# Stress axis : x y z
#
# Youngs Moduli (GPa) = 36.67189 36.67199 62.07777
#
# Poissons Ratio (x) = 0.32281 0.57953
# Poissons Ratio (y) = 0.32280 0.57953
# Poissons Ratio (z) = 0.34235 0.34235
#
# Static dielectric constant tensor:
#      x y z
#    x 3.291930 0.000000 0.000000 
#    y 0.000000 3.291940 0.000000 
#    z 0.000000 0.000000 3.405130 
# 
# 
# High freq. dielectric constant tensor:
#      x y z
#    x 1.696970 0.000000 0.000000 
#    y 0.000000 1.696970 0.000000 
#    z 0.000000 0.000000 1.710150 
# 
# From -- ./inp_files/5099.got.cif
#   From: 2010.03.12/outbox.cif.g09.slc.cpg/sg115_3_cif.got.tgz:5099.got - 2010.04.14 02:11:21.
