data_PCOD8309201
_publ_section_title
;
Structure prediction by ZEFSAII (Michael W. Deem and Ramdas Pophale) SiO2 
 PCOD8309201
Probable space group: P -4 M 2
;
_chemical_formula_sum "Si O2"
_cell_formula_units_Z 36
_cell_length_a 13.661583
_cell_length_b 13.661583
_cell_length_c 10.182632
_cell_angle_alpha 90.000000
_cell_angle_beta 90.000000
_cell_angle_gamma 90.000000
_cell_volume 1900.474727
_symmetry_space_group_name_H-M "P -4 M 2"
_symmetry_group_IT_number 115
_symmetry_cell_setting 'tetragonal'
loop_
_space_group_symop_operation_xyz
x,y,z
y,-x,-z
-x,-y,z
-y,x,-z
y,x,-z
-y,-x,-z
-x,y,z
x,-y,z
loop_
_atom_site_type_symbol
_atom_site_label
_atom_site_fract_x
_atom_site_fract_y
_atom_site_fract_z
Si Si1 0.116385 0.609600 0.433445
Si Si2 0.383547 0.109559 0.277831
Si Si3 0.612271 0.233306 0.035733
Si Si4 0.708906 0.885665 0.823949
Si Si5 0.887727 0.112274 0.000000
O O1 0.157435 0.500000 0.403622
O O2 0.150427 0.646155 0.577896
O O3 0.154302 0.687049 0.323452
O O4 0.000000 0.604250 0.436632
O O5 0.500000 0.103789 0.266671
O O6 0.343057 0.185138 0.168746
O O7 0.340635 0.000000 0.252841
O O8 0.500000 0.261195 0.053567
O O9 0.667805 0.332196 0.000000
O O10 0.625895 0.156041 0.919412
O O11 0.818209 0.859384 0.876414
O O12 0.692740 0.000000 0.823533
O O13 0.000000 0.129152 0.955485
#
# Coordination Sequence:
#
# PCOD8309201 Si02
#       5
#     8   8   8   8   4
#     4   8  14  26  48  80 111 134 161 210 270 311
#     4   8  15  30  52  78 107 134 165 213 270 317
#     4  11  22  35  51  75 104 137 176 215 262 313
#     4  10  18  31  54  81 106 133 172 217 258 302
#     4   9  18  32  50  76 113 148 174 204 249 312
#
# _framework density 18.942634999999999
#
# number of rings (size 3 to 8) (size 9 to 14) (size 15 to 20)
#    0.000    2.778    1.111    2.667    0.000    2.444 
#    0.000    1.111    0.000    0.000    0.000    3.111 
#    0.000   16.000    0.000    0.000    0.000    0.000 
#
# Total GULP energy -446113.393433 kJ/mol
# GULP energy per Si atom -12392.038706 kJ/mol
# Density = 1.889952 g / cm^3
# Si number density = 18.942635 Si / 1000 Ang^3
#
#
#
# Elastic Constant Matrix: (Units=GPa)
#
#
# Indices 1 2 3 4 5 6 
#
# 1 61.4947 43.9266 56.3872 0.0000 0.0000 0.0000
# 2 43.9266 61.4934 56.3860 0.0000 0.0000 0.0000
# 3 56.3872 56.3860 171.0479 0.0000 0.0000 0.0000
# 4 0.0000 0.0000 0.0000 20.0352 0.0000 0.0000
# 5 0.0000 0.0000 0.0000 0.0000 20.0327 0.0000
# 6 0.0000 0.0000 0.0000 0.0000 0.0000 23.8827
#
#
#
# Elastic Compliance Matrix: (Units=1/GPa)
#
#
# Indices 1 2 3 4 5 6 
#
# 1 0.035788 -0.021135 -0.004831 0.000000 0.000000 0.000000
# 2 -0.021135 0.035788 -0.004830 0.000000 0.000000 0.000000
# 3 -0.004831 -0.004830 0.009031 0.000000 0.000000 0.000000
# 4 0.000000 0.000000 0.000000 0.049912 0.000000 0.000000
# 5 0.000000 0.000000 0.000000 0.000000 0.049918 0.000000
# 6 0.000000 0.000000 0.000000 0.000000 0.000000 0.041871
#
#
# Mechanical properties :
#
#
# Convention : Reuss Voigt Hill
#
# Bulk Modulus (GPa) = 52.58852 67.49283 60.04068
# Shear Modulus (GPa) = 17.22712 21.94587 19.58649
#
# Velocity S-wave (km/s) = 3.01896 3.40743 3.21906
# Velocity P-wave (km/s) = 6.32253 7.15460 6.75139
#
# Compressibility (1/GPa) = 0.01901556
#
# Stress axis : x y z
#
# Youngs Moduli (GPa) = 27.94228 27.94196 110.72857
#
# Poissons Ratio (x) = 0.59056 0.53489
# Poissons Ratio (y) = 0.59056 0.53486
# Poissons Ratio (z) = 0.13498 0.13497
#
# Static dielectric constant tensor:
#      x y z
#    x 3.262450 0.000000 0.000000 
#    y 0.000000 3.262460 0.000000 
#    z 0.000000 0.000000 4.038600 
# 
# 
# High freq. dielectric constant tensor:
#      x y z
#    x 1.711870 0.000000 0.000000 
#    y 0.000000 1.711870 0.000000 
#    z 0.000000 0.000000 1.744310 
# 
# From -- ./inp_files/1507.got.cif
#   From: 2010.03.12/outbox.cif.g09.slc.cpg/sg115_1_cif.got.tgz:1507.got - 2010.04.14 02:11:21.
