data_PCOD8309063
_publ_section_title
;
Structure prediction by ZEFSAII (Michael W. Deem and Ramdas Pophale) SiO2 
 PCOD8309063
Probable space group: P -4 21 C
;
_chemical_formula_sum "Si O2"
_cell_formula_units_Z 32
_cell_length_a 9.675138
_cell_length_b 9.675138
_cell_length_c 17.333211
_cell_angle_alpha 90.000000
_cell_angle_beta 90.000000
_cell_angle_gamma 90.000000
_cell_volume 1622.532334
_symmetry_space_group_name_H-M "P -4 21 C"
_symmetry_group_IT_number 114
_symmetry_cell_setting 'tetragonal'
loop_
_space_group_symop_operation_xyz
x,y,z
y,-x,-z
-x,-y,z
-y,x,-z
1/2+x,1/2-y,1/2-z
1/2-x,1/2+y,1/2-z
1/2-y,1/2-x,1/2+z
1/2+y,1/2+x,1/2+z
loop_
_atom_site_type_symbol
_atom_site_label
_atom_site_fract_x
_atom_site_fract_y
_atom_site_fract_z
Si Si1 0.847726 0.788456 0.585343
Si Si2 0.000855 0.661366 0.150070
Si Si3 0.003009 0.333742 0.323533
Si Si4 0.167423 0.786363 0.589422
O O1 0.788633 0.640760 0.611846
O O2 0.848234 0.797785 0.493425
O O3 0.006386 0.815139 0.612046
O O4 0.740236 0.895341 0.620273
O O5 0.123787 0.702844 0.092276
O O6 0.000000 0.500000 0.160720
O O7 0.023739 0.718869 0.236486
O O8 0.150346 0.271691 0.347822
O O9 0.000000 0.500000 0.334191
#
# Coordination Sequence:
#
# PCOD8309063 Si02
#       4
#     8   8   8   8
#     4  11  22  38  65  91 121 159 208 248 299 359
#     4   9  22  41  61  89 124 159 199 258 304 351
#     4  11  23  39  63  91 122 161 203 246 304 361
#     4  11  22  38  65  91 121 159 208 248 299 359
#
# _framework density 19.722256999999999
#
# number of rings (size 3 to 8) (size 9 to 14) (size 15 to 20)
#    0.000    1.500    2.500    2.250    3.500    0.000 
#    0.000    3.750    0.000    0.000    0.000    0.000 
#    0.000    0.000    0.000    0.000    0.000    0.000 
#
# Total GULP energy -396690.013711 kJ/mol
# GULP energy per Si atom -12396.562928 kJ/mol
# Density = 1.967737 g / cm^3
# Si number density = 19.722257 Si / 1000 Ang^3
#
#
#
# Elastic Constant Matrix: (Units=GPa)
#
#
# Indices 1 2 3 4 5 6 
#
# 1 97.0178 32.2666 27.8687 0.0000 0.0000 0.0000
# 2 32.2666 97.0178 27.8687 0.0000 0.0000 0.0000
# 3 27.8687 27.8687 70.6926 0.0000 0.0000 0.0000
# 4 0.0000 0.0000 0.0000 21.6576 0.0000 0.0000
# 5 0.0000 0.0000 0.0000 0.0000 21.6576 0.0000
# 6 0.0000 0.0000 0.0000 0.0000 0.0000 22.3946
#
#
#
# Elastic Compliance Matrix: (Units=1/GPa)
#
#
# Indices 1 2 3 4 5 6 
#
# 1 0.012381 -0.003063 -0.003674 0.000000 0.000000 0.000000
# 2 -0.003063 0.012381 -0.003674 0.000000 0.000000 0.000000
# 3 -0.003674 -0.003674 0.017042 0.000000 0.000000 0.000000
# 4 0.000000 0.000000 0.000000 0.046173 0.000000 0.000000
# 5 0.000000 0.000000 0.000000 0.000000 0.046173 0.000000
# 6 0.000000 0.000000 0.000000 0.000000 0.000000 0.044654
#
#
# Mechanical properties :
#
#
# Convention : Reuss Voigt Hill
#
# Bulk Modulus (GPa) = 47.65310 48.97071 48.31190
# Shear Modulus (GPa) = 24.19912 24.92359 24.56136
#
# Velocity S-wave (km/s) = 3.50665 3.55875 3.53280
# Velocity P-wave (km/s) = 6.37260 6.46300 6.41796
#
# Compressibility (1/GPa) = 0.02098500
#
# Stress axis : x y z
#
# Youngs Moduli (GPa) = 80.76765 80.76765 58.67772
#
# Poissons Ratio (x) = 0.24735 0.21556
# Poissons Ratio (y) = 0.24735 0.21556
# Poissons Ratio (z) = 0.29671 0.29671
#
# Static dielectric constant tensor:
#      x y z
#    x 3.975140 0.000000 0.000000 
#    y 0.000000 3.975140 0.000000 
#    z 0.000000 0.000000 3.708900 
# 
# 
# High freq. dielectric constant tensor:
#      x y z
#    x 1.766930 0.000000 0.000000 
#    y 0.000000 1.766930 0.000000 
#    z 0.000000 0.000000 1.775370 
# 
# From -- ./inp_files/2862.got.cif
#   From: 2010.03.12/outbox.cif.g09.slc.cpg/sg114_2_cif.got.tgz:2862.got - 2010.04.14 02:08:34.
