data_PCOD8309031
_publ_section_title
;
Structure prediction by ZEFSAII (Michael W. Deem and Ramdas Pophale) SiO2 
 PCOD8309031
Probable space group: P -4 21 C
;
_chemical_formula_sum "Si O2"
_cell_formula_units_Z 24
_cell_length_a 8.904285
_cell_length_b 8.904285
_cell_length_c 14.043602
_cell_angle_alpha 90.000000
_cell_angle_beta 90.000000
_cell_angle_gamma 90.000000
_cell_volume 1113.465120
_symmetry_space_group_name_H-M "P -4 21 C"
_symmetry_group_IT_number 114
_symmetry_cell_setting 'tetragonal'
loop_
_space_group_symop_operation_xyz
x,y,z
y,-x,-z
-x,-y,z
-y,x,-z
1/2+x,1/2-y,1/2-z
1/2-x,1/2+y,1/2-z
1/2-y,1/2-x,1/2+z
1/2+y,1/2+x,1/2+z
loop_
_atom_site_type_symbol
_atom_site_label
_atom_site_fract_x
_atom_site_fract_y
_atom_site_fract_z
Si Si1 0.321213 0.298135 0.360085
Si Si2 0.512711 0.331149 0.827087
Si Si3 0.090471 0.349028 0.042732
O O1 0.332198 0.419626 0.277857
O O2 0.488938 0.265382 0.396831
O O3 0.221106 0.367407 0.442682
O O4 0.245883 0.148578 0.319173
O O5 0.500000 0.500000 0.866944
O O6 0.620260 0.242246 0.899222
O O7 0.000000 0.500000 0.021137
#
# Coordination Sequence:
#
# PCOD8309031 Si02
#       3
#     8   8   8
#     4  11  26  45  73 101 147 185 243 290 366 426
#     4  11  26  45  71 106 139 190 237 298 355 429
#     4  10  26  45  69 108 141 188 238 303 361 433
#
# _framework density 21.554335999999999
#
# number of rings (size 3 to 8) (size 9 to 14) (size 15 to 20)
#    0.000    1.333    0.000    2.000   18.667    4.000 
#    0.000    0.000    0.000    0.000    0.000    0.000 
#    0.000    0.000    0.000    0.000    0.000    0.000 
#
# Total GULP energy -297795.476298 kJ/mol
# GULP energy per Si atom -12408.144846 kJ/mol
# Density = 2.150528 g / cm^3
# Si number density = 21.554336 Si / 1000 Ang^3
#
#
#
# Elastic Constant Matrix: (Units=GPa)
#
#
# Indices 1 2 3 4 5 6 
#
# 1 109.7020 23.9785 55.2141 0.0000 0.0000 0.0000
# 2 23.9785 109.7020 55.2141 0.0000 0.0000 0.0000
# 3 55.2141 55.2141 57.8989 0.0000 0.0000 0.0000
# 4 0.0000 0.0000 0.0000 32.9048 0.0000 0.0000
# 5 0.0000 0.0000 0.0000 0.0000 32.9048 0.0000
# 6 0.0000 0.0000 0.0000 0.0000 0.0000 25.9337
#
#
#
# Elastic Compliance Matrix: (Units=1/GPa)
#
#
# Indices 1 2 3 4 5 6 
#
# 1 0.023455 0.011790 -0.033610 0.000000 0.000000 0.000000
# 2 0.011790 0.023455 -0.033610 0.000000 0.000000 0.000000
# 3 -0.033610 -0.033610 0.081375 0.000000 0.000000 0.000000
# 4 0.000000 0.000000 0.000000 0.030391 0.000000 0.000000
# 5 0.000000 0.000000 0.000000 0.000000 0.030391 0.000000
# 6 0.000000 0.000000 0.000000 0.000000 0.000000 0.038560
#
#
# Mechanical properties :
#
#
# Convention : Reuss Voigt Hill
#
# Bulk Modulus (GPa) = 57.39520 60.67958 59.03739
# Shear Modulus (GPa) = 14.52239 27.87507 21.19873
#
# Velocity S-wave (km/s) = 2.59850 3.60008 3.13949
# Velocity P-wave (km/s) = 5.97402 6.74491 6.37113
#
# Compressibility (1/GPa) = 0.01742306
#
# Stress axis : x y z
#
# Youngs Moduli (GPa) = 42.63480 42.63480 12.28879
#
# Poissons Ratio (x) = -0.50265 0.41303
# Poissons Ratio (y) = -0.50265 0.41303
# Poissons Ratio (z) = 1.43297 1.43297
#
# Static dielectric constant tensor:
#      x y z
#    x 3.897560 0.000000 0.000000 
#    y 0.000000 3.897560 0.000000 
#    z 0.000000 0.000000 3.768770 
# 
# 
# High freq. dielectric constant tensor:
#      x y z
#    x 1.862420 0.000000 0.000000 
#    y 0.000000 1.862420 0.000000 
#    z 0.000000 0.000000 1.853480 
# 
# From -- ./inp_files/1873.got.cif
#   From: 2010.03.12/outbox.cif.g09.slc.cpg/sg114_1_cif.got.tgz:1873.got - 2010.04.14 02:08:34.
