data_PCOD8309511
_publ_section_title
;
Structure prediction by ZEFSAII (Michael W. Deem and Ramdas Pophale) SiO2 
 PCOD8309511
Probable space group: P -4 M 2
;
_chemical_formula_sum "Si O2"
_cell_formula_units_Z 40
_cell_length_a 9.220771
_cell_length_b 9.220771
_cell_length_c 25.576031
_cell_angle_alpha 90.000000
_cell_angle_beta 90.000000
_cell_angle_gamma 90.000000
_cell_volume 2174.541109
_symmetry_space_group_name_H-M "P -4 M 2"
_symmetry_group_IT_number 115
_symmetry_cell_setting 'tetragonal'
loop_
_space_group_symop_operation_xyz
x,y,z
y,-x,-z
-x,-y,z
-y,x,-z
y,x,-z
-y,-x,-z
-x,y,z
x,-y,z
loop_
_atom_site_type_symbol
_atom_site_label
_atom_site_fract_x
_atom_site_fract_y
_atom_site_fract_z
Si Si1 0.172293 0.838682 0.556922
Si Si2 0.336416 0.330384 0.940208
Si Si3 0.168433 0.670084 0.657800
Si Si4 0.168444 0.669918 0.250682
Si Si5 0.169415 0.833335 0.146975
O O1 0.222501 0.777500 0.500000
O O2 0.225797 0.732110 0.602535
O O3 0.000000 0.847141 0.555635
O O4 0.235943 0.000000 0.567505
O O5 0.500000 0.276654 0.928161
O O6 0.324583 0.500000 0.929053
O O7 0.222247 0.248412 0.904488
O O8 0.295865 0.295865 0.000000
O O9 0.194387 0.500000 0.657487
O O10 0.263316 0.739436 0.702927
O O11 0.000000 0.709851 0.666852
O O12 0.199064 0.500000 0.247000
O O13 0.222023 0.742056 0.196919
O O14 0.000000 0.704527 0.260893
O O15 0.000000 0.812397 0.137644
O O16 0.210980 0.000000 0.156735
#
# Coordination Sequence:
#
# PCOD8309511 Si02
#       5
#     8   8   8   8   8
#     4   8  14  27  49  74  99 132 174 215 253 295
#     4   9  19  36  56  78 106 141 178 212 249 298
#     4  10  20  33  51  77 107 137 169 208 256 307
#     4  10  21  37  56  76  99 133 176 216 257 307
#     4  10  21  36  55  80 107 134 168 213 262 308
#
# _framework density 18.394684999999999
#
# number of rings (size 3 to 8) (size 9 to 14) (size 15 to 20)
#    0.000    2.600    0.000    3.000    0.000    5.600 
#    0.000    4.000    0.000    3.600    0.000    0.000 
#    0.000    0.000    0.000    0.000    0.000    0.000 
#
# Total GULP energy -496016.047915 kJ/mol
# GULP energy per Si atom -12400.401198 kJ/mol
# Density = 1.835282 g / cm^3
# Si number density = 18.394685 Si / 1000 Ang^3
#
#
#
# Elastic Constant Matrix: (Units=GPa)
#
#
# Indices 1 2 3 4 5 6 
#
# 1 78.0507 51.1717 71.0260 0.0000 0.0000 0.0000
# 2 51.1717 78.0508 71.0260 0.0000 0.0000 0.0000
# 3 71.0260 71.0260 158.7065 0.0000 0.0000 0.0000
# 4 0.0000 0.0000 0.0000 -12.4672 0.0000 0.0000
# 5 0.0000 0.0000 0.0000 0.0000 -12.4666 0.0000
# 6 0.0000 0.0000 0.0000 0.0000 0.0000 27.3741
#
#
#
# Elastic Compliance Matrix: (Units=1/GPa)
#
#
# Indices 1 2 3 4 5 6 
#
# 1 0.026218 -0.010986 -0.006817 0.000000 0.000000 0.000000
# 2 -0.010986 0.026218 -0.006817 0.000000 0.000000 0.000000
# 3 -0.006817 -0.006817 0.012403 0.000000 0.000000 0.000000
# 4 0.000000 0.000000 0.000000 -0.080210 0.000000 0.000000
# 5 0.000000 0.000000 0.000000 0.000000 -0.080214 0.000000
# 6 0.000000 0.000000 0.000000 0.000000 0.000000 0.036531
#
#
# Mechanical properties :
#
#
# Convention : Reuss Voigt Hill
#
# Bulk Modulus (GPa) = 64.10487 77.91727 71.01107
# Shear Modulus (GPa) = -1083.13307 8.59367 -537.26970
#
# Velocity S-wave (km/s) = -24.29213 2.16378 -17.10885
# Velocity P-wave (km/s) = 27.42052 6.97805 18.75089
#
# Compressibility (1/GPa) = 0.01559944
#
# Stress axis : x y z
#
# Youngs Moduli (GPa) = 38.14166 38.14176 80.62882
#
# Poissons Ratio (x) = 0.41901 0.54964
# Poissons Ratio (y) = 0.41901 0.54964
# Poissons Ratio (z) = 0.26001 0.26001
#
# Static dielectric constant tensor:
#      x y z
#    x 3.299020 0.000000 0.000000 
#    y 0.000000 3.299020 0.000000 
#    z 0.000000 0.000000 3.636670 
# 
# 
# High freq. dielectric constant tensor:
#      x y z
#    x 1.699640 0.000000 0.000000 
#    y 0.000000 1.699640 0.000000 
#    z 0.000000 0.000000 1.728490 
# 
# From -- ./inp_files/5088.got.cif
#   From: 2010.03.12/outbox.cif.g09.slc.cpg/sg115_3_cif.got.tgz:5088.got - 2010.04.14 02:11:21.
