data_PCOD8309375
_publ_section_title
;
Structure prediction by ZEFSAII (Michael W. Deem and Ramdas Pophale) SiO2 
 PCOD8309375
Probable space group: P -4 M 2
;
_chemical_formula_sum "Si O2"
_cell_formula_units_Z 44
_cell_length_a 9.257349
_cell_length_b 9.257349
_cell_length_c 28.233932
_cell_angle_alpha 90.000000
_cell_angle_beta 90.000000
_cell_angle_gamma 90.000000
_cell_volume 2419.605918
_symmetry_space_group_name_H-M "P -4 M 2"
_symmetry_group_IT_number 115
_symmetry_cell_setting 'tetragonal'
loop_
_space_group_symop_operation_xyz
x,y,z
y,-x,-z
-x,-y,z
-y,x,-z
y,x,-z
-y,-x,-z
-x,y,z
x,-y,z
loop_
_atom_site_type_symbol
_atom_site_label
_atom_site_fract_x
_atom_site_fract_y
_atom_site_fract_z
Si Si1 0.668811 0.833593 0.854957
Si Si2 0.160226 0.329775 0.038231
Si Si3 0.171870 0.663253 0.592538
Si Si4 0.836387 0.172100 0.317073
Si Si5 0.831924 0.831924 0.500000
Si Si6 0.666521 0.170135 0.225064
O O1 0.500000 0.807127 0.846833
O O2 0.714121 0.793726 0.908615
O O3 0.757043 0.727128 0.821835
O O4 0.708278 0.000000 0.843930
O O5 0.161058 0.500000 0.033794
O O6 0.000000 0.269778 0.027666
O O7 0.269272 0.269272 0.000000
O O8 0.232535 0.500000 0.593744
O O9 0.233745 0.751466 0.637358
O O10 0.224230 0.741727 0.544862
O O11 0.000000 0.662236 0.594598
O O12 0.755336 0.228203 0.270243
O O13 0.000000 0.232075 0.317312
O O14 0.836781 0.000000 0.318442
O O15 0.000000 0.803739 0.489342
O O16 0.500000 0.213020 0.232131
O O17 0.685536 0.000000 0.219398
#
# Coordination Sequence:
#
# PCOD8309375 Si02
#       6
#     8   8   8   8   4   8
#     4   9  19  36  54  71  96 132 170 205 244 293
#     4   9  19  35  53  74 100 129 163 204 248 295
#     4   9  16  26  42  65  93 123 154 192 238 284
#     4   9  16  27  45  69  97 128 161 199 244 291
#     4   9  16  26  42  65  90 116 150 189 228 276
#     4  10  20  32  48  74 105 133 164 205 251 297
#
# _framework density 18.184781999999998
#
# number of rings (size 3 to 8) (size 9 to 14) (size 15 to 20)
#    0.000    2.818    0.000    2.727    0.000    7.636 
#    0.000    5.455    0.000    1.364    0.000    2.545 
#    0.000    0.000    0.000    0.000    0.000    0.000 
#
# Total GULP energy -545566.718666 kJ/mol
# GULP energy per Si atom -12399.243606 kJ/mol
# Density = 1.814339 g / cm^3
# Si number density = 18.184782 Si / 1000 Ang^3
#
#
#
# Elastic Constant Matrix: (Units=GPa)
#
#
# Indices 1 2 3 4 5 6 
#
# 1 74.5102 33.6992 63.1131 0.0000 0.0000 0.0000
# 2 33.6992 74.5102 63.1131 0.0000 0.0000 0.0000
# 3 63.1131 63.1131 162.3741 0.0000 0.0000 0.0000
# 4 0.0000 0.0000 0.0000 6.3547 0.0000 0.0000
# 5 0.0000 0.0000 0.0000 0.0000 6.3547 0.0000
# 6 0.0000 0.0000 0.0000 0.0000 0.0000 20.7646
#
#
#
# Elastic Compliance Matrix: (Units=1/GPa)
#
#
# Indices 1 2 3 4 5 6 
#
# 1 0.020705 -0.003798 -0.006572 0.000000 0.000000 0.000000
# 2 -0.003798 0.020705 -0.006572 0.000000 0.000000 0.000000
# 3 -0.006572 -0.006572 0.011267 0.000000 0.000000 0.000000
# 4 0.000000 0.000000 0.000000 0.157363 0.000000 0.000000
# 5 0.000000 0.000000 0.000000 0.000000 0.157363 0.000000
# 6 0.000000 0.000000 0.000000 0.000000 0.000000 0.048159
#
#
# Mechanical properties :
#
#
# Convention : Reuss Voigt Hill
#
# Bulk Modulus (GPa) = 53.20557 70.13839 61.67198
# Shear Modulus (GPa) = 10.97191 16.79276 13.88234
#
# Velocity S-wave (km/s) = 2.45900 3.04213 2.76597
# Velocity P-wave (km/s) = 6.11425 7.14094 6.64744
#
# Compressibility (1/GPa) = 0.01879502
#
# Stress axis : x y z
#
# Youngs Moduli (GPa) = 48.29711 48.29711 88.75275
#
# Poissons Ratio (x) = 0.18343 0.58325
# Poissons Ratio (y) = 0.18343 0.58325
# Poissons Ratio (z) = 0.31739 0.31739
#
# Static dielectric constant tensor:
#      x y z
#    x 3.184900 0.000000 0.000000 
#    y 0.000000 3.184900 0.000000 
#    z 0.000000 0.000000 3.509990 
# 
# 
# High freq. dielectric constant tensor:
#      x y z
#    x 1.682770 0.000000 0.000000 
#    y 0.000000 1.682770 0.000000 
#    z 0.000000 0.000000 1.719960 
# 
# From -- ./inp_files/5817.got.cif
#   From: 2010.03.12/outbox.cif.g09.slc.cpg/sg115_3_cif.got.tgz:5817.got - 2010.04.14 02:11:21.
