data_PCOD8309594
_publ_section_title
;
Structure prediction by ZEFSAII (Michael W. Deem and Ramdas Pophale) SiO2 
 PCOD8309594
Probable space group: P -4 M 2
;
_chemical_formula_sum "Si O2"
_cell_formula_units_Z 28
_cell_length_a 7.855339
_cell_length_b 7.855339
_cell_length_c 21.577441
_cell_angle_alpha 90.000000
_cell_angle_beta 90.000000
_cell_angle_gamma 90.000000
_cell_volume 1331.465144
_symmetry_space_group_name_H-M "P -4 M 2"
_symmetry_group_IT_number 115
_symmetry_cell_setting 'tetragonal'
loop_
_space_group_symop_operation_xyz
x,y,z
y,-x,-z
-x,-y,z
-y,x,-z
y,x,-z
-y,-x,-z
-x,y,z
x,-y,z
loop_
_atom_site_type_symbol
_atom_site_label
_atom_site_fract_x
_atom_site_fract_y
_atom_site_fract_z
Si Si1 0.201841 0.687575 0.631305
Si Si2 0.701337 0.688134 0.930234
Si Si3 0.198063 0.198063 0.500000
Si Si4 0.301867 0.000000 0.852914
Si Si5 0.797479 0.000000 0.711797
O O1 0.256199 0.500000 0.655565
O O2 0.271207 0.710024 0.561277
O O3 0.000000 0.707757 0.628870
O O4 0.274959 0.832038 0.677104
O O5 0.500000 0.675223 0.923012
O O6 0.779559 0.500000 0.915724
O O7 0.779133 0.828948 0.883221
O O8 0.746407 0.746407 0.000000
O O9 0.000000 0.234603 0.490573
O O10 0.273407 0.000000 0.780338
O O11 0.500000 0.000000 0.868774
O O12 0.000000 0.000000 0.713039
#
# Coordination Sequence:
#
# PCOD8309594 Si02
#       5
#     8   8   4   4   4
#     4   9  17  30  51  76 102 140 182 219 268 327
#     4   8  15  31  54  77 103 136 175 221 271 321
#     4   9  14  26  50  75  94 124 172 225 276 323
#     4  10  20  34  54  78 104 140 181 218 264 325
#     4  10  20  36  50  72 110 144 177 218 264 319
#
# _framework density 21.029465999999999
#
# number of rings (size 3 to 8) (size 9 to 14) (size 15 to 20)
#    0.000    3.000    1.429    0.857    0.000    1.143 
#    2.571    1.429    0.000    2.143    0.000    0.000 
#    0.000    0.000    0.000    0.000    0.000    0.000 
#
# Total GULP energy -347007.945752 kJ/mol
# GULP energy per Si atom -12393.140920 kJ/mol
# Density = 2.098160 g / cm^3
# Si number density = 21.029466 Si / 1000 Ang^3
#
#
#
# Elastic Constant Matrix: (Units=GPa)
#
#
# Indices 1 2 3 4 5 6 
#
# 1 81.8441 31.2381 54.8333 0.0000 0.0000 0.0000
# 2 31.2381 81.8441 54.8333 0.0000 0.0000 0.0000
# 3 54.8333 54.8333 166.2481 0.0000 0.0000 0.0000
# 4 0.0000 0.0000 0.0000 20.5261 0.0000 0.0000
# 5 0.0000 0.0000 0.0000 0.0000 20.5261 0.0000
# 6 0.0000 0.0000 0.0000 0.0000 0.0000 4.9218
#
#
#
# Elastic Compliance Matrix: (Units=1/GPa)
#
#
# Indices 1 2 3 4 5 6 
#
# 1 0.016381 -0.003379 -0.004288 0.000000 0.000000 0.000000
# 2 -0.003379 0.016381 -0.004288 0.000000 0.000000 0.000000
# 3 -0.004288 -0.004288 0.008844 0.000000 0.000000 0.000000
# 4 0.000000 0.000000 0.000000 0.048718 0.000000 0.000000
# 5 0.000000 0.000000 0.000000 0.000000 0.048718 0.000000
# 6 0.000000 0.000000 0.000000 0.000000 0.000000 0.203176
#
#
# Mechanical properties :
#
#
# Convention : Reuss Voigt Hill
#
# Bulk Modulus (GPa) = 56.51533 67.97175 62.24354
# Shear Modulus (GPa) = 13.43979 21.79691 17.61835
#
# Velocity S-wave (km/s) = 2.53077 3.22296 2.89761
# Velocity P-wave (km/s) = 5.95587 6.80016 6.39197
#
# Compressibility (1/GPa) = 0.01769431
#
# Stress axis : x y z
#
# Youngs Moduli (GPa) = 61.04533 61.04533 113.07107
#
# Poissons Ratio (x) = 0.20629 0.48490
# Poissons Ratio (y) = 0.20629 0.48490
# Poissons Ratio (z) = 0.26179 0.26179
#
# Static dielectric constant tensor:
#      x y z
#    x 3.792510 0.000000 0.000000 
#    y 0.000000 3.792510 0.000000 
#    z 0.000000 0.000000 3.813870 
# 
# 
# High freq. dielectric constant tensor:
#      x y z
#    x 1.801040 0.000000 0.000000 
#    y 0.000000 1.801040 0.000000 
#    z 0.000000 0.000000 1.815860 
# 
# From -- ./inp_files/4531.got.cif
#   From: 2010.03.12/outbox.cif.g09.slc.cpg/sg115_3_cif.got.tgz:4531.got - 2010.04.14 02:11:21.
