data_PCOD8309065
_publ_section_title
;
Structure prediction by ZEFSAII (Michael W. Deem and Ramdas Pophale) SiO2 
 PCOD8309065
Probable space group: P -4 21 C
;
_chemical_formula_sum "Si O2"
_cell_formula_units_Z 40
_cell_length_a 8.927214
_cell_length_b 8.927214
_cell_length_c 23.896180
_cell_angle_alpha 90.000000
_cell_angle_beta 90.000000
_cell_angle_gamma 90.000000
_cell_volume 1904.409645
_symmetry_space_group_name_H-M "P -4 21 C"
_symmetry_group_IT_number 114
_symmetry_cell_setting 'tetragonal'
loop_
_space_group_symop_operation_xyz
x,y,z
y,-x,-z
-x,-y,z
-y,x,-z
1/2+x,1/2-y,1/2-z
1/2-x,1/2+y,1/2-z
1/2-y,1/2-x,1/2+z
1/2+y,1/2+x,1/2+z
loop_
_atom_site_type_symbol
_atom_site_label
_atom_site_fract_x
_atom_site_fract_y
_atom_site_fract_z
Si Si1 0.954669 0.833225 0.297575
Si Si2 0.648986 0.250467 0.626603
Si Si3 0.753010 0.835599 0.188924
Si Si4 0.565268 0.265744 0.505216
Si Si5 0.043545 0.336926 0.111798
O O1 0.854118 0.776973 0.348724
O O2 0.867210 0.834145 0.239762
O O3 0.093349 0.720872 0.289109
O O4 0.000000 0.000000 0.314260
O O5 0.503035 0.241872 0.665340
O O6 0.614763 0.191607 0.563849
O O7 0.709104 0.419948 0.623751
O O8 0.806324 0.718222 0.141987
O O9 0.398201 0.325250 0.513844
O O10 0.572456 0.146073 0.454812
O O11 0.000000 0.500000 0.135629
#
# Coordination Sequence:
#
# PCOD8309065 Si02
#       5
#     8   8   8   8   8
#     4  12  26  42  65  96 132 171 219 277 337 397
#     4  11  23  43  68  95 128 174 224 269 326 406
#     4  12  24  43  66  93 130 173 222 268 332 403
#     4   9  18  38  66  96 125 166 220 264 317 391
#     4  11  22  38  66  96 131 166 213 277 328 386
#
# _framework density 21.003886000000001
#
# number of rings (size 3 to 8) (size 9 to 14) (size 15 to 20)
#    0.000    1.000    2.000    6.000    0.000    3.200 
#    0.000    0.000    0.000    0.000    0.000    0.000 
#    0.000    0.000    0.000    0.000    0.000    0.000 
#
# Total GULP energy -496195.730301 kJ/mol
# GULP energy per Si atom -12404.893258 kJ/mol
# Density = 2.095608 g / cm^3
# Si number density = 21.003886 Si / 1000 Ang^3
#
#
#
# Elastic Constant Matrix: (Units=GPa)
#
#
# Indices 1 2 3 4 5 6 
#
# 1 83.6061 17.6572 61.6204 0.0000 0.0000 0.0000
# 2 17.6572 83.6061 61.6204 0.0000 0.0000 0.0000
# 3 61.6204 61.6204 145.9736 0.0000 0.0000 0.0000
# 4 0.0000 0.0000 0.0000 26.3245 0.0000 0.0000
# 5 0.0000 0.0000 0.0000 0.0000 26.3245 0.0000
# 6 0.0000 0.0000 0.0000 0.0000 0.0000 35.8294
#
#
#
# Elastic Compliance Matrix: (Units=1/GPa)
#
#
# Indices 1 2 3 4 5 6 
#
# 1 0.017736 0.002573 -0.008573 0.000000 0.000000 0.000000
# 2 0.002573 0.017736 -0.008573 0.000000 0.000000 0.000000
# 3 -0.008573 -0.008573 0.014089 0.000000 0.000000 0.000000
# 4 0.000000 0.000000 0.000000 0.037987 0.000000 0.000000
# 5 0.000000 0.000000 0.000000 0.000000 0.037987 0.000000
# 6 0.000000 0.000000 0.000000 0.000000 0.000000 0.027910
#
#
# Mechanical properties :
#
#
# Convention : Reuss Voigt Hill
#
# Bulk Modulus (GPa) = 48.98575 66.10908 57.54741
# Shear Modulus (GPa) = 26.39958 29.18156 27.79057
#
# Velocity S-wave (km/s) = 3.54911 3.73143 3.64141
# Velocity P-wave (km/s) = 6.33781 7.07868 6.71847
#
# Compressibility (1/GPa) = 0.02041410
#
# Stress axis : x y z
#
# Youngs Moduli (GPa) = 56.38212 56.38212 70.97968
#
# Poissons Ratio (x) = -0.14506 0.60852
# Poissons Ratio (y) = -0.14506 0.60852
# Poissons Ratio (z) = 0.48337 0.48337
#
# Static dielectric constant tensor:
#      x y z
#    x 3.790970 0.000000 0.000000 
#    y 0.000000 3.790970 0.000000 
#    z 0.000000 0.000000 3.962800 
# 
# 
# High freq. dielectric constant tensor:
#      x y z
#    x 1.819310 0.000000 0.000000 
#    y 0.000000 1.819310 0.000000 
#    z 0.000000 0.000000 1.837260 
# 
# From -- ./inp_files/3338.got.cif
#   From: 2010.03.12/outbox.cif.g09.slc.cpg/sg114_2_cif.got.tgz:3338.got - 2010.04.14 02:08:34.
