data_PCOD8309784
_publ_section_title
;
Structure prediction by ZEFSAII (Michael W. Deem and Ramdas Pophale) SiO2 
 PCOD8309784
Probable space group: P -4 M 2
;
_chemical_formula_sum "Si O2"
_cell_formula_units_Z 48
_cell_length_a 9.324587
_cell_length_b 9.324587
_cell_length_c 31.014181
_cell_angle_alpha 90.000000
_cell_angle_beta 90.000000
_cell_angle_gamma 90.000000
_cell_volume 2696.618613
_symmetry_space_group_name_H-M "P -4 M 2"
_symmetry_group_IT_number 115
_symmetry_cell_setting 'tetragonal'
loop_
_space_group_symop_operation_xyz
x,y,z
y,-x,-z
-x,-y,z
-y,x,-z
y,x,-z
-y,-x,-z
-x,y,z
x,-y,z
loop_
_atom_site_type_symbol
_atom_site_label
_atom_site_fract_x
_atom_site_fract_y
_atom_site_fract_z
Si Si1 0.332794 0.166177 0.296347
Si Si2 0.841674 0.170671 0.045254
Si Si3 0.165868 0.336036 0.464757
Si Si4 0.828759 0.835890 0.138872
Si Si5 0.336405 0.169138 0.632397
Si Si6 0.333353 0.667368 0.211165
O O1 0.500000 0.190113 0.305007
O O2 0.248594 0.225136 0.337197
O O3 0.282292 0.251879 0.254159
O O4 0.294835 0.000000 0.289570
O O5 0.766231 0.206910 0.091041
O O6 0.000000 0.237268 0.048484
O O7 0.851228 0.000000 0.040734
O O8 0.769840 0.230161 0.000000
O O9 0.243367 0.243367 0.500000
O O10 0.198063 0.500000 0.475507
O O11 0.218367 0.300431 0.416339
O O12 0.000000 0.300415 0.468242
O O13 0.757800 0.726853 0.171726
O O14 0.000000 0.820004 0.140253
O O15 0.785705 0.000000 0.149982
O O16 0.500000 0.211807 0.644054
O O17 0.315978 0.000000 0.637532
O O18 0.500000 0.697151 0.201930
O O19 0.300923 0.500000 0.217042
#
# Coordination Sequence:
#
# PCOD8309784 Si02
#       6
#     8   8   8   8   8   8
#     4  10  21  36  54  76  99 124 159 204 250 294
#     4   7  10  19  38  65  95 123 151 188 235 283
#     4   9  19  35  53  75 104 136 170 206 242 284
#     4   9  17  29  48  75 101 124 156 199 244 289
#     4   9  19  36  55  75 102 135 167 200 242 291
#     4  10  21  36  52  69  93 129 168 201 239 290
#
# _framework density 17.800069000000001
#
# number of rings (size 3 to 8) (size 9 to 14) (size 15 to 20)
#    0.000    3.000    0.000    3.500    0.000    5.000 
#    0.000    5.000    0.000    1.000    0.000    5.833 
#    0.000    0.000    0.000    0.000    0.000    0.000 
#
# Total GULP energy -594784.814836 kJ/mol
# GULP energy per Si atom -12391.350309 kJ/mol
# Density = 1.775956 g / cm^3
# Si number density = 17.800069 Si / 1000 Ang^3
#
#
#
# Elastic Constant Matrix: (Units=GPa)
#
#
# Indices 1 2 3 4 5 6 
#
# 1 62.6244 34.9646 58.5254 0.0000 0.0000 0.0000
# 2 34.9646 62.6243 58.5253 0.0000 0.0000 0.0000
# 3 58.5254 58.5253 150.1550 0.0000 0.0000 0.0000
# 4 0.0000 0.0000 0.0000 -813.7048 0.0000 0.0000
# 5 0.0000 0.0000 0.0000 0.0000 -814.1591 0.0000
# 6 0.0000 0.0000 0.0000 0.0000 0.0000 28.7467
#
#
#
# Elastic Compliance Matrix: (Units=1/GPa)
#
#
# Indices 1 2 3 4 5 6 
#
# 1 0.027698 -0.008455 -0.007500 0.000000 0.000000 0.000000
# 2 -0.008455 0.027698 -0.007500 0.000000 0.000000 0.000000
# 3 -0.007500 -0.007500 0.012507 0.000000 0.000000 0.000000
# 4 0.000000 0.000000 0.000000 -0.001229 0.000000 0.000000
# 5 0.000000 0.000000 0.000000 0.000000 -0.001228 0.000000
# 6 0.000000 0.000000 0.000000 0.000000 0.000000 0.034787
#
#
# Mechanical properties :
#
#
# Convention : Reuss Voigt Hill
#
# Bulk Modulus (GPa) = 47.63831 64.38160 56.00995
# Shear Modulus (GPa) = 32.43769 -311.59754 -139.57993
#
# Velocity S-wave (km/s) = 4.27351 -13.24516 -8.86485
# Velocity P-wave (km/s) = 7.15344 14.05932 8.55841
#
# Compressibility (1/GPa) = 0.02099151
#
# Stress axis : x y z
#
# Youngs Moduli (GPa) = 36.10322 36.10315 79.95821
#
# Poissons Ratio (x) = 0.30526 0.59971
# Poissons Ratio (y) = 0.30526 0.59971
# Poissons Ratio (z) = 0.27079 0.27079
#
# Static dielectric constant tensor:
#      x y z
#    x 3.150180 0.000000 0.000000 
#    y 0.000000 3.150130 0.000000 
#    z 0.000000 0.000000 3.610850 
# 
# 
# High freq. dielectric constant tensor:
#      x y z
#    x 1.664850 0.000000 0.000000 
#    y 0.000000 1.664850 0.000000 
#    z 0.000000 0.000000 1.711570 
# 
# From -- ./inp_files/5954.got.cif
#   From: 2010.03.12/outbox.cif.g09.slc.cpg/sg115_3_cif.got.tgz:5954.got - 2010.04.14 02:11:21.
