data_PCOD8309146
_publ_section_title
;
Structure prediction by ZEFSAII (Michael W. Deem and Ramdas Pophale) SiO2 
 PCOD8309146
Probable space group: P -4 21 C
;
_chemical_formula_sum "Si O2"
_cell_formula_units_Z 42
_cell_length_a 13.590342
_cell_length_b 13.590342
_cell_length_c 9.131889
_cell_angle_alpha 90.000000
_cell_angle_beta 90.000000
_cell_angle_gamma 90.000000
_cell_volume 1686.636116
_symmetry_space_group_name_H-M "P -4 21 C"
_symmetry_group_IT_number 114
_symmetry_cell_setting 'tetragonal'
loop_
_space_group_symop_operation_xyz
x,y,z
y,-x,-z
-x,-y,z
-y,x,-z
1/2+x,1/2-y,1/2-z
1/2-x,1/2+y,1/2-z
1/2-y,1/2-x,1/2+z
1/2+y,1/2+x,1/2+z
loop_
_atom_site_type_symbol
_atom_site_label
_atom_site_fract_x
_atom_site_fract_y
_atom_site_fract_z
Si Si1 0.500000 0.500000 0.500000
Si Si2 0.469787 0.297792 0.331974
Si Si3 0.423358 0.219189 0.791299
Si Si4 0.101891 0.559955 0.490489
Si Si5 0.258812 0.359822 0.862401
Si Si6 0.133100 0.227192 0.703985
O O1 0.505216 0.398625 0.408249
O O2 0.485799 0.200427 0.432372
O O3 0.528999 0.284290 0.180067
O O4 0.356864 0.304800 0.284512
O O5 0.424276 0.128421 0.678392
O O6 0.422611 0.168161 0.949563
O O7 0.331265 0.289607 0.768956
O O8 0.517188 0.291540 0.779755
O O9 0.000000 0.500000 0.507528
O O10 0.153451 0.328825 0.793459
O O11 0.263806 0.338948 0.033858
#
# Coordination Sequence:
#
# PCOD8309146 Si02
#       6
#     2   8   8   8   8   8
#     4  12  28  48  86 124 152 216 262 336 396 488
#     4  12  26  49  78 112 159 200 266 322 398 478
#     4  12  27  47  76 108 155 200 257 320 393 469
#     4  12  27  47  75 112 155 205 256 320 392 472
#     4  12  27  48  76 109 153 201 256 319 394 467
#     4  12  28  47  77 111 152 203 261 323 394 469
#
# _framework density 24.901637999999998
#
# number of rings (size 3 to 8) (size 9 to 14) (size 15 to 20)
#    0.000    0.000    1.905    7.429   10.667    0.000 
#    0.000    1.905    0.000    0.000    0.000    0.000 
#    0.000    0.000    0.000    0.000    0.000    0.000 
#
# Total GULP energy -520792.141337 kJ/mol
# GULP energy per Si atom -12399.812889 kJ/mol
# Density = 2.484496 g / cm^3
# Si number density = 24.901638 Si / 1000 Ang^3
#
#
#
# Elastic Constant Matrix: (Units=GPa)
#
#
# Indices 1 2 3 4 5 6 
#
# 1 96.8308 -5.0517 20.8487 0.0000 0.0000 0.0000
# 2 -5.0517 96.8308 20.8487 0.0000 0.0000 0.0000
# 3 20.8487 20.8487 120.7166 0.0000 0.0000 0.0000
# 4 0.0000 0.0000 0.0000 33.8731 0.0000 0.0000
# 5 0.0000 0.0000 0.0000 0.0000 33.8731 0.0000
# 6 0.0000 0.0000 0.0000 0.0000 0.0000 43.5183
#
#
#
# Elastic Compliance Matrix: (Units=1/GPa)
#
#
# Indices 1 2 3 4 5 6 
#
# 1 0.010819 0.001004 -0.002042 0.000000 0.000000 0.000000
# 2 0.001004 0.010819 -0.002042 0.000000 0.000000 0.000000
# 3 -0.002042 -0.002042 0.008989 0.000000 0.000000 0.000000
# 4 0.000000 0.000000 0.000000 0.029522 0.000000 0.000000
# 5 0.000000 0.000000 0.000000 0.000000 0.029522 0.000000
# 6 0.000000 0.000000 0.000000 0.000000 0.000000 0.022979
#
#
# Mechanical properties :
#
#
# Convention : Reuss Voigt Hill
#
# Bulk Modulus (GPa) = 40.86953 43.07441 41.97197
# Shear Modulus (GPa) = 39.38047 40.76839 40.07443
#
# Velocity S-wave (km/s) = 3.98105 4.05059 4.01597
# Velocity P-wave (km/s) = 6.13023 6.26193 6.19643
#
# Compressibility (1/GPa) = 0.02446810
#
# Stress axis : x y z
#
# Youngs Moduli (GPa) = 92.42702 92.42702 111.24455
#
# Poissons Ratio (x) = -0.09281 0.22716
# Poissons Ratio (y) = -0.09281 0.22716
# Poissons Ratio (z) = 0.18874 0.18874
#
# Static dielectric constant tensor:
#      x y z
#    x 4.582710 0.000000 0.000000 
#    y 0.000000 4.582710 0.000000 
#    z 0.000000 0.000000 4.349740 
# 
# 
# High freq. dielectric constant tensor:
#      x y z
#    x 2.003350 0.000000 0.000000 
#    y 0.000000 2.003350 0.000000 
#    z 0.000000 0.000000 1.997210 
# 
# From -- ./inp_files/806.got.cif
#   From: 2010.03.12/outbox.cif.g09.slc.cpg/sg114_1_cif.got.tgz:806.got - 2010.04.14 02:08:34.
