data_PCOD8309278
_publ_section_title
;
Structure prediction by ZEFSAII (Michael W. Deem and Ramdas Pophale) SiO2 
 PCOD8309278
Probable space group: P -4 M 2
;
_chemical_formula_sum "Si O2"
_cell_formula_units_Z 64
_cell_length_a 13.984436
_cell_length_b 13.984436
_cell_length_c 18.448950
_cell_angle_alpha 90.000000
_cell_angle_beta 90.000000
_cell_angle_gamma 90.000000
_cell_volume 3607.958764
_symmetry_space_group_name_H-M "P -4 M 2"
_symmetry_group_IT_number 115
_symmetry_cell_setting 'tetragonal'
loop_
_space_group_symop_operation_xyz
x,y,z
y,-x,-z
-x,-y,z
-y,x,-z
y,x,-z
-y,-x,-z
-x,y,z
x,-y,z
loop_
_atom_site_type_symbol
_atom_site_label
_atom_site_fract_x
_atom_site_fract_y
_atom_site_fract_z
Si Si1 0.387833 0.389596 0.718444
Si Si2 0.743946 0.270068 0.174570
Si Si3 0.702894 0.609270 0.566036
Si Si4 0.393626 0.896133 0.366402
Si Si5 0.892080 0.782380 0.721213
Si Si6 0.609873 0.109605 0.914680
Si Si7 0.746645 0.611168 0.958904
Si Si8 0.113831 0.893776 0.579004
O O1 0.500000 0.372393 0.727355
O O2 0.361121 0.500000 0.736031
O O3 0.333757 0.317926 0.771215
O O4 0.356359 0.363005 0.637364
O O5 0.797013 0.179896 0.212336
O O6 0.832130 0.330756 0.144463
O O7 0.671866 0.232959 0.113059
O O8 0.674305 0.674305 0.500000
O O9 0.682652 0.500000 0.545293
O O10 0.815152 0.631046 0.575669
O O11 0.500000 0.880249 0.336572
O O12 0.330608 0.891630 0.294164
O O13 0.380429 0.000000 0.404825
O O14 0.852106 0.830525 0.647085
O O15 0.000000 0.818665 0.740644
O O16 0.500000 0.113308 0.890147
O O17 0.646258 0.000000 0.919277
O O18 0.622522 0.158255 0.993059
O O19 0.725509 0.500000 0.941001
O O20 0.653500 0.653500 0.000000
O O21 0.147541 0.852460 0.500000
O O22 0.000000 0.896238 0.576640
O O23 0.155205 0.000000 0.591655
#
# Coordination Sequence:
#
# PCOD8309278 Si02
#       8
#     8   8   8   8   8   8   8   8
#     4  10  20  33  50  75 107 139 171 213 266 318
#     4  11  20  33  52  80 108 139 169 210 259 311
#     4  10  19  32  51  73  99 137 184 227 265 309
#     4   9  18  33  50  68  96 134 173 214 262 313
#     4  10  20  32  48  75 107 137 172 213 260 313
#     4   9  19  37  58  77 101 137 177 212 249 303
#     4   9  19  34  54  79 106 132 166 208 251 303
#     4   8  15  30  51  72  95 125 164 213 263 306
#
# _framework density 17.738562000000002
#
# number of rings (size 3 to 8) (size 9 to 14) (size 15 to 20)
#    0.000    2.500    1.250    1.500    0.000    3.250 
#    0.000    0.000    0.000    0.750    0.000    1.750 
#    0.000    0.000    0.000    0.000    0.000    0.000 
#
# Total GULP energy -793277.709689 kJ/mol
# GULP energy per Si atom -12394.964214 kJ/mol
# Density = 1.769819 g / cm^3
# Si number density = 17.738562 Si / 1000 Ang^3
#
#
#
# Elastic Constant Matrix: (Units=GPa)
#
#
# Indices 1 2 3 4 5 6 
#
# 1 93.0400 38.5318 49.6108 0.0000 0.0000 0.0000
# 2 38.5318 93.0401 49.6108 0.0000 0.0000 0.0000
# 3 49.6108 49.6108 106.7675 0.0000 0.0000 0.0000
# 4 0.0000 0.0000 0.0000 25.8359 0.0000 0.0000
# 5 0.0000 0.0000 0.0000 0.0000 25.8358 0.0000
# 6 0.0000 0.0000 0.0000 0.0000 0.0000 20.0302
#
#
#
# Elastic Compliance Matrix: (Units=1/GPa)
#
#
# Indices 1 2 3 4 5 6 
#
# 1 0.015023 -0.003323 -0.005437 0.000000 0.000000 0.000000
# 2 -0.003323 0.015023 -0.005437 0.000000 0.000000 0.000000
# 3 -0.005437 -0.005437 0.014419 0.000000 0.000000 0.000000
# 4 0.000000 0.000000 0.000000 0.038706 0.000000 0.000000
# 5 0.000000 0.000000 0.000000 0.000000 0.038706 0.000000
# 6 0.000000 0.000000 0.000000 0.000000 0.000000 0.049925
#
#
# Mechanical properties :
#
#
# Convention : Reuss Voigt Hill
#
# Bulk Modulus (GPa) = 62.21809 63.15047 62.68428
# Shear Modulus (GPa) = 24.32486 24.68000 24.50243
#
# Velocity S-wave (km/s) = 3.70712 3.73409 3.72063
# Velocity P-wave (km/s) = 7.31265 7.36676 7.33976
#
# Compressibility (1/GPa) = 0.01607250
#
# Stress axis : x y z
#
# Youngs Moduli (GPa) = 66.56409 66.56416 69.35483
#
# Poissons Ratio (x) = 0.22118 0.37706
# Poissons Ratio (y) = 0.22118 0.37706
# Poissons Ratio (z) = 0.36189 0.36189
#
# Static dielectric constant tensor:
#      x y z
#    x 3.392060 0.000000 0.000000 
#    y 0.000000 3.392060 0.000000 
#    z 0.000000 0.000000 3.284430 
# 
# 
# High freq. dielectric constant tensor:
#      x y z
#    x 1.684590 0.000000 0.000000 
#    y 0.000000 1.684590 0.000000 
#    z 0.000000 0.000000 1.672410 
# 
# From -- ./inp_files/4466.got.cif
#   From: 2010.03.12/outbox.cif.g09.slc.cpg/sg115_3_cif.got.tgz:4466.got - 2010.04.14 02:11:21.
