data_PCOD8309477
_publ_section_title
;
Structure prediction by ZEFSAII (Michael W. Deem and Ramdas Pophale) SiO2 
 PCOD8309477
Probable space group: P -4 M 2
;
_chemical_formula_sum "Si O2"
_cell_formula_units_Z 48
_cell_length_a 9.056275
_cell_length_b 9.056275
_cell_length_c 30.823423
_cell_angle_alpha 90.000000
_cell_angle_beta 90.000000
_cell_angle_gamma 90.000000
_cell_volume 2528.017463
_symmetry_space_group_name_H-M "P -4 M 2"
_symmetry_group_IT_number 115
_symmetry_cell_setting 'tetragonal'
loop_
_space_group_symop_operation_xyz
x,y,z
y,-x,-z
-x,-y,z
-y,x,-z
y,x,-z
-y,-x,-z
-x,y,z
x,-y,z
loop_
_atom_site_type_symbol
_atom_site_label
_atom_site_fract_x
_atom_site_fract_y
_atom_site_fract_z
Si Si1 0.329195 0.173573 0.381678
Si Si2 0.670857 0.330357 0.293674
Si Si3 0.175316 0.836283 0.877977
Si Si4 0.327028 0.827839 0.539851
Si Si5 0.824808 0.165929 0.217827
Si Si6 0.666606 0.175376 0.038789
O O1 0.500000 0.212265 0.391586
O O2 0.281193 0.233197 0.334804
O O3 0.225192 0.250976 0.416316
O O4 0.301158 0.000000 0.383172
O O5 0.500000 0.306603 0.283101
O O6 0.707673 0.500000 0.304053
O O7 0.761085 0.280123 0.252030
O O8 0.220064 0.775875 0.830302
O O9 0.236311 0.728778 0.915390
O O10 0.000000 0.845994 0.879847
O O11 0.241759 0.000000 0.885752
O O12 0.262166 0.737835 0.500000
O O13 0.500000 0.795685 0.543032
O O14 0.294079 0.000000 0.532674
O O15 0.000000 0.166395 0.220679
O O16 0.765168 0.000000 0.227106
O O17 0.500000 0.232543 0.034023
O O18 0.675501 0.000000 0.037334
O O19 0.763752 0.236249 0.000000
#
# Coordination Sequence:
#
# PCOD8309477 Si02
#       6
#     8   8   8   8   8   8
#     4  10  21  38  60  84 109 141 183 227 270 316
#     4  10  21  36  54  78 109 145 183 220 262 315
#     4   8  15  30  52  76 101 131 170 215 260 308
#     4  11  24  40  59  85 115 147 183 222 267 319
#     4   9  18  33  54  80 107 135 171 216 265 315
#     4  10  20  33  51  76 103 133 171 213 259 312
#
# _framework density 18.987210999999999
#
# number of rings (size 3 to 8) (size 9 to 14) (size 15 to 20)
#    0.000    2.333    0.000    3.500    0.000    8.000 
#    0.000    2.500    0.000    1.000    0.000    0.000 
#    0.000    0.000    0.000    0.000    0.000    0.000 
#
# Total GULP energy -595245.741920 kJ/mol
# GULP energy per Si atom -12400.952957 kJ/mol
# Density = 1.894400 g / cm^3
# Si number density = 18.987211 Si / 1000 Ang^3
#
#
#
# Elastic Constant Matrix: (Units=GPa)
#
#
# Indices 1 2 3 4 5 6 
#
# 1 61.0796 37.1878 46.5486 0.0000 0.0000 0.0000
# 2 37.1878 61.0845 46.5511 0.0000 0.0000 0.0000
# 3 46.5486 46.5511 139.7941 0.0000 0.0000 0.0000
# 4 0.0000 0.0000 0.0000 53.0348 0.0000 0.0000
# 5 0.0000 0.0000 0.0000 0.0000 53.0339 0.0000
# 6 0.0000 0.0000 0.0000 0.0000 0.0000 26.4528
#
#
#
# Elastic Compliance Matrix: (Units=1/GPa)
#
#
# Indices 1 2 3 4 5 6 
#
# 1 0.028359 -0.013493 -0.004950 0.000000 0.000000 0.000000
# 2 -0.013493 0.028357 -0.004950 0.000000 0.000000 0.000000
# 3 -0.004950 -0.004950 0.010450 0.000000 0.000000 0.000000
# 4 0.000000 0.000000 0.000000 0.018856 0.000000 0.000000
# 5 0.000000 0.000000 0.000000 0.000000 0.018856 0.000000
# 6 0.000000 0.000000 0.000000 0.000000 0.000000 0.037803
#
#
# Mechanical properties :
#
#
# Convention : Reuss Voigt Hill
#
# Bulk Modulus (GPa) = 49.06522 58.05924 53.56223
# Shear Modulus (GPa) = 25.47628 35.28234 30.37931
#
# Velocity S-wave (km/s) = 3.66698 4.31538 4.00432
# Velocity P-wave (km/s) = 6.62014 7.44812 7.04630
#
# Compressibility (1/GPa) = 0.02038103
#
# Stress axis : x y z
#
# Youngs Moduli (GPa) = 35.26165 35.26417 95.69338
#
# Poissons Ratio (x) = 0.47581 0.47369
# Poissons Ratio (y) = 0.47577 0.47370
# Poissons Ratio (z) = 0.17455 0.17456
#
# Static dielectric constant tensor:
#      x y z
#    x 3.338670 0.000000 0.000000 
#    y 0.000000 3.338670 0.000000 
#    z 0.000000 0.000000 3.799320 
# 
# 
# High freq. dielectric constant tensor:
#      x y z
#    x 1.727430 0.000000 0.000000 
#    y 0.000000 1.727430 0.000000 
#    z 0.000000 0.000000 1.754500 
# 
# From -- ./inp_files/6009.got.cif
#   From: 2010.03.12/outbox.cif.g09.slc.cpg/sg115_4_cif.got.tgz:6009.got - 2010.04.14 02:11:21.
