data_PCOD8309811
_publ_section_title
;
Structure prediction by ZEFSAII (Michael W. Deem and Ramdas Pophale) SiO2 
 PCOD8309811
Probable space group: P -4 M 2
;
_chemical_formula_sum "Si O2"
_cell_formula_units_Z 40
_cell_length_a 9.180731
_cell_length_b 9.180731
_cell_length_c 25.741747
_cell_angle_alpha 90.000000
_cell_angle_beta 90.000000
_cell_angle_gamma 90.000000
_cell_volume 2169.664298
_symmetry_space_group_name_H-M "P -4 M 2"
_symmetry_group_IT_number 115
_symmetry_cell_setting 'tetragonal'
loop_
_space_group_symop_operation_xyz
x,y,z
y,-x,-z
-x,-y,z
-y,x,-z
y,x,-z
-y,-x,-z
-x,y,z
x,-y,z
loop_
_atom_site_type_symbol
_atom_site_label
_atom_site_fract_x
_atom_site_fract_y
_atom_site_fract_z
Si Si1 0.666586 0.170552 0.844044
Si Si2 0.170549 0.332354 0.455037
Si Si3 0.832162 0.171482 0.258831
Si Si4 0.329687 0.667934 0.349395
Si Si5 0.673798 0.337707 0.943661
O O1 0.500000 0.219772 0.834838
O O2 0.759773 0.223875 0.794999
O O3 0.732849 0.240430 0.896361
O O4 0.679428 0.000000 0.851609
O O5 0.229292 0.229292 0.500000
O O6 0.204388 0.500000 0.469264
O O7 0.250430 0.286878 0.402299
O O8 0.000000 0.304938 0.447565
O O9 0.732209 0.231823 0.304293
O O10 0.000000 0.215303 0.269377
O O11 0.812267 0.000000 0.255317
O O12 0.500000 0.698301 0.356248
O O13 0.297848 0.500000 0.335555
O O14 0.500000 0.339315 0.944413
O O15 0.735131 0.500000 0.934985
O O16 0.725214 0.274787 0.000000
#
# Coordination Sequence:
#
# PCOD8309811 Si02
#       5
#     8   8   8   8   8
#     4   9  17  30  49  71  95 126 165 207 250 300
#     4  10  21  37  58  83 110 141 176 213 254 301
#     4  10  21  36  53  74 103 138 173 211 257 308
#     4  10  21  37  58  82 106 135 173 216 260 305
#     4   8  14  26  45  68  93 122 158 201 248 298
#
# _framework density 18.436032999999998
#
# number of rings (size 3 to 8) (size 9 to 14) (size 15 to 20)
#    0.000    2.600    0.000    2.400    0.000    5.200 
#    0.000    3.000    0.000    1.200    0.000    0.000 
#    0.000    0.000    0.000    0.000    0.000    0.000 
#
# Total GULP energy -496014.476719 kJ/mol
# GULP energy per Si atom -12400.361918 kJ/mol
# Density = 1.839407 g / cm^3
# Si number density = 18.436033 Si / 1000 Ang^3
#
#
#
# Elastic Constant Matrix: (Units=GPa)
#
#
# Indices 1 2 3 4 5 6 
#
# 1 71.6858 40.3290 69.1505 0.0000 0.0000 0.0000
# 2 40.3290 71.6860 69.1505 0.0000 0.0000 0.0000
# 3 69.1505 69.1505 175.0272 0.0000 0.0000 0.0000
# 4 0.0000 0.0000 0.0000 -5.3206 0.0000 0.0000
# 5 0.0000 0.0000 0.0000 0.0000 -5.3200 0.0000
# 6 0.0000 0.0000 0.0000 0.0000 0.0000 23.3157
#
#
#
# Elastic Compliance Matrix: (Units=1/GPa)
#
#
# Indices 1 2 3 4 5 6 
#
# 1 0.024660 -0.007231 -0.006886 0.000000 0.000000 0.000000
# 2 -0.007231 0.024660 -0.006886 0.000000 0.000000 0.000000
# 3 -0.006886 -0.006886 0.011155 0.000000 0.000000 0.000000
# 4 0.000000 0.000000 0.000000 -0.187949 0.000000 0.000000
# 5 0.000000 0.000000 0.000000 0.000000 -0.187969 0.000000
# 6 0.000000 0.000000 0.000000 0.000000 0.000000 0.042890
#
#
# Mechanical properties :
#
#
# Convention : Reuss Voigt Hill
#
# Bulk Modulus (GPa) = 54.14467 75.07323 64.60895
# Shear Modulus (GPa) = -22.28248 11.85295 -5.21477
#
# Velocity S-wave (km/s) = -3.48032 2.53834 -1.68366
# Velocity P-wave (km/s) = 3.64452 7.02853 5.59834
#
# Compressibility (1/GPa) = 0.01846904
#
# Stress axis : x y z
#
# Youngs Moduli (GPa) = 40.55121 40.55133 89.64928
#
# Poissons Ratio (x) = 0.29322 0.61733
# Poissons Ratio (y) = 0.29321 0.61733
# Poissons Ratio (z) = 0.27924 0.27924
#
# Static dielectric constant tensor:
#      x y z
#    x 3.292820 0.000000 0.000000 
#    y 0.000000 3.292820 0.000000 
#    z 0.000000 0.000000 3.667960 
# 
# 
# High freq. dielectric constant tensor:
#      x y z
#    x 1.700310 0.000000 0.000000 
#    y 0.000000 1.700310 0.000000 
#    z 0.000000 0.000000 1.730920 
# 
# From -- ./inp_files/5082.got.cif
#   From: 2010.03.12/outbox.cif.g09.slc.cpg/sg115_3_cif.got.tgz:5082.got - 2010.04.14 02:11:21.
