data_PCOD8309953
_publ_section_title
;
Structure prediction by ZEFSAII (Michael W. Deem and Ramdas Pophale) SiO2 
 PCOD8309953
Probable space group: P -4 M 2
;
_chemical_formula_sum "Si O2"
_cell_formula_units_Z 28
_cell_length_a 8.900794
_cell_length_b 8.900794
_cell_length_c 17.845086
_cell_angle_alpha 90.000000
_cell_angle_beta 90.000000
_cell_angle_gamma 90.000000
_cell_volume 1413.761481
_symmetry_space_group_name_H-M "P -4 M 2"
_symmetry_group_IT_number 115
_symmetry_cell_setting 'tetragonal'
loop_
_space_group_symop_operation_xyz
x,y,z
y,-x,-z
-x,-y,z
-y,x,-z
y,x,-z
-y,-x,-z
-x,y,z
x,-y,z
loop_
_atom_site_type_symbol
_atom_site_label
_atom_site_fract_x
_atom_site_fract_y
_atom_site_fract_z
Si Si1 0.174511 0.326358 0.569477
Si Si2 0.676855 0.828286 0.707389
Si Si3 0.827843 0.824024 0.137692
Si Si4 0.673700 0.326301 0.000000
O O1 0.228548 0.228548 0.500000
O O2 0.206770 0.500000 0.551609
O O3 0.262302 0.280296 0.643661
O O4 0.000000 0.295098 0.582797
O O5 0.500000 0.810565 0.712247
O O6 0.745347 0.775519 0.786013
O O7 0.723639 0.000000 0.689341
O O8 0.722058 0.768772 0.071593
O O9 0.000000 0.782291 0.118388
O O10 0.806814 0.000000 0.148251
O O11 0.500000 0.294525 0.983193
#
# Coordination Sequence:
#
# PCOD8309953 Si02
#       4
#     8   8   8   4
#     4  11  24  40  59  85 116 151 192 236 284 338
#     4  10  21  38  61  88 117 150 189 233 283 339
#     4  10  21  38  61  87 114 148 191 236 284 339
#     4  11  24  39  56  82 116 153 192 235 286 340
#
# _framework density 19.805323000000001
#
# number of rings (size 3 to 8) (size 9 to 14) (size 15 to 20)
#    0.000    1.571    0.000    4.286    0.000   13.143 
#    0.000    0.000    0.000    0.000    0.000    0.000 
#    0.000    0.000    0.000    0.000    0.000    0.000 
#
# Total GULP energy -347401.272475 kJ/mol
# GULP energy per Si atom -12407.188303 kJ/mol
# Density = 1.976025 g / cm^3
# Si number density = 19.805323 Si / 1000 Ang^3
#
#
#
# Elastic Constant Matrix: (Units=GPa)
#
#
# Indices 1 2 3 4 5 6 
#
# 1 69.8595 32.5160 39.9247 0.0000 0.0000 0.0000
# 2 32.5160 69.8596 39.9242 0.0000 0.0000 0.0000
# 3 39.9247 39.9242 124.6694 0.0000 0.0000 0.0000
# 4 0.0000 0.0000 0.0000 62.6287 0.0000 0.0000
# 5 0.0000 0.0000 0.0000 0.0000 62.6292 0.0000
# 6 0.0000 0.0000 0.0000 0.0000 0.0000 32.3746
#
#
#
# Elastic Compliance Matrix: (Units=1/GPa)
#
#
# Indices 1 2 3 4 5 6 
#
# 1 0.019899 -0.006879 -0.004170 0.000000 0.000000 0.000000
# 2 -0.006879 0.019899 -0.004169 0.000000 0.000000 0.000000
# 3 -0.004170 -0.004169 0.010692 0.000000 0.000000 0.000000
# 4 0.000000 0.000000 0.000000 0.015967 0.000000 0.000000
# 5 0.000000 0.000000 0.000000 0.000000 0.015967 0.000000
# 6 0.000000 0.000000 0.000000 0.000000 0.000000 0.030888
#
#
# Mechanical properties :
#
#
# Convention : Reuss Voigt Hill
#
# Bulk Modulus (GPa) = 49.86639 54.34646 52.10643
# Shear Modulus (GPa) = 33.23719 41.66140 37.44929
#
# Velocity S-wave (km/s) = 4.10102 4.59142 4.35313
# Velocity P-wave (km/s) = 6.90344 7.45708 7.18559
#
# Compressibility (1/GPa) = 0.02005359
#
# Stress axis : x y z
#
# Youngs Moduli (GPa) = 50.25300 50.25341 93.52989
#
# Poissons Ratio (x) = 0.34570 0.38999
# Poissons Ratio (y) = 0.34570 0.38997
# Poissons Ratio (z) = 0.20954 0.20953
#
# Static dielectric constant tensor:
#      x y z
#    x 3.678520 0.000000 0.000000 
#    y 0.000000 3.678500 0.000000 
#    z 0.000000 0.000000 5.294860 
# 
# 
# High freq. dielectric constant tensor:
#      x y z
#    x 1.779460 0.000000 0.000000 
#    y 0.000000 1.779460 0.000000 
#    z 0.000000 0.000000 1.785630 
# 
# From -- ./inp_files/4017.got.cif
#   From: 2010.03.12/outbox.cif.g09.slc.cpg/sg115_3_cif.got.tgz:4017.got - 2010.04.14 02:11:21.
