data_PCOD8309398
_publ_section_title
;
Structure prediction by ZEFSAII (Michael W. Deem and Ramdas Pophale) SiO2 
 PCOD8309398
Probable space group: P -4 M 2
;
_chemical_formula_sum "Si O2"
_cell_formula_units_Z 48
_cell_length_a 9.080319
_cell_length_b 9.080319
_cell_length_c 31.512992
_cell_angle_alpha 90.000000
_cell_angle_beta 90.000000
_cell_angle_gamma 90.000000
_cell_volume 2598.315303
_symmetry_space_group_name_H-M "P -4 M 2"
_symmetry_group_IT_number 115
_symmetry_cell_setting 'tetragonal'
loop_
_space_group_symop_operation_xyz
x,y,z
y,-x,-z
-x,-y,z
-y,x,-z
y,x,-z
-y,-x,-z
-x,y,z
x,-y,z
loop_
_atom_site_type_symbol
_atom_site_label
_atom_site_fract_x
_atom_site_fract_y
_atom_site_fract_z
Si Si1 0.830430 0.673193 0.537997
Si Si2 0.334217 0.823460 0.296863
Si Si3 0.327732 0.171246 0.961411
Si Si4 0.175758 0.668830 0.885858
Si Si5 0.175182 0.165046 0.621979
Si Si6 0.839100 0.674269 0.793772
O O1 0.732857 0.732857 0.500000
O O2 0.811236 0.500000 0.541515
O O3 0.769876 0.742398 0.581640
O O4 0.000000 0.718121 0.530048
O O5 0.500000 0.770015 0.306213
O O6 0.233076 0.760150 0.334532
O O7 0.277296 0.760478 0.250684
O O8 0.328934 0.000000 0.295065
O O9 0.500000 0.203581 0.958259
O O10 0.251752 0.220700 0.918075
O O11 0.294946 0.000000 0.969213
O O12 0.262774 0.262774 0.000000
O O13 0.217468 0.500000 0.897041
O O14 0.238959 0.712644 0.838713
O O15 0.000000 0.687536 0.887557
O O16 0.000000 0.168839 0.623994
O O17 0.235849 0.000000 0.617409
O O18 0.858570 0.500000 0.791417
O O19 0.000000 0.748874 0.795098
#
# Coordination Sequence:
#
# PCOD8309398 Si02
#       6
#     8   8   8   8   8   8
#     4  10  20  33  49  69  93 123 159 198 242 292
#     4   8  12  20  36  59  90 127 162 194 231 277
#     4  11  24  39  54  74  99 127 161 201 245 294
#     4   9  17  31  52  77 103 131 165 203 242 286
#     4   9  16  25  39  62  93 126 158 195 239 285
#     4   7  11  21  39  64  94 127 160 194 233 277
#
# _framework density 18.473510000000001
#
# number of rings (size 3 to 8) (size 9 to 14) (size 15 to 20)
#    0.000    3.000    0.000    4.000    0.000    6.667 
#    0.000    0.833    0.000    3.000    0.000    1.167 
#    0.000    6.667    0.000    0.000    0.000    0.000 
#
# Total GULP energy -594716.027537 kJ/mol
# GULP energy per Si atom -12389.917240 kJ/mol
# Density = 1.843146 g / cm^3
# Si number density = 18.473510 Si / 1000 Ang^3
#
#
#
# Elastic Constant Matrix: (Units=GPa)
#
#
# Indices 1 2 3 4 5 6 
#
# 1 52.2751 24.8922 42.6140 0.0000 0.0000 0.0000
# 2 24.8922 52.2751 42.6140 0.0000 0.0000 0.0000
# 3 42.6140 42.6140 177.6408 0.0000 0.0000 0.0000
# 4 0.0000 0.0000 0.0000 -13.5285 0.0000 0.0000
# 5 0.0000 0.0000 0.0000 0.0000 -13.5285 0.0000
# 6 0.0000 0.0000 0.0000 0.0000 0.0000 16.9884
#
#
#
# Elastic Compliance Matrix: (Units=1/GPa)
#
#
# Indices 1 2 3 4 5 6 
#
# 1 0.027074 -0.009445 -0.004229 0.000000 0.000000 0.000000
# 2 -0.009445 0.027074 -0.004229 0.000000 0.000000 0.000000
# 3 -0.004229 -0.004229 0.007658 0.000000 0.000000 0.000000
# 4 0.000000 0.000000 0.000000 -0.073918 0.000000 0.000000
# 5 0.000000 0.000000 0.000000 0.000000 -0.073918 0.000000
# 6 0.000000 0.000000 0.000000 0.000000 0.000000 0.058864
#
#
# Mechanical properties :
#
#
# Convention : Reuss Voigt Hill
#
# Bulk Modulus (GPa) = 38.45966 55.82572 47.14269
# Shear Modulus (GPa) = 288.87730 9.45766 149.16748
#
# Velocity S-wave (km/s) = 12.51852 2.26510 8.99566
# Velocity P-wave (km/s) = 15.15965 6.09310 11.55294
#
# Compressibility (1/GPa) = 0.02600127
#
# Stress axis : x y z
#
# Youngs Moduli (GPa) = 36.93523 36.93523 130.57551
#
# Poissons Ratio (x) = 0.34884 0.55223
# Poissons Ratio (y) = 0.34884 0.55223
# Poissons Ratio (z) = 0.15621 0.15621
#
# Static dielectric constant tensor:
#      x y z
#    x 3.070760 0.000000 0.000000 
#    y 0.000000 3.070760 0.000000 
#    z 0.000000 0.000000 3.948380 
# 
# 
# High freq. dielectric constant tensor:
#      x y z
#    x 1.674400 0.000000 0.000000 
#    y 0.000000 1.674400 0.000000 
#    z 0.000000 0.000000 1.747380 
# 
# From -- ./inp_files/5908.got.cif
#   From: 2010.03.12/outbox.cif.g09.slc.cpg/sg115_3_cif.got.tgz:5908.got - 2010.04.14 02:11:21.
