data_PCOD8309733
_publ_section_title
;
Structure prediction by ZEFSAII (Michael W. Deem and Ramdas Pophale) SiO2 
 PCOD8309733
Probable space group: P -4 M 2
;
_chemical_formula_sum "Si O2"
_cell_formula_units_Z 48
_cell_length_a 9.269727
_cell_length_b 9.269727
_cell_length_c 31.296626
_cell_angle_alpha 90.000000
_cell_angle_beta 90.000000
_cell_angle_gamma 90.000000
_cell_volume 2689.251429
_symmetry_space_group_name_H-M "P -4 M 2"
_symmetry_group_IT_number 115
_symmetry_cell_setting 'tetragonal'
loop_
_space_group_symop_operation_xyz
x,y,z
y,-x,-z
-x,-y,z
-y,x,-z
y,x,-z
-y,-x,-z
-x,y,z
x,-y,z
loop_
_atom_site_type_symbol
_atom_site_label
_atom_site_fract_x
_atom_site_fract_y
_atom_site_fract_z
Si Si1 0.667882 0.334493 0.121194
Si Si2 0.831958 0.168153 0.711382
Si Si3 0.667243 0.328832 0.637602
Si Si4 0.666139 0.831872 0.795052
Si Si5 0.169531 0.333177 0.963286
Si Si6 0.667920 0.331070 0.545033
O O1 0.500000 0.316394 0.130685
O O2 0.708527 0.500000 0.110942
O O3 0.751028 0.277971 0.162834
O O4 0.717121 0.237945 0.081399
O O5 0.765608 0.253237 0.672147
O O6 0.758769 0.223075 0.754998
O O7 0.000000 0.202660 0.714318
O O8 0.800329 0.000000 0.704435
O O9 0.500000 0.284903 0.644079
O O10 0.683997 0.500000 0.641649
O O11 0.727039 0.274243 0.590777
O O12 0.500000 0.793796 0.785593
O O13 0.689376 0.000000 0.803181
O O14 0.207443 0.500000 0.972562
O O15 0.000000 0.306776 0.961037
O O16 0.235527 0.235527 0.000000
O O17 0.734284 0.265717 0.500000
O O18 0.500000 0.297125 0.545623
O O19 0.695674 0.500000 0.543415
#
# Coordination Sequence:
#
# PCOD8309733 Si02
#       6
#     8   8   8   8   8   8
#     4   9  18  33  53  76 101 129 161 199 244 292
#     4  10  21  35  49  67  95 132 169 201 238 287
#     4   9  17  29  48  74  98 121 155 199 244 290
#     4   9  18  33  52  72  94 123 161 203 244 287
#     4  10  21  36  54  77 105 137 172 207 243 286
#     4   7  10  19  38  65  94 119 145 185 238 289
#
# _framework density 17.848832000000002
#
# number of rings (size 3 to 8) (size 9 to 14) (size 15 to 20)
#    0.000    3.000    0.000    2.500    0.000    4.333 
#    0.000    3.333    0.000    1.000    0.000    5.833 
#    0.000    0.000    0.000    0.000    0.000    0.000 
#
# Total GULP energy -594829.808569 kJ/mol
# GULP energy per Si atom -12392.287679 kJ/mol
# Density = 1.780821 g / cm^3
# Si number density = 17.848832 Si / 1000 Ang^3
#
#
#
# Elastic Constant Matrix: (Units=GPa)
#
#
# Indices 1 2 3 4 5 6 
#
# 1 56.6498 34.4673 69.3198 0.0000 0.0000 0.0000
# 2 34.4673 56.6499 69.3198 0.0000 0.0000 0.0000
# 3 69.3198 69.3198 204.3670 0.0000 0.0000 0.0000
# 4 0.0000 0.0000 0.0000 -9.3642 0.0000 0.0000
# 5 0.0000 0.0000 0.0000 0.0000 -9.3639 0.0000
# 6 0.0000 0.0000 0.0000 0.0000 0.0000 21.6330
#
#
#
# Elastic Compliance Matrix: (Units=1/GPa)
#
#
# Indices 1 2 3 4 5 6 
#
# 1 0.033880 -0.011200 -0.007693 0.000000 0.000000 0.000000
# 2 -0.011200 0.033880 -0.007693 0.000000 0.000000 0.000000
# 3 -0.007693 -0.007693 0.010112 0.000000 0.000000 0.000000
# 4 0.000000 0.000000 0.000000 -0.106790 0.000000 0.000000
# 5 0.000000 0.000000 0.000000 0.000000 -0.106793 0.000000
# 6 0.000000 0.000000 0.000000 0.000000 0.000000 0.046226
#
#
# Mechanical properties :
#
#
# Convention : Reuss Voigt Hill
#
# Bulk Modulus (GPa) = 40.48522 73.76448 57.12485
# Shear Modulus (GPa) = -178.06706 10.21830 -83.92438
#
# Velocity S-wave (km/s) = -9.99903 2.39527 -6.86452
# Velocity P-wave (km/s) = 10.51551 7.00477 5.54568
#
# Compressibility (1/GPa) = 0.02470037
#
# Stress axis : x y z
#
# Youngs Moduli (GPa) = 29.51561 29.51569 98.89336
#
# Poissons Ratio (x) = 0.33058 0.76078
# Poissons Ratio (y) = 0.33058 0.76077
# Poissons Ratio (z) = 0.22706 0.22706
#
# Static dielectric constant tensor:
#      x y z
#    x 3.083490 0.000000 0.000000 
#    y 0.000000 3.083490 0.000000 
#    z 0.000000 0.000000 3.742270 
# 
# 
# High freq. dielectric constant tensor:
#      x y z
#    x 1.664570 0.000000 0.000000 
#    y 0.000000 1.664570 0.000000 
#    z 0.000000 0.000000 1.715700 
# 
# From -- ./inp_files/6102.got.cif
#   From: 2010.03.12/outbox.cif.g09.slc.cpg/sg115_4_cif.got.tgz:6102.got - 2010.04.14 02:11:21.
