data_PCOD8309516
_publ_section_title
;
Structure prediction by ZEFSAII (Michael W. Deem and Ramdas Pophale) SiO2 
 PCOD8309516
Probable space group: P -4 M 2
;
_chemical_formula_sum "Si O2"
_cell_formula_units_Z 48
_cell_length_a 9.081890
_cell_length_b 9.081890
_cell_length_c 30.802320
_cell_angle_alpha 90.000000
_cell_angle_beta 90.000000
_cell_angle_gamma 90.000000
_cell_volume 2540.597715
_symmetry_space_group_name_H-M "P -4 M 2"
_symmetry_group_IT_number 115
_symmetry_cell_setting 'tetragonal'
loop_
_space_group_symop_operation_xyz
x,y,z
y,-x,-z
-x,-y,z
-y,x,-z
y,x,-z
-y,-x,-z
-x,y,z
x,-y,z
loop_
_atom_site_type_symbol
_atom_site_label
_atom_site_fract_x
_atom_site_fract_y
_atom_site_fract_z
Si Si1 0.824717 0.835889 0.452543
Si Si2 0.329635 0.171741 0.291687
Si Si3 0.825064 0.666275 0.369068
Si Si4 0.827421 0.169110 0.126746
Si Si5 0.830884 0.672476 0.961595
Si Si6 0.669236 0.672605 0.203666
O O1 0.775085 0.775085 0.500000
O O2 0.765443 0.728325 0.415005
O O3 0.000000 0.843121 0.452230
O O4 0.760994 0.000000 0.444127
O O5 0.500000 0.205392 0.301021
O O6 0.235054 0.233278 0.330917
O O7 0.277452 0.249902 0.247662
O O8 0.297767 0.000000 0.286647
O O9 0.766980 0.500000 0.363736
O O10 0.000000 0.672661 0.367583
O O11 0.750457 0.220396 0.082497
O O12 0.770406 0.271594 0.164977
O O13 0.000000 0.192556 0.121057
O O14 0.787574 0.000000 0.137413
O O15 0.807309 0.500000 0.955567
O O16 0.000000 0.711950 0.972320
O O17 0.728646 0.728646 0.000000
O O18 0.500000 0.713118 0.193433
O O19 0.691946 0.500000 0.209586
#
# Coordination Sequence:
#
# PCOD8309516 Si02
#       6
#     8   8   8   8   8   8
#     4   8  14  27  48  71  96 131 175 219 260 303
#     4  10  21  37  57  79 103 136 178 220 263 313
#     4  10  20  33  51  77 108 140 173 212 261 314
#     4  10  21  37  58  83 110 142 180 221 265 313
#     4  10  21  37  58  83 111 145 184 225 269 316
#     4  10  21  37  57  80 107 140 176 216 265 318
#
# _framework density 18.893191999999999
#
# number of rings (size 3 to 8) (size 9 to 14) (size 15 to 20)
#    0.000    2.333    0.000    3.000    0.000    6.333 
#    0.000    0.833    0.000    3.000    0.000    0.000 
#    0.000    0.000    0.000    0.000    0.000    0.000 
#
# Total GULP energy -595325.907041 kJ/mol
# GULP energy per Si atom -12402.623063 kJ/mol
# Density = 1.885019 g / cm^3
# Si number density = 18.893192 Si / 1000 Ang^3
#
#
#
# Elastic Constant Matrix: (Units=GPa)
#
#
# Indices 1 2 3 4 5 6 
#
# 1 72.9434 34.2712 57.6091 0.0000 0.0000 0.0000
# 2 34.2712 72.9434 57.6091 0.0000 0.0000 0.0000
# 3 57.6091 57.6091 157.9885 0.0000 0.0000 0.0000
# 4 0.0000 0.0000 0.0000 -36.6019 0.0000 0.0000
# 5 0.0000 0.0000 0.0000 0.0000 -36.6019 0.0000
# 6 0.0000 0.0000 0.0000 0.0000 0.0000 26.7724
#
#
#
# Elastic Compliance Matrix: (Units=1/GPa)
#
#
# Indices 1 2 3 4 5 6 
#
# 1 0.020598 -0.005261 -0.005593 0.000000 0.000000 0.000000
# 2 -0.005261 0.020598 -0.005593 0.000000 0.000000 0.000000
# 3 -0.005593 -0.005593 0.010408 0.000000 0.000000 0.000000
# 4 0.000000 0.000000 0.000000 -0.027321 0.000000 0.000000
# 5 0.000000 0.000000 0.000000 0.000000 -0.027321 0.000000
# 6 0.000000 0.000000 0.000000 0.000000 0.000000 0.037352
#
#
# Mechanical properties :
#
#
# Convention : Reuss Voigt Hill
#
# Bulk Modulus (GPa) = 53.44112 66.98379 60.21245
# Shear Modulus (GPa) = 68.08054 1.00610 34.54332
#
# Velocity S-wave (km/s) = 6.00938 0.73053 4.28056
# Velocity P-wave (km/s) = 8.74629 6.02017 7.50800
#
# Compressibility (1/GPa) = 0.01871218
#
# Stress axis : x y z
#
# Youngs Moduli (GPa) = 48.54896 48.54896 96.07878
#
# Poissons Ratio (x) = 0.25540 0.53733
# Poissons Ratio (y) = 0.25540 0.53733
# Poissons Ratio (z) = 0.27151 0.27151
#
# Static dielectric constant tensor:
#      x y z
#    x 3.437450 0.000000 0.000000 
#    y 0.000000 3.437450 0.000000 
#    z 0.000000 0.000000 3.679190 
# 
# 
# High freq. dielectric constant tensor:
#      x y z
#    x 1.724900 0.000000 0.000000 
#    y 0.000000 1.724900 0.000000 
#    z 0.000000 0.000000 1.748880 
# 
# From -- ./inp_files/5962.got.cif
#   From: 2010.03.12/outbox.cif.g09.slc.cpg/sg115_3_cif.got.tgz:5962.got - 2010.04.14 02:11:21.
