data_PCOD8309619
_publ_section_title
;
Structure prediction by ZEFSAII (Michael W. Deem and Ramdas Pophale) SiO2 
 PCOD8309619
Probable space group: P -4 M 2
;
_chemical_formula_sum "Si O2"
_cell_formula_units_Z 36
_cell_length_a 9.072755
_cell_length_b 9.072755
_cell_length_c 23.148188
_cell_angle_alpha 90.000000
_cell_angle_beta 90.000000
_cell_angle_gamma 90.000000
_cell_volume 1905.440394
_symmetry_space_group_name_H-M "P -4 M 2"
_symmetry_group_IT_number 115
_symmetry_cell_setting 'tetragonal'
loop_
_space_group_symop_operation_xyz
x,y,z
y,-x,-z
-x,-y,z
-y,x,-z
y,x,-z
-y,-x,-z
-x,y,z
x,-y,z
loop_
_atom_site_type_symbol
_atom_site_label
_atom_site_fract_x
_atom_site_fract_y
_atom_site_fract_z
Si Si1 0.324752 0.166175 0.886455
Si Si2 0.827097 0.830667 0.668987
Si Si3 0.330030 0.673078 0.772029
Si Si4 0.672455 0.169238 0.551097
Si Si5 0.671859 0.328142 0.000000
O O1 0.500000 0.171002 0.887574
O O2 0.267450 0.251267 0.829967
O O3 0.264273 0.244716 0.944019
O O4 0.264244 0.000000 0.884445
O O5 0.766458 0.727272 0.718934
O O6 0.752515 0.780701 0.609481
O O7 0.000000 0.806176 0.662682
O O8 0.787588 0.000000 0.683368
O O9 0.500000 0.716780 0.761133
O O10 0.311071 0.500000 0.779610
O O11 0.727817 0.272184 0.500000
O O12 0.500000 0.193381 0.559932
O O13 0.710744 0.000000 0.536238
O O14 0.500000 0.296886 0.009325
#
# Coordination Sequence:
#
# PCOD8309619 Si02
#       5
#     8   8   8   8   4
#     4   9  17  30  50  75 102 134 172 214 261 313
#     4  10  21  37  57  80 107 141 179 218 263 315
#     4  10  20  34  54  80 108 139 177 220 265 313
#     4  10  21  37  58  83 110 142 179 218 262 312
#     4   9  16  28  48  73 100 130 168 213 258 308
#
# _framework density 18.893270999999999
#
# number of rings (size 3 to 8) (size 9 to 14) (size 15 to 20)
#    0.000    2.333    0.000    2.667    0.000    7.556 
#    0.000    1.111    0.000    4.333    0.000    0.000 
#    0.000    0.000    0.000    0.000    0.000    0.000 
#
# Total GULP energy -446531.156565 kJ/mol
# GULP energy per Si atom -12403.643238 kJ/mol
# Density = 1.885027 g / cm^3
# Si number density = 18.893271 Si / 1000 Ang^3
#
#
#
# Elastic Constant Matrix: (Units=GPa)
#
#
# Indices 1 2 3 4 5 6 
#
# 1 79.5514 38.7297 64.5791 0.0000 0.0000 0.0000
# 2 38.7297 79.5508 64.5777 0.0000 0.0000 0.0000
# 3 64.5791 64.5777 170.0338 0.0000 0.0000 0.0000
# 4 0.0000 0.0000 0.0000 10.0774 0.0000 0.0000
# 5 0.0000 0.0000 0.0000 0.0000 10.0795 0.0000
# 6 0.0000 0.0000 0.0000 0.0000 0.0000 23.7495
#
#
#
# Elastic Compliance Matrix: (Units=1/GPa)
#
#
# Indices 1 2 3 4 5 6 
#
# 1 0.019471 -0.005026 -0.005486 0.000000 0.000000 0.000000
# 2 -0.005026 0.019471 -0.005486 0.000000 0.000000 0.000000
# 3 -0.005486 -0.005486 0.010048 0.000000 0.000000 0.000000
# 4 0.000000 0.000000 0.000000 0.099232 0.000000 0.000000
# 5 0.000000 0.000000 0.000000 0.000000 0.099211 0.000000
# 6 0.000000 0.000000 0.000000 0.000000 0.000000 0.042106
#
#
# Mechanical properties :
#
#
# Convention : Reuss Voigt Hill
#
# Bulk Modulus (GPa) = 58.84476 73.87877 66.36176
# Shear Modulus (GPa) = 15.28113 19.53125 17.40619
#
# Velocity S-wave (km/s) = 2.84705 3.21871 3.03857
# Velocity P-wave (km/s) = 6.48237 7.28022 6.89285
#
# Compressibility (1/GPa) = 0.01699387
#
# Stress axis : x y z
#
# Youngs Moduli (GPa) = 51.35804 51.35851 99.51747
#
# Poissons Ratio (x) = 0.25812 0.54599
# Poissons Ratio (y) = 0.25812 0.54596
# Poissons Ratio (z) = 0.28177 0.28176
#
# Static dielectric constant tensor:
#      x y z
#    x 3.354320 0.000000 0.000000 
#    y 0.000000 3.354310 0.000000 
#    z 0.000000 0.000000 3.637420 
# 
# 
# High freq. dielectric constant tensor:
#      x y z
#    x 1.721960 0.000000 0.000000 
#    y 0.000000 1.721960 0.000000 
#    z 0.000000 0.000000 1.749520 
# 
# From -- ./inp_files/4647.got.cif
#   From: 2010.03.12/outbox.cif.g09.slc.cpg/sg115_3_cif.got.tgz:4647.got - 2010.04.14 02:11:21.
