data_PCOD8309433
_publ_section_title
;
Structure prediction by ZEFSAII (Michael W. Deem and Ramdas Pophale) SiO2 
 PCOD8309433
Probable space group: P -4 M 2
;
_chemical_formula_sum "Si O2"
_cell_formula_units_Z 44
_cell_length_a 9.156429
_cell_length_b 9.156429
_cell_length_c 28.491667
_cell_angle_alpha 90.000000
_cell_angle_beta 90.000000
_cell_angle_gamma 90.000000
_cell_volume 2388.746833
_symmetry_space_group_name_H-M "P -4 M 2"
_symmetry_group_IT_number 115
_symmetry_cell_setting 'tetragonal'
loop_
_space_group_symop_operation_xyz
x,y,z
y,-x,-z
-x,-y,z
-y,x,-z
y,x,-z
-y,-x,-z
-x,y,z
x,-y,z
loop_
_atom_site_type_symbol
_atom_site_label
_atom_site_fract_x
_atom_site_fract_y
_atom_site_fract_z
Si Si1 0.167876 0.167876 0.500000
Si Si2 0.335139 0.326075 0.231014
Si Si3 0.164203 0.674303 0.140493
Si Si4 0.832718 0.326918 0.322785
Si Si5 0.325899 0.337080 0.948630
Si Si6 0.330856 0.170341 0.405995
O O1 0.269287 0.213851 0.456778
O O2 0.000000 0.194088 0.485435
O O3 0.500000 0.265110 0.232772
O O4 0.335341 0.500000 0.230227
O O5 0.256897 0.265290 0.184350
O O6 0.248046 0.268217 0.276271
O O7 0.165869 0.500000 0.140430
O O8 0.232742 0.735631 0.092167
O O9 0.000000 0.734056 0.144817
O O10 0.821265 0.500000 0.326244
O O11 0.756134 0.260629 0.367795
O O12 0.000000 0.274976 0.320610
O O13 0.500000 0.342416 0.947504
O O14 0.264002 0.500000 0.939903
O O15 0.277120 0.277120 0.000000
O O16 0.500000 0.213852 0.403911
O O17 0.306167 0.000000 0.396166
#
# Coordination Sequence:
#
# PCOD8309433 Si02
#       6
#     4   8   8   8   8   8
#     4   9  18  34  54  73  96 128 164 201 242 289
#     4   9  16  26  41  62  91 126 160 196 242 293
#     4   9  15  22  34  55  84 115 147 186 233 283
#     4  10  20  33  50  73 101 133 169 208 249 294
#     4   8  13  21  33  50  74 105 140 177 220 273
#     4  10  21  36  54  77 104 133 166 204 246 294
#
# _framework density 18.419699000000001
#
# number of rings (size 3 to 8) (size 9 to 14) (size 15 to 20)
#    0.000    2.818    0.000    2.727    0.000    7.273 
#    0.000    1.818    0.000    0.000    0.000    1.273 
#    0.000    7.636    0.000    0.000    0.000    0.000 
#
# Total GULP energy -545543.536878 kJ/mol
# GULP energy per Si atom -12398.716747 kJ/mol
# Density = 1.837778 g / cm^3
# Si number density = 18.419699 Si / 1000 Ang^3
#
#
#
# Elastic Constant Matrix: (Units=GPa)
#
#
# Indices 1 2 3 4 5 6 
#
# 1 83.1703 29.4140 63.2865 0.0000 0.0000 0.0000
# 2 29.4140 83.1703 63.2865 0.0000 0.0000 0.0000
# 3 63.2865 63.2865 164.4233 0.0000 0.0000 0.0000
# 4 0.0000 0.0000 0.0000 5.2616 0.0000 0.0000
# 5 0.0000 0.0000 0.0000 0.0000 5.2616 0.0000
# 6 0.0000 0.0000 0.0000 0.0000 0.0000 15.7043
#
#
#
# Elastic Compliance Matrix: (Units=1/GPa)
#
#
# Indices 1 2 3 4 5 6 
#
# 1 0.017130 -0.001472 -0.006027 0.000000 0.000000 0.000000
# 2 -0.001472 0.017130 -0.006027 0.000000 0.000000 0.000000
# 3 -0.006027 -0.006027 0.010721 0.000000 0.000000 0.000000
# 4 0.000000 0.000000 0.000000 0.190056 0.000000 0.000000
# 5 0.000000 0.000000 0.000000 0.000000 0.190056 0.000000
# 6 0.000000 0.000000 0.000000 0.000000 0.000000 0.063677
#
#
# Mechanical properties :
#
#
# Convention : Reuss Voigt Hill
#
# Bulk Modulus (GPa) = 55.77251 71.41530 63.59390
# Shear Modulus (GPa) = 9.58226 16.89730 13.23978
#
# Velocity S-wave (km/s) = 2.28330 3.03206 2.68392
# Velocity P-wave (km/s) = 6.10703 7.14935 6.64864
#
# Compressibility (1/GPa) = 0.01792998
#
# Stress axis : x y z
#
# Youngs Moduli (GPa) = 58.37683 58.37683 93.27345
#
# Poissons Ratio (x) = 0.08595 0.56213
# Poissons Ratio (y) = 0.08595 0.56213
# Poissons Ratio (z) = 0.35182 0.35182
#
# Static dielectric constant tensor:
#      x y z
#    x 3.207830 0.000000 0.000000 
#    y 0.000000 3.207830 0.000000 
#    z 0.000000 0.000000 3.645240 
# 
# 
# High freq. dielectric constant tensor:
#      x y z
#    x 1.683710 0.000000 0.000000 
#    y 0.000000 1.683710 0.000000 
#    z 0.000000 0.000000 1.733610 
# 
# From -- ./inp_files/5740.got.cif
#   From: 2010.03.12/outbox.cif.g09.slc.cpg/sg115_3_cif.got.tgz:5740.got - 2010.04.14 02:11:21.
