data_PCOD8309661
_publ_section_title
;
Structure prediction by ZEFSAII (Michael W. Deem and Ramdas Pophale) SiO2 
 PCOD8309661
Probable space group: P -4 M 2
;
_chemical_formula_sum "Si O2"
_cell_formula_units_Z 48
_cell_length_a 8.169058
_cell_length_b 8.169058
_cell_length_c 34.160849
_cell_angle_alpha 90.000000
_cell_angle_beta 90.000000
_cell_angle_gamma 90.000000
_cell_volume 2279.673311
_symmetry_space_group_name_H-M "P -4 M 2"
_symmetry_group_IT_number 115
_symmetry_cell_setting 'tetragonal'
loop_
_space_group_symop_operation_xyz
x,y,z
y,-x,-z
-x,-y,z
-y,x,-z
y,x,-z
-y,-x,-z
-x,y,z
x,-y,z
loop_
_atom_site_type_symbol
_atom_site_label
_atom_site_fract_x
_atom_site_fract_y
_atom_site_fract_z
Si Si1 0.687927 0.312068 0.380038
Si Si2 0.193002 0.500000 0.740324
Si Si3 0.304845 0.500000 0.828549
Si Si4 0.810637 0.180001 0.697265
Si Si5 0.311526 0.176181 0.962635
Si Si6 0.812616 0.305579 0.123098
Si Si7 0.316553 0.812652 0.461201
O O1 0.500000 0.250975 0.378546
O O2 0.703641 0.500000 0.368298
O O3 0.793258 0.210142 0.349095
O O4 0.756762 0.285333 0.424023
O O5 0.234075 0.500000 0.785514
O O6 0.269763 0.665931 0.720806
O O7 0.000000 0.500000 0.733050
O O8 0.500000 0.500000 0.828212
O O9 0.237360 0.332429 0.849015
O O10 0.000000 0.173807 0.707803
O O11 0.734627 0.000000 0.708570
O O12 0.500000 0.156926 0.953830
O O13 0.238759 0.234333 0.920756
O O14 0.235371 0.000000 0.973989
O O15 0.292347 0.292347 0.000000
O O16 0.808258 0.500000 0.125233
O O17 0.000000 0.247004 0.134218
O O18 0.210157 0.789844 0.500000
O O19 0.500000 0.750797 0.470494
O O20 0.314217 0.000000 0.448757
#
# Coordination Sequence:
#
# PCOD8309661 Si02
#       7
#     8   4   4   8   8   8   8
#     4  10  20  35  58  85 113 145 182 230 286 339
#     4  10  22  40  58  82 118 146 176 234 288 336
#     4  10  20  34  58  82 104 144 192 228 278 344
#     4  10  21  38  61  85 111 148 187 225 280 346
#     4   9  18  31  48  73 104 138 178 225 273 323
#     4   8  16  32  51  75 109 142 180 232 281 330
#     4  10  21  36  55  79 110 150 193 235 279 328
#
# _framework density 21.055648000000001
#
# number of rings (size 3 to 8) (size 9 to 14) (size 15 to 20)
#    0.000    2.500    0.833    2.000    1.167    4.333 
#    0.000    0.833    0.000    1.000    0.000    0.000 
#    0.000    0.000    0.000    0.000    0.000    0.000 
#
# Total GULP energy -594684.604486 kJ/mol
# GULP energy per Si atom -12389.262593 kJ/mol
# Density = 2.100772 g / cm^3
# Si number density = 21.055648 Si / 1000 Ang^3
#
#
#
# Elastic Constant Matrix: (Units=GPa)
#
#
# Indices 1 2 3 4 5 6 
#
# 1 77.3935 20.7162 42.4198 0.0000 0.0000 0.0000
# 2 20.7162 77.3932 42.4195 0.0000 0.0000 0.0000
# 3 42.4198 42.4195 146.4875 0.0000 0.0000 0.0000
# 4 0.0000 0.0000 0.0000 20.3816 0.0000 0.0000
# 5 0.0000 0.0000 0.0000 0.0000 20.3816 0.0000
# 6 0.0000 0.0000 0.0000 0.0000 0.0000 11.5335
#
#
#
# Elastic Compliance Matrix: (Units=1/GPa)
#
#
# Indices 1 2 3 4 5 6 
#
# 1 0.015621 -0.002023 -0.003938 0.000000 0.000000 0.000000
# 2 -0.002023 0.015621 -0.003938 0.000000 0.000000 0.000000
# 3 -0.003938 -0.003938 0.009107 0.000000 0.000000 0.000000
# 4 0.000000 0.000000 0.000000 0.049064 0.000000 0.000000
# 5 0.000000 0.000000 0.000000 0.000000 0.049064 0.000000
# 6 0.000000 0.000000 0.000000 0.000000 0.000000 0.086704
#
#
# Mechanical properties :
#
#
# Convention : Reuss Voigt Hill
#
# Bulk Modulus (GPa) = 48.65709 56.93170 52.79439
# Shear Modulus (GPa) = 19.85488 23.50726 21.68107
#
# Velocity S-wave (km/s) = 3.07412 3.34493 3.21238
# Velocity P-wave (km/s) = 5.97990 6.48194 6.23597
#
# Compressibility (1/GPa) = 0.02055199
#
# Stress axis : x y z
#
# Youngs Moduli (GPa) = 64.01748 64.01736 109.80549
#
# Poissons Ratio (x) = 0.12951 0.43237
# Poissons Ratio (y) = 0.12951 0.43237
# Poissons Ratio (z) = 0.25208 0.25207
#
# Static dielectric constant tensor:
#      x y z
#    x 3.792240 0.000000 0.000000 
#    y 0.000000 3.792240 0.000000 
#    z 0.000000 0.000000 3.752810 
# 
# 
# High freq. dielectric constant tensor:
#      x y z
#    x 1.806330 0.000000 0.000000 
#    y 0.000000 1.806330 0.000000 
#    z 0.000000 0.000000 1.824370 
# 
# From -- ./inp_files/6216.got.cif
#   From: 2010.03.12/outbox.cif.g09.slc.cpg/sg115_4_cif.got.tgz:6216.got - 2010.04.14 02:11:21.
