data_PCOD8309616
_publ_section_title
;
Structure prediction by ZEFSAII (Michael W. Deem and Ramdas Pophale) SiO2 
 PCOD8309616
Probable space group: P -4 M 2
;
_chemical_formula_sum "Si O2"
_cell_formula_units_Z 48
_cell_length_a 9.098265
_cell_length_b 9.098265
_cell_length_c 30.816793
_cell_angle_alpha 90.000000
_cell_angle_beta 90.000000
_cell_angle_gamma 90.000000
_cell_volume 2550.965619
_symmetry_space_group_name_H-M "P -4 M 2"
_symmetry_group_IT_number 115
_symmetry_cell_setting 'tetragonal'
loop_
_space_group_symop_operation_xyz
x,y,z
y,-x,-z
-x,-y,z
-y,x,-z
y,x,-z
-y,-x,-z
-x,y,z
x,-y,z
loop_
_atom_site_type_symbol
_atom_site_label
_atom_site_fract_x
_atom_site_fract_y
_atom_site_fract_z
Si Si1 0.671412 0.169394 0.836417
Si Si2 0.830192 0.169809 0.000000
Si Si3 0.673150 0.168082 0.086966
Si Si4 0.165711 0.325276 0.414840
Si Si5 0.669818 0.327407 0.671003
Si Si6 0.169047 0.827437 0.251843
Si Si7 0.328603 0.671398 0.500000
O O1 0.500000 0.198168 0.829469
O O2 0.728173 0.267393 0.875557
O O3 0.753952 0.219219 0.792962
O O4 0.705450 0.000000 0.847142
O O5 0.737979 0.223323 0.041346
O O6 0.000000 0.200127 0.010471
O O7 0.500000 0.183580 0.084827
O O8 0.722101 0.000000 0.095945
O O9 0.169514 0.500000 0.415675
O O10 0.251351 0.268514 0.372510
O O11 0.244463 0.265411 0.458058
O O12 0.000000 0.264473 0.413283
O O13 0.500000 0.285374 0.679227
O O14 0.690392 0.500000 0.665421
O O15 0.765753 0.271985 0.710774
O O16 0.000000 0.788044 0.262461
O O17 0.193713 0.000000 0.247517
O O18 0.500000 0.702276 0.492717
#
# Coordination Sequence:
#
# PCOD8309616 Si02
#       7
#     8   4   8   8   8   8   4
#     4  10  21  37  58  82 107 139 179 220 263 314
#     4   9  18  34  56  79 106 144 186 223 260 309
#     4  10  21  36  55  81 112 144 178 219 267 316
#     4   9  17  30  50  75 102 134 172 214 260 310
#     4  10  20  34  54  80 108 139 176 217 262 313
#     4  10  21  37  57  80 106 138 176 218 265 316
#     4   9  16  28  48  73 100 130 168 213 258 308
#
# _framework density 18.816403000000001
#
# number of rings (size 3 to 8) (size 9 to 14) (size 15 to 20)
#    0.000    2.333    0.000    2.500    0.000    7.333 
#    0.000    2.500    0.000    3.250    0.000    0.000 
#    0.000    0.000    0.000    0.000    0.000    0.000 
#
# Total GULP energy -595386.782352 kJ/mol
# GULP energy per Si atom -12403.891299 kJ/mol
# Density = 1.877358 g / cm^3
# Si number density = 18.816403 Si / 1000 Ang^3
#
#
#
# Elastic Constant Matrix: (Units=GPa)
#
#
# Indices 1 2 3 4 5 6 
#
# 1 78.3942 39.8528 66.4060 0.0000 0.0000 0.0000
# 2 39.8528 78.3935 66.4062 0.0000 0.0000 0.0000
# 3 66.4060 66.4062 169.1095 0.0000 0.0000 0.0000
# 4 0.0000 0.0000 0.0000 -303.4015 0.0000 0.0000
# 5 0.0000 0.0000 0.0000 0.0000 -331.6659 0.0000
# 6 0.0000 0.0000 0.0000 0.0000 0.0000 24.2451
#
#
#
# Elastic Compliance Matrix: (Units=1/GPa)
#
#
# Indices 1 2 3 4 5 6 
#
# 1 0.020538 -0.005408 -0.005941 0.000000 0.000000 0.000000
# 2 -0.005408 0.020538 -0.005941 0.000000 0.000000 0.000000
# 3 -0.005941 -0.005941 0.010579 0.000000 0.000000 0.000000
# 4 0.000000 0.000000 0.000000 -0.003296 0.000000 0.000000
# 5 0.000000 0.000000 0.000000 0.000000 -0.003015 0.000000
# 6 0.000000 0.000000 0.000000 0.000000 0.000000 0.041245
#
#
# Mechanical properties :
#
#
# Convention : Reuss Voigt Hill
#
# Bulk Modulus (GPa) = 58.56748 74.58079 66.57413
# Shear Modulus (GPa) = 39.41264 -111.94897 -36.26816
#
# Velocity S-wave (km/s) = 4.58163 -7.72169 -4.39507
# Velocity P-wave (km/s) = 7.69297 6.30693 3.11484
#
# Compressibility (1/GPa) = 0.01707432
#
# Stress axis : x y z
#
# Youngs Moduli (GPa) = 48.69024 48.68945 94.52363
#
# Poissons Ratio (x) = 0.26332 0.56158
# Poissons Ratio (y) = 0.26332 0.56160
# Poissons Ratio (z) = 0.28928 0.28928
#
# Static dielectric constant tensor:
#      x y z
#    x 7.773950 0.000000 0.000000 
#    y 0.000000 7.434550 0.000000 
#    z 0.000000 0.000000 3.609370 
# 
# 
# High freq. dielectric constant tensor:
#      x y z
#    x 1.720600 0.000000 0.000000 
#    y 0.000000 1.720600 0.000000 
#    z 0.000000 0.000000 1.745420 
# 
# From -- ./inp_files/6195.got.cif
#   From: 2010.03.12/outbox.cif.g09.slc.cpg/sg115_4_cif.got.tgz:6195.got - 2010.04.14 02:11:21.
