data_PCOD8309524
_publ_section_title
;
Structure prediction by ZEFSAII (Michael W. Deem and Ramdas Pophale) SiO2 
 PCOD8309524
Probable space group: P -4 M 2
;
_chemical_formula_sum "Si O2"
_cell_formula_units_Z 48
_cell_length_a 9.122723
_cell_length_b 9.122723
_cell_length_c 30.644064
_cell_angle_alpha 90.000000
_cell_angle_beta 90.000000
_cell_angle_gamma 90.000000
_cell_volume 2550.323879
_symmetry_space_group_name_H-M "P -4 M 2"
_symmetry_group_IT_number 115
_symmetry_cell_setting 'tetragonal'
loop_
_space_group_symop_operation_xyz
x,y,z
y,-x,-z
-x,-y,z
-y,x,-z
y,x,-z
-y,-x,-z
-x,y,z
x,-y,z
loop_
_atom_site_type_symbol
_atom_site_label
_atom_site_fract_x
_atom_site_fract_y
_atom_site_fract_z
Si Si1 0.165228 0.325685 0.709406
Si Si2 0.168459 0.671426 0.961837
Si Si3 0.327802 0.669372 0.795702
Si Si4 0.828139 0.168576 0.127236
Si Si5 0.171454 0.834125 0.450240
Si Si6 0.672385 0.668099 0.375262
O O1 0.168227 0.500000 0.708224
O O2 0.251794 0.270154 0.751874
O O3 0.242145 0.263633 0.665904
O O4 0.000000 0.264703 0.711304
O O5 0.194747 0.500000 0.955024
O O6 0.215234 0.752555 0.917740
O O7 0.000000 0.706621 0.973724
O O8 0.271897 0.728104 0.000000
O O9 0.500000 0.689988 0.790079
O O10 0.286264 0.500000 0.804245
O O11 0.272273 0.765954 0.835498
O O12 0.000000 0.195441 0.122340
O O13 0.791801 0.000000 0.138775
O O14 0.208032 0.791969 0.500000
O O15 0.256878 0.722768 0.419775
O O16 0.000000 0.819178 0.441320
O O17 0.223322 0.000000 0.440489
O O18 0.500000 0.690682 0.379390
O O19 0.714493 0.500000 0.367860
#
# Coordination Sequence:
#
# PCOD8309524 Si02
#       6
#     8   8   8   8   8   8
#     4   9  17  31  53  78 104 138 178 217 259 310
#     4  10  21  37  58  83 110 142 180 221 266 316
#     4  10  20  34  54  80 109 140 175 218 267 315
#     4  10  21  37  57  80 107 141 180 220 263 313
#     4   9  19  36  55  74  99 134 176 219 262 310
#     4  10  20  33  51  78 110 139 170 212 261 313
#
# _framework density 18.82114
#
# number of rings (size 3 to 8) (size 9 to 14) (size 15 to 20)
#    0.000    2.333    0.000    3.000    0.000    7.667 
#    0.000    3.333    0.000    5.000    0.000    0.000 
#    0.000    0.000    0.000    0.000    0.000    0.000 
#
# Total GULP energy -595362.807065 kJ/mol
# GULP energy per Si atom -12403.391814 kJ/mol
# Density = 1.877830 g / cm^3
# Si number density = 18.821140 Si / 1000 Ang^3
#
#
#
# Elastic Constant Matrix: (Units=GPa)
#
#
# Indices 1 2 3 4 5 6 
#
# 1 80.8381 49.0776 67.8620 0.0000 0.0000 0.0000
# 2 49.0776 80.8391 67.8625 0.0000 0.0000 0.0000
# 3 67.8620 67.8625 149.4144 0.0000 0.0000 0.0000
# 4 0.0000 0.0000 0.0000 26.0488 0.0000 0.0000
# 5 0.0000 0.0000 0.0000 0.0000 26.0492 0.0000
# 6 0.0000 0.0000 0.0000 0.0000 0.0000 28.0424
#
#
#
# Elastic Compliance Matrix: (Units=1/GPa)
#
#
# Indices 1 2 3 4 5 6 
#
# 1 0.023066 -0.008419 -0.006653 0.000000 0.000000 0.000000
# 2 -0.008419 0.023066 -0.006653 0.000000 0.000000 0.000000
# 3 -0.006653 -0.006653 0.012736 0.000000 0.000000 0.000000
# 4 0.000000 0.000000 0.000000 0.038390 0.000000 0.000000
# 5 0.000000 0.000000 0.000000 0.000000 0.038389 0.000000
# 6 0.000000 0.000000 0.000000 0.000000 0.000000 0.035660
#
#
# Mechanical properties :
#
#
# Convention : Reuss Voigt Hill
#
# Bulk Modulus (GPa) = 64.85085 75.63286 70.24186
# Shear Modulus (GPa) = 22.73807 24.44739 23.59273
#
# Velocity S-wave (km/s) = 3.47956 3.60798 3.54435
# Velocity P-wave (km/s) = 7.11859 7.59138 7.35878
#
# Compressibility (1/GPa) = 0.01542000
#
# Stress axis : x y z
#
# Youngs Moduli (GPa) = 43.35307 43.35361 78.51815
#
# Poissons Ratio (x) = 0.36499 0.52236
# Poissons Ratio (y) = 0.36499 0.52235
# Poissons Ratio (z) = 0.28841 0.28842
#
# Static dielectric constant tensor:
#      x y z
#    x 3.354450 0.000000 0.000000 
#    y 0.000000 3.354450 0.000000 
#    z 0.000000 0.000000 3.558320 
# 
# 
# High freq. dielectric constant tensor:
#      x y z
#    x 1.722700 0.000000 0.000000 
#    y 0.000000 1.722700 0.000000 
#    z 0.000000 0.000000 1.744440 
# 
# From -- ./inp_files/6054.got.cif
#   From: 2010.03.12/outbox.cif.g09.slc.cpg/sg115_4_cif.got.tgz:6054.got - 2010.04.14 02:11:21.
