data_PCOD8309266
_publ_section_title
;
Structure prediction by ZEFSAII (Michael W. Deem and Ramdas Pophale) SiO2 
 PCOD8309266
Probable space group: P -4 M 2
;
_chemical_formula_sum "Si O2"
_cell_formula_units_Z 48
_cell_length_a 17.384174
_cell_length_b 17.384174
_cell_length_c 9.894393
_cell_angle_alpha 90.000000
_cell_angle_beta 90.000000
_cell_angle_gamma 90.000000
_cell_volume 2990.179617
_symmetry_space_group_name_H-M "P -4 M 2"
_symmetry_group_IT_number 115
_symmetry_cell_setting 'tetragonal'
loop_
_space_group_symop_operation_xyz
x,y,z
y,-x,-z
-x,-y,z
-y,x,-z
y,x,-z
-y,-x,-z
-x,y,z
x,-y,z
loop_
_atom_site_type_symbol
_atom_site_label
_atom_site_fract_x
_atom_site_fract_y
_atom_site_fract_z
Si Si1 0.088875 0.408765 0.696610
Si Si2 0.913477 0.863283 0.137635
Si Si3 0.082801 0.835765 0.609275
Si Si4 0.180844 0.300099 0.512455
Si Si5 0.308483 0.912479 0.759127
Si Si6 0.090767 0.585040 0.000630
O O1 0.093206 0.500000 0.681333
O O2 0.157072 0.374113 0.602137
O O3 0.000000 0.382316 0.661752
O O4 0.110227 0.384024 0.850304
O O5 0.871951 0.919041 0.242647
O O6 0.913159 0.778713 0.196583
O O7 0.000000 0.892179 0.110863
O O8 0.865586 0.865586 0.000000
O O9 0.097644 0.902357 0.500000
O O10 0.144983 0.769783 0.596284
O O11 0.000000 0.798709 0.579371
O O12 0.272193 0.272193 0.500000
O O13 0.144334 0.316667 0.366825
O O14 0.359033 0.877657 0.882112
O O15 0.334107 0.000000 0.720915
O O16 0.126603 0.500000 0.022588
O O17 0.000000 0.580113 0.013845
#
# Coordination Sequence:
#
# PCOD8309266 Si02
#       6
#     8   8   8   8   8   8
#     4   9  18  33  53  75  96 123 162 204 247 294
#     4  11  23  35  44  60  82 114 163 213 255 293
#     4  11  21  33  47  61  83 118 160 207 252 291
#     4  11  21  33  47  69  98 126 159 195 239 297
#     4  10  19  32  46  62  88 118 154 198 245 294
#     4   8  16  30  49  72  93 117 154 201 250 298
#
# _framework density 16.052547000000001
#
# number of rings (size 3 to 8) (size 9 to 14) (size 15 to 20)
#    0.000    2.000    3.333    3.500    2.333    2.667 
#    0.000    1.667    0.000    0.000    0.000    0.000 
#    0.000    0.333    0.000    0.000    0.000    4.000 
#
# Total GULP energy -594687.568456 kJ/mol
# GULP energy per Si atom -12389.324343 kJ/mol
# Density = 1.601601 g / cm^3
# Si number density = 16.052547 Si / 1000 Ang^3
#
#
#
# Elastic Constant Matrix: (Units=GPa)
#
#
# Indices 1 2 3 4 5 6 
#
# 1 -10.9967 67.7236 26.0305 0.0000 0.0000 0.0000
# 2 67.7236 -11.0027 26.0201 0.0000 0.0000 0.0000
# 3 26.0305 26.0201 117.9289 0.0000 0.0000 0.0000
# 4 0.0000 0.0000 0.0000 25.5913 0.0000 0.0000
# 5 0.0000 0.0000 0.0000 0.0000 25.5913 0.0000
# 6 0.0000 0.0000 0.0000 0.0000 0.0000 17.1825
#
#
#
# Elastic Compliance Matrix: (Units=1/GPa)
#
#
# Indices 1 2 3 4 5 6 
#
# 1 0.004702 0.017404 -0.004878 0.000000 0.000000 0.000000
# 2 0.017404 0.004701 -0.004879 0.000000 0.000000 0.000000
# 3 -0.004878 -0.004879 0.010633 0.000000 0.000000 0.000000
# 4 0.000000 0.000000 0.000000 0.039076 0.000000 0.000000
# 5 0.000000 0.000000 0.000000 0.000000 0.039076 0.000000
# 6 0.000000 0.000000 0.000000 0.000000 0.000000 0.058199
#
#
# Mechanical properties :
#
#
# Convention : Reuss Voigt Hill
#
# Bulk Modulus (GPa) = 28.30401 37.27531 32.78966
# Shear Modulus (GPa) = 32.70791 12.08339 22.39565
#
# Velocity S-wave (km/s) = 4.51882 2.74659 3.73922
# Velocity P-wave (km/s) = 6.70050 5.77317 6.25405
#
# Compressibility (1/GPa) = 0.03533068
#
# Stress axis : x y z
#
# Youngs Moduli (GPa) = 212.68823 212.70504 94.04770
#
# Poissons Ratio (x) = -3.70197 0.45876
# Poissons Ratio (y) = -3.70168 0.45886
# Poissons Ratio (z) = 1.03748 1.03778
#
# Static dielectric constant tensor:
#      x y z
#    x 3.034310 0.000000 0.000000 
#    y 0.000000 3.034310 0.000000 
#    z 0.000000 0.000000 3.431630 
# 
# 
# High freq. dielectric constant tensor:
#      x y z
#    x 1.581170 0.000000 0.000000 
#    y 0.000000 1.581170 0.000000 
#    z 0.000000 0.000000 1.636540 
# 
# From -- ./inp_files/1827.got.cif
#   From: 2010.03.12/outbox.cif.g09.slc.cpg/sg115_1_cif.got.tgz:1827.got - 2010.04.14 02:11:21.
