data_PCOD8309559
_publ_section_title
;
Structure prediction by ZEFSAII (Michael W. Deem and Ramdas Pophale) SiO2 
 PCOD8309559
Probable space group: P -4 M 2
;
_chemical_formula_sum "Si O2"
_cell_formula_units_Z 48
_cell_length_a 9.065909
_cell_length_b 9.065909
_cell_length_c 30.931138
_cell_angle_alpha 90.000000
_cell_angle_beta 90.000000
_cell_angle_gamma 90.000000
_cell_volume 2542.252069
_symmetry_space_group_name_H-M "P -4 M 2"
_symmetry_group_IT_number 115
_symmetry_cell_setting 'tetragonal'
loop_
_space_group_symop_operation_xyz
x,y,z
y,-x,-z
-x,-y,z
-y,x,-z
y,x,-z
-y,-x,-z
-x,y,z
x,-y,z
loop_
_atom_site_type_symbol
_atom_site_label
_atom_site_fract_x
_atom_site_fract_y
_atom_site_fract_z
Si Si1 0.829921 0.673472 0.038875
Si Si2 0.670815 0.826836 0.382263
Si Si3 0.330320 0.173312 0.791068
Si Si4 0.671906 0.331459 0.295033
Si Si5 0.824576 0.166019 0.124724
Si Si6 0.327133 0.172025 0.539690
O O1 0.810455 0.500000 0.043176
O O2 0.768731 0.745296 0.082936
O O3 0.000000 0.717493 0.030650
O O4 0.732096 0.732096 0.000000
O O5 0.500000 0.788273 0.391817
O O6 0.718525 0.769366 0.335256
O O7 0.773764 0.746636 0.416439
O O8 0.699306 0.000000 0.384782
O O9 0.500000 0.216251 0.798398
O O10 0.269635 0.245379 0.747131
O O11 0.240453 0.238117 0.831739
O O12 0.308040 0.000000 0.786770
O O13 0.500000 0.319309 0.285558
O O14 0.718660 0.500000 0.305022
O O15 0.000000 0.170333 0.126153
O O16 0.763926 0.000000 0.121852
O O17 0.260741 0.260741 0.500000
O O18 0.500000 0.204134 0.542110
O O19 0.293707 0.000000 0.533056
#
# Coordination Sequence:
#
# PCOD8309559 Si02
#       6
#     8   8   8   8   8   8
#     4  10  20  34  53  76 102 133 170 212 259 311
#     4  10  21  37  57  81 109 142 181 223 267 315
#     4   9  17  30  49  73 101 133 171 215 260 308
#     4   9  18  33  52  74 103 140 178 215 260 313
#     4   9  17  30  50  75 101 131 169 212 258 309
#     4  11  24  40  59  84 112 142 178 219 264 316
#
# _framework density 18.880898999999999
#
# number of rings (size 3 to 8) (size 9 to 14) (size 15 to 20)
#    0.000    2.333    0.000    2.500    0.000    8.667 
#    0.000    2.500    0.000    3.000    0.000    0.000 
#    0.000    0.000    0.000    0.000    0.000    0.000 
#
# Total GULP energy -595336.215238 kJ/mol
# GULP energy per Si atom -12402.837817 kJ/mol
# Density = 1.883793 g / cm^3
# Si number density = 18.880899 Si / 1000 Ang^3
#
#
#
# Elastic Constant Matrix: (Units=GPa)
#
#
# Indices 1 2 3 4 5 6 
#
# 1 72.7773 41.3045 60.4693 0.0000 0.0000 0.0000
# 2 41.3045 72.7773 60.4693 0.0000 0.0000 0.0000
# 3 60.4693 60.4693 163.3740 0.0000 0.0000 0.0000
# 4 0.0000 0.0000 0.0000 37.8944 0.0000 0.0000
# 5 0.0000 0.0000 0.0000 0.0000 37.8944 0.0000
# 6 0.0000 0.0000 0.0000 0.0000 0.0000 22.9830
#
#
#
# Elastic Compliance Matrix: (Units=1/GPa)
#
#
# Indices 1 2 3 4 5 6 
#
# 1 0.023100 -0.008674 -0.005339 0.000000 0.000000 0.000000
# 2 -0.008674 0.023100 -0.005339 0.000000 0.000000 0.000000
# 3 -0.005339 -0.005339 0.010074 0.000000 0.000000 0.000000
# 4 0.000000 0.000000 0.000000 0.026389 0.000000 0.000000
# 5 0.000000 0.000000 0.000000 0.000000 0.026389 0.000000
# 6 0.000000 0.000000 0.000000 0.000000 0.000000 0.043510
#
#
# Mechanical properties :
#
#
# Convention : Reuss Voigt Hill
#
# Bulk Modulus (GPa) = 56.92273 70.37943 63.65108
# Shear Modulus (GPa) = 25.36490 29.53340 27.44915
#
# Velocity S-wave (km/s) = 3.66924 3.95928 3.81702
# Velocity P-wave (km/s) = 6.94009 7.63267 7.29460
#
# Compressibility (1/GPa) = 0.01756768
#
# Stress axis : x y z
#
# Youngs Moduli (GPa) = 43.29054 43.29054 99.27014
#
# Poissons Ratio (x) = 0.37549 0.53005
# Poissons Ratio (y) = 0.37549 0.53005
# Poissons Ratio (z) = 0.23115 0.23115
#
# Static dielectric constant tensor:
#      x y z
#    x 3.403390 0.000000 0.000000 
#    y 0.000000 3.403390 0.000000 
#    z 0.000000 0.000000 3.721990 
# 
# 
# High freq. dielectric constant tensor:
#      x y z
#    x 1.723470 0.000000 0.000000 
#    y 0.000000 1.723470 0.000000 
#    z 0.000000 0.000000 1.750460 
# 
# From -- ./inp_files/6056.got.cif
#   From: 2010.03.12/outbox.cif.g09.slc.cpg/sg115_4_cif.got.tgz:6056.got - 2010.04.14 02:11:21.
