data_PCOD8309194
_publ_section_title
;
Structure prediction by ZEFSAII (Michael W. Deem and Ramdas Pophale) SiO2 
 PCOD8309194
Probable space group: P -4 M 2
;
_chemical_formula_sum "Si O2"
_cell_formula_units_Z 60
_cell_length_a 14.578887
_cell_length_b 14.578887
_cell_length_c 16.949557
_cell_angle_alpha 90.000000
_cell_angle_beta 90.000000
_cell_angle_gamma 90.000000
_cell_volume 3602.525730
_symmetry_space_group_name_H-M "P -4 M 2"
_symmetry_group_IT_number 115
_symmetry_cell_setting 'tetragonal'
loop_
_space_group_symop_operation_xyz
x,y,z
y,-x,-z
-x,-y,z
-y,x,-z
y,x,-z
-y,-x,-z
-x,y,z
x,-y,z
loop_
_atom_site_type_symbol
_atom_site_label
_atom_site_fract_x
_atom_site_fract_y
_atom_site_fract_z
Si Si1 0.899003 0.319004 0.509735
Si Si2 0.722496 0.401771 0.548994
Si Si3 0.896392 0.237358 0.346580
Si Si4 0.101931 0.604524 0.226127
Si Si5 0.706129 0.394078 0.158471
Si Si6 0.251521 0.393484 0.727997
Si Si7 0.604466 0.395535 0.000000
Si Si8 0.896924 0.255664 0.684590
O O1 0.829481 0.402704 0.524540
O O2 0.866710 0.253427 0.437635
O O3 0.901978 0.262288 0.590378
O O4 0.000000 0.359182 0.489919
O O5 0.677174 0.322827 0.500000
O O6 0.680183 0.500000 0.526507
O O7 0.706986 0.382606 0.640836
O O8 0.882846 0.334224 0.303098
O O9 0.836353 0.161448 0.301079
O O10 0.000000 0.201412 0.341546
O O11 0.108047 0.500000 0.255568
O O12 0.184017 0.624000 0.163729
O O13 0.000000 0.623641 0.188550
O O14 0.682402 0.500000 0.180372
O O15 0.650411 0.326527 0.215052
O O16 0.674870 0.372441 0.069782
O O17 0.233884 0.500000 0.749851
O O18 0.154011 0.340096 0.729113
O O19 0.500000 0.381795 0.030011
O O20 0.000000 0.248288 0.719876
#
# Coordination Sequence:
#
# PCOD8309194 Si02
#       8
#     8   8   8   8   8   8   4   8
#     4   9  18  31  47  64  87 121 162 211 261 300
#     4  10  21  33  45  62  90 126 166 206 242 286
#     4  10  18  30  47  69  97 125 161 208 255 302
#     4   9  18  31  49  76 105 131 161 196 242 300
#     4  10  19  33  55  79 105 134 161 199 250 298
#     4  10  20  34  49  68  94 129 169 205 248 297
#     4   9  18  32  52  82 110 130 159 198 240 292
#     4  10  19  32  47  65  92 128 171 213 254 296
#
# _framework density 16.654982
#
# number of rings (size 3 to 8) (size 9 to 14) (size 15 to 20)
#    0.000    2.333    1.333    2.400    0.000    2.800 
#    0.000    5.333    0.000    3.200    0.000    1.867 
#    0.000    0.000    0.000    0.000    0.000    0.000 
#
# Total GULP energy -743561.343280 kJ/mol
# GULP energy per Si atom -12392.689055 kJ/mol
# Density = 1.661707 g / cm^3
# Si number density = 16.654982 Si / 1000 Ang^3
#
#
#
# Elastic Constant Matrix: (Units=GPa)
#
#
# Indices 1 2 3 4 5 6 
#
# 1 104.8352 59.2663 46.9486 0.0000 0.0000 0.0000
# 2 59.2663 104.8348 46.9496 0.0000 0.0000 0.0000
# 3 46.9486 46.9496 58.4124 0.0000 0.0000 0.0000
# 4 0.0000 0.0000 0.0000 20.9099 0.0000 0.0000
# 5 0.0000 0.0000 0.0000 0.0000 20.9099 0.0000
# 6 0.0000 0.0000 0.0000 0.0000 0.0000 18.4498
#
#
#
# Elastic Compliance Matrix: (Units=1/GPa)
#
#
# Indices 1 2 3 4 5 6 
#
# 1 0.016614 -0.005331 -0.009068 0.000000 0.000000 0.000000
# 2 -0.005331 0.016614 -0.009069 0.000000 0.000000 0.000000
# 3 -0.009068 -0.009069 0.031697 0.000000 0.000000 0.000000
# 4 0.000000 0.000000 0.000000 0.047824 0.000000 0.000000
# 5 0.000000 0.000000 0.000000 0.000000 0.047824 0.000000
# 6 0.000000 0.000000 0.000000 0.000000 0.000000 0.054201
#
#
# Mechanical properties :
#
#
# Convention : Reuss Voigt Hill
#
# Bulk Modulus (GPa) = 55.59035 63.82348 59.70691
# Shear Modulus (GPa) = 18.67709 19.71510 19.19610
#
# Velocity S-wave (km/s) = 3.35238 3.44428 3.39864
# Velocity P-wave (km/s) = 6.95950 7.36353 7.16436
#
# Compressibility (1/GPa) = 0.01798873
#
# Stress axis : x y z
#
# Youngs Moduli (GPa) = 60.19162 60.18977 31.54827
#
# Poissons Ratio (x) = 0.32087 0.28609
# Poissons Ratio (y) = 0.32088 0.28611
# Poissons Ratio (z) = 0.54583 0.54586
#
# Static dielectric constant tensor:
#      x y z
#    x 3.283400 0.000000 0.000000 
#    y 0.000000 3.283390 0.000000 
#    z 0.000000 0.000000 2.816050 
# 
# 
# High freq. dielectric constant tensor:
#      x y z
#    x 1.645050 0.000000 0.000000 
#    y 0.000000 1.645050 0.000000 
#    z 0.000000 0.000000 1.599530 
# 
# From -- ./inp_files/3915.got.cif
#   From: 2010.03.12/outbox.cif.g09.slc.cpg/sg115_2_cif.got.tgz:3915.got - 2010.04.14 02:11:21.
