data_PCOD8309256
_publ_section_title
;
Structure prediction by ZEFSAII (Michael W. Deem and Ramdas Pophale) SiO2 
 PCOD8309256
Probable space group: P -4 M 2
;
_chemical_formula_sum "Si O2"
_cell_formula_units_Z 48
_cell_length_a 8.152661
_cell_length_b 8.152661
_cell_length_c 34.065792
_cell_angle_alpha 90.000000
_cell_angle_beta 90.000000
_cell_angle_gamma 90.000000
_cell_volume 2264.212890
_symmetry_space_group_name_H-M "P -4 M 2"
_symmetry_group_IT_number 115
_symmetry_cell_setting 'tetragonal'
loop_
_space_group_symop_operation_xyz
x,y,z
y,-x,-z
-x,-y,z
-y,x,-z
y,x,-z
-y,-x,-z
-x,y,z
x,-y,z
loop_
_atom_site_type_symbol
_atom_site_label
_atom_site_fract_x
_atom_site_fract_y
_atom_site_fract_z
Si Si1 0.804345 0.183153 0.542170
Si Si2 0.695032 0.500000 0.744479
Si Si3 0.314906 0.816490 0.961634
Si Si4 0.314772 0.191541 0.376598
Si Si5 0.500000 0.195096 0.166632
Si Si6 0.811412 0.184405 0.879086
Si Si7 0.690533 0.179582 0.700902
O O1 0.743136 0.256865 0.500000
O O2 0.740609 0.287965 0.579210
O O3 0.000000 0.182222 0.540264
O O4 0.736513 0.000000 0.548304
O O5 0.500000 0.500000 0.740100
O O6 0.748874 0.500000 0.788993
O O7 0.769922 0.334186 0.724347
O O8 0.500000 0.802196 0.946623
O O9 0.204768 0.762900 0.924689
O O10 0.268728 0.000000 0.974713
O O11 0.294425 0.705576 0.000000
O O12 0.500000 0.228876 0.364176
O O13 0.199010 0.282198 0.345645
O O14 0.272682 0.000000 0.375249
O O15 0.332283 0.267372 0.146781
O O16 0.500000 0.000000 0.162413
O O17 0.000000 0.171223 0.867861
O O18 0.732186 0.000000 0.872052
O O19 0.500000 0.177376 0.710211
O O20 0.763934 0.000000 0.713591
#
# Coordination Sequence:
#
# PCOD8309256 Si02
#       7
#     8   4   8   8   4   8   8
#     4   8  14  26  44  66  96 136 180 223 267 320
#     4  10  22  40  58  82 114 144 178 228 288 344
#     4  10  21  35  53  80 113 149 191 238 284 332
#     4  10  19  31  51  79 109 141 179 227 282 333
#     4  10  22  38  60  86 112 146 188 234 284 342
#     4   9  19  37  58  80 111 151 191 232 282 340
#     4  10  21  38  59  81 108 145 185 225 279 345
#
# _framework density 21.199421999999998
#
# number of rings (size 3 to 8) (size 9 to 14) (size 15 to 20)
#    0.000    2.500    0.833    1.500    1.167    4.000 
#    0.000    0.833    0.000    3.000    0.000    0.000 
#    0.000    0.000    0.000    0.000    0.000    0.000 
#
# Total GULP energy -594769.506196 kJ/mol
# GULP energy per Si atom -12391.031379 kJ/mol
# Density = 2.115117 g / cm^3
# Si number density = 21.199422 Si / 1000 Ang^3
#
#
#
# Elastic Constant Matrix: (Units=GPa)
#
#
# Indices 1 2 3 4 5 6 
#
# 1 74.5396 25.2382 41.7691 0.0000 0.0000 0.0000
# 2 25.2382 74.5397 41.7694 0.0000 0.0000 0.0000
# 3 41.7691 41.7694 145.5455 0.0000 0.0000 0.0000
# 4 0.0000 0.0000 0.0000 30.7815 0.0000 0.0000
# 5 0.0000 0.0000 0.0000 0.0000 30.7816 0.0000
# 6 0.0000 0.0000 0.0000 0.0000 0.0000 13.6565
#
#
#
# Elastic Compliance Matrix: (Units=1/GPa)
#
#
# Indices 1 2 3 4 5 6 
#
# 1 0.016738 -0.003546 -0.003786 0.000000 0.000000 0.000000
# 2 -0.003546 0.016738 -0.003786 0.000000 0.000000 0.000000
# 3 -0.003786 -0.003786 0.009044 0.000000 0.000000 0.000000
# 4 0.000000 0.000000 0.000000 0.032487 0.000000 0.000000
# 5 0.000000 0.000000 0.000000 0.000000 0.032487 0.000000
# 6 0.000000 0.000000 0.000000 0.000000 0.000000 0.073225
#
#
# Mechanical properties :
#
#
# Convention : Reuss Voigt Hill
#
# Bulk Modulus (GPa) = 49.29971 56.90868 53.10420
# Shear Modulus (GPa) = 23.84192 27.43378 25.63785
#
# Velocity S-wave (km/s) = 3.35722 3.60124 3.48137
# Velocity P-wave (km/s) = 6.19141 6.64790 6.42371
#
# Compressibility (1/GPa) = 0.02028409
#
# Stress axis : x y z
#
# Youngs Moduli (GPa) = 59.74543 59.74540 110.57435
#
# Poissons Ratio (x) = 0.21184 0.41862
# Poissons Ratio (y) = 0.21184 0.41862
# Poissons Ratio (z) = 0.22619 0.22619
#
# Static dielectric constant tensor:
#      x y z
#    x 3.850560 0.000000 0.000000 
#    y 0.000000 3.850560 0.000000 
#    z 0.000000 0.000000 3.869340 
# 
# 
# High freq. dielectric constant tensor:
#      x y z
#    x 1.811950 0.000000 0.000000 
#    y 0.000000 1.811950 0.000000 
#    z 0.000000 0.000000 1.829670 
# 
# From -- ./inp_files/6165.got.cif
#   From: 2010.03.12/outbox.cif.g09.slc.cpg/sg115_4_cif.got.tgz:6165.got - 2010.04.14 02:11:21.
