data_PCOD8309414
_publ_section_title
;
Structure prediction by ZEFSAII (Michael W. Deem and Ramdas Pophale) SiO2 
 PCOD8309414
Probable space group: P -4 M 2
;
_chemical_formula_sum "Si O2"
_cell_formula_units_Z 32
_cell_length_a 9.249784
_cell_length_b 9.249784
_cell_length_c 20.691106
_cell_angle_alpha 90.000000
_cell_angle_beta 90.000000
_cell_angle_gamma 90.000000
_cell_volume 1770.300076
_symmetry_space_group_name_H-M "P -4 M 2"
_symmetry_group_IT_number 115
_symmetry_cell_setting 'tetragonal'
loop_
_space_group_symop_operation_xyz
x,y,z
y,-x,-z
-x,-y,z
-y,x,-z
y,x,-z
-y,-x,-z
-x,y,z
x,-y,z
loop_
_atom_site_type_symbol
_atom_site_label
_atom_site_fract_x
_atom_site_fract_y
_atom_site_fract_z
Si Si1 0.671313 0.161999 0.053600
Si Si2 0.832141 0.670100 0.556163
Si Si3 0.828292 0.161949 0.683305
Si Si4 0.827867 0.661043 0.803736
O O1 0.500000 0.163771 0.049434
O O2 0.718667 0.217073 0.125088
O O3 0.729955 0.000000 0.041418
O O4 0.732879 0.267122 0.000000
O O5 0.734853 0.734853 0.500000
O O6 0.805727 0.500000 0.561641
O O7 0.778919 0.742653 0.622569
O O8 0.000000 0.705834 0.542239
O O9 0.764797 0.232798 0.748841
O O10 0.000000 0.157797 0.687207
O O11 0.765406 0.000000 0.676324
O O12 0.765518 0.500000 0.791634
O O13 0.000000 0.654032 0.800101
#
# Coordination Sequence:
#
# PCOD8309414 Si02
#       4
#     8   8   8   8
#     4   9  18  31  47  69  97 129 165 204 245 290
#     4  10  20  33  50  72  98 129 163 199 241 288
#     4   9  16  26  44  71  99 125 156 197 243 289
#     4   8  14  26  43  64  93 126 158 195 241 292
#
# _framework density 18.076029999999999
#
# number of rings (size 3 to 8) (size 9 to 14) (size 15 to 20)
#    0.000    3.000    0.000    3.000    0.000    6.000 
#    0.000    2.500    0.000    1.500    0.000    7.000 
#    0.000    0.000    0.000    0.000    0.000    0.000 
#
# Total GULP energy -396679.875534 kJ/mol
# GULP energy per Si atom -12396.246110 kJ/mol
# Density = 1.803489 g / cm^3
# Si number density = 18.076030 Si / 1000 Ang^3
#
#
#
# Elastic Constant Matrix: (Units=GPa)
#
#
# Indices 1 2 3 4 5 6 
#
# 1 62.0440 28.8481 58.3315 0.0000 0.0000 0.0000
# 2 28.8481 62.0416 58.3304 0.0000 0.0000 0.0000
# 3 58.3315 58.3304 176.3900 0.0000 0.0000 0.0000
# 4 0.0000 0.0000 0.0000 3.6115 0.0000 0.0000
# 5 0.0000 0.0000 0.0000 0.0000 3.6123 0.0000
# 6 0.0000 0.0000 0.0000 0.0000 0.0000 18.8018
#
#
#
# Elastic Compliance Matrix: (Units=1/GPa)
#
#
# Indices 1 2 3 4 5 6 
#
# 1 0.024620 -0.005505 -0.006322 0.000000 0.000000 0.000000
# 2 -0.005505 0.024621 -0.006322 0.000000 0.000000 0.000000
# 3 -0.006322 -0.006322 0.009850 0.000000 0.000000 0.000000
# 4 0.000000 0.000000 0.000000 0.276897 0.000000 0.000000
# 5 0.000000 0.000000 0.000000 0.000000 0.276835 0.000000
# 6 0.000000 0.000000 0.000000 0.000000 0.000000 0.053186
#
#
# Mechanical properties :
#
#
# Convention : Reuss Voigt Hill
#
# Bulk Modulus (GPa) = 43.86676 65.72172 54.79424
# Shear Modulus (GPa) = 7.04320 15.53615 11.28968
#
# Velocity S-wave (km/s) = 1.97608 2.93489 2.50184
# Velocity P-wave (km/s) = 5.43389 6.92258 6.22291
#
# Compressibility (1/GPa) = 0.02279630
#
# Stress axis : x y z
#
# Youngs Moduli (GPa) = 40.61699 40.61536 101.52004
#
# Poissons Ratio (x) = 0.22357 0.64176
# Poissons Ratio (y) = 0.22358 0.64178
# Poissons Ratio (z) = 0.25676 0.25676
#
# Static dielectric constant tensor:
#      x y z
#    x 3.140170 0.000000 0.000000 
#    y 0.000000 3.140170 0.000000 
#    z 0.000000 0.000000 3.641590 
# 
# 
# High freq. dielectric constant tensor:
#      x y z
#    x 1.669180 0.000000 0.000000 
#    y 0.000000 1.669180 0.000000 
#    z 0.000000 0.000000 1.718630 
# 
# From -- ./inp_files/4576.got.cif
#   From: 2010.03.12/outbox.cif.g09.slc.cpg/sg115_3_cif.got.tgz:4576.got - 2010.04.14 02:11:21.
