data_PCOD8309882
_publ_section_title
;
Structure prediction by ZEFSAII (Michael W. Deem and Ramdas Pophale) SiO2 
 PCOD8309882
Probable space group: P -4 M 2
;
_chemical_formula_sum "Si O2"
_cell_formula_units_Z 32
_cell_length_a 9.033259
_cell_length_b 9.033259
_cell_length_c 20.388197
_cell_angle_alpha 90.000000
_cell_angle_beta 90.000000
_cell_angle_gamma 90.000000
_cell_volume 1663.672148
_symmetry_space_group_name_H-M "P -4 M 2"
_symmetry_group_IT_number 115
_symmetry_cell_setting 'tetragonal'
loop_
_space_group_symop_operation_xyz
x,y,z
y,-x,-z
-x,-y,z
-y,x,-z
y,x,-z
-y,-x,-z
-x,y,z
x,-y,z
loop_
_atom_site_type_symbol
_atom_site_label
_atom_site_fract_x
_atom_site_fract_y
_atom_site_fract_z
Si Si1 0.825370 0.834439 0.426398
Si Si2 0.825916 0.328861 0.820443
Si Si3 0.172263 0.673354 0.060373
Si Si4 0.328299 0.330523 0.312032
O O1 0.783524 0.783524 0.500000
O O2 0.757372 0.718082 0.376567
O O3 0.000000 0.834992 0.418021
O O4 0.763484 0.000000 0.412620
O O5 0.784433 0.500000 0.834250
O O6 0.749364 0.225300 0.873324
O O7 0.767995 0.277901 0.749548
O O8 0.000000 0.303240 0.823447
O O9 0.203560 0.500000 0.065529
O O10 0.000000 0.707476 0.049256
O O11 0.263035 0.736966 0.000000
O O12 0.500000 0.307534 0.326488
O O13 0.289717 0.500000 0.296000
#
# Coordination Sequence:
#
# PCOD8309882 Si02
#       4
#     8   8   8   8
#     4   9  19  36  56  78 106 142 184 228 275 328
#     4  10  21  38  60  84 110 144 186 228 272 324
#     4  11  24  40  59  85 115 147 184 225 271 324
#     4  10  21  36  55  81 112 145 182 225 274 328
#
# _framework density 19.234560999999999
#
# number of rings (size 3 to 8) (size 9 to 14) (size 15 to 20)
#    0.000    2.000    0.000    3.750    0.000   10.500 
#    0.000    3.750    0.000    0.000    0.000    0.000 
#    0.000    0.000    0.000    0.000    0.000    0.000 
#
# Total GULP energy -396932.450373 kJ/mol
# GULP energy per Si atom -12404.139074 kJ/mol
# Density = 1.919078 g / cm^3
# Si number density = 19.234561 Si / 1000 Ang^3
#
#
#
# Elastic Constant Matrix: (Units=GPa)
#
#
# Indices 1 2 3 4 5 6 
#
# 1 71.7153 44.4257 51.6701 0.0000 0.0000 0.0000
# 2 44.4257 71.7198 51.6731 0.0000 0.0000 0.0000
# 3 51.6701 51.6731 129.4316 0.0000 0.0000 0.0000
# 4 0.0000 0.0000 0.0000 39.1010 0.0000 0.0000
# 5 0.0000 0.0000 0.0000 0.0000 39.1011 0.0000
# 6 0.0000 0.0000 0.0000 0.0000 0.0000 32.6097
#
#
#
# Elastic Compliance Matrix: (Units=1/GPa)
#
#
# Indices 1 2 3 4 5 6 
#
# 1 0.024998 -0.011644 -0.005331 0.000000 0.000000 0.000000
# 2 -0.011644 0.024997 -0.005331 0.000000 0.000000 0.000000
# 3 -0.005331 -0.005331 0.011983 0.000000 0.000000 0.000000
# 4 0.000000 0.000000 0.000000 0.025575 0.000000 0.000000
# 5 0.000000 0.000000 0.000000 0.000000 0.025575 0.000000
# 6 0.000000 0.000000 0.000000 0.000000 0.000000 0.030666
#
#
# Mechanical properties :
#
#
# Convention : Reuss Voigt Hill
#
# Bulk Modulus (GPa) = 57.58490 63.15603 60.37047
# Shear Modulus (GPa) = 25.74768 30.50220 28.12494
#
# Velocity S-wave (km/s) = 3.66268 3.98653 3.82803
# Velocity P-wave (km/s) = 6.92027 7.35499 7.14094
#
# Compressibility (1/GPa) = 0.01736566
#
# Stress axis : x y z
#
# Youngs Moduli (GPa) = 40.00359 40.00526 83.45475
#
# Poissons Ratio (x) = 0.46581 0.44488
# Poissons Ratio (y) = 0.46579 0.44491
# Poissons Ratio (z) = 0.21325 0.21328
#
# Static dielectric constant tensor:
#      x y z
#    x 3.548550 0.000000 0.000000 
#    y 0.000000 3.548550 0.000000 
#    z 0.000000 0.000000 3.774700 
# 
# 
# High freq. dielectric constant tensor:
#      x y z
#    x 1.750260 0.000000 0.000000 
#    y 0.000000 1.750260 0.000000 
#    z 0.000000 0.000000 1.761880 
# 
# From -- ./inp_files/4586.got.cif
#   From: 2010.03.12/outbox.cif.g09.slc.cpg/sg115_3_cif.got.tgz:4586.got - 2010.04.14 02:11:21.
