data_PCOD8309011
_publ_section_title
;
Structure prediction by ZEFSAII (Michael W. Deem and Ramdas Pophale) SiO2 
 PCOD8309011
Probable space group: P -4 21 C
;
_chemical_formula_sum "Si O2"
_cell_formula_units_Z 38
_cell_length_a 8.913936
_cell_length_b 8.913936
_cell_length_c 21.821261
_cell_angle_alpha 90.000000
_cell_angle_beta 90.000000
_cell_angle_gamma 90.000000
_cell_volume 1733.879321
_symmetry_space_group_name_H-M "P -4 21 C"
_symmetry_group_IT_number 114
_symmetry_cell_setting 'tetragonal'
loop_
_space_group_symop_operation_xyz
x,y,z
y,-x,-z
-x,-y,z
-y,x,-z
1/2+x,1/2-y,1/2-z
1/2-x,1/2+y,1/2-z
1/2-y,1/2-x,1/2+z
1/2+y,1/2+x,1/2+z
loop_
_atom_site_type_symbol
_atom_site_label
_atom_site_fract_x
_atom_site_fract_y
_atom_site_fract_z
Si Si1 0.843010 0.920764 0.308220
Si Si2 0.500000 0.000000 0.517049
Si Si3 0.109261 0.768544 0.905617
Si Si4 0.437193 0.845035 0.899568
Si Si5 0.000000 0.000000 0.000000
Si Si6 0.838147 0.566858 0.297342
O O1 0.850686 0.745494 0.294389
O O2 0.786960 0.948708 0.378213
O O3 0.718939 0.002738 0.266697
O O4 0.000000 0.000000 0.295371
O O5 0.590502 0.887870 0.559896
O O6 0.369059 0.929936 0.473413
O O7 0.273284 0.792648 0.875963
O O8 0.095220 0.895673 0.956167
O O9 0.986364 0.776641 0.851105
O O10 0.500000 0.000000 0.869244
O O11 0.000000 0.500000 0.312900
#
# Coordination Sequence:
#
# PCOD8309011 Si02
#       6
#     8   4   8   8   2   8
#     4  12  27  47  75 107 138 187 240 302 372 432
#     4  10  24  44  70 102 146 190 244 286 356 432
#     4  12  24  44  72 106 145 193 239 297 356 436
#     4  10  24  46  70 100 147 184 241 293 358 428
#     4  12  24  40  72 100 144 188 244 276 370 420
#     4  12  27  47  74 102 147 183 242 298 366 441
#
# _framework density 21.916170999999999
#
# number of rings (size 3 to 8) (size 9 to 14) (size 15 to 20)
#    0.632    0.000    3.158    4.421    7.368    0.000 
#    0.000    0.000    0.000    0.000    0.000    0.000 
#    0.000    0.000    0.000    0.000    0.000    0.000 
#
# Total GULP energy -471042.333014 kJ/mol
# GULP energy per Si atom -12395.850869 kJ/mol
# Density = 2.186629 g / cm^3
# Si number density = 21.916171 Si / 1000 Ang^3
#
#
#
# Elastic Constant Matrix: (Units=GPa)
#
#
# Indices 1 2 3 4 5 6 
#
# 1 141.2825 55.5014 36.6273 0.0000 0.0000 0.0000
# 2 55.5014 141.2825 36.6273 0.0000 0.0000 0.0000
# 3 36.6273 36.6273 78.6216 0.0000 0.0000 0.0000
# 4 0.0000 0.0000 0.0000 7.2781 0.0000 0.0000
# 5 0.0000 0.0000 0.0000 0.0000 7.2781 0.0000
# 6 0.0000 0.0000 0.0000 0.0000 0.0000 45.6883
#
#
#
# Elastic Compliance Matrix: (Units=1/GPa)
#
#
# Indices 1 2 3 4 5 6 
#
# 1 0.008903 -0.002755 -0.002864 0.000000 0.000000 0.000000
# 2 -0.002755 0.008903 -0.002864 0.000000 0.000000 0.000000
# 3 -0.002864 -0.002864 0.015388 0.000000 0.000000 0.000000
# 4 0.000000 0.000000 0.000000 0.137399 0.000000 0.000000
# 5 0.000000 0.000000 0.000000 0.000000 0.137399 0.000000
# 6 0.000000 0.000000 0.000000 0.000000 0.000000 0.021887
#
#
# Mechanical properties :
#
#
# Convention : Reuss Voigt Hill
#
# Bulk Modulus (GPa) = 61.62528 68.74429 65.18478
# Shear Modulus (GPa) = 14.19429 27.54425 20.86927
#
# Velocity S-wave (km/s) = 2.54768 3.54898 3.08917
# Velocity P-wave (km/s) = 6.06910 6.94469 6.52161
#
# Compressibility (1/GPa) = 0.01622711
#
# Stress axis : x y z
#
# Youngs Moduli (GPa) = 112.32487 112.32487 64.98676
#
# Poissons Ratio (x) = 0.30944 0.18613
# Poissons Ratio (y) = 0.30944 0.18613
# Poissons Ratio (z) = 0.32171 0.32171
#
# Static dielectric constant tensor:
#      x y z
#    x 6.045390 0.000000 0.000000 
#    y 0.000000 6.045390 0.000000 
#    z 0.000000 0.000000 3.977720 
# 
# 
# High freq. dielectric constant tensor:
#      x y z
#    x 1.863280 0.000000 0.000000 
#    y 0.000000 1.863280 0.000000 
#    z 0.000000 0.000000 1.869410 
# 
# From -- ./inp_files/3423.got.cif
#   From: 2010.03.12/outbox.cif.g09.slc.cpg/sg114_2_cif.got.tgz:3423.got - 2010.04.14 02:08:34.
