data_PCOD8309580
_publ_section_title
;
Structure prediction by ZEFSAII (Michael W. Deem and Ramdas Pophale) SiO2 
 PCOD8309580
Probable space group: P -4 M 2
;
_chemical_formula_sum "Si O2"
_cell_formula_units_Z 48
_cell_length_a 8.983107
_cell_length_b 8.983107
_cell_length_c 31.051312
_cell_angle_alpha 90.000000
_cell_angle_beta 90.000000
_cell_angle_gamma 90.000000
_cell_volume 2505.723237
_symmetry_space_group_name_H-M "P -4 M 2"
_symmetry_group_IT_number 115
_symmetry_cell_setting 'tetragonal'
loop_
_space_group_symop_operation_xyz
x,y,z
y,-x,-z
-x,-y,z
-y,x,-z
y,x,-z
-y,-x,-z
-x,y,z
x,-y,z
loop_
_atom_site_type_symbol
_atom_site_label
_atom_site_fract_x
_atom_site_fract_y
_atom_site_fract_z
Si Si1 0.825098 0.327975 0.211119
Si Si2 0.334253 0.323012 0.453029
Si Si3 0.323112 0.332309 0.874782
Si Si4 0.671633 0.825447 0.290216
Si Si5 0.825101 0.671368 0.039278
Si Si6 0.169462 0.676571 0.368906
O O1 0.782128 0.500000 0.218910
O O2 0.750472 0.264011 0.167732
O O3 0.768258 0.232578 0.250753
O O4 0.000000 0.307710 0.206370
O O5 0.272100 0.272100 0.500000
O O6 0.500000 0.257903 0.444476
O O7 0.343196 0.500000 0.453376
O O8 0.223712 0.266978 0.415741
O O9 0.500000 0.328616 0.874663
O O10 0.260977 0.500000 0.874820
O O11 0.264600 0.249621 0.917369
O O12 0.500000 0.783929 0.282274
O O13 0.725176 0.748926 0.333701
O O14 0.696051 0.000000 0.294788
O O15 0.779310 0.500000 0.031134
O O16 0.000000 0.688737 0.044640
O O17 0.769956 0.769956 0.000000
O O18 0.183363 0.500000 0.364788
O O19 0.000000 0.728988 0.362073
#
# Coordination Sequence:
#
# PCOD8309580 Si02
#       6
#     8   8   8   8   8   8
#     4  10  20  35  57  84 111 139 173 214 262 317
#     4   8  14  27  49  75 102 134 172 213 256 302
#     4   9  17  31  54  82 109 138 174 217 263 310
#     4  11  24  39  54  75 104 139 179 221 265 313
#     4  10  20  34  53  78 108 141 177 218 263 311
#     4  10  20  34  54  80 107 137 175 217 262 313
#
# _framework density 19.156147000000001
#
# number of rings (size 3 to 8) (size 9 to 14) (size 15 to 20)
#    0.000    2.333    0.000    3.500    0.000    8.333 
#    0.000    1.667    0.000    8.000    0.000    0.000 
#    0.000    0.000    0.000    0.000    0.000    0.000 
#
# Total GULP energy -595248.677230 kJ/mol
# GULP energy per Si atom -12401.014109 kJ/mol
# Density = 1.911255 g / cm^3
# Si number density = 19.156147 Si / 1000 Ang^3
#
#
#
# Elastic Constant Matrix: (Units=GPa)
#
#
# Indices 1 2 3 4 5 6 
#
# 1 61.2670 26.8134 37.7380 0.0000 0.0000 0.0000
# 2 26.8134 61.2670 37.7380 0.0000 0.0000 0.0000
# 3 37.7380 37.7380 153.0353 0.0000 0.0000 0.0000
# 4 0.0000 0.0000 0.0000 -5.2161 0.0000 0.0000
# 5 0.0000 0.0000 0.0000 0.0000 -5.2161 0.0000
# 6 0.0000 0.0000 0.0000 0.0000 0.0000 21.3603
#
#
#
# Elastic Compliance Matrix: (Units=1/GPa)
#
#
# Indices 1 2 3 4 5 6 
#
# 1 0.021710 -0.007315 -0.003550 0.000000 0.000000 0.000000
# 2 -0.007315 0.021710 -0.003550 0.000000 0.000000 0.000000
# 3 -0.003550 -0.003550 0.008285 0.000000 0.000000 0.000000
# 4 0.000000 0.000000 0.000000 -0.191713 0.000000 0.000000
# 5 0.000000 0.000000 0.000000 0.000000 -0.191713 0.000000
# 6 0.000000 0.000000 0.000000 0.000000 0.000000 0.046816
#
#
# Mechanical properties :
#
#
# Convention : Reuss Voigt Hill
#
# Bulk Modulus (GPa) = 43.71354 53.34977 48.53165
# Shear Modulus (GPa) = -20.12465 13.73759 -3.19353
#
# Velocity S-wave (km/s) = -3.24475 2.68085 -1.29256
# Velocity P-wave (km/s) = 2.97175 6.12315 4.81271
#
# Compressibility (1/GPa) = 0.02287621
#
# Stress axis : x y z
#
# Youngs Moduli (GPa) = 46.06211 46.06211 120.69765
#
# Poissons Ratio (x) = 0.33693 0.42845
# Poissons Ratio (y) = 0.33693 0.42845
# Poissons Ratio (z) = 0.16351 0.16351
#
# Static dielectric constant tensor:
#      x y z
#    x 3.376890 0.000000 0.000000 
#    y 0.000000 3.376890 0.000000 
#    z 0.000000 0.000000 3.854430 
# 
# 
# High freq. dielectric constant tensor:
#      x y z
#    x 1.727160 0.000000 0.000000 
#    y 0.000000 1.727160 0.000000 
#    z 0.000000 0.000000 1.765260 
# 
# From -- ./inp_files/6059.got.cif
#   From: 2010.03.12/outbox.cif.g09.slc.cpg/sg115_4_cif.got.tgz:6059.got - 2010.04.14 02:11:21.
