data_PCOD8309402
_publ_section_title
;
Structure prediction by ZEFSAII (Michael W. Deem and Ramdas Pophale) SiO2 
 PCOD8309402
Probable space group: P -4 M 2
;
_chemical_formula_sum "Si O2"
_cell_formula_units_Z 64
_cell_length_a 14.497475
_cell_length_b 14.497475
_cell_length_c 17.240784
_cell_angle_alpha 90.000000
_cell_angle_beta 90.000000
_cell_angle_gamma 90.000000
_cell_volume 3623.612490
_symmetry_space_group_name_H-M "P -4 M 2"
_symmetry_group_IT_number 115
_symmetry_cell_setting 'tetragonal'
loop_
_space_group_symop_operation_xyz
x,y,z
y,-x,-z
-x,-y,z
-y,x,-z
y,x,-z
-y,-x,-z
-x,y,z
x,-y,z
loop_
_atom_site_type_symbol
_atom_site_label
_atom_site_fract_x
_atom_site_fract_y
_atom_site_fract_z
Si Si1 0.603557 0.894931 0.935339
Si Si2 0.267549 0.109431 0.624926
Si Si3 0.893909 0.723257 0.203473
Si Si4 0.397197 0.108761 0.486645
Si Si5 0.245067 0.894845 0.367500
Si Si6 0.602014 0.399700 0.091456
Si Si7 0.213445 0.311173 0.936184
Si Si8 0.896187 0.784325 0.807363
O O1 0.500000 0.894865 0.904115
O O2 0.664646 0.847611 0.866147
O O3 0.635841 0.000000 0.954312
O O4 0.607140 0.832202 0.012753
O O5 0.305535 0.139141 0.710117
O O6 0.344198 0.142760 0.563823
O O7 0.170778 0.160463 0.607534
O O8 0.247967 0.000000 0.620475
O O9 0.874516 0.831717 0.191308
O O10 0.000000 0.702352 0.196227
O O11 0.500000 0.153452 0.482725
O O12 0.338069 0.137849 0.411240
O O13 0.407703 0.000000 0.490295
O O14 0.265914 0.889613 0.275874
O O15 0.218969 0.000000 0.391847
O O16 0.500000 0.387926 0.127954
O O17 0.643597 0.500000 0.120385
O O18 0.661633 0.308075 0.109493
O O19 0.594889 0.405112 0.000000
O O20 0.138269 0.285823 0.872387
O O21 0.230369 0.230369 0.000000
O O22 0.000000 0.816256 0.825680
#
# Coordination Sequence:
#
# PCOD8309402 Si02
#       8
#     8   8   8   8   8   8   8   8
#     4  10  20  33  49  70  98 130 165 208 259 312
#     4   9  17  29  50  77 103 129 162 202 247 301
#     4   9  18  33  49  70  97 127 164 205 252 305
#     4   9  17  30  48  71 100 134 166 196 233 282
#     4   9  18  32  50  72 103 135 166 204 249 298
#     4   8  15  28  46  68  91 113 144 190 247 310
#     4  11  19  31  49  70  94 127 166 210 256 307
#     4  10  20  34  49  68  96 134 172 213 255 295
#
# _framework density 17.661932
#
# number of rings (size 3 to 8) (size 9 to 14) (size 15 to 20)
#    0.000    2.625    1.250    1.500    0.000    1.500 
#    0.000    6.250    0.000    5.250    0.000    0.000 
#    0.000    4.000    0.000    0.000    0.000    0.000 
#
# Total GULP energy -792884.399475 kJ/mol
# GULP energy per Si atom -12388.818742 kJ/mol
# Density = 1.762173 g / cm^3
# Si number density = 17.661932 Si / 1000 Ang^3
#
#
#
# Elastic Constant Matrix: (Units=GPa)
#
#
# Indices 1 2 3 4 5 6 
#
# 1 73.5789 16.5610 27.7150 0.0000 0.0000 0.0000
# 2 16.5610 73.5789 27.7150 0.0000 0.0000 0.0000
# 3 27.7150 27.7150 72.7208 0.0000 0.0000 0.0000
# 4 0.0000 0.0000 0.0000 18.6959 0.0000 0.0000
# 5 0.0000 0.0000 0.0000 0.0000 18.6960 0.0000
# 6 0.0000 0.0000 0.0000 0.0000 0.0000 -453.9968
#
#
#
# Elastic Compliance Matrix: (Units=1/GPa)
#
#
# Indices 1 2 3 4 5 6 
#
# 1 0.016014 -0.001524 -0.005522 0.000000 0.000000 0.000000
# 2 -0.001524 0.016014 -0.005522 0.000000 0.000000 0.000000
# 3 -0.005522 -0.005522 0.017960 0.000000 0.000000 0.000000
# 4 0.000000 0.000000 0.000000 0.053488 0.000000 0.000000
# 5 0.000000 0.000000 0.000000 0.000000 0.053487 0.000000
# 6 0.000000 0.000000 0.000000 0.000000 0.000000 -0.002203
#
#
# Mechanical properties :
#
#
# Convention : Reuss Voigt Hill
#
# Bulk Modulus (GPa) = 40.24009 40.42896 40.33452
# Shear Modulus (GPa) = 26.57001 -73.46181 -23.44590
#
# Velocity S-wave (km/s) = 3.88282 -6.45628 -3.64742
# Velocity P-wave (km/s) = 6.55246 5.71297 2.26900
#
# Compressibility (1/GPa) = 0.02485084
#
# Stress axis : x y z
#
# Youngs Moduli (GPa) = 62.44531 62.44526 55.67797
#
# Poissons Ratio (x) = 0.09519 0.30747
# Poissons Ratio (y) = 0.09519 0.30747
# Poissons Ratio (z) = 0.34484 0.34484
#
# Static dielectric constant tensor:
#      x y z
#    x 3.497980 0.000000 0.000000 
#    y 0.000000 3.498000 0.000000 
#    z 0.000000 0.000000 3.327710 
# 
# 
# High freq. dielectric constant tensor:
#      x y z
#    x 1.669720 0.000000 0.000000 
#    y 0.000000 1.669720 0.000000 
#    z 0.000000 0.000000 1.670320 
# 
# From -- ./inp_files/4417.got.cif
#   From: 2010.03.12/outbox.cif.g09.slc.cpg/sg115_3_cif.got.tgz:4417.got - 2010.04.14 02:11:21.
