data_PCOD8309222
_publ_section_title
;
Structure prediction by ZEFSAII (Michael W. Deem and Ramdas Pophale) SiO2 
 PCOD8309222
Probable space group: P -4 M 2
;
_chemical_formula_sum "Si O2"
_cell_formula_units_Z 48
_cell_length_a 14.078725
_cell_length_b 14.078725
_cell_length_c 15.623020
_cell_angle_alpha 90.000000
_cell_angle_beta 90.000000
_cell_angle_gamma 90.000000
_cell_volume 3096.646569
_symmetry_space_group_name_H-M "P -4 M 2"
_symmetry_group_IT_number 115
_symmetry_cell_setting 'tetragonal'
loop_
_space_group_symop_operation_xyz
x,y,z
y,-x,-z
-x,-y,z
-y,x,-z
y,x,-z
-y,-x,-z
-x,y,z
x,-y,z
loop_
_atom_site_type_symbol
_atom_site_label
_atom_site_fract_x
_atom_site_fract_y
_atom_site_fract_z
Si Si1 0.200598 0.888687 0.582857
Si Si2 0.219378 0.886829 0.257193
Si Si3 0.109889 0.394825 0.495492
Si Si4 0.791288 0.392128 0.676189
Si Si5 0.887132 0.105449 0.906635
Si Si6 0.612406 0.395577 0.405661
O O1 0.141392 0.858609 0.500000
O O2 0.160352 0.836032 0.664914
O O3 0.312460 0.861370 0.571705
O O4 0.186915 0.000000 0.597544
O O5 0.326890 0.847583 0.256699
O O6 0.174244 0.851283 0.168267
O O7 0.217240 0.000000 0.266698
O O8 0.131945 0.500000 0.456702
O O9 0.164876 0.379650 0.582877
O O10 0.000000 0.384274 0.519350
O O11 0.799660 0.500000 0.709344
O O12 0.680934 0.358894 0.666992
O O13 0.000000 0.099420 0.906724
O O14 0.845147 0.000000 0.890079
O O15 0.854775 0.145226 0.000000
O O16 0.643037 0.356963 0.500000
O O17 0.500000 0.404359 0.409101
O O18 0.656841 0.500000 0.384953
#
# Coordination Sequence:
#
# PCOD8309222 Si02
#       6
#     8   8   8   8   8   8
#     4  11  21  31  42  60  89 123 154 183 221 267
#     4  11  21  31  45  67  92 119 152 188 224 270
#     4   9  18  32  45  56  79 120 162 192 216 253
#     4  10  19  29  43  62  87 119 153 191 227 263
#     4   8  15  30  51  72  92 113 140 179 228 277
#     4   8  15  27  41  58  80 109 149 195 236 265
#
# _framework density 15.500639
#
# number of rings (size 3 to 8) (size 9 to 14) (size 15 to 20)
#    0.000    2.500    1.667    2.500    2.333    2.833 
#    0.000    0.000    0.000    0.000    0.000    2.333 
#    0.000    5.333    0.000    0.000    0.000    0.000 
#
# Total GULP energy -594865.559236 kJ/mol
# GULP energy per Si atom -12393.032484 kJ/mol
# Density = 1.546536 g / cm^3
# Si number density = 15.500639 Si / 1000 Ang^3
#
#
#
# Elastic Constant Matrix: (Units=GPa)
#
#
# Indices 1 2 3 4 5 6 
#
# 1 73.1753 40.4469 40.8732 0.0000 0.0000 0.0000
# 2 40.4469 73.1740 40.8728 0.0000 0.0000 0.0000
# 3 40.8732 40.8728 92.4731 0.0000 0.0000 0.0000
# 4 0.0000 0.0000 0.0000 5.7332 0.0000 0.0000
# 5 0.0000 0.0000 0.0000 0.0000 5.7322 0.0000
# 6 0.0000 0.0000 0.0000 0.0000 0.0000 16.1487
#
#
#
# Elastic Compliance Matrix: (Units=1/GPa)
#
#
# Indices 1 2 3 4 5 6 
#
# 1 0.021730 -0.008825 -0.005704 0.000000 0.000000 0.000000
# 2 -0.008825 0.021730 -0.005704 0.000000 0.000000 0.000000
# 3 -0.005704 -0.005704 0.015856 0.000000 0.000000 0.000000
# 4 0.000000 0.000000 0.000000 0.174423 0.000000 0.000000
# 5 0.000000 0.000000 0.000000 0.000000 0.174453 0.000000
# 6 0.000000 0.000000 0.000000 0.000000 0.000000 0.061925
#
#
# Mechanical properties :
#
#
# Convention : Reuss Voigt Hill
#
# Bulk Modulus (GPa) = 53.04975 53.68981 53.36978
# Shear Modulus (GPa) = 9.67368 13.29811 11.48590
#
# Velocity S-wave (km/s) = 2.50087 2.93218 2.72508
# Velocity P-wave (km/s) = 6.52975 6.79529 6.66384
#
# Compressibility (1/GPa) = 0.01885023
#
# Stress axis : x y z
#
# Youngs Moduli (GPa) = 46.01970 46.01893 63.06660
#
# Poissons Ratio (x) = 0.40612 0.35973
# Poissons Ratio (y) = 0.40613 0.35973
# Poissons Ratio (z) = 0.26249 0.26249
#
# Static dielectric constant tensor:
#      x y z
#    x 3.278820 0.000000 0.000000 
#    y 0.000000 3.278810 0.000000 
#    z 0.000000 0.000000 2.878500 
# 
# 
# High freq. dielectric constant tensor:
#      x y z
#    x 1.598920 0.000000 0.000000 
#    y 0.000000 1.598920 0.000000 
#    z 0.000000 0.000000 1.540340 
# 
# From -- ./inp_files/3712.got.cif
#   From: 2010.03.12/outbox.cif.g09.slc.cpg/sg115_2_cif.got.tgz:3712.got - 2010.04.14 02:11:21.
