data_PCOD8309410
_publ_section_title
;
Structure prediction by ZEFSAII (Michael W. Deem and Ramdas Pophale) SiO2 
 PCOD8309410
Probable space group: P -4 M 2
;
_chemical_formula_sum "Si O2"
_cell_formula_units_Z 48
_cell_length_a 9.206819
_cell_length_b 9.206819
_cell_length_c 31.231182
_cell_angle_alpha 90.000000
_cell_angle_beta 90.000000
_cell_angle_gamma 90.000000
_cell_volume 2647.327261
_symmetry_space_group_name_H-M "P -4 M 2"
_symmetry_group_IT_number 115
_symmetry_cell_setting 'tetragonal'
loop_
_space_group_symop_operation_xyz
x,y,z
y,-x,-z
-x,-y,z
-y,x,-z
y,x,-z
-y,-x,-z
-x,y,z
x,-y,z
loop_
_atom_site_type_symbol
_atom_site_label
_atom_site_fract_x
_atom_site_fract_y
_atom_site_fract_z
Si Si1 0.338469 0.672934 0.213244
Si Si2 0.328691 0.167463 0.037799
Si Si3 0.829091 0.667181 0.295365
Si Si4 0.827482 0.836292 0.377762
Si Si5 0.831258 0.329055 0.462374
Si Si6 0.327088 0.338038 0.119996
O O1 0.500000 0.736283 0.220309
O O2 0.343161 0.500000 0.213395
O O3 0.238104 0.731175 0.251603
O O4 0.275036 0.721103 0.166684
O O5 0.500000 0.191163 0.032910
O O6 0.271480 0.230982 0.082940
O O7 0.284846 0.000000 0.036001
O O8 0.251278 0.251278 0.000000
O O9 0.784406 0.500000 0.302721
O O10 0.766349 0.759117 0.335129
O O11 0.000000 0.684406 0.291404
O O12 0.775663 0.745636 0.418836
O O13 0.000000 0.837325 0.375932
O O14 0.765713 0.000000 0.380601
O O15 0.733943 0.266058 0.500000
O O16 0.805834 0.500000 0.458157
O O17 0.000000 0.292640 0.471321
O O18 0.500000 0.344559 0.121080
O O19 0.265357 0.500000 0.110952
#
# Coordination Sequence:
#
# PCOD8309410 Si02
#       6
#     8   8   8   8   8   8
#     4   8  14  26  45  68  93 122 155 190 232 281
#     4  10  20  33  50  72  96 124 159 198 242 292
#     4   9  16  27  45  69  95 122 155 196 237 276
#     4   9  17  30  49  71  95 126 163 199 235 280
#     4  10  20  34  53  76 100 127 161 201 245 293
#     4   8  14  27  48  70  91 119 157 198 236 279
#
# _framework density 18.131492999999999
#
# number of rings (size 3 to 8) (size 9 to 14) (size 15 to 20)
#    0.000    3.000    0.000    2.500    0.000    4.000 
#    0.000    2.500    0.000    7.500    0.000    0.000 
#    0.000    0.000    0.000    0.000    0.000    0.000 
#
# Total GULP energy -595020.864997 kJ/mol
# GULP energy per Si atom -12396.268021 kJ/mol
# Density = 1.809023 g / cm^3
# Si number density = 18.131493 Si / 1000 Ang^3
#
#
#
# Elastic Constant Matrix: (Units=GPa)
#
#
# Indices 1 2 3 4 5 6 
#
# 1 52.4336 26.7815 51.7038 0.0000 0.0000 0.0000
# 2 26.7815 52.4329 51.7026 0.0000 0.0000 0.0000
# 3 51.7038 51.7026 185.7753 0.0000 0.0000 0.0000
# 4 0.0000 0.0000 0.0000 10.7163 0.0000 0.0000
# 5 0.0000 0.0000 0.0000 0.0000 10.7159 0.0000
# 6 0.0000 0.0000 0.0000 0.0000 0.0000 15.2956
#
#
#
# Elastic Compliance Matrix: (Units=1/GPa)
#
#
# Indices 1 2 3 4 5 6 
#
# 1 0.029405 -0.009578 -0.005518 0.000000 0.000000 0.000000
# 2 -0.009578 0.029406 -0.005518 0.000000 0.000000 0.000000
# 3 -0.005518 -0.005518 0.008454 0.000000 0.000000 0.000000
# 4 0.000000 0.000000 0.000000 0.093316 0.000000 0.000000
# 5 0.000000 0.000000 0.000000 0.000000 0.093320 0.000000
# 6 0.000000 0.000000 0.000000 0.000000 0.000000 0.065378
#
#
# Mechanical properties :
#
#
# Convention : Reuss Voigt Hill
#
# Bulk Modulus (GPa) = 38.40788 61.22420 49.81604
# Shear Modulus (GPa) = 13.54328 18.04247 15.79288
#
# Velocity S-wave (km/s) = 2.73600 3.15793 2.95450
# Velocity P-wave (km/s) = 5.58658 6.86562 6.25886
#
# Compressibility (1/GPa) = 0.02603632
#
# Stress axis : x y z
#
# Youngs Moduli (GPa) = 34.00727 34.00724 118.28222
#
# Poissons Ratio (x) = 0.32573 0.65271
# Poissons Ratio (y) = 0.32573 0.65268
# Poissons Ratio (z) = 0.18766 0.18765
#
# Static dielectric constant tensor:
#      x y z
#    x 3.190630 0.000000 0.000000 
#    y 0.000000 3.190630 0.000000 
#    z 0.000000 0.000000 3.798060 
# 
# 
# High freq. dielectric constant tensor:
#      x y z
#    x 1.670970 0.000000 0.000000 
#    y 0.000000 1.670970 0.000000 
#    z 0.000000 0.000000 1.723650 
# 
# From -- ./inp_files/6113.got.cif
#   From: 2010.03.12/outbox.cif.g09.slc.cpg/sg115_4_cif.got.tgz:6113.got - 2010.04.14 02:11:21.
