data_PCOD8309499
_publ_section_title
;
Structure prediction by ZEFSAII (Michael W. Deem and Ramdas Pophale) SiO2 
 PCOD8309499
Probable space group: P -4 M 2
;
_chemical_formula_sum "Si O2"
_cell_formula_units_Z 48
_cell_length_a 9.000888
_cell_length_b 9.000888
_cell_length_c 30.973483
_cell_angle_alpha 90.000000
_cell_angle_beta 90.000000
_cell_angle_gamma 90.000000
_cell_volume 2509.347228
_symmetry_space_group_name_H-M "P -4 M 2"
_symmetry_group_IT_number 115
_symmetry_cell_setting 'tetragonal'
loop_
_space_group_symop_operation_xyz
x,y,z
y,-x,-z
-x,-y,z
-y,x,-z
y,x,-z
-y,-x,-z
-x,y,z
x,-y,z
loop_
_atom_site_type_symbol
_atom_site_label
_atom_site_fract_x
_atom_site_fract_y
_atom_site_fract_z
Si Si1 0.170993 0.325135 0.381627
Si Si2 0.322910 0.166409 0.130272
Si Si3 0.171761 0.172245 0.292904
Si Si4 0.665770 0.677256 0.952874
Si Si5 0.667595 0.676338 0.785114
Si Si6 0.826499 0.327290 0.539783
O O1 0.195898 0.500000 0.380623
O O2 0.219313 0.259693 0.335718
O O3 0.277726 0.255321 0.417026
O O4 0.000000 0.284656 0.392290
O O5 0.500000 0.167980 0.129408
O O6 0.259636 0.230625 0.085214
O O7 0.263627 0.265314 0.169911
O O8 0.261737 0.000000 0.136076
O O9 0.267710 0.231649 0.253635
O O10 0.000000 0.199917 0.282142
O O11 0.207308 0.000000 0.300252
O O12 0.500000 0.739838 0.945208
O O13 0.661268 0.500000 0.952122
O O14 0.727709 0.727709 0.000000
O O15 0.500000 0.737379 0.780491
O O16 0.669603 0.500000 0.784439
O O17 0.766414 0.233587 0.500000
O O18 0.794355 0.500000 0.531118
O O19 0.000000 0.295172 0.545093
#
# Coordination Sequence:
#
# PCOD8309499 Si02
#       6
#     8   8   8   8   8   8
#     4  10  21  38  60  84 109 140 180 223 266 314
#     4   9  16  26  42  66  96 128 162 204 254 306
#     4  10  21  37  57  80 107 141 179 218 264 318
#     4   8  13  22  38  60  85 115 154 199 245 296
#     4  10  20  33  51  76 105 137 174 217 264 312
#     4  11  24  40  59  85 115 147 183 222 266 316
#
# _framework density 19.12848
#
# number of rings (size 3 to 8) (size 9 to 14) (size 15 to 20)
#    0.000    2.333    0.000    3.500    0.000    9.000 
#    0.000    0.000    0.000    1.000    0.000    2.333 
#    0.000    0.000    0.000    0.000    0.000    0.000 
#
# Total GULP energy -595248.965426 kJ/mol
# GULP energy per Si atom -12401.020113 kJ/mol
# Density = 1.908494 g / cm^3
# Si number density = 19.128480 Si / 1000 Ang^3
#
#
#
# Elastic Constant Matrix: (Units=GPa)
#
#
# Indices 1 2 3 4 5 6 
#
# 1 65.9394 31.0370 43.8040 0.0000 0.0000 0.0000
# 2 31.0370 65.9414 43.8059 0.0000 0.0000 0.0000
# 3 43.8040 43.8059 144.0972 0.0000 0.0000 0.0000
# 4 0.0000 0.0000 0.0000 57.6308 0.0000 0.0000
# 5 0.0000 0.0000 0.0000 0.0000 57.6290 0.0000
# 6 0.0000 0.0000 0.0000 0.0000 0.0000 22.3886
#
#
#
# Elastic Compliance Matrix: (Units=1/GPa)
#
#
# Indices 1 2 3 4 5 6 
#
# 1 0.021433 -0.007217 -0.004321 0.000000 0.000000 0.000000
# 2 -0.007217 0.021433 -0.004322 0.000000 0.000000 0.000000
# 3 -0.004321 -0.004322 0.009567 0.000000 0.000000 0.000000
# 4 0.000000 0.000000 0.000000 0.017352 0.000000 0.000000
# 5 0.000000 0.000000 0.000000 0.000000 0.017352 0.000000
# 6 0.000000 0.000000 0.000000 0.000000 0.000000 0.044666
#
#
# Mechanical properties :
#
#
# Convention : Reuss Voigt Hill
#
# Bulk Modulus (GPa) = 48.27974 57.03020 52.65497
# Shear Modulus (GPa) = 29.33784 38.01842 33.67813
#
# Velocity S-wave (km/s) = 3.92053 4.46301 4.20054
# Velocity P-wave (km/s) = 6.76673 7.51245 7.14932
#
# Compressibility (1/GPa) = 0.02071262
#
# Stress axis : x y z
#
# Youngs Moduli (GPa) = 46.65637 46.65714 104.52360
#
# Poissons Ratio (x) = 0.33674 0.45169
# Poissons Ratio (y) = 0.33674 0.45172
# Poissons Ratio (z) = 0.20162 0.20164
#
# Static dielectric constant tensor:
#      x y z
#    x 3.413050 0.000000 0.000000 
#    y 0.000000 3.413050 0.000000 
#    z 0.000000 0.000000 3.892540 
# 
# 
# High freq. dielectric constant tensor:
#      x y z
#    x 1.727550 0.000000 0.000000 
#    y 0.000000 1.727550 0.000000 
#    z 0.000000 0.000000 1.762510 
# 
# From -- ./inp_files/6062.got.cif
#   From: 2010.03.12/outbox.cif.g09.slc.cpg/sg115_4_cif.got.tgz:6062.got - 2010.04.14 02:11:21.
