data_PCOD8309426
_publ_section_title
;
Structure prediction by ZEFSAII (Michael W. Deem and Ramdas Pophale) SiO2 
 PCOD8309426
Probable space group: P -4 M 2
;
_chemical_formula_sum "Si O2"
_cell_formula_units_Z 48
_cell_length_a 9.020648
_cell_length_b 9.020648
_cell_length_c 30.997382
_cell_angle_alpha 90.000000
_cell_angle_beta 90.000000
_cell_angle_gamma 90.000000
_cell_volume 2522.321768
_symmetry_space_group_name_H-M "P -4 M 2"
_symmetry_group_IT_number 115
_symmetry_cell_setting 'tetragonal'
loop_
_space_group_symop_operation_xyz
x,y,z
y,-x,-z
-x,-y,z
-y,x,-z
y,x,-z
-y,-x,-z
-x,y,z
x,-y,z
loop_
_atom_site_type_symbol
_atom_site_label
_atom_site_fract_x
_atom_site_fract_y
_atom_site_fract_z
Si Si1 0.831994 0.824023 0.705203
Si Si2 0.670202 0.173456 0.461411
Si Si3 0.672893 0.328108 0.626644
Si Si4 0.325882 0.170756 0.961011
Si Si5 0.832978 0.176338 0.874576
Si Si6 0.667395 0.176751 0.790293
O O1 0.743679 0.766517 0.664359
O O2 0.754333 0.763444 0.748518
O O3 0.000000 0.764366 0.704149
O O4 0.828481 0.000000 0.704389
O O5 0.773139 0.226862 0.500000
O O6 0.500000 0.213413 0.472174
O O7 0.722963 0.255144 0.418196
O O8 0.692549 0.000000 0.454286
O O9 0.500000 0.292870 0.624359
O O10 0.705511 0.500000 0.635541
O O11 0.500000 0.189876 0.955164
O O12 0.249176 0.230841 0.917613
O O13 0.282607 0.000000 0.969961
O O14 0.270549 0.270549 0.000000
O O15 0.747577 0.240092 0.832923
O O16 0.000000 0.238861 0.874636
O O17 0.833149 0.000000 0.872687
O O18 0.500000 0.238015 0.788939
O O19 0.667691 0.000000 0.791063
#
# Coordination Sequence:
#
# PCOD8309426 Si02
#       6
#     8   8   8   8   8   8
#     4  10  20  33  51  77 108 141 178 220 265 312
#     4  10  21  37  57  80 105 135 171 211 257 309
#     4  10  21  37  57  79 104 138 179 220 263 313
#     4  10  20  33  50  73 100 131 168 209 254 306
#     4   9  16  27  46  72 101 132 168 212 259 306
#     4   9  16  27  45  71 104 139 174 214 260 310
#
# _framework density 19.030083999999999
#
# number of rings (size 3 to 8) (size 9 to 14) (size 15 to 20)
#    0.000    2.333    0.000    3.000    0.000    8.667 
#    0.000    0.000    0.000    1.000    0.000    0.000 
#    0.000    0.000    0.000    0.000    0.000    0.000 
#
# Total GULP energy -595340.153888 kJ/mol
# GULP energy per Si atom -12402.919873 kJ/mol
# Density = 1.898677 g / cm^3
# Si number density = 19.030084 Si / 1000 Ang^3
#
#
#
# Elastic Constant Matrix: (Units=GPa)
#
#
# Indices 1 2 3 4 5 6 
#
# 1 78.0323 28.5079 54.9073 0.0000 0.0000 0.0000
# 2 28.5079 78.0331 54.9085 0.0000 0.0000 0.0000
# 3 54.9073 54.9085 168.5953 0.0000 0.0000 0.0000
# 4 0.0000 0.0000 0.0000 -4.1561 0.0000 0.0000
# 5 0.0000 0.0000 0.0000 0.0000 -4.1541 0.0000
# 6 0.0000 0.0000 0.0000 0.0000 0.0000 21.8247
#
#
#
# Elastic Compliance Matrix: (Units=1/GPa)
#
#
# Indices 1 2 3 4 5 6 
#
# 1 0.017161 -0.003031 -0.004601 0.000000 0.000000 0.000000
# 2 -0.003031 0.017160 -0.004602 0.000000 0.000000 0.000000
# 3 -0.004601 -0.004602 0.008929 0.000000 0.000000 0.000000
# 4 0.000000 0.000000 0.000000 -0.240608 0.000000 0.000000
# 5 0.000000 0.000000 0.000000 0.000000 -0.240727 0.000000
# 6 0.000000 0.000000 0.000000 0.000000 0.000000 0.045820
#
#
# Mechanical properties :
#
#
# Convention : Reuss Voigt Hill
#
# Bulk Modulus (GPa) = 53.24639 66.81203 60.02921
# Shear Modulus (GPa) = -13.82986 15.12535 0.64775
#
# Velocity S-wave (km/s) = -2.69873 2.82230 0.58405
# Velocity P-wave (km/s) = 4.28136 6.76797 5.66283
#
# Compressibility (1/GPa) = 0.01878061
#
# Stress axis : x y z
#
# Youngs Moduli (GPa) = 58.27329 58.27337 111.99936
#
# Poissons Ratio (x) = 0.17665 0.51536
# Poissons Ratio (y) = 0.17665 0.51538
# Poissons Ratio (z) = 0.26814 0.26815
#
# Static dielectric constant tensor:
#      x y z
#    x 3.400130 0.000000 0.000000 
#    y 0.000000 3.400130 0.000000 
#    z 0.000000 0.000000 3.654910 
# 
# 
# High freq. dielectric constant tensor:
#      x y z
#    x 1.724160 0.000000 0.000000 
#    y 0.000000 1.724160 0.000000 
#    z 0.000000 0.000000 1.757210 
# 
# From -- ./inp_files/5998.got.cif
#   From: 2010.03.12/outbox.cif.g09.slc.cpg/sg115_3_cif.got.tgz:5998.got - 2010.04.14 02:11:21.
