data_PCOD8309392
_publ_section_title
;
Structure prediction by ZEFSAII (Michael W. Deem and Ramdas Pophale) SiO2 
 PCOD8309392
Probable space group: P -4 M 2
;
_chemical_formula_sum "Si O2"
_cell_formula_units_Z 40
_cell_length_a 9.213529
_cell_length_b 9.213529
_cell_length_c 25.543949
_cell_angle_alpha 90.000000
_cell_angle_beta 90.000000
_cell_angle_gamma 90.000000
_cell_volume 2168.403266
_symmetry_space_group_name_H-M "P -4 M 2"
_symmetry_group_IT_number 115
_symmetry_cell_setting 'tetragonal'
loop_
_space_group_symop_operation_xyz
x,y,z
y,-x,-z
-x,-y,z
-y,x,-z
y,x,-z
-y,-x,-z
-x,y,z
x,-y,z
loop_
_atom_site_type_symbol
_atom_site_label
_atom_site_fract_x
_atom_site_fract_y
_atom_site_fract_z
Si Si1 0.329438 0.831925 0.137207
Si Si2 0.670168 0.829538 0.953028
Si Si3 0.330718 0.665080 0.440311
Si Si4 0.171932 0.660040 0.745388
Si Si5 0.836906 0.172366 0.352387
O O1 0.500000 0.805811 0.127307
O O2 0.234395 0.728457 0.101132
O O3 0.285972 0.787433 0.196433
O O4 0.291398 0.000000 0.125855
O O5 0.500000 0.796938 0.957953
O O6 0.702596 0.000000 0.955163
O O7 0.752598 0.752598 0.000000
O O8 0.293642 0.706359 0.500000
O O9 0.500000 0.685456 0.429512
O O10 0.283788 0.500000 0.428777
O O11 0.244567 0.772841 0.403415
O O12 0.237853 0.500000 0.735611
O O13 0.235280 0.765921 0.700930
O O14 0.000000 0.651243 0.741219
O O15 0.000000 0.230886 0.353876
O O16 0.830456 0.000000 0.352789
#
# Coordination Sequence:
#
# PCOD8309392 Si02
#       5
#     8   8   8   8   8
#     4   9  18  34  57  83 107 133 171 216 257 301
#     4  11  24  39  55  78 107 138 174 214 256 306
#     4   9  19  36  55  73  95 128 172 217 259 307
#     4   8  15  30  52  76 103 137 175 211 248 296
#     4  10  20  32  49  77 109 137 168 208 254 305
#
# _framework density 18.446752
#
# number of rings (size 3 to 8) (size 9 to 14) (size 15 to 20)
#    0.000    2.600    0.000    3.600    0.000    7.600 
#    0.000    6.000    0.000    1.200    0.000    0.000 
#    0.000    0.000    0.000    0.000    0.000    0.000 
#
# Total GULP energy -495955.913041 kJ/mol
# GULP energy per Si atom -12398.897826 kJ/mol
# Density = 1.840477 g / cm^3
# Si number density = 18.446752 Si / 1000 Ang^3
#
#
#
# Elastic Constant Matrix: (Units=GPa)
#
#
# Indices 1 2 3 4 5 6 
#
# 1 72.1825 43.7894 61.4739 0.0000 0.0000 0.0000
# 2 43.7894 72.1827 61.4738 0.0000 0.0000 0.0000
# 3 61.4739 61.4738 146.6285 0.0000 0.0000 0.0000
# 4 0.0000 0.0000 0.0000 108.5965 0.0000 0.0000
# 5 0.0000 0.0000 0.0000 0.0000 108.5535 0.0000
# 6 0.0000 0.0000 0.0000 0.0000 0.0000 28.0875
#
#
#
# Elastic Compliance Matrix: (Units=1/GPa)
#
#
# Indices 1 2 3 4 5 6 
#
# 1 0.025371 -0.009849 -0.006507 0.000000 0.000000 0.000000
# 2 -0.009849 0.025371 -0.006507 0.000000 0.000000 0.000000
# 3 -0.006507 -0.006507 0.012276 0.000000 0.000000 0.000000
# 4 0.000000 0.000000 0.000000 0.009208 0.000000 0.000000
# 5 0.000000 0.000000 0.000000 0.000000 0.009212 0.000000
# 6 0.000000 0.000000 0.000000 0.000000 0.000000 0.035603
#
#
# Mechanical properties :
#
#
# Convention : Reuss Voigt Hill
#
# Bulk Modulus (GPa) = 57.83700 69.38531 63.61115
# Shear Modulus (GPa) = 29.66788 57.33127 43.49958
#
# Velocity S-wave (km/s) = 4.01471 5.58093 4.86131
# Velocity P-wave (km/s) = 7.27407 8.90082 8.12824
#
# Compressibility (1/GPa) = 0.01728997
#
# Stress axis : x y z
#
# Youngs Moduli (GPa) = 39.41545 39.41573 81.45695
#
# Poissons Ratio (x) = 0.38821 0.53008
# Poissons Ratio (y) = 0.38820 0.53007
# Poissons Ratio (z) = 0.25650 0.25649
#
# Static dielectric constant tensor:
#      x y z
#    x 3.178800 0.000000 0.000000 
#    y 0.000000 3.178720 0.000000 
#    z 0.000000 0.000000 3.600150 
# 
# 
# High freq. dielectric constant tensor:
#      x y z
#    x 1.702330 0.000000 0.000000 
#    y 0.000000 1.702330 0.000000 
#    z 0.000000 0.000000 1.732100 
# 
# From -- ./inp_files/5109.got.cif
#   From: 2010.03.12/outbox.cif.g09.slc.cpg/sg115_3_cif.got.tgz:5109.got - 2010.04.14 02:11:21.
