data_PCOD8309091
_publ_section_title
;
Structure prediction by ZEFSAII (Michael W. Deem and Ramdas Pophale) SiO2 
 PCOD8309091
Probable space group: P -4 21 C
;
_chemical_formula_sum "Si O2"
_cell_formula_units_Z 52
_cell_length_a 15.699116
_cell_length_b 15.699116
_cell_length_c 9.566251
_cell_angle_alpha 90.000000
_cell_angle_beta 90.000000
_cell_angle_gamma 90.000000
_cell_volume 2357.719680
_symmetry_space_group_name_H-M "P -4 21 C"
_symmetry_group_IT_number 114
_symmetry_cell_setting 'tetragonal'
loop_
_space_group_symop_operation_xyz
x,y,z
y,-x,-z
-x,-y,z
-y,x,-z
1/2+x,1/2-y,1/2-z
1/2-x,1/2+y,1/2-z
1/2-y,1/2-x,1/2+z
1/2+y,1/2+x,1/2+z
loop_
_atom_site_type_symbol
_atom_site_label
_atom_site_fract_x
_atom_site_fract_y
_atom_site_fract_z
Si Si1 0.616158 0.803982 0.980521
Si Si2 0.000000 0.000000 0.000000
Si Si3 0.685091 0.523767 0.122912
Si Si4 0.332406 0.429721 0.635836
Si Si5 0.000000 0.000000 0.500000
Si Si6 0.582168 0.786816 0.290033
Si Si7 0.158656 0.223939 0.398838
Si Si8 0.351742 0.715381 0.645925
O O1 0.560347 0.740265 0.887254
O O2 0.637884 0.891596 0.898184
O O3 0.701031 0.746205 0.982269
O O4 0.576799 0.824993 0.132367
O O5 0.978691 0.920592 0.102181
O O6 0.584360 0.510323 0.094842
O O7 0.700881 0.557980 0.278459
O O8 0.729436 0.585195 0.011255
O O9 0.253510 0.493600 0.661233
O O10 0.340817 0.372707 0.776093
O O11 0.309624 0.364980 0.514152
O O12 0.651954 0.713389 0.278576
O O13 0.186568 0.317347 0.338896
#
# Coordination Sequence:
#
# PCOD8309091 Si02
#       8
#     8   2   8   8   2   8   8   8
#     4  11  25  41  67  93 134 178 225 267 338 409
#     4  12  28  38  64 114 144 178 204 282 376 398
#     4  12  23  41  66  98 135 170 215 280 332 409
#     4  12  26  42  65  99 144 171 220 286 338 416
#     4  12  24  38  68 106 136 166 208 274 364 406
#     4  11  24  43  63  97 132 180 222 268 336 411
#     4  11  24  43  65  91 133 182 227 266 325 410
#     4  11  25  40  65  94 130 182 224 265 332 403
#
# _framework density 22.055209999999999
#
# number of rings (size 3 to 8) (size 9 to 14) (size 15 to 20)
#    0.000    0.615    6.154    0.923   10.769    1.231 
#    0.000    0.000    0.000    5.538    0.000    0.000 
#    0.000    0.000    0.000    0.000    0.000    0.000 
#
# Total GULP energy -644530.474221 kJ/mol
# GULP energy per Si atom -12394.816812 kJ/mol
# Density = 2.200501 g / cm^3
# Si number density = 22.055210 Si / 1000 Ang^3
#
#
#
# Elastic Constant Matrix: (Units=GPa)
#
#
# Indices 1 2 3 4 5 6 
#
# 1 52.6105 24.3621 4.8820 0.0000 0.0000 0.0000
# 2 24.3621 52.6105 4.8820 0.0000 0.0000 0.0000
# 3 4.8820 4.8820 81.1678 0.0000 0.0000 0.0000
# 4 0.0000 0.0000 0.0000 31.5851 0.0000 0.0000
# 5 0.0000 0.0000 0.0000 0.0000 31.5851 0.0000
# 6 0.0000 0.0000 0.0000 0.0000 0.0000 39.0912
#
#
#
# Elastic Compliance Matrix: (Units=1/GPa)
#
#
# Indices 1 2 3 4 5 6 
#
# 1 0.024246 -0.011154 -0.000787 0.000000 0.000000 0.000000
# 2 -0.011154 0.024246 -0.000787 0.000000 0.000000 0.000000
# 3 -0.000787 -0.000787 0.012415 0.000000 0.000000 0.000000
# 4 0.000000 0.000000 0.000000 0.031661 0.000000 0.000000
# 5 0.000000 0.000000 0.000000 0.000000 0.031661 0.000000
# 6 0.000000 0.000000 0.000000 0.000000 0.000000 0.025581
#
#
# Mechanical properties :
#
#
# Convention : Reuss Voigt Hill
#
# Bulk Modulus (GPa) = 28.21011 28.29342 28.25177
# Shear Modulus (GPa) = 26.72607 30.60312 28.66460
#
# Velocity S-wave (km/s) = 3.48484 3.72905 3.60901
# Velocity P-wave (km/s) = 5.38615 5.60334 5.49582
#
# Compressibility (1/GPa) = 0.03544828
#
# Stress axis : x y z
#
# Youngs Moduli (GPa) = 41.24418 41.24418 80.54849
#
# Poissons Ratio (x) = 0.46005 0.06342
# Poissons Ratio (y) = 0.46005 0.06342
# Poissons Ratio (z) = 0.03248 0.03248
#
# Static dielectric constant tensor:
#      x y z
#    x 4.077730 0.000000 0.000000 
#    y 0.000000 4.077730 0.000000 
#    z 0.000000 0.000000 3.965340 
# 
# 
# High freq. dielectric constant tensor:
#      x y z
#    x 1.852710 0.000000 0.000000 
#    y 0.000000 1.852710 0.000000 
#    z 0.000000 0.000000 1.880170 
# 
# From -- ./inp_files/1005.got.cif
#   From: 2010.03.12/outbox.cif.g09.slc.cpg/sg114_1_cif.got.tgz:1005.got - 2010.04.14 02:08:34.
