data_PCOD8309590
_publ_section_title
;
Structure prediction by ZEFSAII (Michael W. Deem and Ramdas Pophale) SiO2 
 PCOD8309590
Probable space group: P -4 M 2
;
_chemical_formula_sum "Si O2"
_cell_formula_units_Z 44
_cell_length_a 9.196979
_cell_length_b 9.196979
_cell_length_c 28.460480
_cell_angle_alpha 90.000000
_cell_angle_beta 90.000000
_cell_angle_gamma 90.000000
_cell_volume 2407.313271
_symmetry_space_group_name_H-M "P -4 M 2"
_symmetry_group_IT_number 115
_symmetry_cell_setting 'tetragonal'
loop_
_space_group_symop_operation_xyz
x,y,z
y,-x,-z
-x,-y,z
-y,x,-z
y,x,-z
-y,-x,-z
-x,y,z
x,-y,z
loop_
_atom_site_type_symbol
_atom_site_label
_atom_site_fract_x
_atom_site_fract_y
_atom_site_fract_z
Si Si1 0.338036 0.673344 0.948979
Si Si2 0.831508 0.330579 0.406100
Si Si3 0.666802 0.333198 0.500000
Si Si4 0.827629 0.666903 0.676409
Si Si5 0.667218 0.171025 0.141300
Si Si6 0.173108 0.164315 0.767905
O O1 0.500000 0.735079 0.940739
O O2 0.341105 0.500000 0.949695
O O3 0.238015 0.731290 0.906739
O O4 0.275671 0.724330 0.000000
O O5 0.807850 0.500000 0.395523
O O6 0.770119 0.289539 0.457108
O O7 0.743863 0.239254 0.368419
O O8 0.000000 0.286745 0.404133
O O9 0.500000 0.308009 0.484627
O O10 0.776692 0.500000 0.678434
O O11 0.768892 0.746999 0.723036
O O12 0.000000 0.678976 0.672753
O O13 0.500000 0.216360 0.149365
O O14 0.759285 0.232839 0.184994
O O15 0.683957 0.000000 0.136901
O O16 0.000000 0.166140 0.768396
O O17 0.233100 0.000000 0.765399
#
# Coordination Sequence:
#
# PCOD8309590 Si02
#       6
#     8   8   4   8   8   8
#     4   8  14  26  44  64  87 117 151 186 228 280
#     4  10  21  36  54  78 108 138 167 204 251 298
#     4   9  18  34  54  73  98 136 176 207 238 285
#     4  10  20  34  54  78 101 129 169 212 250 294
#     4   9  16  27  45  67  88 113 151 195 233 275
#     4   9  17  30  48  69  95 127 160 196 242 293
#
# _framework density 18.277639000000001
#
# number of rings (size 3 to 8) (size 9 to 14) (size 15 to 20)
#    0.000    2.818    0.000    2.182    0.000    5.091 
#    0.000    3.636    0.000    4.909    0.000    0.000 
#    0.000    0.000    0.000    0.000    0.000    0.000 
#
# Total GULP energy -545543.632617 kJ/mol
# GULP energy per Si atom -12398.718923 kJ/mol
# Density = 1.823604 g / cm^3
# Si number density = 18.277639 Si / 1000 Ang^3
#
#
#
# Elastic Constant Matrix: (Units=GPa)
#
#
# Indices 1 2 3 4 5 6 
#
# 1 73.1061 34.9334 63.6537 0.0000 0.0000 0.0000
# 2 34.9334 73.1064 63.6533 0.0000 0.0000 0.0000
# 3 63.6537 63.6533 163.2420 0.0000 0.0000 0.0000
# 4 0.0000 0.0000 0.0000 29.3348 0.0000 0.0000
# 5 0.0000 0.0000 0.0000 0.0000 29.3349 0.0000
# 6 0.0000 0.0000 0.0000 0.0000 0.0000 19.0365
#
#
#
# Elastic Compliance Matrix: (Units=1/GPa)
#
#
# Indices 1 2 3 4 5 6 
#
# 1 0.021660 -0.004536 -0.006677 0.000000 0.000000 0.000000
# 2 -0.004536 0.021660 -0.006677 0.000000 0.000000 0.000000
# 3 -0.006677 -0.006677 0.011333 0.000000 0.000000 0.000000
# 4 0.000000 0.000000 0.000000 0.034089 0.000000 0.000000
# 5 0.000000 0.000000 0.000000 0.000000 0.034089 0.000000
# 6 0.000000 0.000000 0.000000 0.000000 0.000000 0.052531
#
#
# Mechanical properties :
#
#
# Convention : Reuss Voigt Hill
#
# Bulk Modulus (GPa) = 52.98810 70.43724 61.71267
# Shear Modulus (GPa) = 22.99544 25.35553 24.17549
#
# Velocity S-wave (km/s) = 3.55085 3.72861 3.64081
# Velocity P-wave (km/s) = 6.77237 7.56028 7.17714
#
# Compressibility (1/GPa) = 0.01887216
#
# Stress axis : x y z
#
# Youngs Moduli (GPa) = 46.16738 46.16793 88.23686
#
# Poissons Ratio (x) = 0.20944 0.58918
# Poissons Ratio (y) = 0.20944 0.58916
# Poissons Ratio (z) = 0.30827 0.30826
#
# Static dielectric constant tensor:
#      x y z
#    x 3.326740 0.000000 0.000000 
#    y 0.000000 3.326740 0.000000 
#    z 0.000000 0.000000 3.652460 
# 
# 
# High freq. dielectric constant tensor:
#      x y z
#    x 1.686680 0.000000 0.000000 
#    y 0.000000 1.686680 0.000000 
#    z 0.000000 0.000000 1.726090 
# 
# From -- ./inp_files/5736.got.cif
#   From: 2010.03.12/outbox.cif.g09.slc.cpg/sg115_3_cif.got.tgz:5736.got - 2010.04.14 02:11:21.
