data_PCOD8309287
_publ_section_title
;
Structure prediction by ZEFSAII (Michael W. Deem and Ramdas Pophale) SiO2 
 PCOD8309287
Probable space group: P -4 M 2
;
_chemical_formula_sum "Si O2"
_cell_formula_units_Z 40
_cell_length_a 8.032148
_cell_length_b 8.032148
_cell_length_c 29.317687
_cell_angle_alpha 90.000000
_cell_angle_beta 90.000000
_cell_angle_gamma 90.000000
_cell_volume 1891.442348
_symmetry_space_group_name_H-M "P -4 M 2"
_symmetry_group_IT_number 115
_symmetry_cell_setting 'tetragonal'
loop_
_space_group_symop_operation_xyz
x,y,z
y,-x,-z
-x,-y,z
-y,x,-z
y,x,-z
-y,-x,-z
-x,y,z
x,-y,z
loop_
_atom_site_type_symbol
_atom_site_label
_atom_site_fract_x
_atom_site_fract_y
_atom_site_fract_z
Si Si1 0.807236 0.681230 0.045663
Si Si2 0.194350 0.688006 0.546905
Si Si3 0.000000 0.802653 0.393721
Si Si4 0.198166 0.683606 0.765145
Si Si5 0.198960 0.000000 0.708826
Si Si6 0.804151 0.813528 0.859990
O O1 0.730010 0.500000 0.036429
O O2 0.725286 0.755419 0.091826
O O3 0.000000 0.672796 0.056465
O O4 0.787259 0.787259 0.000000
O O5 0.294308 0.705693 0.500000
O O6 0.224853 0.500000 0.566339
O O7 0.000000 0.717368 0.536695
O O8 0.260002 0.830080 0.581734
O O9 0.000000 0.730784 0.342572
O O10 0.000000 0.000000 0.392131
O O11 0.259339 0.500000 0.748386
O O12 0.263469 0.708497 0.817015
O O13 0.000000 0.690353 0.764096
O O14 0.268000 0.832468 0.733326
O O15 0.000000 0.000000 0.709914
O O16 0.000000 0.822268 0.857896
O O17 0.730346 0.000000 0.855823
#
# Coordination Sequence:
#
# PCOD8309287 Si02
#       6
#     8   8   4   8   4   8
#     4  10  21  35  51  73 101 133 168 210 263 324
#     4  10  19  32  53  79 109 151 196 236 287 344
#     4   9  18  30  49  75 113 154 187 237 288 340
#     4   9  16  26  44  70 101 137 178 226 277 332
#     4   9  16  28  44  71 109 145 178 223 285 329
#     4   9  16  29  49  70  94 128 170 215 268 325
#
# _framework density 21.147883
#
# number of rings (size 3 to 8) (size 9 to 14) (size 15 to 20)
#    0.000    2.600    2.000    0.600    0.000    3.000 
#    0.000    6.000    0.000    0.000    0.000    2.800 
#    0.000    0.000    0.000    0.000    0.000    0.000 
#
# Total GULP energy -495626.228576 kJ/mol
# GULP energy per Si atom -12390.655714 kJ/mol
# Density = 2.109975 g / cm^3
# Si number density = 21.147883 Si / 1000 Ang^3
#
#
#
# Elastic Constant Matrix: (Units=GPa)
#
#
# Indices 1 2 3 4 5 6 
#
# 1 85.1264 23.6926 49.0548 0.0000 0.0000 0.0000
# 2 23.6926 85.1267 49.0553 0.0000 0.0000 0.0000
# 3 49.0548 49.0553 181.1184 0.0000 0.0000 0.0000
# 4 0.0000 0.0000 0.0000 7.5934 0.0000 0.0000
# 5 0.0000 0.0000 0.0000 0.0000 7.5934 0.0000
# 6 0.0000 0.0000 0.0000 0.0000 0.0000 6.2126
#
#
#
# Elastic Compliance Matrix: (Units=1/GPa)
#
#
# Indices 1 2 3 4 5 6 
#
# 1 0.014218 -0.002060 -0.003293 0.000000 0.000000 0.000000
# 2 -0.002060 0.014218 -0.003293 0.000000 0.000000 0.000000
# 3 -0.003293 -0.003293 0.007305 0.000000 0.000000 0.000000
# 4 0.000000 0.000000 0.000000 0.131692 0.000000 0.000000
# 5 0.000000 0.000000 0.000000 0.000000 0.131694 0.000000
# 6 0.000000 0.000000 0.000000 0.000000 0.000000 0.160963
#
#
# Mechanical properties :
#
#
# Convention : Reuss Voigt Hill
#
# Bulk Modulus (GPa) = 54.20094 66.10856 60.15475
# Shear Modulus (GPa) = 10.34057 19.58446 14.96252
#
# Velocity S-wave (km/s) = 2.21365 3.04644 2.66281
# Velocity P-wave (km/s) = 5.67616 6.61078 6.16122
#
# Compressibility (1/GPa) = 0.01844986
#
# Stress axis : x y z
#
# Youngs Moduli (GPa) = 70.33283 70.33279 136.89086
#
# Poissons Ratio (x) = 0.14485 0.45079
# Poissons Ratio (y) = 0.14485 0.45080
# Poissons Ratio (z) = 0.23161 0.23161
#
# Static dielectric constant tensor:
#      x y z
#    x 3.677260 0.000000 0.000000 
#    y 0.000000 3.677260 0.000000 
#    z 0.000000 0.000000 3.962460 
# 
# 
# High freq. dielectric constant tensor:
#      x y z
#    x 1.801600 0.000000 0.000000 
#    y 0.000000 1.801600 0.000000 
#    z 0.000000 0.000000 1.827300 
# 
# From -- ./inp_files/5554.got.cif
#   From: 2010.03.12/outbox.cif.g09.slc.cpg/sg115_3_cif.got.tgz:5554.got - 2010.04.14 02:11:21.
