data_PCOD8309305
_publ_section_title
;
Structure prediction by ZEFSAII (Michael W. Deem and Ramdas Pophale) SiO2 
 PCOD8309305
Probable space group: P -4 M 2
;
_chemical_formula_sum "Si O2"
_cell_formula_units_Z 56
_cell_length_a 14.230240
_cell_length_b 14.230240
_cell_length_c 12.315204
_cell_angle_alpha 90.000000
_cell_angle_beta 90.000000
_cell_angle_gamma 90.000000
_cell_volume 2493.825491
_symmetry_space_group_name_H-M "P -4 M 2"
_symmetry_group_IT_number 115
_symmetry_cell_setting 'tetragonal'
loop_
_space_group_symop_operation_xyz
x,y,z
y,-x,-z
-x,-y,z
-y,x,-z
y,x,-z
-y,-x,-z
-x,y,z
x,-y,z
loop_
_atom_site_type_symbol
_atom_site_label
_atom_site_fract_x
_atom_site_fract_y
_atom_site_fract_z
Si Si1 0.140592 0.386556 0.029369
Si Si2 0.731830 0.108591 0.184021
Si Si3 0.686694 0.206796 0.574148
Si Si4 0.398457 0.660277 0.896051
Si Si5 0.396455 0.388089 0.330852
Si Si6 0.251148 0.896077 0.788893
Si Si7 0.891866 0.395233 0.619493
O O1 0.123567 0.500000 0.027857
O O2 0.114267 0.342646 0.913915
O O3 0.245944 0.352960 0.056104
O O4 0.084162 0.335021 0.125139
O O5 0.826163 0.170097 0.166127
O O6 0.679102 0.147726 0.291948
O O7 0.762368 0.000000 0.197384
O O8 0.781265 0.218736 0.500000
O O9 0.653894 0.313389 0.598697
O O10 0.702899 0.145288 0.680064
O O11 0.610383 0.157163 0.497765
O O12 0.500000 0.687368 0.850030
O O13 0.346413 0.615249 0.792675
O O14 0.408293 0.591708 0.000000
O O15 0.500000 0.353875 0.372008
O O16 0.394238 0.500000 0.334575
O O17 0.207826 0.000000 0.764989
O O18 0.876507 0.500000 0.665813
O O19 0.000000 0.372736 0.600554
#
# Coordination Sequence:
#
# PCOD8309305 Si02
#       7
#     8   8   8   8   8   8   8
#     4  11  24  42  69 104 143 184 224 275 339 410
#     4  11  24  46  73 103 142 180 226 289 355 425
#     4  12  24  43  65  94 137 182 232 295 352 409
#     4  10  19  33  55  85 128 174 225 275 323 386
#     4  10  22  39  59  89 132 184 239 286 333 398
#     4  12  26  46  73 103 138 179 231 294 358 423
#     4  10  22  42  71 103 135 180 235 290 354 424
#
# _framework density 22.455461
#
# number of rings (size 3 to 8) (size 9 to 14) (size 15 to 20)
#    0.000    1.143    2.857    3.429    0.000    4.429 
#    0.000    0.714    0.000    1.714    0.000    0.000 
#    0.000    0.000    0.000    0.000    0.000    0.000 
#
# Total GULP energy -693766.756665 kJ/mol
# GULP energy per Si atom -12388.692083 kJ/mol
# Density = 2.240435 g / cm^3
# Si number density = 22.455461 Si / 1000 Ang^3
#
#
#
# Elastic Constant Matrix: (Units=GPa)
#
#
# Indices 1 2 3 4 5 6 
#
# 1 126.6857 49.1101 46.9697 0.0000 0.0000 0.0000
# 2 49.1101 126.6866 46.9697 0.0000 0.0000 0.0000
# 3 46.9697 46.9697 151.6218 0.0000 0.0000 0.0000
# 4 0.0000 0.0000 0.0000 6.9623 0.0000 0.0000
# 5 0.0000 0.0000 0.0000 0.0000 6.9657 0.0000
# 6 0.0000 0.0000 0.0000 0.0000 0.0000 21.5625
#
#
#
# Elastic Compliance Matrix: (Units=1/GPa)
#
#
# Indices 1 2 3 4 5 6 
#
# 1 0.009854 -0.003037 -0.002112 0.000000 0.000000 0.000000
# 2 -0.003037 0.009854 -0.002112 0.000000 0.000000 0.000000
# 3 -0.002112 -0.002112 0.007904 0.000000 0.000000 0.000000
# 4 0.000000 0.000000 0.000000 0.143630 0.000000 0.000000
# 5 0.000000 0.000000 0.000000 0.000000 0.143561 0.000000
# 6 0.000000 0.000000 0.000000 0.000000 0.000000 0.046377
#
#
# Mechanical properties :
#
#
# Convention : Reuss Voigt Hill
#
# Bulk Modulus (GPa) = 76.39151 76.78810 76.58980
# Shear Modulus (GPa) = 13.15572 24.56109 18.85841
#
# Velocity S-wave (km/s) = 2.42308 3.31081 2.90110
# Velocity P-wave (km/s) = 6.47467 6.99180 6.73820
#
# Compressibility (1/GPa) = 0.01309046
#
# Stress axis : x y z
#
# Youngs Moduli (GPa) = 101.48426 101.48510 126.52288
#
# Poissons Ratio (x) = 0.30820 0.26718
# Poissons Ratio (y) = 0.30819 0.26718
# Poissons Ratio (z) = 0.21431 0.21431
#
# Static dielectric constant tensor:
#      x y z
#    x 4.080720 0.000000 0.000000 
#    y 0.000000 4.080710 0.000000 
#    z 0.000000 0.000000 4.287060 
# 
# 
# High freq. dielectric constant tensor:
#      x y z
#    x 1.879880 0.000000 0.000000 
#    y 0.000000 1.879880 0.000000 
#    z 0.000000 0.000000 1.901150 
# 
# From -- ./inp_files/3118.got.cif
#   From: 2010.03.12/outbox.cif.g09.slc.cpg/sg115_2_cif.got.tgz:3118.got - 2010.04.14 02:11:21.
