data_PCOD8309023
_publ_section_title
;
Structure prediction by ZEFSAII (Michael W. Deem and Ramdas Pophale) SiO2 
 PCOD8309023
Probable space group: P -4 21 C
;
_chemical_formula_sum "Si O2"
_cell_formula_units_Z 48
_cell_length_a 9.296010
_cell_length_b 9.296010
_cell_length_c 26.077604
_cell_angle_alpha 90.000000
_cell_angle_beta 90.000000
_cell_angle_gamma 90.000000
_cell_volume 2253.517062
_symmetry_space_group_name_H-M "P -4 21 C"
_symmetry_group_IT_number 114
_symmetry_cell_setting 'tetragonal'
loop_
_space_group_symop_operation_xyz
x,y,z
y,-x,-z
-x,-y,z
-y,x,-z
1/2+x,1/2-y,1/2-z
1/2-x,1/2+y,1/2-z
1/2-y,1/2-x,1/2+z
1/2+y,1/2+x,1/2+z
loop_
_atom_site_type_symbol
_atom_site_label
_atom_site_fract_x
_atom_site_fract_y
_atom_site_fract_z
Si Si1 0.201931 0.169658 0.570375
Si Si2 0.635174 0.900907 0.280522
Si Si3 0.954083 0.343022 0.603495
Si Si4 0.149574 0.926771 0.214454
Si Si5 0.251072 0.846814 0.541716
Si Si6 0.502816 0.161011 0.618242
O O1 0.175457 0.263139 0.518994
O O2 0.346465 0.211150 0.600194
O O3 0.082056 0.227164 0.609423
O O4 0.183077 0.001536 0.556915
O O5 0.644080 0.883104 0.341216
O O6 0.625878 0.734110 0.262292
O O7 0.500000 0.000000 0.263827
O O8 0.775790 0.975356 0.257550
O O9 0.842521 0.284119 0.562415
O O10 0.000000 0.500000 0.583470
O O11 0.240333 0.927880 0.161877
O O12 0.000000 0.000000 0.200849
O O13 0.407990 0.836114 0.565746
O O14 0.500000 0.000000 0.641397
#
# Coordination Sequence:
#
# PCOD8309023 Si02
#       6
#     8   8   8   8   8   8
#     4  11  24  38  69  95 134 182 226 279 331 402
#     4  11  26  48  70 103 138 178 222 281 343 412
#     4  11  25  41  68  95 138 173 223 275 331 396
#     4  12  26  46  75 101 135 177 226 281 343 413
#     4  11  22  43  62  99 131 179 228 276 331 399
#     4  10  25  44  66  97 140 175 223 280 339 400
#
# _framework density 21.300039000000002
#
# number of rings (size 3 to 8) (size 9 to 14) (size 15 to 20)
#    0.000    1.000    3.333    2.000    9.333    1.333 
#    0.000    0.000    0.000    0.000    0.000    0.000 
#    0.000    0.000    0.000    0.000    0.000    0.000 
#
# Total GULP energy -595232.632460 kJ/mol
# GULP energy per Si atom -12400.679843 kJ/mol
# Density = 2.125156 g / cm^3
# Si number density = 21.300039 Si / 1000 Ang^3
#
#
#
# Elastic Constant Matrix: (Units=GPa)
#
#
# Indices 1 2 3 4 5 6 
#
# 1 113.7291 37.5002 15.1570 0.0000 0.0000 0.0000
# 2 37.5002 113.7291 15.1570 0.0000 0.0000 0.0000
# 3 15.1570 15.1570 43.5006 0.0000 0.0000 0.0000
# 4 0.0000 0.0000 0.0000 28.0428 0.0000 0.0000
# 5 0.0000 0.0000 0.0000 0.0000 28.0428 0.0000
# 6 0.0000 0.0000 0.0000 0.0000 0.0000 33.3608
#
#
#
# Elastic Compliance Matrix: (Units=1/GPa)
#
#
# Indices 1 2 3 4 5 6 
#
# 1 0.010114 -0.003005 -0.002477 0.000000 0.000000 0.000000
# 2 -0.003005 0.010114 -0.002477 0.000000 0.000000 0.000000
# 3 -0.002477 -0.002477 0.024714 0.000000 0.000000 0.000000
# 4 0.000000 0.000000 0.000000 0.035660 0.000000 0.000000
# 5 0.000000 0.000000 0.000000 0.000000 0.035660 0.000000
# 6 0.000000 0.000000 0.000000 0.000000 0.000000 0.029975
#
#
# Mechanical properties :
#
#
# Convention : Reuss Voigt Hill
#
# Bulk Modulus (GPa) = 34.45386 45.17634 39.81510
# Shear Modulus (GPa) = 29.09876 31.43227 30.26552
#
# Velocity S-wave (km/s) = 3.70014 3.84564 3.77359
# Velocity P-wave (km/s) = 5.87072 6.40111 6.14164
#
# Compressibility (1/GPa) = 0.02902432
#
# Stress axis : x y z
#
# Youngs Moduli (GPa) = 98.87597 98.87597 40.46238
#
# Poissons Ratio (x) = 0.29709 0.10023
# Poissons Ratio (y) = 0.29709 0.10023
# Poissons Ratio (z) = 0.24492 0.24492
#
# Static dielectric constant tensor:
#      x y z
#    x 4.016150 0.000000 0.000000 
#    y 0.000000 4.016150 0.000000 
#    z 0.000000 0.000000 3.707970 
# 
# 
# High freq. dielectric constant tensor:
#      x y z
#    x 1.842790 0.000000 0.000000 
#    y 0.000000 1.842790 0.000000 
#    z 0.000000 0.000000 1.834580 
# 
# From -- ./inp_files/3967.got.cif
#   From: 2010.03.12/outbox.cif.g09.slc.cpg/sg114_2_cif.got.tgz:3967.got - 2010.04.14 02:08:34.
