data_PCOD8309922
_publ_section_title
;
Structure prediction by ZEFSAII (Michael W. Deem and Ramdas Pophale) SiO2 
 PCOD8309922
Probable space group: P -4 M 2
;
_chemical_formula_sum "Si O2"
_cell_formula_units_Z 40
_cell_length_a 8.977433
_cell_length_b 8.977433
_cell_length_c 25.509921
_cell_angle_alpha 90.000000
_cell_angle_beta 90.000000
_cell_angle_gamma 90.000000
_cell_volume 2055.954309
_symmetry_space_group_name_H-M "P -4 M 2"
_symmetry_group_IT_number 115
_symmetry_cell_setting 'tetragonal'
loop_
_space_group_symop_operation_xyz
x,y,z
y,-x,-z
-x,-y,z
-y,x,-z
y,x,-z
-y,-x,-z
-x,y,z
x,-y,z
loop_
_atom_site_type_symbol
_atom_site_label
_atom_site_fract_x
_atom_site_fract_y
_atom_site_fract_z
Si Si1 0.170429 0.325428 0.047290
Si Si2 0.326204 0.827228 0.451648
Si Si3 0.673291 0.671044 0.248292
Si Si4 0.328895 0.175383 0.644005
Si Si5 0.829874 0.174851 0.154003
O O1 0.189058 0.500000 0.054417
O O2 0.227322 0.249271 0.100521
O O3 0.000000 0.279776 0.035652
O O4 0.272377 0.272377 0.000000
O O5 0.267450 0.732551 0.500000
O O6 0.500000 0.795817 0.444804
O O7 0.244236 0.778321 0.399116
O O8 0.293180 0.000000 0.462573
O O9 0.500000 0.697370 0.258695
O O10 0.708724 0.500000 0.234365
O O11 0.760883 0.720824 0.300075
O O12 0.725430 0.772890 0.200806
O O13 0.500000 0.218489 0.631503
O O14 0.306158 0.000000 0.644725
O O15 0.000000 0.222727 0.165807
O O16 0.814142 0.000000 0.147245
#
# Coordination Sequence:
#
# PCOD8309922 Si02
#       5
#     8   8   8   8   8
#     4  10  21  37  58  83 111 145 185 229 278 332
#     4  11  24  40  59  85 116 150 189 232 279 332
#     4  10  21  37  58  84 114 149 188 230 278 331
#     4  10  21  38  61  87 114 147 188 232 279 332
#     4  10  21  37  58  83 111 146 187 230 278 331
#
# _framework density 19.455684000000002
#
# number of rings (size 3 to 8) (size 9 to 14) (size 15 to 20)
#    0.000    1.800    0.000    3.600    0.000   10.400 
#    0.000    0.000    0.000    0.000    0.000    0.000 
#    0.000    0.000    0.000    0.000    0.000    0.000 
#
# Total GULP energy -496265.520592 kJ/mol
# GULP energy per Si atom -12406.638015 kJ/mol
# Density = 1.941140 g / cm^3
# Si number density = 19.455684 Si / 1000 Ang^3
#
#
#
# Elastic Constant Matrix: (Units=GPa)
#
#
# Indices 1 2 3 4 5 6 
#
# 1 77.9516 37.8103 51.4740 0.0000 0.0000 0.0000
# 2 37.8103 77.9542 51.4756 0.0000 0.0000 0.0000
# 3 51.4740 51.4756 135.0438 0.0000 0.0000 0.0000
# 4 0.0000 0.0000 0.0000 37.1190 0.0000 0.0000
# 5 0.0000 0.0000 0.0000 0.0000 37.1189 0.0000
# 6 0.0000 0.0000 0.0000 0.0000 0.0000 31.8798
#
#
#
# Elastic Compliance Matrix: (Units=1/GPa)
#
#
# Indices 1 2 3 4 5 6 
#
# 1 0.018990 -0.005922 -0.004981 0.000000 0.000000 0.000000
# 2 -0.005922 0.018989 -0.004981 0.000000 0.000000 0.000000
# 3 -0.004981 -0.004981 0.011202 0.000000 0.000000 0.000000
# 4 0.000000 0.000000 0.000000 0.026940 0.000000 0.000000
# 5 0.000000 0.000000 0.000000 0.000000 0.026940 0.000000
# 6 0.000000 0.000000 0.000000 0.000000 0.000000 0.031368
#
#
# Mechanical properties :
#
#
# Convention : Reuss Voigt Hill
#
# Bulk Modulus (GPa) = 57.42540 63.60771 60.51656
# Shear Modulus (GPa) = 29.06929 31.23620 30.15274
#
# Velocity S-wave (km/s) = 3.86959 4.01122 3.94104
# Velocity P-wave (km/s) = 7.03882 7.36328 7.20288
#
# Compressibility (1/GPa) = 0.01741390
#
# Stress axis : x y z
#
# Youngs Moduli (GPa) = 52.65955 52.66079 89.26667
#
# Poissons Ratio (x) = 0.31183 0.44465
# Poissons Ratio (y) = 0.31182 0.44466
# Poissons Ratio (z) = 0.26231 0.26232
#
# Static dielectric constant tensor:
#      x y z
#    x 3.577380 0.000000 0.000000 
#    y 0.000000 3.577380 0.000000 
#    z 0.000000 0.000000 3.822940 
# 
# 
# High freq. dielectric constant tensor:
#      x y z
#    x 1.761530 0.000000 0.000000 
#    y 0.000000 1.761530 0.000000 
#    z 0.000000 0.000000 1.770270 
# 
# From -- ./inp_files/5053.got.cif
#   From: 2010.03.12/outbox.cif.g09.slc.cpg/sg115_3_cif.got.tgz:5053.got - 2010.04.14 02:11:21.
