data_PCOD8309475
_publ_section_title
;
Structure prediction by ZEFSAII (Michael W. Deem and Ramdas Pophale) SiO2 
 PCOD8309475
Probable space group: P -4 M 2
;
_chemical_formula_sum "Si O2"
_cell_formula_units_Z 48
_cell_length_a 9.338481
_cell_length_b 9.338481
_cell_length_c 30.917958
_cell_angle_alpha 90.000000
_cell_angle_beta 90.000000
_cell_angle_gamma 90.000000
_cell_volume 2696.269394
_symmetry_space_group_name_H-M "P -4 M 2"
_symmetry_group_IT_number 115
_symmetry_cell_setting 'tetragonal'
loop_
_space_group_symop_operation_xyz
x,y,z
y,-x,-z
-x,-y,z
-y,x,-z
y,x,-z
-y,-x,-z
-x,y,z
x,-y,z
loop_
_atom_site_type_symbol
_atom_site_label
_atom_site_fract_x
_atom_site_fract_y
_atom_site_fract_z
Si Si1 0.332422 0.666407 0.212862
Si Si2 0.159435 0.170661 0.047051
Si Si3 0.831411 0.836308 0.284894
Si Si4 0.842041 0.169555 0.381427
Si Si5 0.666156 0.168635 0.462918
Si Si6 0.332707 0.165145 0.128755
O O1 0.500000 0.693702 0.219692
O O2 0.295300 0.500000 0.208806
O O3 0.251022 0.730937 0.253462
O O4 0.277614 0.744375 0.169534
O O5 0.258831 0.227706 0.085661
O O6 0.000000 0.231744 0.054823
O O7 0.155874 0.000000 0.046629
O O8 0.220307 0.220307 0.000000
O O9 0.793151 0.783350 0.333474
O O10 0.000000 0.824113 0.276663
O O11 0.780487 0.000000 0.277414
O O12 0.728336 0.222667 0.416933
O O13 0.000000 0.232993 0.392271
O O14 0.853047 0.000000 0.381681
O O15 0.748054 0.251947 0.500000
O O16 0.500000 0.208633 0.464269
O O17 0.691895 0.000000 0.469415
O O18 0.500000 0.184674 0.121697
O O19 0.290972 0.000000 0.136951
#
# Coordination Sequence:
#
# PCOD8309475 Si02
#       6
#     8   8   8   8   8   8
#     4  10  21  35  49  68  98 134 168 201 240 288
#     4   8  14  26  45  68  92 117 147 187 236 287
#     4   9  18  33  54  79 102 124 157 202 248 294
#     4   8  15  30  52  76 100 126 159 201 246 290
#     4  10  20  33  51  76 103 132 167 204 243 288
#     4   9  17  30  48  68  90 120 159 199 237 280
#
# _framework density 17.802374
#
# number of rings (size 3 to 8) (size 9 to 14) (size 15 to 20)
#    0.000    3.000    0.000    2.500    0.000    3.667 
#    0.000    5.000    0.000    2.000    0.000    0.000 
#    0.000    0.000    0.000    0.000    0.000    0.000 
#
# Total GULP energy -595051.290510 kJ/mol
# GULP energy per Si atom -12396.901886 kJ/mol
# Density = 1.776186 g / cm^3
# Si number density = 17.802374 Si / 1000 Ang^3
#
#
#
# Elastic Constant Matrix: (Units=GPa)
#
#
# Indices 1 2 3 4 5 6 
#
# 1 62.9197 39.4804 67.4808 0.0000 0.0000 0.0000
# 2 39.4804 62.9227 67.4819 0.0000 0.0000 0.0000
# 3 67.4808 67.4819 181.3283 0.0000 0.0000 0.0000
# 4 0.0000 0.0000 0.0000 -0.8051 0.0000 0.0000
# 5 0.0000 0.0000 0.0000 0.0000 -0.8039 0.0000
# 6 0.0000 0.0000 0.0000 0.0000 0.0000 20.9305
#
#
#
# Elastic Compliance Matrix: (Units=1/GPa)
#
#
# Indices 1 2 3 4 5 6 
#
# 1 0.030914 -0.011747 -0.007133 0.000000 0.000000 0.000000
# 2 -0.011747 0.030912 -0.007133 0.000000 0.000000 0.000000
# 3 -0.007133 -0.007133 0.010824 0.000000 0.000000 0.000000
# 4 0.000000 0.000000 0.000000 -1.242005 0.000000 0.000000
# 5 0.000000 0.000000 0.000000 0.000000 -1.243972 0.000000
# 6 0.000000 0.000000 0.000000 0.000000 0.000000 0.047777
#
#
# Mechanical properties :
#
#
# Convention : Reuss Voigt Hill
#
# Bulk Modulus (GPa) = 48.48409 72.89522 60.68966
# Shear Modulus (GPa) = -2.16765 12.71281 5.27258
#
# Velocity S-wave (km/s) = -1.10465 2.67518 1.72283
# Velocity P-wave (km/s) = 5.06623 7.11181 6.17433
#
# Compressibility (1/GPa) = 0.02062532
#
# Stress axis : x y z
#
# Youngs Moduli (GPa) = 32.34753 32.34937 92.38952
#
# Poissons Ratio (x) = 0.38001 0.65901
# Poissons Ratio (y) = 0.37999 0.65897
# Poissons Ratio (z) = 0.23073 0.23073
#
# Static dielectric constant tensor:
#      x y z
#    x 3.159790 0.000000 0.000000 
#    y 0.000000 3.159790 0.000000 
#    z 0.000000 0.000000 3.663740 
# 
# 
# High freq. dielectric constant tensor:
#      x y z
#    x 1.665290 0.000000 0.000000 
#    y 0.000000 1.665290 0.000000 
#    z 0.000000 0.000000 1.705810 
# 
# From -- ./inp_files/5931.got.cif
#   From: 2010.03.12/outbox.cif.g09.slc.cpg/sg115_3_cif.got.tgz:5931.got - 2010.04.14 02:11:21.
