data_PCOD8309715
_publ_section_title
;
Structure prediction by ZEFSAII (Michael W. Deem and Ramdas Pophale) SiO2 
 PCOD8309715
Probable space group: P -4 M 2
;
_chemical_formula_sum "Si O2"
_cell_formula_units_Z 48
_cell_length_a 8.278779
_cell_length_b 8.278779
_cell_length_c 33.791433
_cell_angle_alpha 90.000000
_cell_angle_beta 90.000000
_cell_angle_gamma 90.000000
_cell_volume 2316.003376
_symmetry_space_group_name_H-M "P -4 M 2"
_symmetry_group_IT_number 115
_symmetry_cell_setting 'tetragonal'
loop_
_space_group_symop_operation_xyz
x,y,z
y,-x,-z
-x,-y,z
-y,x,-z
y,x,-z
-y,-x,-z
-x,y,z
x,-y,z
loop_
_atom_site_type_symbol
_atom_site_label
_atom_site_fract_x
_atom_site_fract_y
_atom_site_fract_z
Si Si1 0.326768 0.315581 0.879371
Si Si2 0.314846 0.182620 0.719534
Si Si3 0.184126 0.500000 0.676914
Si Si4 0.687548 0.184378 0.539163
Si Si5 0.178471 0.190962 0.042654
Si Si6 0.311211 0.500000 0.590606
Si Si7 0.819223 0.184277 0.802160
O O1 0.500000 0.222676 0.876932
O O2 0.365303 0.500000 0.876746
O O3 0.241156 0.288007 0.921017
O O4 0.214997 0.276998 0.842313
O O5 0.500000 0.167093 0.708931
O O6 0.251193 0.330150 0.693299
O O7 0.294351 0.232794 0.765479
O O8 0.237052 0.000000 0.712012
O O9 0.208727 0.500000 0.630240
O O10 0.000000 0.500000 0.688515
O O11 0.794744 0.205257 0.500000
O O12 0.500000 0.204085 0.527738
O O13 0.735446 0.331633 0.568504
O O14 0.718777 0.000000 0.556059
O O15 0.000000 0.263620 0.049858
O O16 0.168860 0.000000 0.040291
O O17 0.250303 0.250303 0.000000
O O18 0.500000 0.500000 0.600741
O O19 0.000000 0.223841 0.788115
O O20 0.794972 0.000000 0.813594
#
# Coordination Sequence:
#
# PCOD8309715 Si02
#       7
#     8   8   4   8   8   4   8
#     4  11  24  37  51  78 115 150 185 230 280 339
#     4  10  22  42  68  94 123 163 213 266 321 386
#     4  12  26  42  64  94 132 176 216 268 326 386
#     4  10  20  36  63  94 127 169 216 268 328 390
#     4   9  19  37  59  80 103 136 180 229 283 344
#     4  10  22  40  62  90 132 174 218 268 322 382
#     4  10  21  38  61  88 116 147 188 241 300 360
#
# _framework density 20.725359000000001
#
# number of rings (size 3 to 8) (size 9 to 14) (size 15 to 20)
#    0.000    1.833    0.833    3.250    1.167    7.833 
#    0.000    4.167    0.000    0.000    0.000    0.000 
#    0.000    0.000    0.000    0.000    0.000    0.000 
#
# Total GULP energy -594708.922730 kJ/mol
# GULP energy per Si atom -12389.769224 kJ/mol
# Density = 2.067819 g / cm^3
# Si number density = 20.725359 Si / 1000 Ang^3
#
#
#
# Elastic Constant Matrix: (Units=GPa)
#
#
# Indices 1 2 3 4 5 6 
#
# 1 92.9854 38.3273 49.5473 0.0000 0.0000 0.0000
# 2 38.3273 92.9855 49.5477 0.0000 0.0000 0.0000
# 3 49.5473 49.5477 124.7353 0.0000 0.0000 0.0000
# 4 0.0000 0.0000 0.0000 28.7666 0.0000 0.0000
# 5 0.0000 0.0000 0.0000 0.0000 28.7666 0.0000
# 6 0.0000 0.0000 0.0000 0.0000 0.0000 23.0671
#
#
#
# Elastic Compliance Matrix: (Units=1/GPa)
#
#
# Indices 1 2 3 4 5 6 
#
# 1 0.014585 -0.003710 -0.004320 0.000000 0.000000 0.000000
# 2 -0.003710 0.014586 -0.004320 0.000000 0.000000 0.000000
# 3 -0.004320 -0.004320 0.011449 0.000000 0.000000 0.000000
# 4 0.000000 0.000000 0.000000 0.034763 0.000000 0.000000
# 5 0.000000 0.000000 0.000000 0.000000 0.034763 0.000000
# 6 0.000000 0.000000 0.000000 0.000000 0.000000 0.043352
#
#
# Mechanical properties :
#
#
# Convention : Reuss Voigt Hill
#
# Bulk Modulus (GPa) = 62.81401 65.06118 63.93760
# Shear Modulus (GPa) = 27.24746 27.67233 27.45990
#
# Velocity S-wave (km/s) = 3.62980 3.65799 3.64392
# Velocity P-wave (km/s) = 6.92394 7.02150 6.97289
#
# Compressibility (1/GPa) = 0.01592002
#
# Stress axis : x y z
#
# Youngs Moduli (GPa) = 68.56136 68.56115 87.34439
#
# Poissons Ratio (x) = 0.25436 0.37732
# Poissons Ratio (y) = 0.25436 0.37733
# Poissons Ratio (z) = 0.29618 0.29618
#
# Static dielectric constant tensor:
#      x y z
#    x 3.902040 0.000000 0.000000 
#    y 0.000000 3.902040 0.000000 
#    z 0.000000 0.000000 3.716890 
# 
# 
# High freq. dielectric constant tensor:
#      x y z
#    x 1.811040 0.000000 0.000000 
#    y 0.000000 1.811040 0.000000 
#    z 0.000000 0.000000 1.806390 
# 
# From -- ./inp_files/6180.got.cif
#   From: 2010.03.12/outbox.cif.g09.slc.cpg/sg115_4_cif.got.tgz:6180.got - 2010.04.14 02:11:21.
