data_PCOD8309845
_publ_section_title
;
Structure prediction by ZEFSAII (Michael W. Deem and Ramdas Pophale) SiO2 
 PCOD8309845
Probable space group: P -4 M 2
;
_chemical_formula_sum "Si O2"
_cell_formula_units_Z 44
_cell_length_a 9.206626
_cell_length_b 9.206626
_cell_length_c 28.384562
_cell_angle_alpha 90.000000
_cell_angle_beta 90.000000
_cell_angle_gamma 90.000000
_cell_volume 2405.931174
_symmetry_space_group_name_H-M "P -4 M 2"
_symmetry_group_IT_number 115
_symmetry_cell_setting 'tetragonal'
loop_
_space_group_symop_operation_xyz
x,y,z
y,-x,-z
-x,-y,z
-y,x,-z
y,x,-z
-y,-x,-z
-x,y,z
x,-y,z
loop_
_atom_site_type_symbol
_atom_site_label
_atom_site_fract_x
_atom_site_fract_y
_atom_site_fract_z
Si Si1 0.167889 0.332673 0.321646
Si Si2 0.327101 0.835883 0.241996
Si Si3 0.170566 0.831666 0.582980
Si Si4 0.826198 0.838674 0.948890
Si Si5 0.329649 0.329649 0.500000
Si Si6 0.827852 0.340157 0.861963
O O1 0.205839 0.500000 0.332304
O O2 0.260774 0.278562 0.277828
O O3 0.209669 0.237281 0.366771
O O4 0.000000 0.312644 0.308776
O O5 0.500000 0.827708 0.243980
O O6 0.272645 0.791779 0.189439
O O7 0.275610 0.000000 0.254296
O O8 0.246754 0.729410 0.545343
O O9 0.000000 0.798359 0.583911
O O10 0.200794 0.000000 0.570260
O O11 0.759664 0.749958 0.905121
O O12 0.000000 0.839394 0.948011
O O13 0.764874 0.000000 0.942590
O O14 0.775569 0.775569 0.000000
O O15 0.297748 0.500000 0.494555
O O16 0.759598 0.500000 0.865504
O O17 0.000000 0.348338 0.867360
#
# Coordination Sequence:
#
# PCOD8309845 Si02
#       6
#     8   8   8   8   4   8
#     4  10  21  36  54  77 105 136 169 207 252 300
#     4   9  18  32  50  73  99 128 166 209 250 296
#     4  10  21  38  60  83 106 136 174 212 252 298
#     4   8  13  21  35  58  86 114 148 191 236 282
#     4  11  24  39  56  82 114 145 176 209 248 294
#     4   8  14  25  41  62  89 120 154 193 237 286
#
# _framework density 18.288136999999999
#
# number of rings (size 3 to 8) (size 9 to 14) (size 15 to 20)
#    0.000    2.818    0.000    3.273    0.000    5.818 
#    0.000    1.818    0.000    1.091    0.000    2.545 
#    0.000    0.000    0.000    0.000    0.000    0.000 
#
# Total GULP energy -545413.436306 kJ/mol
# GULP energy per Si atom -12395.759916 kJ/mol
# Density = 1.824651 g / cm^3
# Si number density = 18.288137 Si / 1000 Ang^3
#
#
#
# Elastic Constant Matrix: (Units=GPa)
#
#
# Indices 1 2 3 4 5 6 
#
# 1 70.2968 37.6334 61.2614 0.0000 0.0000 0.0000
# 2 37.6334 70.2968 61.2614 0.0000 0.0000 0.0000
# 3 61.2614 61.2614 156.9458 0.0000 0.0000 0.0000
# 4 0.0000 0.0000 0.0000 -5.3293 0.0000 0.0000
# 5 0.0000 0.0000 0.0000 0.0000 -5.3293 0.0000
# 6 0.0000 0.0000 0.0000 0.0000 0.0000 22.5846
#
#
#
# Elastic Compliance Matrix: (Units=1/GPa)
#
#
# Indices 1 2 3 4 5 6 
#
# 1 0.023626 -0.006989 -0.006494 0.000000 0.000000 0.000000
# 2 -0.006989 0.023626 -0.006494 0.000000 0.000000 0.000000
# 3 -0.006494 -0.006494 0.011441 0.000000 0.000000 0.000000
# 4 0.000000 0.000000 0.000000 -0.187641 0.000000 0.000000
# 5 0.000000 0.000000 0.000000 0.000000 -0.187641 0.000000
# 6 0.000000 0.000000 0.000000 0.000000 0.000000 0.044278
#
#
# Mechanical properties :
#
#
# Convention : Reuss Voigt Hill
#
# Bulk Modulus (GPa) = 53.36279 68.65018 61.00648
# Shear Modulus (GPa) = -22.11330 11.54406 -5.28462
#
# Velocity S-wave (km/s) = -3.48107 2.51516 -1.70174
# Velocity P-wave (km/s) = 3.61733 6.78633 5.43780
#
# Compressibility (1/GPa) = 0.01873965
#
# Stress axis : x y z
#
# Youngs Moduli (GPa) = 42.32555 42.32555 87.40169
#
# Poissons Ratio (x) = 0.29581 0.56760
# Poissons Ratio (y) = 0.29581 0.56760
# Poissons Ratio (z) = 0.27487 0.27487
#
# Static dielectric constant tensor:
#      x y z
#    x 3.258250 0.000000 0.000000 
#    y 0.000000 3.258250 0.000000 
#    z 0.000000 0.000000 3.679660 
# 
# 
# High freq. dielectric constant tensor:
#      x y z
#    x 1.685450 0.000000 0.000000 
#    y 0.000000 1.685450 0.000000 
#    z 0.000000 0.000000 1.727640 
# 
# From -- ./inp_files/5794.got.cif
#   From: 2010.03.12/outbox.cif.g09.slc.cpg/sg115_3_cif.got.tgz:5794.got - 2010.04.14 02:11:21.
