data_PCOD8309549
_publ_section_title
;
Structure prediction by ZEFSAII (Michael W. Deem and Ramdas Pophale) SiO2 
 PCOD8309549
Probable space group: P -4 M 2
;
_chemical_formula_sum "Si O2"
_cell_formula_units_Z 48
_cell_length_a 8.219984
_cell_length_b 8.219984
_cell_length_c 34.183205
_cell_angle_alpha 90.000000
_cell_angle_beta 90.000000
_cell_angle_gamma 90.000000
_cell_volume 2309.695477
_symmetry_space_group_name_H-M "P -4 M 2"
_symmetry_group_IT_number 115
_symmetry_cell_setting 'tetragonal'
loop_
_space_group_symop_operation_xyz
x,y,z
y,-x,-z
-x,-y,z
-y,x,-z
y,x,-z
-y,-x,-z
-x,y,z
x,-y,z
loop_
_atom_site_type_symbol
_atom_site_label
_atom_site_fract_x
_atom_site_fract_y
_atom_site_fract_z
Si Si1 0.312557 0.683320 0.379794
Si Si2 0.321378 0.691276 0.120276
Si Si3 0.815851 0.690265 0.040797
Si Si4 0.000000 0.693588 0.665000
Si Si5 0.000000 0.806480 0.753290
Si Si6 0.683413 0.812783 0.798187
Si Si7 0.682326 0.183633 0.537938
O O1 0.500000 0.671131 0.368974
O O2 0.235117 0.500000 0.372045
O O3 0.294392 0.732627 0.425317
O O4 0.235513 0.832664 0.354624
O O5 0.500000 0.754924 0.131442
O O6 0.318116 0.500000 0.113746
O O7 0.270464 0.771131 0.078774
O O8 0.204519 0.735666 0.156393
O O9 0.786445 0.500000 0.040241
O O10 0.000000 0.740133 0.045811
O O11 0.755128 0.755128 0.000000
O O12 0.000000 0.750317 0.709126
O O13 0.000000 0.500000 0.661048
O O14 0.167967 0.735944 0.772724
O O15 0.000000 0.000000 0.757443
O O16 0.500000 0.734404 0.790648
O O17 0.669029 0.000000 0.787453
O O18 0.793480 0.206521 0.500000
O O19 0.500000 0.225977 0.524532
O O20 0.699392 0.000000 0.552821
#
# Coordination Sequence:
#
# PCOD8309549 Si02
#       7
#     8   8   8   4   4   8   8
#     4   9  19  37  58  79 108 149 193 235 283 339
#     4   9  17  31  54  81 105 135 176 221 272 323
#     4  10  20  34  52  75 105 141 182 225 270 325
#     4  10  22  38  58  82 110 146 188 236 286 338
#     4  10  22  38  56  84 114 144 182 224 282 342
#     4   9  18  35  57  80 110 145 180 221 275 341
#     4  10  21  35  53  80 112 146 186 232 282 336
#
# _framework density 20.781963000000001
#
# number of rings (size 3 to 8) (size 9 to 14) (size 15 to 20)
#    0.000    2.500    0.000    1.500    1.167    6.000 
#    1.500    0.000    0.000    0.000    0.000    0.000 
#    0.000    0.000    0.000    0.000    0.000    0.000 
#
# Total GULP energy -594665.560695 kJ/mol
# GULP energy per Si atom -12388.865848 kJ/mol
# Density = 2.073466 g / cm^3
# Si number density = 20.781963 Si / 1000 Ang^3
#
#
#
# Elastic Constant Matrix: (Units=GPa)
#
#
# Indices 1 2 3 4 5 6 
#
# 1 122.7721 -22.9537 45.2234 0.0000 0.0000 0.0000
# 2 -22.9537 122.7724 45.2237 0.0000 0.0000 0.0000
# 3 45.2234 45.2237 150.7217 0.0000 0.0000 0.0000
# 4 0.0000 0.0000 0.0000 37.1933 0.0000 0.0000
# 5 0.0000 0.0000 0.0000 0.0000 37.1932 0.0000
# 6 0.0000 0.0000 0.0000 0.0000 0.0000 12.6450
#
#
#
# Elastic Compliance Matrix: (Units=1/GPa)
#
#
# Indices 1 2 3 4 5 6 
#
# 1 0.010311 0.003448 -0.004128 0.000000 0.000000 0.000000
# 2 0.003448 0.010311 -0.004128 0.000000 0.000000 0.000000
# 3 -0.004128 -0.004128 0.009112 0.000000 0.000000 0.000000
# 4 0.000000 0.000000 0.000000 0.026887 0.000000 0.000000
# 5 0.000000 0.000000 0.000000 0.000000 0.026887 0.000000
# 6 0.000000 0.000000 0.000000 0.000000 0.000000 0.079083
#
#
# Mechanical properties :
#
#
# Convention : Reuss Voigt Hill
#
# Bulk Modulus (GPa) = 49.71004 59.02812 54.36908
# Shear Modulus (GPa) = 27.94682 39.32449 33.63565
#
# Velocity S-wave (km/s) = 3.67108 4.35471 4.02743
# Velocity P-wave (km/s) = 6.47617 7.33143 6.91703
#
# Compressibility (1/GPa) = 0.02011666
#
# Stress axis : x y z
#
# Youngs Moduli (GPa) = 96.98804 96.98814 109.74397
#
# Poissons Ratio (x) = -0.33445 0.45306
# Poissons Ratio (y) = -0.33445 0.45306
# Poissons Ratio (z) = 0.40040 0.40040
#
# Static dielectric constant tensor:
#      x y z
#    x 3.848400 0.000000 0.000000 
#    y 0.000000 3.848400 0.000000 
#    z 0.000000 0.000000 3.824780 
# 
# 
# High freq. dielectric constant tensor:
#      x y z
#    x 1.798980 0.000000 0.000000 
#    y 0.000000 1.798980 0.000000 
#    z 0.000000 0.000000 1.812420 
# 
# From -- ./inp_files/6184.got.cif
#   From: 2010.03.12/outbox.cif.g09.slc.cpg/sg115_4_cif.got.tgz:6184.got - 2010.04.14 02:11:21.
