data_PCOD8309206
_publ_section_title
;
Structure prediction by ZEFSAII (Michael W. Deem and Ramdas Pophale) SiO2 
 PCOD8309206
Probable space group: P -4 M 2
;
_chemical_formula_sum "Si O2"
_cell_formula_units_Z 64
_cell_length_a 17.753199
_cell_length_b 17.753199
_cell_length_c 11.201220
_cell_angle_alpha 90.000000
_cell_angle_beta 90.000000
_cell_angle_gamma 90.000000
_cell_volume 3530.356552
_symmetry_space_group_name_H-M "P -4 M 2"
_symmetry_group_IT_number 115
_symmetry_cell_setting 'tetragonal'
loop_
_space_group_symop_operation_xyz
x,y,z
y,-x,-z
-x,-y,z
-y,x,-z
y,x,-z
-y,-x,-z
-x,y,z
x,-y,z
loop_
_atom_site_type_symbol
_atom_site_label
_atom_site_fract_x
_atom_site_fract_y
_atom_site_fract_z
Si Si1 0.415134 0.315523 0.830693
Si Si2 0.912308 0.778535 0.727690
Si Si3 0.173093 0.587730 0.327852
Si Si4 0.688002 0.085203 0.500764
Si Si5 0.181524 0.708653 0.930089
Si Si6 0.913345 0.325121 0.144688
Si Si7 0.415434 0.284826 0.108883
Si Si8 0.915748 0.812708 0.308408
O O1 0.500000 0.340827 0.799566
O O2 0.387839 0.252994 0.733020
O O3 0.362877 0.389642 0.828436
O O4 0.411691 0.283443 0.964831
O O5 0.897288 0.709856 0.635927
O O6 0.869361 0.761822 0.849690
O O7 0.881819 0.858499 0.680983
O O8 0.000000 0.788067 0.754592
O O9 0.173360 0.500000 0.358107
O O10 0.150858 0.632246 0.449863
O O11 0.108144 0.607125 0.233352
O O12 0.766955 0.087163 0.569084
O O13 0.653139 0.000000 0.513224
O O14 0.221563 0.644194 0.849297
O O15 0.244368 0.755633 0.000000
O O16 0.129073 0.664313 0.021533
O O17 0.892476 0.244248 0.201992
O O18 0.000000 0.332211 0.116958
O O19 0.500000 0.267447 0.153262
O O20 0.000000 0.844655 0.286735
#
# Coordination Sequence:
#
# PCOD8309206 Si02
#       8
#     8   8   8   8   8   8   8   8
#     4   9  17  30  51  81 110 138 175 218 269 323
#     4  11  23  37  55  79 109 148 188 225 275 339
#     4  10  18  32  56  83 110 138 179 236 283 321
#     4   9  20  36  52  79 110 140 183 228 279 336
#     4  12  20  35  55  76 107 148 186 221 269 321
#     4  10  19  31  50  77 107 138 180 227 276 325
#     4  10  19  32  50  77 114 149 177 212 265 327
#     4   9  18  34  55  78 107 139 178 234 283 325
#
# _framework density 18.128482000000002
#
# number of rings (size 3 to 8) (size 9 to 14) (size 15 to 20)
#    0.000    2.000    3.750    1.875    1.750    1.500 
#    0.000    1.875    0.000    4.125    0.000    0.000 
#    0.000    0.000    0.000    2.750    0.000    0.000 
#
# Total GULP energy -793259.078123 kJ/mol
# GULP energy per Si atom -12394.673096 kJ/mol
# Density = 1.808722 g / cm^3
# Si number density = 18.128482 Si / 1000 Ang^3
#
#
#
# Elastic Constant Matrix: (Units=GPa)
#
#
# Indices 1 2 3 4 5 6 
#
# 1 95.1987 51.7723 27.4532 0.0000 0.0000 0.0000
# 2 51.7723 95.1994 27.4535 0.0000 0.0000 0.0000
# 3 27.4532 27.4535 37.8060 0.0000 0.0000 0.0000
# 4 0.0000 0.0000 0.0000 20.4862 0.0000 0.0000
# 5 0.0000 0.0000 0.0000 0.0000 20.4860 0.0000
# 6 0.0000 0.0000 0.0000 0.0000 0.0000 27.4368
#
#
#
# Elastic Compliance Matrix: (Units=1/GPa)
#
#
# Indices 1 2 3 4 5 6 
#
# 1 0.016182 -0.006845 -0.006780 0.000000 0.000000 0.000000
# 2 -0.006845 0.016182 -0.006780 0.000000 0.000000 0.000000
# 3 -0.006780 -0.006780 0.036298 0.000000 0.000000 0.000000
# 4 0.000000 0.000000 0.000000 0.048813 0.000000 0.000000
# 5 0.000000 0.000000 0.000000 0.000000 0.048814 0.000000
# 6 0.000000 0.000000 0.000000 0.000000 0.000000 0.036447
#
#
# Mechanical properties :
#
#
# Convention : Reuss Voigt Hill
#
# Bulk Modulus (GPa) = 35.90519 49.06245 42.48382
# Shear Modulus (GPa) = 19.77599 21.78346 20.77973
#
# Velocity S-wave (km/s) = 3.30643 3.47019 3.38930
# Velocity P-wave (km/s) = 5.86733 6.57106 6.22914
#
# Compressibility (1/GPa) = 0.02785112
#
# Stress axis : x y z
#
# Youngs Moduli (GPa) = 61.79634 61.79656 27.54978
#
# Poissons Ratio (x) = 0.42300 0.18679
# Poissons Ratio (y) = 0.42300 0.18680
# Poissons Ratio (z) = 0.41899 0.41900
#
# Static dielectric constant tensor:
#      x y z
#    x 3.350200 0.000000 0.000000 
#    y 0.000000 3.350200 0.000000 
#    z 0.000000 0.000000 3.151970 
# 
# 
# High freq. dielectric constant tensor:
#      x y z
#    x 1.696660 0.000000 0.000000 
#    y 0.000000 1.696660 0.000000 
#    z 0.000000 0.000000 1.675730 
# 
# From -- ./inp_files/3207.got.cif
#   From: 2010.03.12/outbox.cif.g09.slc.cpg/sg115_2_cif.got.tgz:3207.got - 2010.04.14 02:11:21.
