data_PCOD8309554
_publ_section_title
;
Structure prediction by ZEFSAII (Michael W. Deem and Ramdas Pophale) SiO2 
 PCOD8309554
Probable space group: P -4 M 2
;
_chemical_formula_sum "Si O2"
_cell_formula_units_Z 48
_cell_length_a 9.301045
_cell_length_b 9.301045
_cell_length_c 30.999029
_cell_angle_alpha 90.000000
_cell_angle_beta 90.000000
_cell_angle_gamma 90.000000
_cell_volume 2681.708580
_symmetry_space_group_name_H-M "P -4 M 2"
_symmetry_group_IT_number 115
_symmetry_cell_setting 'tetragonal'
loop_
_space_group_symop_operation_xyz
x,y,z
y,-x,-z
-x,-y,z
-y,x,-z
y,x,-z
-y,-x,-z
-x,y,z
x,-y,z
loop_
_atom_site_type_symbol
_atom_site_label
_atom_site_fract_x
_atom_site_fract_y
_atom_site_fract_z
Si Si1 0.828996 0.840480 0.713570
Si Si2 0.170518 0.161520 0.381131
Si Si3 0.330200 0.661289 0.548194
Si Si4 0.332447 0.830506 0.037221
Si Si5 0.662264 0.329465 0.877858
Si Si6 0.165673 0.330817 0.795514
O O1 0.780277 0.782753 0.666402
O O2 0.772667 0.737171 0.751440
O O3 0.000000 0.846184 0.713395
O O4 0.766796 0.000000 0.721994
O O5 0.232248 0.263277 0.417504
O O6 0.000000 0.163561 0.384101
O O7 0.228672 0.000000 0.388475
O O8 0.287506 0.712495 0.500000
O O9 0.500000 0.665204 0.553178
O O10 0.272928 0.500000 0.556533
O O11 0.500000 0.797604 0.027643
O O12 0.280196 0.754598 0.081064
O O13 0.305032 0.000000 0.041404
O O14 0.234629 0.765372 0.000000
O O15 0.500000 0.267292 0.880895
O O16 0.658296 0.500000 0.875770
O O17 0.740284 0.269576 0.835081
O O18 0.182474 0.500000 0.790960
O O19 0.000000 0.287503 0.803729
#
# Coordination Sequence:
#
# PCOD8309554 Si02
#       6
#     8   8   8   8   8   8
#     4   8  15  29  47  67  94 126 156 189 234 285
#     4   9  18  32  50  73  99 126 160 202 243 286
#     4   9  19  35  51  68  94 127 161 198 242 292
#     4  10  20  34  53  76 101 130 165 204 245 290
#     4   9  17  30  49  72  98 128 161 198 241 287
#     4   9  16  27  46  71  95 121 158 200 236 275
#
# _framework density 17.899037
#
# number of rings (size 3 to 8) (size 9 to 14) (size 15 to 20)
#    0.000    3.000    0.000    2.500    0.000    5.000 
#    0.000    5.833    0.000    6.500    0.000    0.000 
#    0.000    0.000    0.000    0.000    0.000    0.000 
#
# Total GULP energy -595027.128532 kJ/mol
# GULP energy per Si atom -12396.398511 kJ/mol
# Density = 1.785830 g / cm^3
# Si number density = 17.899037 Si / 1000 Ang^3
#
#
#
# Elastic Constant Matrix: (Units=GPa)
#
#
# Indices 1 2 3 4 5 6 
#
# 1 55.5120 28.9343 58.6033 0.0000 0.0000 0.0000
# 2 28.9343 55.5116 58.6023 0.0000 0.0000 0.0000
# 3 58.6033 58.6023 177.5952 0.0000 0.0000 0.0000
# 4 0.0000 0.0000 0.0000 30.3661 0.0000 0.0000
# 5 0.0000 0.0000 0.0000 0.0000 30.3664 0.0000
# 6 0.0000 0.0000 0.0000 0.0000 0.0000 21.1250
#
#
#
# Elastic Compliance Matrix: (Units=1/GPa)
#
#
# Indices 1 2 3 4 5 6 
#
# 1 0.029737 -0.007889 -0.007210 0.000000 0.000000 0.000000
# 2 -0.007889 0.029737 -0.007209 0.000000 0.000000 0.000000
# 3 -0.007210 -0.007209 0.010389 0.000000 0.000000 0.000000
# 4 0.000000 0.000000 0.000000 0.032931 0.000000 0.000000
# 5 0.000000 0.000000 0.000000 0.000000 0.032931 0.000000
# 6 0.000000 0.000000 0.000000 0.000000 0.000000 0.047337
#
#
# Mechanical properties :
#
#
# Convention : Reuss Voigt Hill
#
# Bulk Modulus (GPa) = 39.60841 64.54428 52.07634
# Shear Modulus (GPa) = 21.17805 25.87010 23.52407
#
# Velocity S-wave (km/s) = 3.44349 3.80588 3.62921
# Velocity P-wave (km/s) = 6.16336 7.44657 6.83515
#
# Compressibility (1/GPa) = 0.02524716
#
# Stress axis : x y z
#
# Youngs Moduli (GPa) = 33.62810 33.62838 96.25842
#
# Poissons Ratio (x) = 0.26529 0.69398
# Poissons Ratio (y) = 0.26529 0.69395
# Poissons Ratio (z) = 0.24244 0.24244
#
# Static dielectric constant tensor:
#      x y z
#    x 3.261570 0.000000 0.000000 
#    y 0.000000 3.261570 0.000000 
#    z 0.000000 0.000000 3.623220 
# 
# 
# High freq. dielectric constant tensor:
#      x y z
#    x 1.670080 0.000000 0.000000 
#    y 0.000000 1.670080 0.000000 
#    z 0.000000 0.000000 1.709530 
# 
# From -- ./inp_files/5917.got.cif
#   From: 2010.03.12/outbox.cif.g09.slc.cpg/sg115_3_cif.got.tgz:5917.got - 2010.04.14 02:11:21.
