data_PCOD8309038
_publ_section_title
;
Structure prediction by ZEFSAII (Michael W. Deem and Ramdas Pophale) SiO2 
 PCOD8309038
Probable space group: P -4 21 C
;
_chemical_formula_sum "Si O2"
_cell_formula_units_Z 40
_cell_length_a 9.558291
_cell_length_b 9.558291
_cell_length_c 21.573631
_cell_angle_alpha 90.000000
_cell_angle_beta 90.000000
_cell_angle_gamma 90.000000
_cell_volume 1970.986923
_symmetry_space_group_name_H-M "P -4 21 C"
_symmetry_group_IT_number 114
_symmetry_cell_setting 'tetragonal'
loop_
_space_group_symop_operation_xyz
x,y,z
y,-x,-z
-x,-y,z
-y,x,-z
1/2+x,1/2-y,1/2-z
1/2-x,1/2+y,1/2-z
1/2-y,1/2-x,1/2+z
1/2+y,1/2+x,1/2+z
loop_
_atom_site_type_symbol
_atom_site_label
_atom_site_fract_x
_atom_site_fract_y
_atom_site_fract_z
Si Si1 0.337364 0.983600 0.931688
Si Si2 0.162716 0.032583 0.578073
Si Si3 0.858569 0.585522 0.706645
Si Si4 0.257050 0.766525 0.524249
Si Si5 0.140241 0.090623 0.715268
O O1 0.261876 0.132770 0.932031
O O2 0.500000 0.000000 0.947244
O O3 0.316413 0.907590 0.865833
O O4 0.261834 0.900733 0.986823
O O5 0.216705 0.134018 0.525115
O O6 0.194288 0.096414 0.644975
O O7 0.253853 0.892461 0.573120
O O8 0.000000 0.000000 0.568186
O O9 0.874945 0.744232 0.733987
O O10 0.745731 0.492823 0.741779
O O11 0.000000 0.500000 0.714722
O O12 0.000000 0.000000 0.719826
#
# Coordination Sequence:
#
# PCOD8309038 Si02
#       5
#     8   8   8   8   8
#     4  11  24  41  67  96 133 166 213 270 325 388
#     4  11  20  37  69  94 123 164 224 260 313 398
#     4  11  25  46  68  95 132 174 227 279 336 399
#     4  12  21  41  63  98 130 168 209 268 326 394
#     4  11  25  44  69  97 130 176 225 279 334 399
#
# _framework density 20.294402000000002
#
# number of rings (size 3 to 8) (size 9 to 14) (size 15 to 20)
#    0.000    0.800    6.000    1.200   11.200    0.400 
#    7.200    0.000    0.000    0.000    0.000    0.000 
#    0.000    0.000    0.000    0.000    0.000    0.000 
#
# Total GULP energy -495909.641844 kJ/mol
# GULP energy per Si atom -12397.741046 kJ/mol
# Density = 2.024821 g / cm^3
# Si number density = 20.294402 Si / 1000 Ang^3
#
#
#
# Elastic Constant Matrix: (Units=GPa)
#
#
# Indices 1 2 3 4 5 6 
#
# 1 118.7739 28.0716 37.3106 0.0000 0.0000 0.0000
# 2 28.0716 118.7739 37.3106 0.0000 0.0000 0.0000
# 3 37.3106 37.3106 54.9010 0.0000 0.0000 0.0000
# 4 0.0000 0.0000 0.0000 32.9480 0.0000 0.0000
# 5 0.0000 0.0000 0.0000 0.0000 32.9480 0.0000
# 6 0.0000 0.0000 0.0000 0.0000 0.0000 28.4316
#
#
#
# Elastic Compliance Matrix: (Units=1/GPa)
#
#
# Indices 1 2 3 4 5 6 
#
# 1 0.010714 -0.000311 -0.007069 0.000000 0.000000 0.000000
# 2 -0.000311 0.010714 -0.007069 0.000000 0.000000 0.000000
# 3 -0.007069 -0.007069 0.027823 0.000000 0.000000 0.000000
# 4 0.000000 0.000000 0.000000 0.030351 0.000000 0.000000
# 5 0.000000 0.000000 0.000000 0.000000 0.030351 0.000000
# 6 0.000000 0.000000 0.000000 0.000000 0.000000 0.035172
#
#
# Mechanical properties :
#
#
# Convention : Reuss Voigt Hill
#
# Bulk Modulus (GPa) = 49.13923 55.31493 52.22708
# Shear Modulus (GPa) = 27.65365 31.51594 29.58480
#
# Velocity S-wave (km/s) = 3.69538 3.94501 3.82223
# Velocity P-wave (km/s) = 6.51717 6.93298 6.72829
#
# Compressibility (1/GPa) = 0.02035034
#
# Stress axis : x y z
#
# Youngs Moduli (GPa) = 93.33878 93.33878 35.94122
#
# Poissons Ratio (x) = 0.02907 0.25408
# Poissons Ratio (y) = 0.02907 0.25408
# Poissons Ratio (z) = 0.65984 0.65984
#
# Static dielectric constant tensor:
#      x y z
#    x 3.773790 0.000000 0.000000 
#    y 0.000000 3.773790 0.000000 
#    z 0.000000 0.000000 3.788400 
# 
# 
# High freq. dielectric constant tensor:
#      x y z
#    x 1.794000 0.000000 0.000000 
#    y 0.000000 1.794000 0.000000 
#    z 0.000000 0.000000 1.791720 
# 
# From -- ./inp_files/3333.got.cif
#   From: 2010.03.12/outbox.cif.g09.slc.cpg/sg114_2_cif.got.tgz:3333.got - 2010.04.14 02:08:34.
