data_PCOD8309997
_publ_section_title
;
Structure prediction by ZEFSAII (Michael W. Deem and Ramdas Pophale) SiO2 
 PCOD8309997
Probable space group: P -4 M 2
;
_chemical_formula_sum "Si O2"
_cell_formula_units_Z 40
_cell_length_a 13.501123
_cell_length_b 13.501123
_cell_length_c 10.397813
_cell_angle_alpha 90.000000
_cell_angle_beta 90.000000
_cell_angle_gamma 90.000000
_cell_volume 1895.316704
_symmetry_space_group_name_H-M "P -4 M 2"
_symmetry_group_IT_number 115
_symmetry_cell_setting 'tetragonal'
loop_
_space_group_symop_operation_xyz
x,y,z
y,-x,-z
-x,-y,z
-y,x,-z
y,x,-z
-y,-x,-z
-x,y,z
x,-y,z
loop_
_atom_site_type_symbol
_atom_site_label
_atom_site_fract_x
_atom_site_fract_y
_atom_site_fract_z
Si Si1 0.882405 0.690248 0.247923
Si Si2 0.616212 0.225193 0.002145
Si Si3 0.615646 0.224089 0.503509
Si Si4 0.883277 0.108541 0.358652
Si Si5 0.617032 0.890000 0.254448
O O1 0.844623 0.647149 0.114776
O O2 0.834259 0.629101 0.363882
O O3 0.851790 0.807146 0.256468
O O4 0.000000 0.676298 0.256030
O O5 0.500000 0.245140 0.998359
O O6 0.668349 0.331652 0.000000
O O7 0.651777 0.172180 0.131910
O O8 0.670858 0.329143 0.500000
O O9 0.500000 0.246874 0.483185
O O10 0.659131 0.158700 0.385136
O O11 0.851438 0.148563 0.500000
O O12 0.000000 0.096584 0.362311
O O13 0.836896 0.000000 0.324081
O O14 0.500000 0.894278 0.261260
O O15 0.661305 0.000000 0.242903
#
# Coordination Sequence:
#
# PCOD8309997 Si02
#       5
#     8   8   8   8   8
#     4  11  22  37  63  96 125 154 195 254 314 359
#     4  11  24  42  62  86 118 155 199 247 299 362
#     4  11  23  39  60  88 121 157 203 252 299 357
#     4   8  15  30  53  83 122 165 202 236 283 351
#     4   9  19  38  62  84 111 151 192 233 289 355
#
# _framework density 21.104652000000002
#
# number of rings (size 3 to 8) (size 9 to 14) (size 15 to 20)
#    0.000    2.000    0.000    4.200    0.000    3.600 
#    0.000    7.000    0.000    6.000    0.000    0.000 
#    0.000    8.000    0.000    0.000    0.000    0.000 
#
# Total GULP energy -495998.921860 kJ/mol
# GULP energy per Si atom -12399.973046 kJ/mol
# Density = 2.105662 g / cm^3
# Si number density = 21.104652 Si / 1000 Ang^3
#
#
#
# Elastic Constant Matrix: (Units=GPa)
#
#
# Indices 1 2 3 4 5 6 
#
# 1 114.4335 46.3601 40.7928 0.0000 0.0000 0.0000
# 2 46.3601 114.4320 40.7946 0.0000 0.0000 0.0000
# 3 40.7928 40.7946 122.9570 0.0000 0.0000 0.0000
# 4 0.0000 0.0000 0.0000 32.9415 0.0000 0.0000
# 5 0.0000 0.0000 0.0000 0.0000 32.9425 0.0000
# 6 0.0000 0.0000 0.0000 0.0000 0.0000 26.3013
#
#
#
# Elastic Compliance Matrix: (Units=1/GPa)
#
#
# Indices 1 2 3 4 5 6 
#
# 1 0.011084 -0.003606 -0.002481 0.000000 0.000000 0.000000
# 2 -0.003606 0.011084 -0.002481 0.000000 0.000000 0.000000
# 3 -0.002481 -0.002481 0.009779 0.000000 0.000000 0.000000
# 4 0.000000 0.000000 0.000000 0.030357 0.000000 0.000000
# 5 0.000000 0.000000 0.000000 0.000000 0.030356 0.000000
# 6 0.000000 0.000000 0.000000 0.000000 0.000000 0.038021
#
#
# Mechanical properties :
#
#
# Convention : Reuss Voigt Hill
#
# Bulk Modulus (GPa) = 67.51619 67.52417 67.52018
# Shear Modulus (GPa) = 32.73226 33.36204 33.04715
#
# Velocity S-wave (km/s) = 3.94248 3.98023 3.96140
# Velocity P-wave (km/s) = 7.26532 7.29297 7.27915
#
# Compressibility (1/GPa) = 0.01481126
#
# Stress axis : x y z
#
# Youngs Moduli (GPa) = 90.22029 90.21794 102.25794
#
# Poissons Ratio (x) = 0.32533 0.25369
# Poissons Ratio (y) = 0.32534 0.25372
# Poissons Ratio (z) = 0.22382 0.22385
#
# Static dielectric constant tensor:
#      x y z
#    x 3.911570 0.000000 0.000000 
#    y 0.000000 3.911580 0.000000 
#    z 0.000000 0.000000 3.921570 
# 
# 
# High freq. dielectric constant tensor:
#      x y z
#    x 1.835840 0.000000 0.000000 
#    y 0.000000 1.835840 0.000000 
#    z 0.000000 0.000000 1.824000 
# 
# From -- ./inp_files/1630.got.cif
#   From: 2010.03.12/outbox.cif.g09.slc.cpg/sg115_1_cif.got.tgz:1630.got - 2010.04.14 02:11:21.
