data_PCOD8309159
_publ_section_title
;
Structure prediction by ZEFSAII (Michael W. Deem and Ramdas Pophale) SiO2 
 PCOD8309159
Probable space group: P -4 M 2
;
_chemical_formula_sum "Si O2"
_cell_formula_units_Z 48
_cell_length_a 22.294974
_cell_length_b 22.294974
_cell_length_c 7.600704
_cell_angle_alpha 90.000000
_cell_angle_beta 90.000000
_cell_angle_gamma 90.000000
_cell_volume 3778.050513
_symmetry_space_group_name_H-M "P -4 M 2"
_symmetry_group_IT_number 115
_symmetry_cell_setting 'tetragonal'
loop_
_space_group_symop_operation_xyz
x,y,z
y,-x,-z
-x,-y,z
-y,x,-z
y,x,-z
-y,-x,-z
-x,y,z
x,-y,z
loop_
_atom_site_type_symbol
_atom_site_label
_atom_site_fract_x
_atom_site_fract_y
_atom_site_fract_z
Si Si1 0.355672 0.568359 0.774687
Si Si2 0.568119 0.324120 0.843687
Si Si3 0.428979 0.933660 0.760945
Si Si4 0.845679 0.571947 0.543791
Si Si5 0.721542 0.372224 0.481573
Si Si6 0.933627 0.571031 0.848375
O O1 0.376501 0.500000 0.764876
O O2 0.415801 0.607338 0.794536
O O3 0.321216 0.585522 0.597923
O O4 0.313176 0.579125 0.947524
O O5 0.500000 0.310951 0.792681
O O6 0.609094 0.280582 0.724447
O O7 0.500000 0.936618 0.756613
O O8 0.407455 0.883564 0.625364
O O9 0.404239 0.000000 0.709781
O O10 0.406450 0.915907 0.956285
O O11 0.830309 0.500000 0.543357
O O12 0.788314 0.615529 0.549131
O O13 0.883427 0.592556 0.712976
O O14 0.696909 0.303092 0.500000
O O15 0.936525 0.500000 0.843709
O O16 0.000000 0.595706 0.797129
#
# Coordination Sequence:
#
# PCOD8309159 Si02
#       6
#     8   8   8   8   8   8
#     4   9  17  28  40  51  62  77  99 133 178 221
#     4   9  17  28  40  51  62  77  99 133 178 221
#     4   8  14  24  37  55  77  92 101 122 160 204
#     4  10  17  24  38  55  67  87 117 140 163 204
#     4  10  20  31  38  47  67  91 115 143 170 195
#     4   8  14  24  37  55  77  92 101 122 160 204
#
# _framework density 12.704966000000001
#
# number of rings (size 3 to 8) (size 9 to 14) (size 15 to 20)
#    0.000    3.000    0.000    3.000    0.000    3.667 
#    0.000    5.000    0.000    3.000    0.000    0.000 
#    0.000    0.000    0.000    0.000    0.000    0.000 
#
# Total GULP energy -594668.242711 kJ/mol
# GULP energy per Si atom -12388.921723 kJ/mol
# Density = 1.267605 g / cm^3
# Si number density = 12.704966 Si / 1000 Ang^3
#
#
#
# Elastic Constant Matrix: (Units=GPa)
#
#
# Indices 1 2 3 4 5 6 
#
# 1 51.6776 13.7944 17.7837 0.0000 0.0000 0.0000
# 2 13.7944 51.6787 17.7842 0.0000 0.0000 0.0000
# 3 17.7837 17.7842 59.7466 0.0000 0.0000 0.0000
# 4 0.0000 0.0000 0.0000 8.5403 0.0000 0.0000
# 5 0.0000 0.0000 0.0000 0.0000 8.5401 0.0000
# 6 0.0000 0.0000 0.0000 0.0000 0.0000 8.0365
#
#
#
# Elastic Compliance Matrix: (Units=1/GPa)
#
#
# Indices 1 2 3 4 5 6 
#
# 1 0.022308 -0.004088 -0.005423 0.000000 0.000000 0.000000
# 2 -0.004088 0.022308 -0.005423 0.000000 0.000000 0.000000
# 3 -0.005423 -0.005423 0.019966 0.000000 0.000000 0.000000
# 4 0.000000 0.000000 0.000000 0.117092 0.000000 0.000000
# 5 0.000000 0.000000 0.000000 0.000000 0.117094 0.000000
# 6 0.000000 0.000000 0.000000 0.000000 0.000000 0.124432
#
#
# Mechanical properties :
#
#
# Convention : Reuss Voigt Hill
#
# Bulk Modulus (GPa) = 28.80809 29.09193 28.95001
# Shear Modulus (GPa) = 10.76101 12.60610 11.68356
#
# Velocity S-wave (km/s) = 2.91347 3.15337 3.03579
# Velocity P-wave (km/s) = 5.83452 6.01715 5.92654
#
# Compressibility (1/GPa) = 0.03471247
#
# Stress axis : x y z
#
# Youngs Moduli (GPa) = 44.82634 44.82707 50.08553
#
# Poissons Ratio (x) = 0.18327 0.27162
# Poissons Ratio (y) = 0.18327 0.27163
# Poissons Ratio (z) = 0.24310 0.24311
#
# Static dielectric constant tensor:
#      x y z
#    x 2.382640 0.000000 0.000000 
#    y 0.000000 2.382640 0.000000 
#    z 0.000000 0.000000 3.005880 
# 
# 
# High freq. dielectric constant tensor:
#      x y z
#    x 1.438480 0.000000 0.000000 
#    y 0.000000 1.438480 0.000000 
#    z 0.000000 0.000000 1.508260 
# 
# From -- ./inp_files/2002.got.cif
#   From: 2010.03.12/outbox.cif.g09.slc.cpg/sg115_2_cif.got.tgz:2002.got - 2010.04.14 02:11:21.
