data_PCOD8309909
_publ_section_title
;
Structure prediction by ZEFSAII (Michael W. Deem and Ramdas Pophale) SiO2 
 PCOD8309909
Probable space group: P -4 M 2
;
_chemical_formula_sum "Si O2"
_cell_formula_units_Z 48
_cell_length_a 9.144388
_cell_length_b 9.144388
_cell_length_c 30.760740
_cell_angle_alpha 90.000000
_cell_angle_beta 90.000000
_cell_angle_gamma 90.000000
_cell_volume 2572.207908
_symmetry_space_group_name_H-M "P -4 M 2"
_symmetry_group_IT_number 115
_symmetry_cell_setting 'tetragonal'
loop_
_space_group_symop_operation_xyz
x,y,z
y,-x,-z
-x,-y,z
-y,x,-z
y,x,-z
-y,-x,-z
-x,y,z
x,-y,z
loop_
_atom_site_type_symbol
_atom_site_label
_atom_site_fract_x
_atom_site_fract_y
_atom_site_fract_z
Si Si1 0.832808 0.167193 0.000000
Si Si2 0.669697 0.170028 0.585161
Si Si3 0.832613 0.170935 0.329114
Si Si4 0.327306 0.168978 0.835651
Si Si5 0.830165 0.670119 0.912620
Si Si6 0.329956 0.670045 0.500000
Si Si7 0.329283 0.829306 0.242389
O O1 0.726676 0.208401 0.039422
O O2 0.000000 0.191617 0.015021
O O3 0.500000 0.205609 0.591139
O O4 0.750070 0.229225 0.628062
O O5 0.733047 0.250843 0.542747
O O6 0.701244 0.000000 0.578694
O O7 0.734507 0.221007 0.288652
O O8 0.000000 0.217268 0.319669
O O9 0.819068 0.000000 0.337483
O O10 0.500000 0.187893 0.834884
O O11 0.267069 0.240848 0.879193
O O12 0.261704 0.249444 0.794314
O O13 0.280262 0.000000 0.834423
O O14 0.790206 0.500000 0.909575
O O15 0.000000 0.697465 0.901702
O O16 0.500000 0.703922 0.494386
O O17 0.500000 0.793132 0.241226
O O18 0.298807 0.000000 0.234145
#
# Coordination Sequence:
#
# PCOD8309909 Si02
#       7
#     4   8   8   8   8   4   8
#     4   9  18  34  56  81 110 146 186 223 260 309
#     4   9  18  32  49  70  97 129 165 206 251 299
#     4   9  18  33  52  74 101 133 168 207 253 305
#     4  11  24  39  56  80 109 142 181 223 266 314
#     4  10  21  37  58  84 113 145 181 222 268 317
#     4   9  18  32  48  67  94 128 164 201 246 302
#     4  10  21  37  57  81 108 138 174 216 263 316
#
# _framework density 18.661010000000001
#
# number of rings (size 3 to 8) (size 9 to 14) (size 15 to 20)
#    0.000    2.333    0.000    2.000    0.000    8.000 
#    0.000    3.333    0.000    0.000    0.000    0.000 
#    0.000    0.000    0.000    0.000    0.000    0.000 
#
# Total GULP energy -595367.786705 kJ/mol
# GULP energy per Si atom -12403.495556 kJ/mol
# Density = 1.861854 g / cm^3
# Si number density = 18.661010 Si / 1000 Ang^3
#
#
#
# Elastic Constant Matrix: (Units=GPa)
#
#
# Indices 1 2 3 4 5 6 
#
# 1 84.2176 53.1933 73.4123 0.0000 0.0000 0.0000
# 2 53.1933 84.2170 73.4126 0.0000 0.0000 0.0000
# 3 73.4123 73.4126 158.1606 0.0000 0.0000 0.0000
# 4 0.0000 0.0000 0.0000 145.7043 0.0000 0.0000
# 5 0.0000 0.0000 0.0000 0.0000 145.6410 0.0000
# 6 0.0000 0.0000 0.0000 0.0000 0.0000 24.7435
#
#
#
# Elastic Compliance Matrix: (Units=1/GPa)
#
#
# Indices 1 2 3 4 5 6 
#
# 1 0.023336 -0.008897 -0.006702 0.000000 0.000000 0.000000
# 2 -0.008897 0.023336 -0.006702 0.000000 0.000000 0.000000
# 3 -0.006702 -0.006702 0.012544 0.000000 0.000000 0.000000
# 4 0.000000 0.000000 0.000000 0.006863 0.000000 0.000000
# 5 0.000000 0.000000 0.000000 0.000000 0.006866 0.000000
# 6 0.000000 0.000000 0.000000 0.000000 0.000000 0.040415
#
#
# Mechanical properties :
#
#
# Convention : Reuss Voigt Hill
#
# Bulk Modulus (GPa) = 68.42847 80.73686 74.58266
# Shear Modulus (GPa) = 30.70635 71.65624 51.18130
#
# Velocity S-wave (km/s) = 4.06085 6.20341 5.24275
# Velocity P-wave (km/s) = 7.66396 9.72978 8.75799
#
# Compressibility (1/GPa) = 0.01461380
#
# Stress axis : x y z
#
# Youngs Moduli (GPa) = 42.85310 42.85231 79.71846
#
# Poissons Ratio (x) = 0.38127 0.53425
# Poissons Ratio (y) = 0.38128 0.53427
# Poissons Ratio (z) = 0.28719 0.28719
#
# Static dielectric constant tensor:
#      x y z
#    x 3.390250 0.000000 0.000000 
#    y 0.000000 3.390250 0.000000 
#    z 0.000000 0.000000 3.633460 
# 
# 
# High freq. dielectric constant tensor:
#      x y z
#    x 1.721210 0.000000 0.000000 
#    y 0.000000 1.721220 0.000000 
#    z 0.000000 0.000000 1.738650 
# 
# From -- ./inp_files/6274.got.cif
#   From: 2010.03.12/outbox.cif.g09.slc.cpg/sg115_4_cif.got.tgz:6274.got - 2010.04.14 02:11:21.
