data_PCOD8309364
_publ_section_title
;
Structure prediction by ZEFSAII (Michael W. Deem and Ramdas Pophale) SiO2 
 PCOD8309364
Probable space group: P -4 M 2
;
_chemical_formula_sum "Si O2"
_cell_formula_units_Z 48
_cell_length_a 9.202601
_cell_length_b 9.202601
_cell_length_c 31.244162
_cell_angle_alpha 90.000000
_cell_angle_beta 90.000000
_cell_angle_gamma 90.000000
_cell_volume 2646.001379
_symmetry_space_group_name_H-M "P -4 M 2"
_symmetry_group_IT_number 115
_symmetry_cell_setting 'tetragonal'
loop_
_space_group_symop_operation_xyz
x,y,z
y,-x,-z
-x,-y,z
-y,x,-z
y,x,-z
-y,-x,-z
-x,y,z
x,-y,z
loop_
_atom_site_type_symbol
_atom_site_label
_atom_site_fract_x
_atom_site_fract_y
_atom_site_fract_z
Si Si1 0.163087 0.327280 0.824918
Si Si2 0.829446 0.169458 0.332534
Si Si3 0.335962 0.827364 0.583576
Si Si4 0.330994 0.330994 0.000000
Si Si5 0.327730 0.164382 0.081107
Si Si6 0.666429 0.672381 0.742992
Si Si7 0.830527 0.169473 0.500000
O O1 0.159859 0.500000 0.825336
O O2 0.215261 0.271182 0.871872
O O3 0.274002 0.271395 0.788794
O O4 0.000000 0.269589 0.815071
O O5 0.771138 0.247743 0.375318
O O6 0.745131 0.236680 0.293017
O O7 0.000000 0.196391 0.326026
O O8 0.792710 0.000000 0.336270
O O9 0.500000 0.765939 0.585322
O O10 0.257025 0.770666 0.540862
O O11 0.335785 0.000000 0.583228
O O12 0.260741 0.261501 0.957200
O O13 0.296711 0.500000 0.003238
O O14 0.500000 0.178767 0.080425
O O15 0.278354 0.000000 0.073018
O O16 0.500000 0.722821 0.738443
O O17 0.681379 0.500000 0.738835
O O18 0.000000 0.198653 0.508454
#
# Coordination Sequence:
#
# PCOD8309364 Si02
#       7
#     8   8   8   4   8   8   4
#     4   8  14  26  44  64  87 118 156 194 230 274
#     4  10  20  34  53  75  98 129 169 207 243 286
#     4   9  17  30  49  72  97 125 158 197 240 285
#     4   9  16  24  38  63  88 106 134 183 232 268
#     4   8  14  25  41  61  86 117 150 183 224 275
#     4  10  20  32  48  73 102 129 158 197 247 297
#     4   9  16  28  48  71  92 116 152 195 232 274
#
# _framework density 18.140578999999999
#
# number of rings (size 3 to 8) (size 9 to 14) (size 15 to 20)
#    0.000    3.000    0.000    2.500    0.000    4.667 
#    0.000    4.167    0.000    4.500    0.000    4.667 
#    0.000    0.000    0.000    0.000    0.000    0.000 
#
# Total GULP energy -594981.404591 kJ/mol
# GULP energy per Si atom -12395.445929 kJ/mol
# Density = 1.809929 g / cm^3
# Si number density = 18.140579 Si / 1000 Ang^3
#
#
#
# Elastic Constant Matrix: (Units=GPa)
#
#
# Indices 1 2 3 4 5 6 
#
# 1 61.3052 30.0151 59.1137 0.0000 0.0000 0.0000
# 2 30.0151 61.3047 59.1137 0.0000 0.0000 0.0000
# 3 59.1137 59.1137 188.8011 0.0000 0.0000 0.0000
# 4 0.0000 0.0000 0.0000 28.2491 0.0000 0.0000
# 5 0.0000 0.0000 0.0000 0.0000 28.2489 0.0000
# 6 0.0000 0.0000 0.0000 0.0000 0.0000 16.1622
#
#
#
# Elastic Compliance Matrix: (Units=1/GPa)
#
#
# Indices 1 2 3 4 5 6 
#
# 1 0.025187 -0.006772 -0.005766 0.000000 0.000000 0.000000
# 2 -0.006772 0.025187 -0.005766 0.000000 0.000000 0.000000
# 3 -0.005766 -0.005766 0.008907 0.000000 0.000000 0.000000
# 4 0.000000 0.000000 0.000000 0.035399 0.000000 0.000000
# 5 0.000000 0.000000 0.000000 0.000000 0.035400 0.000000
# 6 0.000000 0.000000 0.000000 0.000000 0.000000 0.061873
#
#
# Mechanical properties :
#
#
# Convention : Reuss Voigt Hill
#
# Bulk Modulus (GPa) = 44.10286 67.54401 55.82344
# Shear Modulus (GPa) = 21.17580 25.40995 23.29287
#
# Velocity S-wave (km/s) = 3.42031 3.74669 3.58721
# Velocity P-wave (km/s) = 6.32159 7.48541 6.92798
#
# Compressibility (1/GPa) = 0.02267427
#
# Stress axis : x y z
#
# Youngs Moduli (GPa) = 39.70294 39.70247 112.26967
#
# Poissons Ratio (x) = 0.26887 0.64732
# Poissons Ratio (y) = 0.26887 0.64733
# Poissons Ratio (z) = 0.22892 0.22892
#
# Static dielectric constant tensor:
#      x y z
#    x 3.150260 0.000000 0.000000 
#    y 0.000000 3.150260 0.000000 
#    z 0.000000 0.000000 3.870380 
# 
# 
# High freq. dielectric constant tensor:
#      x y z
#    x 1.672310 0.000000 0.000000 
#    y 0.000000 1.672310 0.000000 
#    z 0.000000 0.000000 1.724590 
# 
# From -- ./inp_files/6233.got.cif
#   From: 2010.03.12/outbox.cif.g09.slc.cpg/sg115_4_cif.got.tgz:6233.got - 2010.04.14 02:11:21.
