data_PCOD8309221
_publ_section_title
;
Structure prediction by ZEFSAII (Michael W. Deem and Ramdas Pophale) SiO2 
 PCOD8309221
Probable space group: P -4 M 2
;
_chemical_formula_sum "Si O2"
_cell_formula_units_Z 56
_cell_length_a 13.804524
_cell_length_b 13.804524
_cell_length_c 18.162811
_cell_angle_alpha 90.000000
_cell_angle_beta 90.000000
_cell_angle_gamma 90.000000
_cell_volume 3461.193951
_symmetry_space_group_name_H-M "P -4 M 2"
_symmetry_group_IT_number 115
_symmetry_cell_setting 'tetragonal'
loop_
_space_group_symop_operation_xyz
x,y,z
y,-x,-z
-x,-y,z
-y,x,-z
y,x,-z
-y,-x,-z
-x,y,z
x,-y,z
loop_
_atom_site_type_symbol
_atom_site_label
_atom_site_fract_x
_atom_site_fract_y
_atom_site_fract_z
Si Si1 0.385436 0.891807 0.141173
Si Si2 0.891969 0.614883 0.581498
Si Si3 0.771135 0.385234 0.000001
Si Si4 0.769238 0.614539 0.281509
Si Si5 0.891968 0.614883 0.418503
Si Si6 0.385461 0.769238 0.281508
Si Si7 0.891807 0.614564 0.141174
O O1 0.500000 0.900246 0.139468
O O2 0.351912 0.838389 0.215204
O O3 0.340205 0.000000 0.139284
O O4 0.350237 0.831579 0.070726
O O5 0.896554 0.500000 0.586279
O O6 0.856309 0.647344 0.500001
O O7 0.818407 0.652737 0.643249
O O8 0.000000 0.656085 0.596420
O O9 0.751175 0.500000 0.000001
O O10 0.831578 0.350236 0.070728
O O11 0.667254 0.332747 0.000000
O O12 0.750527 0.500000 0.280996
O O13 0.818407 0.652737 0.356753
O O14 0.665366 0.665365 0.273242
O O15 0.838391 0.648087 0.215206
O O16 0.896554 0.500000 0.413723
O O17 0.000000 0.656085 0.403582
O O18 0.500000 0.750527 0.280995
O O19 0.900246 0.500000 0.139468
O O20 0.000000 0.659795 0.139284
#
# Coordination Sequence:
#
# PCOD8309221 Si02
#       7
#     8   8   8   8   8   8   8
#     4   9  17  30  47  64  83 110 146 190 233 258
#     4   8  14  26  44  63  82 107 142 186 231 262
#     4  10  19  30  45  67  96 126 151 173 202 249
#     4  10  19  29  42  62  90 122 151 177 208 254
#     4   8  14  26  44  63  82 107 142 186 231 262
#     4  10  19  29  42  62  90 122 151 177 208 254
#     4   9  17  30  47  64  83 110 146 190 233 258
#
# _framework density 16.179389
#
# number of rings (size 3 to 8) (size 9 to 14) (size 15 to 20)
#    0.000    2.857    0.000    3.000    0.000    6.143 
#    0.000    0.000    0.000    5.143    0.000    4.000 
#    0.000   43.429    0.000   12.571    0.000    1.143 
#
# Total GULP energy -694146.360441 kJ/mol
# GULP energy per Si atom -12395.470722 kJ/mol
# Density = 1.614256 g / cm^3
# Si number density = 16.179389 Si / 1000 Ang^3
#
#
#
# Elastic Constant Matrix: (Units=GPa)
#
#
# Indices 1 2 3 4 5 6 
#
# 1 68.4420 41.8065 46.2805 0.0000 0.0000 0.0000
# 2 41.8065 68.4402 46.2798 0.0000 0.0000 0.0000
# 3 46.2805 46.2798 143.7208 0.0000 0.0000 0.0000
# 4 0.0000 0.0000 0.0000 12.4179 0.0000 0.0000
# 5 0.0000 0.0000 0.0000 0.0000 12.4173 0.0000
# 6 0.0000 0.0000 0.0000 0.0000 0.0000 5.8047
#
#
#
# Elastic Compliance Matrix: (Units=1/GPa)
#
#
# Indices 1 2 3 4 5 6 
#
# 1 0.024988 -0.012557 -0.004003 0.000000 0.000000 0.000000
# 2 -0.012557 0.024989 -0.004003 0.000000 0.000000 0.000000
# 3 -0.004003 -0.004003 0.009536 0.000000 0.000000 0.000000
# 4 0.000000 0.000000 0.000000 0.080529 0.000000 0.000000
# 5 0.000000 0.000000 0.000000 0.000000 0.080533 0.000000
# 6 0.000000 0.000000 0.000000 0.000000 0.000000 0.172273
#
#
# Mechanical properties :
#
#
# Convention : Reuss Voigt Hill
#
# Bulk Modulus (GPa) = 54.38791 61.03737 57.71264
# Shear Modulus (GPa) = 11.36099 15.87706 13.61903
#
# Velocity S-wave (km/s) = 2.65276 3.13599 2.90444
# Velocity P-wave (km/s) = 6.56288 7.13582 6.85534
#
# Compressibility (1/GPa) = 0.01838644
#
# Stress axis : x y z
#
# Youngs Moduli (GPa) = 40.01934 40.01832 104.86550
#
# Poissons Ratio (x) = 0.50251 0.41978
# Poissons Ratio (y) = 0.50252 0.41979
# Poissons Ratio (z) = 0.16020 0.16020
#
# Static dielectric constant tensor:
#      x y z
#    x 2.806390 0.000000 0.000000 
#    y 0.000000 2.806390 0.000000 
#    z 0.000000 0.000000 3.474830 
# 
# 
# High freq. dielectric constant tensor:
#      x y z
#    x 1.587760 0.000000 0.000000 
#    y 0.000000 1.587760 0.000000 
#    z 0.000000 0.000000 1.647360 
# 
# From -- ./inp_files/4396.got.cif
#   From: 2010.03.12/outbox.cif.g09.slc.cpg/sg115_3_cif.got.tgz:4396.got - 2010.04.14 02:11:21.
