data_PCOD8309055
_publ_section_title
;
Structure prediction by ZEFSAII (Michael W. Deem and Ramdas Pophale) SiO2 
 PCOD8309055
Probable space group: P -4 21 C
;
_chemical_formula_sum "Si O2"
_cell_formula_units_Z 56
_cell_length_a 13.205212
_cell_length_b 13.205212
_cell_length_c 13.531870
_cell_angle_alpha 90.000000
_cell_angle_beta 90.000000
_cell_angle_gamma 90.000000
_cell_volume 2359.655338
_symmetry_space_group_name_H-M "P -4 21 C"
_symmetry_group_IT_number 114
_symmetry_cell_setting 'tetragonal'
loop_
_space_group_symop_operation_xyz
x,y,z
y,-x,-z
-x,-y,z
-y,x,-z
1/2+x,1/2-y,1/2-z
1/2-x,1/2+y,1/2-z
1/2-y,1/2-x,1/2+z
1/2+y,1/2+x,1/2+z
loop_
_atom_site_type_symbol
_atom_site_label
_atom_site_fract_x
_atom_site_fract_y
_atom_site_fract_z
Si Si1 0.894066 0.539689 0.772430
Si Si2 0.901875 0.209156 0.766273
Si Si3 0.766723 0.509811 0.587114
Si Si4 0.795556 0.326357 0.081621
Si Si5 0.733725 0.868654 0.632055
Si Si6 0.988264 0.117316 0.241357
Si Si7 0.754306 0.600298 0.379325
O O1 0.824800 0.564504 0.677463
O O2 0.917311 0.634437 0.840250
O O3 0.000000 0.500000 0.730979
O O4 0.843439 0.458959 0.845896
O O5 0.911669 0.274321 0.665210
O O6 0.847641 0.103943 0.734418
O O7 0.013608 0.189152 0.818874
O O8 0.821531 0.264094 0.838372
O O9 0.831520 0.413357 0.551433
O O10 0.657496 0.469009 0.629105
O O11 0.748222 0.584262 0.496883
O O12 0.734293 0.355224 0.982757
O O13 0.774690 0.217761 0.134785
O O14 0.100681 0.837753 0.311345
O O15 0.000000 0.000000 0.253616
#
# Coordination Sequence:
#
# PCOD8309055 Si02
#       7
#     8   8   8   8   8   8   8
#     4  11  21  44  68 103 147 187 237 312 377 442
#     4  12  24  47  71 106 150 197 253 322 389 458
#     4  11  23  43  69 106 143 188 250 307 369 445
#     4  12  23  45  70 106 146 197 244 316 379 452
#     4  11  24  47  72 106 155 188 260 318 379 470
#     4  11  25  50  73 105 152 204 255 318 387 464
#     4  12  26  43  74 110 144 198 253 307 386 458
#
# _framework density 23.732278000000001
#
# number of rings (size 3 to 8) (size 9 to 14) (size 15 to 20)
#    0.000    0.571    5.714    3.429    0.000    2.857 
#    5.143    0.000    0.000    0.000    0.000    0.000 
#    0.000    0.000    0.000    0.000    0.000    0.000 
#
# Total GULP energy -693891.119794 kJ/mol
# GULP energy per Si atom -12390.912853 kJ/mol
# Density = 2.367826 g / cm^3
# Si number density = 23.732278 Si / 1000 Ang^3
#
#
#
# Elastic Constant Matrix: (Units=GPa)
#
#
# Indices 1 2 3 4 5 6 
#
# 1 72.5062 -9.7161 27.8175 0.0000 0.0000 0.0000
# 2 -9.7161 72.5062 27.8175 0.0000 0.0000 0.0000
# 3 27.8175 27.8175 153.8025 0.0000 0.0000 0.0000
# 4 0.0000 0.0000 0.0000 28.0778 0.0000 0.0000
# 5 0.0000 0.0000 0.0000 0.0000 28.0778 0.0000
# 6 0.0000 0.0000 0.0000 0.0000 0.0000 25.9514
#
#
#
# Elastic Compliance Matrix: (Units=1/GPa)
#
#
# Indices 1 2 3 4 5 6 
#
# 1 0.015564 0.003402 -0.003430 0.000000 0.000000 0.000000
# 2 0.003402 0.015564 -0.003430 0.000000 0.000000 0.000000
# 3 -0.003430 -0.003430 0.007743 0.000000 0.000000 0.000000
# 4 0.000000 0.000000 0.000000 0.035615 0.000000 0.000000
# 5 0.000000 0.000000 0.000000 0.000000 0.035615 0.000000
# 6 0.000000 0.000000 0.000000 0.000000 0.000000 0.038534
#
#
# Mechanical properties :
#
#
# Convention : Reuss Voigt Hill
#
# Bulk Modulus (GPa) = 31.29623 43.40583 37.35103
# Shear Modulus (GPa) = 30.08375 33.28115 31.68245
#
# Velocity S-wave (km/s) = 3.56424 3.74887 3.65772
# Velocity P-wave (km/s) = 5.49129 6.08836 5.79752
#
# Compressibility (1/GPa) = 0.03195273
#
# Stress axis : x y z
#
# Youngs Moduli (GPa) = 64.25179 64.25179 129.15499
#
# Poissons Ratio (x) = -0.21856 0.44302
# Poissons Ratio (y) = -0.21856 0.44302
# Poissons Ratio (z) = 0.22039 0.22039
#
# Static dielectric constant tensor:
#      x y z
#    x 4.627610 0.000000 0.000000 
#    y 0.000000 4.627610 0.000000 
#    z 0.000000 0.000000 4.100660 
# 
# 
# High freq. dielectric constant tensor:
#      x y z
#    x 1.947750 0.000000 0.000000 
#    y 0.000000 1.947750 0.000000 
#    z 0.000000 0.000000 1.929240 
# 
# From -- ./inp_files/1742.got.cif
#   From: 2010.03.12/outbox.cif.g09.slc.cpg/sg114_1_cif.got.tgz:1742.got - 2010.04.14 02:08:34.
