data_PCOD8309523
_publ_section_title
;
Structure prediction by ZEFSAII (Michael W. Deem and Ramdas Pophale) SiO2 
 PCOD8309523
Probable space group: P -4 M 2
;
_chemical_formula_sum "Si O2"
_cell_formula_units_Z 48
_cell_length_a 9.137176
_cell_length_b 9.137176
_cell_length_c 30.489441
_cell_angle_alpha 90.000000
_cell_angle_beta 90.000000
_cell_angle_gamma 90.000000
_cell_volume 2545.502001
_symmetry_space_group_name_H-M "P -4 M 2"
_symmetry_group_IT_number 115
_symmetry_cell_setting 'tetragonal'
loop_
_space_group_symop_operation_xyz
x,y,z
y,-x,-z
-x,-y,z
-y,x,-z
y,x,-z
-y,-x,-z
-x,y,z
x,-y,z
loop_
_atom_site_type_symbol
_atom_site_label
_atom_site_fract_x
_atom_site_fract_y
_atom_site_fract_z
Si Si1 0.831366 0.827641 0.624790
Si Si2 0.165162 0.325879 0.789746
Si Si3 0.671206 0.670751 0.296635
Si Si4 0.667916 0.672112 0.874885
Si Si5 0.667607 0.331210 0.550832
Si Si6 0.834359 0.828914 0.949934
O O1 0.734567 0.755780 0.662289
O O2 0.776734 0.770362 0.577930
O O3 0.000000 0.782967 0.631323
O O4 0.809664 0.000000 0.626474
O O5 0.168413 0.500000 0.790527
O O6 0.251481 0.268853 0.747206
O O7 0.242173 0.264595 0.833510
O O8 0.000000 0.265391 0.788005
O O9 0.500000 0.701163 0.303481
O O10 0.704734 0.500000 0.292294
O O11 0.500000 0.714142 0.867422
O O12 0.690199 0.500000 0.879180
O O13 0.722819 0.743109 0.919543
O O14 0.698976 0.301025 0.500000
O O15 0.500000 0.291921 0.562444
O O16 0.697872 0.500000 0.562537
O O17 0.000000 0.777317 0.940038
O O18 0.819059 0.000000 0.940795
O O19 0.792837 0.792837 0.000000
#
# Coordination Sequence:
#
# PCOD8309523 Si02
#       6
#     8   8   8   8   8   8
#     4  11  24  38  52  76 111 146 179 217 262 313
#     4   9  17  31  53  79 106 138 175 214 259 312
#     4  10  20  35  57  82 106 135 175 222 268 314
#     4  10  20  33  51  78 110 139 170 212 260 310
#     4   9  19  37  60  84 108 136 175 221 265 312
#     4   9  19  36  55  74  99 134 176 219 262 310
#
# _framework density 18.856791000000001
#
# number of rings (size 3 to 8) (size 9 to 14) (size 15 to 20)
#    0.000    2.333    0.000    3.500    0.000    9.333 
#    0.000    5.833    0.000    5.000    0.000    0.000 
#    0.000    0.000    0.000    0.000    0.000    0.000 
#
# Total GULP energy -595335.094546 kJ/mol
# GULP energy per Si atom -12402.814470 kJ/mol
# Density = 1.881387 g / cm^3
# Si number density = 18.856791 Si / 1000 Ang^3
#
#
#
# Elastic Constant Matrix: (Units=GPa)
#
#
# Indices 1 2 3 4 5 6 
#
# 1 82.9907 55.6431 60.6869 0.0000 0.0000 0.0000
# 2 55.6431 82.9908 60.6868 0.0000 0.0000 0.0000
# 3 60.6869 60.6868 128.2201 0.0000 0.0000 0.0000
# 4 0.0000 0.0000 0.0000 12.3024 0.0000 0.0000
# 5 0.0000 0.0000 0.0000 0.0000 12.3024 0.0000
# 6 0.0000 0.0000 0.0000 0.0000 0.0000 28.8951
#
#
#
# Elastic Compliance Matrix: (Units=1/GPa)
#
#
# Indices 1 2 3 4 5 6 
#
# 1 0.024442 -0.012125 -0.005830 0.000000 0.000000 0.000000
# 2 -0.012125 0.024442 -0.005830 0.000000 0.000000 0.000000
# 3 -0.005830 -0.005830 0.013318 0.000000 0.000000 0.000000
# 4 0.000000 0.000000 0.000000 0.081285 0.000000 0.000000
# 5 0.000000 0.000000 0.000000 0.000000 0.081285 0.000000
# 6 0.000000 0.000000 0.000000 0.000000 0.000000 0.034608
#
#
# Mechanical properties :
#
#
# Convention : Reuss Voigt Hill
#
# Bulk Modulus (GPa) = 68.33907 72.02614 70.18260
# Shear Modulus (GPa) = 16.03465 18.51229 17.27347
#
# Velocity S-wave (km/s) = 2.91922 3.13666 3.02989
# Velocity P-wave (km/s) = 6.90523 7.16920 7.03845
#
# Compressibility (1/GPa) = 0.01463292
#
# Stress axis : x y z
#
# Youngs Moduli (GPa) = 40.91361 40.91369 75.08890
#
# Poissons Ratio (x) = 0.49606 0.43775
# Poissons Ratio (y) = 0.49606 0.43775
# Poissons Ratio (z) = 0.23852 0.23852
#
# Static dielectric constant tensor:
#      x y z
#    x 3.372740 0.000000 0.000000 
#    y 0.000000 3.372740 0.000000 
#    z 0.000000 0.000000 3.563680 
# 
# 
# High freq. dielectric constant tensor:
#      x y z
#    x 1.723540 0.000000 0.000000 
#    y 0.000000 1.723540 0.000000 
#    z 0.000000 0.000000 1.747630 
# 
# From -- ./inp_files/6112.got.cif
#   From: 2010.03.12/outbox.cif.g09.slc.cpg/sg115_4_cif.got.tgz:6112.got - 2010.04.14 02:11:21.
