data_PCOD8309562
_publ_section_title
;
Structure prediction by ZEFSAII (Michael W. Deem and Ramdas Pophale) SiO2 
 PCOD8309562
Probable space group: P -4 M 2
;
_chemical_formula_sum "Si O2"
_cell_formula_units_Z 44
_cell_length_a 9.185848
_cell_length_b 9.185848
_cell_length_c 28.522943
_cell_angle_alpha 90.000000
_cell_angle_beta 90.000000
_cell_angle_gamma 90.000000
_cell_volume 2406.760325
_symmetry_space_group_name_H-M "P -4 M 2"
_symmetry_group_IT_number 115
_symmetry_cell_setting 'tetragonal'
loop_
_space_group_symop_operation_xyz
x,y,z
y,-x,-z
-x,-y,z
-y,x,-z
y,x,-z
-y,-x,-z
-x,y,z
x,-y,z
loop_
_atom_site_type_symbol
_atom_site_label
_atom_site_fract_x
_atom_site_fract_y
_atom_site_fract_z
Si Si1 0.669167 0.829678 0.225305
Si Si2 0.169179 0.328720 0.958575
Si Si3 0.673224 0.664265 0.316931
Si Si4 0.831792 0.329419 0.592326
Si Si5 0.164075 0.172837 0.134046
Si Si6 0.169013 0.830988 0.500000
O O1 0.500000 0.796084 0.216277
O O2 0.730353 0.747238 0.270907
O O3 0.757746 0.768632 0.180811
O O4 0.695359 0.000000 0.233445
O O5 0.194468 0.500000 0.953963
O O6 0.226111 0.253937 0.910998
O O7 0.000000 0.291863 0.968072
O O8 0.265960 0.265960 0.000000
O O9 0.500000 0.669621 0.317427
O O10 0.732427 0.500000 0.316113
O O11 0.733213 0.743232 0.363400
O O12 0.807046 0.500000 0.586072
O O13 0.771977 0.252883 0.545551
O O14 0.000000 0.290942 0.600930
O O15 0.000000 0.234960 0.131454
O O16 0.163309 0.000000 0.135372
O O17 0.000000 0.798539 0.492040
#
# Coordination Sequence:
#
# PCOD8309562 Si02
#       6
#     8   8   8   8   8   4
#     4   9  16  28  48  71  94 123 160 198 234 277
#     4  10  20  34  53  77 104 134 169 208 250 296
#     4   9  17  29  46  69  95 122 154 192 233 277
#     4   9  17  30  48  68  90 119 155 191 227 272
#     4   9  17  30  50  75 100 127 162 203 244 287
#     4   9  18  32  48  67  92 120 150 187 232 278
#
# _framework density 18.281836999999999
#
# number of rings (size 3 to 8) (size 9 to 14) (size 15 to 20)
#    0.000    2.818    0.000    1.636    0.000    6.182 
#    0.000    1.818    0.000    9.273    0.000    0.000 
#    0.000    0.000    0.000    0.000    0.000    0.000 
#
# Total GULP energy -545625.284980 kJ/mol
# GULP energy per Si atom -12400.574659 kJ/mol
# Density = 1.824023 g / cm^3
# Si number density = 18.281837 Si / 1000 Ang^3
#
#
#
# Elastic Constant Matrix: (Units=GPa)
#
#
# Indices 1 2 3 4 5 6 
#
# 1 69.3122 34.4808 68.9402 0.0000 0.0000 0.0000
# 2 34.4808 69.3125 68.9401 0.0000 0.0000 0.0000
# 3 68.9402 68.9401 205.9570 0.0000 0.0000 0.0000
# 4 0.0000 0.0000 0.0000 28.3667 0.0000 0.0000
# 5 0.0000 0.0000 0.0000 0.0000 28.3668 0.0000
# 6 0.0000 0.0000 0.0000 0.0000 0.0000 15.1884
#
#
#
# Elastic Compliance Matrix: (Units=1/GPa)
#
#
# Indices 1 2 3 4 5 6 
#
# 1 0.023029 -0.005680 -0.005807 0.000000 0.000000 0.000000
# 2 -0.005680 0.023029 -0.005807 0.000000 0.000000 0.000000
# 3 -0.005807 -0.005807 0.008743 0.000000 0.000000 0.000000
# 4 0.000000 0.000000 0.000000 0.035253 0.000000 0.000000
# 5 0.000000 0.000000 0.000000 0.000000 0.035252 0.000000
# 6 0.000000 0.000000 0.000000 0.000000 0.000000 0.065840
#
#
# Mechanical properties :
#
#
# Convention : Reuss Voigt Hill
#
# Bulk Modulus (GPa) = 49.47533 76.58933 63.03233
# Shear Modulus (GPa) = 21.50784 25.86575 23.68680
#
# Velocity S-wave (km/s) = 3.43368 3.76551 3.60341
# Velocity P-wave (km/s) = 6.54534 7.80321 7.20179
#
# Compressibility (1/GPa) = 0.02021209
#
# Stress axis : x y z
#
# Youngs Moduli (GPa) = 43.42284 43.42319 114.37585
#
# Poissons Ratio (x) = 0.24666 0.66421
# Poissons Ratio (y) = 0.24665 0.66420
# Poissons Ratio (z) = 0.25217 0.25217
#
# Static dielectric constant tensor:
#      x y z
#    x 3.198310 0.000000 0.000000 
#    y 0.000000 3.198300 0.000000 
#    z 0.000000 0.000000 3.644930 
# 
# 
# High freq. dielectric constant tensor:
#      x y z
#    x 1.684720 0.000000 0.000000 
#    y 0.000000 1.684720 0.000000 
#    z 0.000000 0.000000 1.726340 
# 
# From -- ./inp_files/5720.got.cif
#   From: 2010.03.12/outbox.cif.g09.slc.cpg/sg115_3_cif.got.tgz:5720.got - 2010.04.14 02:11:21.
