data_PCOD8309348
_publ_section_title
;
Structure prediction by ZEFSAII (Michael W. Deem and Ramdas Pophale) SiO2 
 PCOD8309348
Probable space group: P -4 M 2
;
_chemical_formula_sum "Si O2"
_cell_formula_units_Z 40
_cell_length_a 8.072961
_cell_length_b 8.072961
_cell_length_c 29.182895
_cell_angle_alpha 90.000000
_cell_angle_beta 90.000000
_cell_angle_gamma 90.000000
_cell_volume 1901.928041
_symmetry_space_group_name_H-M "P -4 M 2"
_symmetry_group_IT_number 115
_symmetry_cell_setting 'tetragonal'
loop_
_space_group_symop_operation_xyz
x,y,z
y,-x,-z
-x,-y,z
-y,x,-z
y,x,-z
-y,-x,-z
-x,y,z
x,-y,z
loop_
_atom_site_type_symbol
_atom_site_label
_atom_site_fract_x
_atom_site_fract_y
_atom_site_fract_z
Si Si1 0.817503 0.696806 0.734552
Si Si2 0.180223 0.308131 0.545628
Si Si3 0.302640 0.500000 0.209680
Si Si4 0.500000 0.805395 0.894005
Si Si5 0.815994 0.194656 0.947688
Si Si6 0.302833 0.316252 0.360276
O O1 0.809505 0.500000 0.736045
O O2 0.666818 0.766315 0.765602
O O3 0.796729 0.757993 0.682004
O O4 0.000000 0.758104 0.751757
O O5 0.287495 0.287495 0.500000
O O6 0.164724 0.500000 0.556198
O O7 0.257828 0.224798 0.591174
O O8 0.000000 0.228940 0.537056
O O9 0.500000 0.500000 0.209582
O O10 0.232736 0.500000 0.159110
O O11 0.331180 0.728762 0.916220
O O12 0.500000 0.000000 0.903478
O O13 0.000000 0.270533 0.936099
O O14 0.828061 0.000000 0.939750
O O15 0.767089 0.232912 0.000000
O O16 0.500000 0.314892 0.363103
O O17 0.237377 0.500000 0.350458
#
# Coordination Sequence:
#
# PCOD8309348 Si02
#       6
#     8   8   4   4   8   8
#     4   9  16  28  48  72 101 138 175 216 270 328
#     4  10  20  32  47  70  99 129 164 206 256 317
#     4  10  20  34  48  72 110 138 172 222 272 317
#     4  10  20  34  54  78 106 144 184 222 272 329
#     4   8  15  31  54  77 103 137 179 225 270 322
#     4   9  15  26  47  74  99 125 164 214 265 316
#
# _framework density 21.031289000000001
#
# number of rings (size 3 to 8) (size 9 to 14) (size 15 to 20)
#    0.000    2.800    1.000    1.800    0.000    4.400 
#    1.800    0.000    0.000    1.200    0.000    0.000 
#    0.000    0.000    0.000    0.000    0.000    0.000 
#
# Total GULP energy -495594.106800 kJ/mol
# GULP energy per Si atom -12389.852670 kJ/mol
# Density = 2.098342 g / cm^3
# Si number density = 21.031289 Si / 1000 Ang^3
#
#
#
# Elastic Constant Matrix: (Units=GPa)
#
#
# Indices 1 2 3 4 5 6 
#
# 1 84.3774 23.1731 46.6727 0.0000 0.0000 0.0000
# 2 23.1731 84.3773 46.6726 0.0000 0.0000 0.0000
# 3 46.6727 46.6726 158.3155 0.0000 0.0000 0.0000
# 4 0.0000 0.0000 0.0000 12.4523 0.0000 0.0000
# 5 0.0000 0.0000 0.0000 0.0000 12.4523 0.0000
# 6 0.0000 0.0000 0.0000 0.0000 0.0000 4.3582
#
#
#
# Elastic Compliance Matrix: (Units=1/GPa)
#
#
# Indices 1 2 3 4 5 6 
#
# 1 0.014417 -0.001922 -0.003684 0.000000 0.000000 0.000000
# 2 -0.001922 0.014417 -0.003684 0.000000 0.000000 0.000000
# 3 -0.003684 -0.003684 0.008488 0.000000 0.000000 0.000000
# 4 0.000000 0.000000 0.000000 0.080306 0.000000 0.000000
# 5 0.000000 0.000000 0.000000 0.000000 0.080306 0.000000
# 6 0.000000 0.000000 0.000000 0.000000 0.000000 0.229454
#
#
# Mechanical properties :
#
#
# Convention : Reuss Voigt Hill
#
# Bulk Modulus (GPa) = 53.35039 62.23410 57.79225
# Shear Modulus (GPa) = 11.05668 19.88935 15.47302
#
# Velocity S-wave (km/s) = 2.29536 3.07856 2.71535
# Velocity P-wave (km/s) = 5.69624 6.50324 6.11307
#
# Compressibility (1/GPa) = 0.01874401
#
# Stress axis : x y z
#
# Youngs Moduli (GPa) = 69.36306 69.36293 117.80735
#
# Poissons Ratio (x) = 0.13330 0.43396
# Poissons Ratio (y) = 0.13330 0.43396
# Poissons Ratio (z) = 0.25551 0.25551
#
# Static dielectric constant tensor:
#      x y z
#    x 3.795030 0.000000 0.000000 
#    y 0.000000 3.795030 0.000000 
#    z 0.000000 0.000000 3.801370 
# 
# 
# High freq. dielectric constant tensor:
#      x y z
#    x 1.797120 0.000000 0.000000 
#    y 0.000000 1.797120 0.000000 
#    z 0.000000 0.000000 1.821990 
# 
# From -- ./inp_files/5553.got.cif
#   From: 2010.03.12/outbox.cif.g09.slc.cpg/sg115_3_cif.got.tgz:5553.got - 2010.04.14 02:11:21.
