data_PCOD8309496
_publ_section_title
;
Structure prediction by ZEFSAII (Michael W. Deem and Ramdas Pophale) SiO2 
 PCOD8309496
Probable space group: P -4 M 2
;
_chemical_formula_sum "Si O2"
_cell_formula_units_Z 40
_cell_length_a 9.125445
_cell_length_b 9.125445
_cell_length_c 25.809468
_cell_angle_alpha 90.000000
_cell_angle_beta 90.000000
_cell_angle_gamma 90.000000
_cell_volume 2149.251094
_symmetry_space_group_name_H-M "P -4 M 2"
_symmetry_group_IT_number 115
_symmetry_cell_setting 'tetragonal'
loop_
_space_group_symop_operation_xyz
x,y,z
y,-x,-z
-x,-y,z
-y,x,-z
y,x,-z
-y,-x,-z
-x,y,z
x,-y,z
loop_
_atom_site_type_symbol
_atom_site_label
_atom_site_fract_x
_atom_site_fract_y
_atom_site_fract_z
Si Si1 0.171458 0.330125 0.695490
Si Si2 0.334671 0.325559 0.798038
Si Si3 0.331975 0.827471 0.604000
Si Si4 0.329428 0.329428 0.000000
Si Si5 0.668753 0.331248 0.500000
Si Si6 0.674583 0.165334 0.102031
O O1 0.208470 0.500000 0.685813
O O2 0.251758 0.270536 0.746797
O O3 0.227129 0.238675 0.647085
O O4 0.000000 0.304460 0.703163
O O5 0.500000 0.264294 0.797346
O O6 0.334135 0.500000 0.800074
O O7 0.252123 0.262049 0.848444
O O8 0.500000 0.782039 0.615579
O O9 0.281633 0.765306 0.548668
O O10 0.311797 0.000000 0.603063
O O11 0.242859 0.269513 0.950193
O O12 0.299356 0.500000 0.010005
O O13 0.500000 0.302779 0.485592
O O14 0.500000 0.167586 0.103524
O O15 0.734814 0.000000 0.103579
#
# Coordination Sequence:
#
# PCOD8309496 Si02
#       6
#     8   8   8   4   4   8
#     4  10  20  33  51  76 105 137 173 212 254 302
#     4   9  16  27  46  72 100 129 163 206 254 300
#     4  10  21  36  54  77 105 136 170 209 254 304
#     4   9  16  26  42  65  92 122 156 193 236 288
#     4   9  18  34  56  79 104 136 174 215 256 299
#     4   9  16  26  42  66  96 126 157 198 246 293
#
# _framework density 18.611134
#
# number of rings (size 3 to 8) (size 9 to 14) (size 15 to 20)
#    0.000    2.600    0.000    2.400    0.000    8.000 
#    0.000    2.000    0.000    1.500    0.000    2.800 
#    0.000    0.000    0.000    0.000    0.000    0.000 
#
# Total GULP energy -496074.455117 kJ/mol
# GULP energy per Si atom -12401.861378 kJ/mol
# Density = 1.856877 g / cm^3
# Si number density = 18.611134 Si / 1000 Ang^3
#
#
#
# Elastic Constant Matrix: (Units=GPa)
#
#
# Indices 1 2 3 4 5 6 
#
# 1 78.5995 36.1661 67.5154 0.0000 0.0000 0.0000
# 2 36.1661 78.5997 67.5151 0.0000 0.0000 0.0000
# 3 67.5154 67.5151 176.8651 0.0000 0.0000 0.0000
# 4 0.0000 0.0000 0.0000 3.9103 0.0000 0.0000
# 5 0.0000 0.0000 0.0000 0.0000 3.9103 0.0000
# 6 0.0000 0.0000 0.0000 0.0000 0.0000 16.0984
#
#
#
# Elastic Compliance Matrix: (Units=1/GPa)
#
#
# Indices 1 2 3 4 5 6 
#
# 1 0.019692 -0.003874 -0.006038 0.000000 0.000000 0.000000
# 2 -0.003874 0.019692 -0.006038 0.000000 0.000000 0.000000
# 3 -0.006038 -0.006038 0.010264 0.000000 0.000000 0.000000
# 4 0.000000 0.000000 0.000000 0.255737 0.000000 0.000000
# 5 0.000000 0.000000 0.000000 0.000000 0.255733 0.000000
# 6 0.000000 0.000000 0.000000 0.000000 0.000000 0.062118
#
#
# Mechanical properties :
#
#
# Convention : Reuss Voigt Hill
#
# Bulk Modulus (GPa) = 56.34805 75.16193 65.75499
# Shear Modulus (GPa) = 7.56370 15.64165 11.60267
#
# Velocity S-wave (km/s) = 2.01814 2.90219 2.49956
# Velocity P-wave (km/s) = 5.98104 7.19051 6.61348
#
# Compressibility (1/GPa) = 0.01774684
#
# Stress axis : x y z
#
# Youngs Moduli (GPa) = 50.78178 50.78213 97.42824
#
# Poissons Ratio (x) = 0.19674 0.58829
# Poissons Ratio (y) = 0.19674 0.58828
# Poissons Ratio (z) = 0.30663 0.30663
#
# Static dielectric constant tensor:
#      x y z
#    x 3.230310 0.000000 0.000000 
#    y 0.000000 3.230310 0.000000 
#    z 0.000000 0.000000 3.597910 
# 
# 
# High freq. dielectric constant tensor:
#      x y z
#    x 1.698960 0.000000 0.000000 
#    y 0.000000 1.698960 0.000000 
#    z 0.000000 0.000000 1.739260 
# 
# From -- ./inp_files/5511.got.cif
#   From: 2010.03.12/outbox.cif.g09.slc.cpg/sg115_3_cif.got.tgz:5511.got - 2010.04.14 02:11:21.
