data_PCOD8309921
_publ_section_title
;
Structure prediction by ZEFSAII (Michael W. Deem and Ramdas Pophale) SiO2 
 PCOD8309921
Probable space group: P -4 M 2
;
_chemical_formula_sum "Si O2"
_cell_formula_units_Z 44
_cell_length_a 9.122819
_cell_length_b 9.122819
_cell_length_c 27.907655
_cell_angle_alpha 90.000000
_cell_angle_beta 90.000000
_cell_angle_gamma 90.000000
_cell_volume 2322.637653
_symmetry_space_group_name_H-M "P -4 M 2"
_symmetry_group_IT_number 115
_symmetry_cell_setting 'tetragonal'
loop_
_space_group_symop_operation_xyz
x,y,z
y,-x,-z
-x,-y,z
-y,x,-z
y,x,-z
-y,-x,-z
-x,y,z
x,-y,z
loop_
_atom_site_type_symbol
_atom_site_label
_atom_site_fract_x
_atom_site_fract_y
_atom_site_fract_z
Si Si1 0.330597 0.672118 0.914445
Si Si2 0.669548 0.831568 0.817962
Si Si3 0.830481 0.832251 0.444706
Si Si4 0.828306 0.169396 0.722271
Si Si5 0.828928 0.828928 0.000000
Si Si6 0.327397 0.667906 0.363114
O O1 0.500000 0.710165 0.925452
O O2 0.302560 0.500000 0.915486
O O3 0.283687 0.732770 0.862766
O O4 0.229178 0.747063 0.953454
O O5 0.500000 0.809712 0.805072
O O6 0.761899 0.776895 0.772572
O O7 0.704969 0.000000 0.830703
O O8 0.797944 0.797944 0.500000
O O9 0.732058 0.724392 0.413720
O O10 0.000000 0.804123 0.432540
O O11 0.789828 0.000000 0.432628
O O12 0.761919 0.262867 0.679781
O O13 0.000000 0.196890 0.723816
O O14 0.788944 0.000000 0.713301
O O15 0.000000 0.796010 0.005751
O O16 0.500000 0.686939 0.363017
O O17 0.279871 0.500000 0.356400
#
# Coordination Sequence:
#
# PCOD8309921 Si02
#       6
#     8   8   8   8   4   8
#     4  10  21  37  58  84 113 145 181 222 270 325
#     4   9  18  34  56  81 111 147 183 220 266 321
#     4   9  19  37  60  84 109 139 178 223 270 323
#     4  10  21  37  58  83 110 142 182 227 272 321
#     4  11  24  39  56  80 110 145 186 231 274 318
#     4  11  24  38  53  78 112 147 183 225 271 320
#
# _framework density 18.943978000000001
#
# number of rings (size 3 to 8) (size 9 to 14) (size 15 to 20)
#    0.000    2.091    0.000    3.273    0.000   10.182 
#    0.000    6.364    0.000    0.000    0.000    0.000 
#    0.000    0.000    0.000    0.000    0.000    0.000 
#
# Total GULP energy -545811.023619 kJ/mol
# GULP energy per Si atom -12404.795991 kJ/mol
# Density = 1.890086 g / cm^3
# Si number density = 18.943978 Si / 1000 Ang^3
#
#
#
# Elastic Constant Matrix: (Units=GPa)
#
#
# Indices 1 2 3 4 5 6 
#
# 1 76.7197 47.9762 61.6600 0.0000 0.0000 0.0000
# 2 47.9762 76.7197 61.6600 0.0000 0.0000 0.0000
# 3 61.6600 61.6600 132.3754 0.0000 0.0000 0.0000
# 4 0.0000 0.0000 0.0000 48.1271 0.0000 0.0000
# 5 0.0000 0.0000 0.0000 0.0000 48.1271 0.0000
# 6 0.0000 0.0000 0.0000 0.0000 0.0000 30.3583
#
#
#
# Elastic Compliance Matrix: (Units=1/GPa)
#
#
# Indices 1 2 3 4 5 6 
#
# 1 0.024830 -0.009961 -0.006926 0.000000 0.000000 0.000000
# 2 -0.009961 0.024830 -0.006926 0.000000 0.000000 0.000000
# 3 -0.006926 -0.006926 0.014006 0.000000 0.000000 0.000000
# 4 0.000000 0.000000 0.000000 0.020778 0.000000 0.000000
# 5 0.000000 0.000000 0.000000 0.000000 0.020778 0.000000
# 6 0.000000 0.000000 0.000000 0.000000 0.000000 0.032940
#
#
# Mechanical properties :
#
#
# Convention : Reuss Voigt Hill
#
# Bulk Modulus (GPa) = 62.34134 69.82302 66.08218
# Shear Modulus (GPa) = 26.15958 32.95708 29.55833
#
# Velocity S-wave (km/s) = 3.72007 4.17551 3.95435
# Velocity P-wave (km/s) = 7.17158 7.75785 7.47047
#
# Compressibility (1/GPa) = 0.01604072
#
# Stress axis : x y z
#
# Youngs Moduli (GPa) = 40.27428 40.27428 71.39574
#
# Poissons Ratio (x) = 0.40116 0.49448
# Poissons Ratio (y) = 0.40116 0.49448
# Poissons Ratio (z) = 0.27894 0.27894
#
# Static dielectric constant tensor:
#      x y z
#    x 3.489860 0.000000 0.000000 
#    y 0.000000 3.489860 0.000000 
#    z 0.000000 0.000000 3.572410 
# 
# 
# High freq. dielectric constant tensor:
#      x y z
#    x 1.736790 0.000000 0.000000 
#    y 0.000000 1.736790 0.000000 
#    z 0.000000 0.000000 1.750160 
# 
# From -- ./inp_files/5834.got.cif
#   From: 2010.03.12/outbox.cif.g09.slc.cpg/sg115_3_cif.got.tgz:5834.got - 2010.04.14 02:11:21.
