data_PCOD8309589
_publ_section_title
;
Structure prediction by ZEFSAII (Michael W. Deem and Ramdas Pophale) SiO2 
 PCOD8309589
Probable space group: P -4 M 2
;
_chemical_formula_sum "Si O2"
_cell_formula_units_Z 44
_cell_length_a 9.090209
_cell_length_b 9.090209
_cell_length_c 28.770660
_cell_angle_alpha 90.000000
_cell_angle_beta 90.000000
_cell_angle_gamma 90.000000
_cell_volume 2377.374290
_symmetry_space_group_name_H-M "P -4 M 2"
_symmetry_group_IT_number 115
_symmetry_cell_setting 'tetragonal'
loop_
_space_group_symop_operation_xyz
x,y,z
y,-x,-z
-x,-y,z
-y,x,-z
y,x,-z
-y,-x,-z
-x,y,z
x,-y,z
loop_
_atom_site_type_symbol
_atom_site_label
_atom_site_fract_x
_atom_site_fract_y
_atom_site_fract_z
Si Si1 0.170681 0.829320 0.500000
Si Si2 0.175557 0.835845 0.050813
Si Si3 0.172646 0.829203 0.768681
Si Si4 0.174999 0.664581 0.139221
Si Si5 0.174469 0.828128 0.399375
Si Si6 0.672960 0.670115 0.315453
O O1 0.230839 0.768988 0.450449
O O2 0.000000 0.796841 0.500897
O O3 0.239419 0.732968 0.091589
O O4 0.000000 0.840157 0.051964
O O5 0.237477 0.000000 0.059077
O O6 0.225002 0.774999 0.000000
O O7 0.240589 0.771447 0.816951
O O8 0.239915 0.735805 0.727444
O O9 0.000000 0.802022 0.770679
O O10 0.210375 0.000000 0.760225
O O11 0.237080 0.500000 0.144491
O O12 0.000000 0.665003 0.136915
O O13 0.257618 0.729052 0.362663
O O14 0.000000 0.806442 0.394043
O O15 0.213743 0.000000 0.392104
O O16 0.500000 0.694652 0.317718
O O17 0.715105 0.500000 0.309308
#
# Coordination Sequence:
#
# PCOD8309589 Si02
#       6
#     4   8   8   8   8   8
#     4   7  12  26  50  79 106 128 156 201 250 291
#     4   8  13  22  38  61  89 121 157 196 236 279
#     4  10  20  34  54  78 100 125 163 210 256 302
#     4   9  16  26  43  69  99 127 156 196 246 295
#     4   9  17  32  56  82 104 129 165 207 249 293
#     4  11  24  38  50  69 101 138 171 204 247 298
#
# _framework density 18.507812999999999
#
# number of rings (size 3 to 8) (size 9 to 14) (size 15 to 20)
#    0.000    2.818    0.000    3.818    0.000    7.273 
#    0.000    0.909    0.000    5.455    0.000    2.545 
#    0.000    0.000    0.000    0.000    0.000    0.000 
#
# Total GULP energy -545290.259725 kJ/mol
# GULP energy per Si atom -12392.960448 kJ/mol
# Density = 1.846569 g / cm^3
# Si number density = 18.507813 Si / 1000 Ang^3
#
#
#
# Elastic Constant Matrix: (Units=GPa)
#
#
# Indices 1 2 3 4 5 6 
#
# 1 61.9857 30.0312 49.2802 0.0000 0.0000 0.0000
# 2 30.0312 61.9861 49.2802 0.0000 0.0000 0.0000
# 3 49.2802 49.2802 180.3434 0.0000 0.0000 0.0000
# 4 0.0000 0.0000 0.0000 -5.7253 0.0000 0.0000
# 5 0.0000 0.0000 0.0000 0.0000 -5.7251 0.0000
# 6 0.0000 0.0000 0.0000 0.0000 0.0000 19.8747
#
#
#
# Elastic Compliance Matrix: (Units=1/GPa)
#
#
# Indices 1 2 3 4 5 6 
#
# 1 0.023330 -0.007965 -0.004199 0.000000 0.000000 0.000000
# 2 -0.007965 0.023329 -0.004198 0.000000 0.000000 0.000000
# 3 -0.004199 -0.004198 0.007840 0.000000 0.000000 0.000000
# 4 0.000000 0.000000 0.000000 -0.174665 0.000000 0.000000
# 5 0.000000 0.000000 0.000000 0.000000 -0.174668 0.000000
# 6 0.000000 0.000000 0.000000 0.000000 0.000000 0.050315
#
#
# Mechanical properties :
#
#
# Convention : Reuss Voigt Hill
#
# Bulk Modulus (GPa) = 45.92479 62.38869 54.15674
# Shear Modulus (GPa) = -24.44539 13.39978 -5.52280
#
# Velocity S-wave (km/s) = -3.63824 2.69366 -1.72931
# Velocity P-wave (km/s) = 2.68673 6.59219 5.03366
#
# Compressibility (1/GPa) = 0.02177473
#
# Stress axis : x y z
#
# Youngs Moduli (GPa) = 42.86412 42.86450 127.55893
#
# Poissons Ratio (x) = 0.34141 0.53556
# Poissons Ratio (y) = 0.34141 0.53555
# Poissons Ratio (z) = 0.17997 0.17996
#
# Static dielectric constant tensor:
#      x y z
#    x 3.170220 0.000000 0.000000 
#    y 0.000000 3.170220 0.000000 
#    z 0.000000 0.000000 3.889230 
# 
# 
# High freq. dielectric constant tensor:
#      x y z
#    x 1.685270 0.000000 0.000000 
#    y 0.000000 1.685270 0.000000 
#    z 0.000000 0.000000 1.746170 
# 
# From -- ./inp_files/5676.got.cif
#   From: 2010.03.12/outbox.cif.g09.slc.cpg/sg115_3_cif.got.tgz:5676.got - 2010.04.14 02:11:21.
