data_PCOD8309674
_publ_section_title
;
Structure prediction by ZEFSAII (Michael W. Deem and Ramdas Pophale) SiO2 
 PCOD8309674
Probable space group: P -4 M 2
;
_chemical_formula_sum "Si O2"
_cell_formula_units_Z 44
_cell_length_a 9.172650
_cell_length_b 9.172650
_cell_length_c 28.581366
_cell_angle_alpha 90.000000
_cell_angle_beta 90.000000
_cell_angle_gamma 90.000000
_cell_volume 2404.764911
_symmetry_space_group_name_H-M "P -4 M 2"
_symmetry_group_IT_number 115
_symmetry_cell_setting 'tetragonal'
loop_
_space_group_symop_operation_xyz
x,y,z
y,-x,-z
-x,-y,z
-y,x,-z
y,x,-z
-y,-x,-z
-x,y,z
x,-y,z
loop_
_atom_site_type_symbol
_atom_site_label
_atom_site_fract_x
_atom_site_fract_y
_atom_site_fract_z
Si Si1 0.171167 0.171167 0.500000
Si Si2 0.328096 0.332722 0.232886
Si Si3 0.163128 0.673339 0.143060
Si Si4 0.672938 0.163971 0.322971
Si Si5 0.328296 0.165654 0.959790
Si Si6 0.329838 0.328304 0.416109
O O1 0.231786 0.254452 0.455209
O O2 0.000000 0.203144 0.505238
O O3 0.500000 0.319375 0.229665
O O4 0.279750 0.500000 0.240481
O O5 0.264683 0.266631 0.184637
O O6 0.264981 0.239340 0.276100
O O7 0.164314 0.500000 0.143381
O O8 0.218629 0.725965 0.091803
O O9 0.000000 0.731486 0.151812
O O10 0.500000 0.159960 0.320312
O O11 0.721888 0.259738 0.367154
O O12 0.736013 0.000000 0.327353
O O13 0.500000 0.179632 0.962970
O O14 0.277996 0.000000 0.967548
O O15 0.263565 0.263565 0.000000
O O16 0.500000 0.295973 0.426263
O O17 0.299725 0.500000 0.414856
#
# Coordination Sequence:
#
# PCOD8309674 Si02
#       6
#     4   8   8   8   8   8
#     4  11  24  39  54  76 108 141 170 205 252 300
#     4   9  16  27  46  71  95 121 159 203 241 283
#     4   8  15  29  47  66  91 123 157 195 241 292
#     4   9  17  30  49  73 102 134 164 199 247 295
#     4   9  18  32  49  70  96 126 162 204 249 298
#     4  10  20  35  57  82 104 131 172 214 248 291
#
# _framework density 18.297008999999999
#
# number of rings (size 3 to 8) (size 9 to 14) (size 15 to 20)
#    0.000    2.818    0.000    2.727    0.000    6.182 
#    0.000    3.636    0.000    7.091    0.000    0.000 
#    0.000    0.000    0.000    0.000    0.000    0.000 
#
# Total GULP energy -545430.672210 kJ/mol
# GULP energy per Si atom -12396.151641 kJ/mol
# Density = 1.825536 g / cm^3
# Si number density = 18.297009 Si / 1000 Ang^3
#
#
#
# Elastic Constant Matrix: (Units=GPa)
#
#
# Indices 1 2 3 4 5 6 
#
# 1 48.7945 22.0427 38.8455 0.0000 0.0000 0.0000
# 2 22.0427 48.7945 38.8455 0.0000 0.0000 0.0000
# 3 38.8455 38.8455 152.4215 0.0000 0.0000 0.0000
# 4 0.0000 0.0000 0.0000 -4.4278 0.0000 0.0000
# 5 0.0000 0.0000 0.0000 0.0000 -4.4278 0.0000
# 6 0.0000 0.0000 0.0000 0.0000 0.0000 18.0718
#
#
#
# Elastic Compliance Matrix: (Units=1/GPa)
#
#
# Indices 1 2 3 4 5 6 
#
# 1 0.028487 -0.008894 -0.004994 0.000000 0.000000 0.000000
# 2 -0.008894 0.028487 -0.004994 0.000000 0.000000 0.000000
# 3 -0.004994 -0.004994 0.009106 0.000000 0.000000 0.000000
# 4 0.000000 0.000000 0.000000 -0.225844 0.000000 0.000000
# 5 0.000000 0.000000 0.000000 0.000000 -0.225844 0.000000
# 6 0.000000 0.000000 0.000000 0.000000 0.000000 0.055335
#
#
# Mechanical properties :
#
#
# Convention : Reuss Voigt Hill
#
# Bulk Modulus (GPa) = 35.31199 49.94199 42.62699
# Shear Modulus (GPa) = -17.66333 11.86167 -2.90083
#
# Velocity S-wave (km/s) = -3.11041 2.54891 -1.26050
# Velocity P-wave (km/s) = 2.53805 6.00142 4.60753
#
# Compressibility (1/GPa) = 0.02831899
#
# Stress axis : x y z
#
# Youngs Moduli (GPa) = 35.10356 35.10356 109.81755
#
# Poissons Ratio (x) = 0.31220 0.54838
# Poissons Ratio (y) = 0.31220 0.54838
# Poissons Ratio (z) = 0.17529 0.17529
#
# Static dielectric constant tensor:
#      x y z
#    x 3.244300 0.000000 0.000000 
#    y 0.000000 3.244300 0.000000 
#    z 0.000000 0.000000 3.808400 
# 
# 
# High freq. dielectric constant tensor:
#      x y z
#    x 1.686380 0.000000 0.000000 
#    y 0.000000 1.686380 0.000000 
#    z 0.000000 0.000000 1.730070 
# 
# From -- ./inp_files/5744.got.cif
#   From: 2010.03.12/outbox.cif.g09.slc.cpg/sg115_3_cif.got.tgz:5744.got - 2010.04.14 02:11:21.
