data_PCOD8309191
_publ_section_title
;
Structure prediction by ZEFSAII (Michael W. Deem and Ramdas Pophale) SiO2 
 PCOD8309191
Probable space group: P -4 M 2
;
_chemical_formula_sum "Si O2"
_cell_formula_units_Z 56
_cell_length_a 14.160702
_cell_length_b 14.160702
_cell_length_c 17.547503
_cell_angle_alpha 90.000000
_cell_angle_beta 90.000000
_cell_angle_gamma 90.000000
_cell_volume 3518.721482
_symmetry_space_group_name_H-M "P -4 M 2"
_symmetry_group_IT_number 115
_symmetry_cell_setting 'tetragonal'
loop_
_space_group_symop_operation_xyz
x,y,z
y,-x,-z
-x,-y,z
-y,x,-z
y,x,-z
-y,-x,-z
-x,y,z
x,-y,z
loop_
_atom_site_type_symbol
_atom_site_label
_atom_site_fract_x
_atom_site_fract_y
_atom_site_fract_z
Si Si1 0.891628 0.246808 0.708570
Si Si2 0.392779 0.891617 0.875093
Si Si3 0.888576 0.395481 0.407893
Si Si4 0.272190 0.888457 0.731999
Si Si5 0.108101 0.609803 0.840516
Si Si6 0.390049 0.236940 0.017659
Si Si7 0.109529 0.746559 0.534071
O O1 0.831025 0.156740 0.733326
O O2 0.867975 0.335045 0.762867
O O3 0.867037 0.275018 0.621894
O O4 0.000000 0.215741 0.716464
O O5 0.500000 0.875769 0.847823
O O6 0.325854 0.856349 0.807824
O O7 0.368657 0.834773 0.950193
O O8 0.373946 0.000000 0.895077
O O9 0.842824 0.500000 0.405588
O O10 0.848325 0.332118 0.339114
O O11 0.861599 0.347506 0.488027
O O12 0.000000 0.404219 0.397802
O O13 0.259090 0.000000 0.726788
O O14 0.120696 0.500000 0.821930
O O15 0.000000 0.630325 0.867359
O O16 0.182506 0.641420 0.905446
O O17 0.500000 0.265568 0.021617
O O18 0.331194 0.331194 0.000000
O O19 0.164425 0.835576 0.500000
O O20 0.000000 0.770934 0.521757
#
# Coordination Sequence:
#
# PCOD8309191 Si02
#       7
#     8   8   8   8   8   8   8
#     4  10  20  31  46  67  93 125 158 190 224 270
#     4   9  17  29  47  70  91 115 150 191 233 273
#     4   9  17  29  45  64  87 116 148 186 232 273
#     4  10  18  29  45  66  95 124 150 184 225 273
#     4   9  18  33  51  70  93 123 158 197 239 277
#     4  10  19  31  48  69  95 124 154 190 233 281
#     4  10  19  31  45  65  93 123 155 190 226 274
#
# _framework density 15.914872000000001
#
# number of rings (size 3 to 8) (size 9 to 14) (size 15 to 20)
#    0.000    2.429    1.429    1.714    0.000    4.571 
#    0.000    4.286    0.000    0.000    0.000    0.000 
#    0.000   11.714    0.000    0.000    0.000    0.000 
#
# Total GULP energy -694326.491273 kJ/mol
# GULP energy per Si atom -12398.687344 kJ/mol
# Density = 1.587865 g / cm^3
# Si number density = 15.914872 Si / 1000 Ang^3
#
#
#
# Elastic Constant Matrix: (Units=GPa)
#
#
# Indices 1 2 3 4 5 6 
#
# 1 72.8482 48.3999 56.1931 0.0000 0.0000 0.0000
# 2 48.3999 72.8463 56.1932 0.0000 0.0000 0.0000
# 3 56.1931 56.1932 134.5129 0.0000 0.0000 0.0000
# 4 0.0000 0.0000 0.0000 23.9698 0.0000 0.0000
# 5 0.0000 0.0000 0.0000 0.0000 23.9700 0.0000
# 6 0.0000 0.0000 0.0000 0.0000 0.0000 22.9893
#
#
#
# Elastic Compliance Matrix: (Units=1/GPa)
#
#
# Indices 1 2 3 4 5 6 
#
# 1 0.027181 -0.013722 -0.005622 0.000000 0.000000 0.000000
# 2 -0.013722 0.027182 -0.005623 0.000000 0.000000 0.000000
# 3 -0.005622 -0.005623 0.012132 0.000000 0.000000 0.000000
# 4 0.000000 0.000000 0.000000 0.041719 0.000000 0.000000
# 5 0.000000 0.000000 0.000000 0.000000 0.041719 0.000000
# 6 0.000000 0.000000 0.000000 0.000000 0.000000 0.043499
#
#
# Mechanical properties :
#
#
# Convention : Reuss Voigt Hill
#
# Bulk Modulus (GPa) = 60.38640 66.86443 63.62541
# Shear Modulus (GPa) = 20.08936 22.14723 21.11830
#
# Velocity S-wave (km/s) = 3.55674 3.73447 3.64669
# Velocity P-wave (km/s) = 7.40898 7.79102 7.60240
#
# Compressibility (1/GPa) = 0.01656002
#
# Stress axis : x y z
#
# Youngs Moduli (GPa) = 36.78995 36.78857 82.42641
#
# Poissons Ratio (x) = 0.50483 0.46344
# Poissons Ratio (y) = 0.50485 0.46348
# Poissons Ratio (z) = 0.20685 0.20686
#
# Static dielectric constant tensor:
#      x y z
#    x 2.948050 0.000000 0.000000 
#    y 0.000000 2.948050 0.000000 
#    z 0.000000 0.000000 3.213150 
# 
# 
# High freq. dielectric constant tensor:
#      x y z
#    x 1.596470 0.000000 0.000000 
#    y 0.000000 1.596480 0.000000 
#    z 0.000000 0.000000 1.626000 
# 
# From -- ./inp_files/3790.got.cif
#   From: 2010.03.12/outbox.cif.g09.slc.cpg/sg115_2_cif.got.tgz:3790.got - 2010.04.14 02:11:21.
