data_PCOD8309607
_publ_section_title
;
Structure prediction by ZEFSAII (Michael W. Deem and Ramdas Pophale) SiO2 
 PCOD8309607
Probable space group: P -4 M 2
;
_chemical_formula_sum "Si O2"
_cell_formula_units_Z 44
_cell_length_a 9.093880
_cell_length_b 9.093880
_cell_length_c 28.676580
_cell_angle_alpha 90.000000
_cell_angle_beta 90.000000
_cell_angle_gamma 90.000000
_cell_volume 2371.514552
_symmetry_space_group_name_H-M "P -4 M 2"
_symmetry_group_IT_number 115
_symmetry_cell_setting 'tetragonal'
loop_
_space_group_symop_operation_xyz
x,y,z
y,-x,-z
-x,-y,z
-y,x,-z
y,x,-z
-y,-x,-z
-x,y,z
x,-y,z
loop_
_atom_site_type_symbol
_atom_site_label
_atom_site_fract_x
_atom_site_fract_y
_atom_site_fract_z
Si Si1 0.673174 0.329191 0.584447
Si Si2 0.828062 0.828062 0.500000
Si Si3 0.824554 0.163936 0.949447
Si Si4 0.834644 0.325444 0.677952
Si Si5 0.675467 0.665960 0.231865
Si Si6 0.168374 0.326871 0.859086
O O1 0.500000 0.302659 0.586823
O O2 0.709426 0.500000 0.574276
O O3 0.741811 0.229357 0.544679
O O4 0.743052 0.275563 0.632940
O O5 0.000000 0.795849 0.506630
O O6 0.764979 0.262898 0.907076
O O7 0.000000 0.162270 0.950262
O O8 0.762793 0.000000 0.941610
O O9 0.772474 0.227527 0.000000
O O10 0.839058 0.500000 0.680914
O O11 0.755619 0.261581 0.723962
O O12 0.000000 0.261697 0.674953
O O13 0.500000 0.668843 0.232498
O O14 0.734966 0.500000 0.234560
O O15 0.735389 0.740011 0.184566
O O16 0.182518 0.500000 0.862361
O O17 0.000000 0.277471 0.851992
#
# Coordination Sequence:
#
# PCOD8309607 Si02
#       6
#     8   4   8   8   8   8
#     4  10  20  34  54  80 106 131 163 205 252 298
#     4  11  24  39  54  74 102 137 174 207 242 290
#     4   8  14  26  44  63  83 111 147 184 224 274
#     4   9  16  27  46  72 100 129 162 201 243 286
#     4   9  16  26  41  63  93 126 157 191 234 283
#     4   9  16  26  42  64  87 111 144 187 231 274
#
# _framework density 18.553543000000001
#
# number of rings (size 3 to 8) (size 9 to 14) (size 15 to 20)
#    0.000    2.818    0.000    2.727    0.000    7.273 
#    0.000    0.909    0.000    2.727    0.000    2.545 
#    0.000    0.000    0.000    0.000    0.000    0.000 
#
# Total GULP energy -545489.094202 kJ/mol
# GULP energy per Si atom -12397.479414 kJ/mol
# Density = 1.851131 g / cm^3
# Si number density = 18.553543 Si / 1000 Ang^3
#
#
#
# Elastic Constant Matrix: (Units=GPa)
#
#
# Indices 1 2 3 4 5 6 
#
# 1 67.6607 30.5643 56.2054 0.0000 0.0000 0.0000
# 2 30.5643 67.6605 56.2054 0.0000 0.0000 0.0000
# 3 56.2054 56.2054 190.0247 0.0000 0.0000 0.0000
# 4 0.0000 0.0000 0.0000 15.4141 0.0000 0.0000
# 5 0.0000 0.0000 0.0000 0.0000 15.4135 0.0000
# 6 0.0000 0.0000 0.0000 0.0000 0.0000 14.3997
#
#
#
# Elastic Compliance Matrix: (Units=1/GPa)
#
#
# Indices 1 2 3 4 5 6 
#
# 1 0.021174 -0.005783 -0.004552 0.000000 0.000000 0.000000
# 2 -0.005783 0.021174 -0.004552 0.000000 0.000000 0.000000
# 3 -0.004552 -0.004552 0.007955 0.000000 0.000000 0.000000
# 4 0.000000 0.000000 0.000000 0.064876 0.000000 0.000000
# 5 0.000000 0.000000 0.000000 0.000000 0.064878 0.000000
# 6 0.000000 0.000000 0.000000 0.000000 0.000000 0.069446
#
#
# Mechanical properties :
#
#
# Convention : Reuss Voigt Hill
#
# Bulk Modulus (GPa) = 48.71543 67.92181 58.31862
# Shear Modulus (GPa) = 17.47519 21.20351 19.33935
#
# Velocity S-wave (km/s) = 3.07233 3.38424 3.23205
# Velocity P-wave (km/s) = 6.23693 7.20825 6.74011
#
# Compressibility (1/GPa) = 0.02052738
#
# Stress axis : x y z
#
# Youngs Moduli (GPa) = 47.22875 47.22864 125.70188
#
# Poissons Ratio (x) = 0.27314 0.57221
# Poissons Ratio (y) = 0.27314 0.57221
# Poissons Ratio (z) = 0.21499 0.21499
#
# Static dielectric constant tensor:
#      x y z
#    x 3.203500 0.000000 0.000000 
#    y 0.000000 3.203500 0.000000 
#    z 0.000000 0.000000 3.815600 
# 
# 
# High freq. dielectric constant tensor:
#      x y z
#    x 1.688650 0.000000 0.000000 
#    y 0.000000 1.688650 0.000000 
#    z 0.000000 0.000000 1.742330 
# 
# From -- ./inp_files/5738.got.cif
#   From: 2010.03.12/outbox.cif.g09.slc.cpg/sg115_3_cif.got.tgz:5738.got - 2010.04.14 02:11:21.
