data_PCOD8309056
_publ_section_title
;
Structure prediction by ZEFSAII (Michael W. Deem and Ramdas Pophale) SiO2 
 PCOD8309056
Probable space group: P -4 21 C
;
_chemical_formula_sum "Si O2"
_cell_formula_units_Z 32
_cell_length_a 8.785492
_cell_length_b 8.785492
_cell_length_c 17.310406
_cell_angle_alpha 90.000000
_cell_angle_beta 90.000000
_cell_angle_gamma 90.000000
_cell_volume 1336.101431
_symmetry_space_group_name_H-M "P -4 21 C"
_symmetry_group_IT_number 114
_symmetry_cell_setting 'tetragonal'
loop_
_space_group_symop_operation_xyz
x,y,z
y,-x,-z
-x,-y,z
-y,x,-z
1/2+x,1/2-y,1/2-z
1/2-x,1/2+y,1/2-z
1/2-y,1/2-x,1/2+z
1/2+y,1/2+x,1/2+z
loop_
_atom_site_type_symbol
_atom_site_label
_atom_site_fract_x
_atom_site_fract_y
_atom_site_fract_z
Si Si1 0.563397 0.735203 0.521861
Si Si2 0.211454 0.055833 0.460023
Si Si3 0.118406 0.621992 0.315054
Si Si4 0.889583 0.882481 0.297109
O O1 0.684305 0.598491 0.510893
O O2 0.618184 0.880128 0.471529
O O3 0.557633 0.792083 0.610477
O O4 0.182060 0.029255 0.369844
O O5 0.101770 0.185963 0.496167
O O6 0.249891 0.675155 0.255195
O O7 0.000000 0.500000 0.279343
O O8 0.002429 0.757413 0.332849
O O9 0.000000 0.000000 0.250476
#
# Coordination Sequence:
#
# PCOD8309056 Si02
#       4
#     8   8   8   8
#     4  11  26  43  69 100 143 192 246 304 365 442
#     4  11  21  44  69  97 132 182 244 300 361 441
#     4  12  27  47  71 108 149 193 245 315 383 457
#     4  12  25  45  72 102 145 190 243 307 379 457
#
# _framework density 23.950278999999998
#
# number of rings (size 3 to 8) (size 9 to 14) (size 15 to 20)
#    0.000    0.500    5.000    3.000    7.000    0.000 
#    0.000    0.000    0.000    0.000    0.000    0.000 
#    0.000    0.000    0.000    0.000    0.000    0.000 
#
# Total GULP energy -396514.911313 kJ/mol
# GULP energy per Si atom -12391.090979 kJ/mol
# Density = 2.389577 g / cm^3
# Si number density = 23.950279 Si / 1000 Ang^3
#
#
#
# Elastic Constant Matrix: (Units=GPa)
#
#
# Indices 1 2 3 4 5 6 
#
# 1 71.6324 27.9201 26.8365 0.0000 0.0000 0.0000
# 2 27.9201 71.6324 26.8365 0.0000 0.0000 0.0000
# 3 26.8365 26.8365 105.8676 0.0000 0.0000 0.0000
# 4 0.0000 0.0000 0.0000 30.1173 0.0000 0.0000
# 5 0.0000 0.0000 0.0000 0.0000 30.1173 0.0000
# 6 0.0000 0.0000 0.0000 0.0000 0.0000 59.1153
#
#
#
# Elastic Compliance Matrix: (Units=1/GPa)
#
#
# Indices 1 2 3 4 5 6 
#
# 1 0.017256 -0.005621 -0.002949 0.000000 0.000000 0.000000
# 2 -0.005621 0.017256 -0.002949 0.000000 0.000000 0.000000
# 3 -0.002949 -0.002949 0.010941 0.000000 0.000000 0.000000
# 4 0.000000 0.000000 0.000000 0.033203 0.000000 0.000000
# 5 0.000000 0.000000 0.000000 0.000000 0.033203 0.000000
# 6 0.000000 0.000000 0.000000 0.000000 0.000000 0.016916
#
#
# Mechanical properties :
#
#
# Convention : Reuss Voigt Hill
#
# Bulk Modulus (GPa) = 44.61562 45.81316 45.21439
# Shear Modulus (GPa) = 31.38996 35.03929 33.21462
#
# Velocity S-wave (km/s) = 3.62419 3.82907 3.72804
# Velocity P-wave (km/s) = 6.01514 6.22246 6.11968
#
# Compressibility (1/GPa) = 0.02241367
#
# Stress axis : x y z
#
# Youngs Moduli (GPa) = 57.95088 57.95088 91.39895
#
# Poissons Ratio (x) = 0.32574 0.26957
# Poissons Ratio (y) = 0.32574 0.26957
# Poissons Ratio (z) = 0.17092 0.17092
#
# Static dielectric constant tensor:
#      x y z
#    x 4.523590 0.000000 0.000000 
#    y 0.000000 4.523590 0.000000 
#    z 0.000000 0.000000 3.978310 
# 
# 
# High freq. dielectric constant tensor:
#      x y z
#    x 1.961790 0.000000 0.000000 
#    y 0.000000 1.961790 0.000000 
#    z 0.000000 0.000000 1.928380 
# 
# From -- ./inp_files/2838.got.cif
#   From: 2010.03.12/outbox.cif.g09.slc.cpg/sg114_2_cif.got.tgz:2838.got - 2010.04.14 02:08:34.
