data_PCOD8309717
_publ_section_title
;
Structure prediction by ZEFSAII (Michael W. Deem and Ramdas Pophale) SiO2 
 PCOD8309717
Probable space group: P -4 M 2
;
_chemical_formula_sum "Si O2"
_cell_formula_units_Z 36
_cell_length_a 14.256594
_cell_length_b 14.256594
_cell_length_c 9.156674
_cell_angle_alpha 90.000000
_cell_angle_beta 90.000000
_cell_angle_gamma 90.000000
_cell_volume 1861.098317
_symmetry_space_group_name_H-M "P -4 M 2"
_symmetry_group_IT_number 115
_symmetry_cell_setting 'tetragonal'
loop_
_space_group_symop_operation_xyz
x,y,z
y,-x,-z
-x,-y,z
-y,x,-z
y,x,-z
-y,-x,-z
-x,y,z
x,-y,z
loop_
_atom_site_type_symbol
_atom_site_label
_atom_site_fract_x
_atom_site_fract_y
_atom_site_fract_z
Si Si1 0.778754 0.761058 0.330664
Si Si2 0.897684 0.110600 0.841860
Si Si3 0.398213 0.601788 0.000000
Si Si4 0.109234 0.609121 0.162393
Si Si5 0.395335 0.206228 0.144239
O O1 0.756056 0.756056 0.500000
O O2 0.861389 0.833094 0.293170
O O3 0.817622 0.661813 0.269905
O O4 0.685347 0.808080 0.262262
O O5 0.000000 0.155097 0.815820
O O6 0.905247 0.000000 0.849300
O O7 0.855656 0.144345 0.000000
O O8 0.317439 0.609965 0.881596
O O9 0.500000 0.610445 0.920322
O O10 0.117166 0.500000 0.202166
O O11 0.000000 0.642689 0.177406
O O12 0.143977 0.627596 0.997655
O O13 0.500000 0.179635 0.202456
#
# Coordination Sequence:
#
# PCOD8309717 Si02
#       5
#     8   8   4   8   8
#     4  12  24  35  53  83 119 154 182 221 281 345
#     4   9  19  37  60  82 104 137 187 242 284 323
#     4   9  16  30  58  88 108 131 172 228 280 321
#     4  10  21  39  62  83 107 145 193 240 281 328
#     4  10  20  37  59  84 110 144 192 238 277 321
#
# _framework density 19.343416000000001
#
# number of rings (size 3 to 8) (size 9 to 14) (size 15 to 20)
#    0.000    1.889    2.222    2.667    0.000    5.333 
#    0.000    1.111    0.000    2.667    0.000    1.556 
#    0.000    0.000    0.000    0.000    0.000    0.000 
#
# Total GULP energy -446009.644540 kJ/mol
# GULP energy per Si atom -12389.156793 kJ/mol
# Density = 1.929939 g / cm^3
# Si number density = 19.343416 Si / 1000 Ang^3
#
#
#
# Elastic Constant Matrix: (Units=GPa)
#
#
# Indices 1 2 3 4 5 6 
#
# 1 91.1316 24.7494 42.2021 0.0000 0.0000 0.0000
# 2 24.7494 91.1311 42.2026 0.0000 0.0000 0.0000
# 3 42.2021 42.2026 111.7086 0.0000 0.0000 0.0000
# 4 0.0000 0.0000 0.0000 13.6335 0.0000 0.0000
# 5 0.0000 0.0000 0.0000 0.0000 13.6331 0.0000
# 6 0.0000 0.0000 0.0000 0.0000 0.0000 25.3352
#
#
#
# Elastic Compliance Matrix: (Units=1/GPa)
#
#
# Indices 1 2 3 4 5 6 
#
# 1 0.013485 -0.001579 -0.004498 0.000000 0.000000 0.000000
# 2 -0.001579 0.013485 -0.004498 0.000000 0.000000 0.000000
# 3 -0.004498 -0.004498 0.012350 0.000000 0.000000 0.000000
# 4 0.000000 0.000000 0.000000 0.073349 0.000000 0.000000
# 5 0.000000 0.000000 0.000000 0.000000 0.073351 0.000000
# 6 0.000000 0.000000 0.000000 0.000000 0.000000 0.039471
#
#
# Mechanical properties :
#
#
# Convention : Reuss Voigt Hill
#
# Bulk Modulus (GPa) = 55.03479 56.91995 55.97737
# Shear Modulus (GPa) = 19.78652 22.84152 21.31402
#
# Velocity S-wave (km/s) = 3.20176 3.44007 3.32305
# Velocity P-wave (km/s) = 6.49473 6.72820 6.61250
#
# Compressibility (1/GPa) = 0.01817033
#
# Stress axis : x y z
#
# Youngs Moduli (GPa) = 74.15683 74.15599 80.96940
#
# Poissons Ratio (x) = 0.11712 0.36418
# Poissons Ratio (y) = 0.11712 0.36419
# Poissons Ratio (z) = 0.33354 0.33355
#
# Static dielectric constant tensor:
#      x y z
#    x 3.804350 0.000000 0.000000 
#    y 0.000000 3.804360 0.000000 
#    z 0.000000 0.000000 3.180310 
# 
# 
# High freq. dielectric constant tensor:
#      x y z
#    x 1.769580 0.000000 0.000000 
#    y 0.000000 1.769580 0.000000 
#    z 0.000000 0.000000 1.698570 
# 
# From -- ./inp_files/1485.got.cif
#   From: 2010.03.12/outbox.cif.g09.slc.cpg/sg115_1_cif.got.tgz:1485.got - 2010.04.14 02:11:21.
