data_PCOD8309434
_publ_section_title
;
Structure prediction by ZEFSAII (Michael W. Deem and Ramdas Pophale) SiO2 
 PCOD8309434
Probable space group: P -4 M 2
;
_chemical_formula_sum "Si O2"
_cell_formula_units_Z 28
_cell_length_a 9.086950
_cell_length_b 9.086950
_cell_length_c 18.179900
_cell_angle_alpha 90.000000
_cell_angle_beta 90.000000
_cell_angle_gamma 90.000000
_cell_volume 1501.162707
_symmetry_space_group_name_H-M "P -4 M 2"
_symmetry_group_IT_number 115
_symmetry_cell_setting 'tetragonal'
loop_
_space_group_symop_operation_xyz
x,y,z
y,-x,-z
-x,-y,z
-y,x,-z
y,x,-z
-y,-x,-z
-x,y,z
x,-y,z
loop_
_atom_site_type_symbol
_atom_site_label
_atom_site_fract_x
_atom_site_fract_y
_atom_site_fract_z
Si Si1 0.330104 0.172977 0.065783
Si Si2 0.324628 0.165975 0.354761
Si Si3 0.671292 0.671292 0.500000
Si Si4 0.334303 0.324994 0.787461
O O1 0.500000 0.214144 0.050392
O O2 0.272008 0.248344 0.140252
O O3 0.308866 0.000000 0.074642
O O4 0.231026 0.231026 0.000000
O O5 0.500000 0.168820 0.352786
O O6 0.267964 0.242815 0.429080
O O7 0.260741 0.253173 0.284500
O O8 0.264424 0.000000 0.352199
O O9 0.701813 0.500000 0.486322
O O10 0.500000 0.262525 0.789934
O O11 0.335308 0.500000 0.783699
#
# Coordination Sequence:
#
# PCOD8309434 Si02
#       4
#     8   8   4   8
#     4  10  20  33  50  73 101 133 169 208 251 300
#     4   9  16  26  42  66  96 127 159 198 244 291
#     4   9  16  26  42  65  92 122 158 199 242 288
#     4   9  16  27  46  72 100 128 160 202 250 295
#
# _framework density 18.652208999999999
#
# number of rings (size 3 to 8) (size 9 to 14) (size 15 to 20)
#    0.000    2.714    0.000    2.571    0.000    8.571 
#    0.000    0.000    0.000    2.143    0.000    4.000 
#    0.000    0.000    0.000    0.000    0.000    0.000 
#
# Total GULP energy -347214.151648 kJ/mol
# GULP energy per Si atom -12400.505416 kJ/mol
# Density = 1.860976 g / cm^3
# Si number density = 18.652209 Si / 1000 Ang^3
#
#
#
# Elastic Constant Matrix: (Units=GPa)
#
#
# Indices 1 2 3 4 5 6 
#
# 1 79.1726 31.0277 64.3362 0.0000 0.0000 0.0000
# 2 31.0277 79.1726 64.3362 0.0000 0.0000 0.0000
# 3 64.3362 64.3362 197.1603 0.0000 0.0000 0.0000
# 4 0.0000 0.0000 0.0000 5.1736 0.0000 0.0000
# 5 0.0000 0.0000 0.0000 0.0000 5.1736 0.0000
# 6 0.0000 0.0000 0.0000 0.0000 0.0000 12.6645
#
#
#
# Elastic Compliance Matrix: (Units=1/GPa)
#
#
# Indices 1 2 3 4 5 6 
#
# 1 0.017715 -0.003055 -0.004784 0.000000 0.000000 0.000000
# 2 -0.003055 0.017715 -0.004784 0.000000 0.000000 0.000000
# 3 -0.004784 -0.004784 0.008194 0.000000 0.000000 0.000000
# 4 0.000000 0.000000 0.000000 0.193287 0.000000 0.000000
# 5 0.000000 0.000000 0.000000 0.000000 0.193287 0.000000
# 6 0.000000 0.000000 0.000000 0.000000 0.000000 0.078961
#
#
# Mechanical properties :
#
#
# Convention : Reuss Voigt Hill
#
# Bulk Modulus (GPa) = 54.40994 74.98953 64.69974
# Shear Modulus (GPa) = 9.25014 17.65606 13.45310
#
# Velocity S-wave (km/s) = 2.22936 3.08001 2.68854
# Velocity P-wave (km/s) = 5.98839 7.27599 6.66336
#
# Compressibility (1/GPa) = 0.01837899
#
# Stress axis : x y z
#
# Youngs Moduli (GPa) = 56.44833 56.44833 122.03997
#
# Poissons Ratio (x) = 0.17247 0.58381
# Poissons Ratio (y) = 0.17247 0.58381
# Poissons Ratio (z) = 0.27004 0.27004
#
# Static dielectric constant tensor:
#      x y z
#    x 3.171430 0.000000 0.000000 
#    y 0.000000 3.171430 0.000000 
#    z 0.000000 0.000000 3.661940 
# 
# 
# High freq. dielectric constant tensor:
#      x y z
#    x 1.692670 0.000000 0.000000 
#    y 0.000000 1.692670 0.000000 
#    z 0.000000 0.000000 1.743950 
# 
# From -- ./inp_files/4504.got.cif
#   From: 2010.03.12/outbox.cif.g09.slc.cpg/sg115_3_cif.got.tgz:4504.got - 2010.04.14 02:11:21.
