data_PCOD8309178
_publ_section_title
;
Structure prediction by ZEFSAII (Michael W. Deem and Ramdas Pophale) SiO2 
 PCOD8309178
Probable space group: P -4 M 2
;
_chemical_formula_sum "Si O2"
_cell_formula_units_Z 56
_cell_length_a 14.504517
_cell_length_b 14.504517
_cell_length_c 17.702810
_cell_angle_alpha 90.000000
_cell_angle_beta 90.000000
_cell_angle_gamma 90.000000
_cell_volume 3724.335108
_symmetry_space_group_name_H-M "P -4 M 2"
_symmetry_group_IT_number 115
_symmetry_cell_setting 'tetragonal'
loop_
_space_group_symop_operation_xyz
x,y,z
y,-x,-z
-x,-y,z
-y,x,-z
y,x,-z
-y,-x,-z
-x,y,z
x,-y,z
loop_
_atom_site_type_symbol
_atom_site_label
_atom_site_fract_x
_atom_site_fract_y
_atom_site_fract_z
Si Si1 0.394210 0.748569 0.136088
Si Si2 0.102917 0.391417 0.981502
Si Si3 0.747505 0.606079 0.532538
Si Si4 0.297141 0.396912 0.698252
Si Si5 0.784306 0.394203 0.280935
Si Si6 0.609522 0.763704 0.885526
Si Si7 0.390180 0.898099 0.581849
O O1 0.500000 0.724212 0.114805
O O2 0.363906 0.843561 0.095339
O O3 0.383309 0.764953 0.226349
O O4 0.332652 0.663961 0.104889
O O5 0.092247 0.500000 0.988056
O O6 0.000000 0.346726 0.981533
O O7 0.162829 0.356215 0.052664
O O8 0.660698 0.660698 0.500000
O O9 0.727674 0.500000 0.512346
O O10 0.762693 0.619546 0.622535
O O11 0.840455 0.640658 0.491710
O O12 0.340252 0.500000 0.697670
O O13 0.379179 0.323272 0.699901
O O14 0.805346 0.500000 0.288623
O O15 0.807272 0.362341 0.195716
O O16 0.850201 0.346123 0.343039
O O17 0.500000 0.742820 0.890753
O O18 0.500000 0.903185 0.586597
O O19 0.347502 0.000000 0.574956
#
# Coordination Sequence:
#
# PCOD8309178 Si02
#       7
#     8   8   8   8   8   8   8
#     4   9  17  29  43  61  87 116 145 173 209 253
#     4   9  17  29  43  58  79 110 146 181 213 244
#     4  10  18  28  42  60  84 113 145 179 214 249
#     4   9  17  27  40  59  83 112 142 175 209 246
#     4   9  16  26  39  58  83 113 143 171 206 248
#     4   9  17  27  42  64  88 113 143 175 208 248
#     4   9  17  28  40  55  79 112 146 178 213 252
#
# _framework density 15.036242
#
# number of rings (size 3 to 8) (size 9 to 14) (size 15 to 20)
#    0.000    2.857    1.429    0.429    0.000    1.286 
#    0.000    7.857    0.000    6.857    0.000    0.000 
#    0.000    4.857    0.000    0.286    0.000    0.000 
#
# Total GULP energy -693854.293267 kJ/mol
# GULP energy per Si atom -12390.255237 kJ/mol
# Density = 1.500202 g / cm^3
# Si number density = 15.036242 Si / 1000 Ang^3
#
#
#
# Elastic Constant Matrix: (Units=GPa)
#
#
# Indices 1 2 3 4 5 6 
#
# 1 62.7539 28.2635 37.3876 0.0000 0.0000 0.0000
# 2 28.2635 62.7539 37.3876 0.0000 0.0000 0.0000
# 3 37.3876 37.3876 109.9547 0.0000 0.0000 0.0000
# 4 0.0000 0.0000 0.0000 16.0429 0.0000 0.0000
# 5 0.0000 0.0000 0.0000 0.0000 16.0429 0.0000
# 6 0.0000 0.0000 0.0000 0.0000 0.0000 3.6651
#
#
#
# Elastic Compliance Matrix: (Units=1/GPa)
#
#
# Indices 1 2 3 4 5 6 
#
# 1 0.022120 -0.006874 -0.005184 0.000000 0.000000 0.000000
# 2 -0.006874 0.022120 -0.005184 0.000000 0.000000 0.000000
# 3 -0.005184 -0.005184 0.012620 0.000000 0.000000 0.000000
# 4 0.000000 0.000000 0.000000 0.062333 0.000000 0.000000
# 5 0.000000 0.000000 0.000000 0.000000 0.062333 0.000000
# 6 0.000000 0.000000 0.000000 0.000000 0.000000 0.272845
#
#
# Mechanical properties :
#
#
# Convention : Reuss Voigt Hill
#
# Bulk Modulus (GPa) = 44.69132 49.05998 46.87565
# Shear Modulus (GPa) = 10.07429 15.97843 13.02636
#
# Velocity S-wave (km/s) = 2.59125 3.26338 2.94654
# Velocity P-wave (km/s) = 6.22412 6.84823 6.54362
#
# Compressibility (1/GPa) = 0.02237571
#
# Stress axis : x y z
#
# Youngs Moduli (GPa) = 45.20863 45.20863 79.23904
#
# Poissons Ratio (x) = 0.31076 0.41077
# Poissons Ratio (y) = 0.31076 0.41077
# Poissons Ratio (z) = 0.23436 0.23436
#
# Static dielectric constant tensor:
#      x y z
#    x 2.785220 0.000000 0.000000 
#    y 0.000000 2.785220 0.000000 
#    z 0.000000 0.000000 3.309540 
# 
# 
# High freq. dielectric constant tensor:
#      x y z
#    x 1.537770 0.000000 0.000000 
#    y 0.000000 1.537770 0.000000 
#    z 0.000000 0.000000 1.600180 
# 
# From -- ./inp_files/4347.got.cif
#   From: 2010.03.12/outbox.cif.g09.slc.cpg/sg115_3_cif.got.tgz:4347.got - 2010.04.14 02:11:21.
