data_PCOD8309253
_publ_section_title
;
Structure prediction by ZEFSAII (Michael W. Deem and Ramdas Pophale) SiO2 
 PCOD8309253
Probable space group: P -4 M 2
;
_chemical_formula_sum "Si O2"
_cell_formula_units_Z 48
_cell_length_a 8.139343
_cell_length_b 8.139343
_cell_length_c 34.197784
_cell_angle_alpha 90.000000
_cell_angle_beta 90.000000
_cell_angle_gamma 90.000000
_cell_volume 2265.565725
_symmetry_space_group_name_H-M "P -4 M 2"
_symmetry_group_IT_number 115
_symmetry_cell_setting 'tetragonal'
loop_
_space_group_symop_operation_xyz
x,y,z
y,-x,-z
-x,-y,z
-y,x,-z
y,x,-z
-y,-x,-z
-x,y,z
x,-y,z
loop_
_atom_site_type_symbol
_atom_site_label
_atom_site_fract_x
_atom_site_fract_y
_atom_site_fract_z
Si Si1 0.810805 0.000000 0.139484
Si Si2 0.691331 0.813084 0.258677
Si Si3 0.310818 0.310818 0.000000
Si Si4 0.190910 0.679496 0.180896
Si Si5 0.685364 0.809257 0.419238
Si Si6 0.690897 0.309104 0.500000
Si Si7 0.686589 0.000000 0.055048
Si Si8 0.689051 0.688694 0.339352
O O1 0.727229 0.167217 0.157048
O O2 0.800611 0.000000 0.092841
O O3 0.000000 0.000000 0.152414
O O4 0.500000 0.764702 0.258664
O O5 0.783144 0.701317 0.227184
O O6 0.766010 0.783799 0.302158
O O7 0.720889 0.000000 0.246413
O O8 0.169720 0.277250 0.968000
O O9 0.290172 0.500000 0.016103
O O10 0.265849 0.500000 0.168664
O O11 0.000000 0.675295 0.171182
O O12 0.500000 0.737780 0.422223
O O13 0.772701 0.766720 0.460589
O O14 0.775210 0.730431 0.381109
O O15 0.686640 0.000000 0.411982
O O16 0.500000 0.267788 0.501451
O O17 0.500000 0.000000 0.069375
O O18 0.500000 0.743864 0.343663
O O19 0.709965 0.500000 0.329565
#
# Coordination Sequence:
#
# PCOD8309253 Si02
#       8
#     4   8   4   8   8   4   4   8
#     4  10  22  38  56  84 116 150 194 246 288 341
#     4  10  19  31  51  78 107 141 182 227 276 331
#     4   9  20  39  60  90 130 163 202 257 308 364
#     4  10  21  38  57  78 110 151 193 237 289 346
#     4   9  16  26  41  62  89 119 151 191 243 300
#     4   9  16  26  42  63  84 110 144 183 234 294
#     4  10  22  38  62  92 122 162 204 243 303 364
#     4   9  16  26  42  68 100 129 162 208 259 312
#
# _framework density 21.186764
#
# number of rings (size 3 to 8) (size 9 to 14) (size 15 to 20)
#    0.000    2.500    0.833    1.500    1.167    6.333 
#    0.000    0.000    0.000    1.250    0.000    2.333 
#    0.000    0.000    0.000    0.000    0.000    0.000 
#
# Total GULP energy -594731.509099 kJ/mol
# GULP energy per Si atom -12390.239773 kJ/mol
# Density = 2.113854 g / cm^3
# Si number density = 21.186764 Si / 1000 Ang^3
#
#
#
# Elastic Constant Matrix: (Units=GPa)
#
#
# Indices 1 2 3 4 5 6 
#
# 1 74.3876 21.4549 41.9117 0.0000 0.0000 0.0000
# 2 21.4549 74.3879 41.9117 0.0000 0.0000 0.0000
# 3 41.9117 41.9117 140.8704 0.0000 0.0000 0.0000
# 4 0.0000 0.0000 0.0000 24.1895 0.0000 0.0000
# 5 0.0000 0.0000 0.0000 0.0000 24.1894 0.0000
# 6 0.0000 0.0000 0.0000 0.0000 0.0000 12.9514
#
#
#
# Elastic Compliance Matrix: (Units=1/GPa)
#
#
# Indices 1 2 3 4 5 6 
#
# 1 0.016498 -0.002394 -0.004196 0.000000 0.000000 0.000000
# 2 -0.002394 0.016498 -0.004196 0.000000 0.000000 0.000000
# 3 -0.004196 -0.004196 0.009596 0.000000 0.000000 0.000000
# 4 0.000000 0.000000 0.000000 0.041340 0.000000 0.000000
# 5 0.000000 0.000000 0.000000 0.000000 0.041340 0.000000
# 6 0.000000 0.000000 0.000000 0.000000 0.000000 0.077212
#
#
# Mechanical properties :
#
#
# Convention : Reuss Voigt Hill
#
# Bulk Modulus (GPa) = 47.57725 55.57803 51.57764
# Shear Modulus (GPa) = 21.63919 24.55722 23.09821
#
# Velocity S-wave (km/s) = 3.19933 3.40822 3.30543
# Velocity P-wave (km/s) = 6.01269 6.46354 6.24219
#
# Compressibility (1/GPa) = 0.02101845
#
# Stress axis : x y z
#
# Youngs Moduli (GPa) = 60.61409 60.61445 104.21468
#
# Poissons Ratio (x) = 0.14512 0.43730
# Poissons Ratio (y) = 0.14512 0.43730
# Poissons Ratio (z) = 0.25434 0.25434
#
# Static dielectric constant tensor:
#      x y z
#    x 3.708690 0.000000 0.000000 
#    y 0.000000 3.708680 0.000000 
#    z 0.000000 0.000000 3.870600 
# 
# 
# High freq. dielectric constant tensor:
#      x y z
#    x 1.805980 0.000000 0.000000 
#    y 0.000000 1.805980 0.000000 
#    z 0.000000 0.000000 1.834960 
# 
# From -- ./inp_files/6326.got.cif
#   From: 2010.03.12/outbox.cif.g09.slc.cpg/sg115_4_cif.got.tgz:6326.got - 2010.04.14 02:11:21.
