data_PCOD8309891
_publ_section_title
;
Structure prediction by ZEFSAII (Michael W. Deem and Ramdas Pophale) SiO2 
 PCOD8309891
Probable space group: P -4 M 2
;
_chemical_formula_sum "Si O2"
_cell_formula_units_Z 48
_cell_length_a 9.061780
_cell_length_b 9.061780
_cell_length_c 30.955157
_cell_angle_alpha 90.000000
_cell_angle_beta 90.000000
_cell_angle_gamma 90.000000
_cell_volume 2541.909238
_symmetry_space_group_name_H-M "P -4 M 2"
_symmetry_group_IT_number 115
_symmetry_cell_setting 'tetragonal'
loop_
_space_group_symop_operation_xyz
x,y,z
y,-x,-z
-x,-y,z
-y,x,-z
y,x,-z
-y,-x,-z
-x,y,z
x,-y,z
loop_
_atom_site_type_symbol
_atom_site_label
_atom_site_fract_x
_atom_site_fract_y
_atom_site_fract_z
Si Si1 0.827088 0.170487 0.126730
Si Si2 0.327745 0.830554 0.038166
Si Si3 0.323954 0.335597 0.453235
Si Si4 0.332313 0.826440 0.369223
Si Si5 0.169958 0.174269 0.283546
Si Si6 0.673668 0.329644 0.795222
O O1 0.756917 0.216771 0.081311
O O2 0.756814 0.271434 0.163091
O O3 0.000000 0.201919 0.124560
O O4 0.793491 0.000000 0.137545
O O5 0.500000 0.804963 0.045952
O O6 0.292437 0.000000 0.026205
O O7 0.273641 0.726360 0.000000
O O8 0.271296 0.271296 0.500000
O O9 0.500000 0.337426 0.454201
O O10 0.261705 0.500000 0.446070
O O11 0.265174 0.237391 0.413669
O O12 0.500000 0.771001 0.361458
O O13 0.231895 0.771936 0.329651
O O14 0.327368 0.000000 0.373563
O O15 0.263807 0.252578 0.247071
O O16 0.000000 0.221837 0.279720
O O17 0.189135 0.000000 0.277882
O O18 0.500000 0.309381 0.791257
O O19 0.719456 0.500000 0.799522
#
# Coordination Sequence:
#
# PCOD8309891 Si02
#       6
#     8   8   8   8   8   8
#     4  10  21  38  61  86 111 143 183 224 267 317
#     4  10  21  37  58  84 113 147 186 226 269 316
#     4   8  14  26  45  68  94 126 164 205 250 302
#     4   9  17  30  49  72  97 127 165 209 255 304
#     4  10  21  37  56  77 103 137 176 216 261 315
#     4  11  24  39  56  81 111 141 175 217 265 316
#
# _framework density 18.883444999999998
#
# number of rings (size 3 to 8) (size 9 to 14) (size 15 to 20)
#    0.000    2.333    0.000    3.000    0.000    7.667 
#    0.000    2.500    0.000    1.000    0.000    0.000 
#    0.000    0.000    0.000    0.000    0.000    0.000 
#
# Total GULP energy -595251.591921 kJ/mol
# GULP energy per Si atom -12401.074832 kJ/mol
# Density = 1.884046 g / cm^3
# Si number density = 18.883445 Si / 1000 Ang^3
#
#
#
# Elastic Constant Matrix: (Units=GPa)
#
#
# Indices 1 2 3 4 5 6 
#
# 1 59.7761 29.2390 49.3309 0.0000 0.0000 0.0000
# 2 29.2390 59.7769 49.3318 0.0000 0.0000 0.0000
# 3 49.3309 49.3318 153.1791 0.0000 0.0000 0.0000
# 4 0.0000 0.0000 0.0000 35.0324 0.0000 0.0000
# 5 0.0000 0.0000 0.0000 0.0000 35.0323 0.0000
# 6 0.0000 0.0000 0.0000 0.0000 0.0000 24.6751
#
#
#
# Elastic Compliance Matrix: (Units=1/GPa)
#
#
# Indices 1 2 3 4 5 6 
#
# 1 0.025108 -0.007638 -0.005626 0.000000 0.000000 0.000000
# 2 -0.007638 0.025108 -0.005626 0.000000 0.000000 0.000000
# 3 -0.005626 -0.005626 0.010152 0.000000 0.000000 0.000000
# 4 0.000000 0.000000 0.000000 0.028545 0.000000 0.000000
# 5 0.000000 0.000000 0.000000 0.000000 0.028545 0.000000
# 6 0.000000 0.000000 0.000000 0.000000 0.000000 0.040527
#
#
# Mechanical properties :
#
#
# Convention : Reuss Voigt Hill
#
# Bulk Modulus (GPa) = 44.27280 58.72617 51.49948
# Shear Modulus (GPa) = 24.59468 28.60333 26.59900
#
# Velocity S-wave (km/s) = 3.61286 3.89618 3.75719
# Velocity P-wave (km/s) = 6.39530 7.16987 6.79363
#
# Compressibility (1/GPa) = 0.02258723
#
# Stress axis : x y z
#
# Youngs Moduli (GPa) = 39.82740 39.82754 98.50146
#
# Poissons Ratio (x) = 0.30422 0.55418
# Poissons Ratio (y) = 0.30422 0.55420
# Poissons Ratio (z) = 0.22407 0.22408
#
# Static dielectric constant tensor:
#      x y z
#    x 3.419930 0.000000 0.000000 
#    y 0.000000 3.419930 0.000000 
#    z 0.000000 0.000000 3.806230 
# 
# 
# High freq. dielectric constant tensor:
#      x y z
#    x 1.723330 0.000000 0.000000 
#    y 0.000000 1.723330 0.000000 
#    z 0.000000 0.000000 1.752120 
# 
# From -- ./inp_files/5979.got.cif
#   From: 2010.03.12/outbox.cif.g09.slc.cpg/sg115_3_cif.got.tgz:5979.got - 2010.04.14 02:11:21.
