data_PCOD8309702
_publ_section_title
;
Structure prediction by ZEFSAII (Michael W. Deem and Ramdas Pophale) SiO2 
 PCOD8309702
Probable space group: P -4 M 2
;
_chemical_formula_sum "Si O2"
_cell_formula_units_Z 40
_cell_length_a 18.538423
_cell_length_b 18.538423
_cell_length_c 5.195310
_cell_angle_alpha 90.000000
_cell_angle_beta 90.000000
_cell_angle_gamma 90.000000
_cell_volume 1785.488435
_symmetry_space_group_name_H-M "P -4 M 2"
_symmetry_group_IT_number 115
_symmetry_cell_setting 'tetragonal'
loop_
_space_group_symop_operation_xyz
x,y,z
y,-x,-z
-x,-y,z
-y,x,-z
y,x,-z
-y,-x,-z
-x,y,z
x,-y,z
loop_
_atom_site_type_symbol
_atom_site_label
_atom_site_fract_x
_atom_site_fract_y
_atom_site_fract_z
Si Si1 0.800112 0.914139 0.037265
Si Si2 0.584071 0.219037 0.959132
Si Si3 0.585861 0.300113 0.462735
Si Si4 0.918132 0.418132 0.750003
Si Si5 0.719036 0.915929 0.540868
O O1 0.746387 0.884627 0.812362
O O2 0.810530 0.000000 0.030030
O O3 0.878446 0.878446 0.000000
O O4 0.765624 0.885436 0.302063
O O5 0.500000 0.233596 0.952097
O O6 0.614564 0.265625 0.197938
O O7 0.599744 0.134054 0.009639
O O8 0.615374 0.246389 0.687639
O O9 0.621552 0.378449 0.500000
O O10 0.500000 0.310529 0.469969
O O11 0.905833 0.500000 0.649130
O O12 0.900256 0.365947 0.509641
O O13 0.000000 0.405832 0.850876
O O14 0.733594 0.000000 0.547898
#
# Coordination Sequence:
#
# PCOD8309702 Si02
#       5
#     8   8   8   8   8
#     4  10  20  36  57  81 113 152 191 234 287 342
#     4   9  19  35  55  82 115 147 183 236 293 335
#     4  10  20  36  57  81 113 152 191 234 287 342
#     4   9  18  36  62  88 114 152 200 240 282 349
#     4   9  19  35  55  82 115 147 183 236 293 335
#
# _framework density 22.402835
#
# number of rings (size 3 to 8) (size 9 to 14) (size 15 to 20)
#    0.000    2.600    0.000    1.200    0.000    2.000 
#    0.000   10.000    0.000   24.000    0.000    0.000 
#    0.000    0.000    0.000    0.000    0.000    0.000 
#
# Total GULP energy -495777.456491 kJ/mol
# GULP energy per Si atom -12394.436412 kJ/mol
# Density = 2.235184 g / cm^3
# Si number density = 22.402835 Si / 1000 Ang^3
#
#
#
# Elastic Constant Matrix: (Units=GPa)
#
#
# Indices 1 2 3 4 5 6 
#
# 1 77.3272 33.7710 17.8842 0.0000 0.0000 0.0000
# 2 33.7710 77.3253 17.8850 0.0000 0.0000 0.0000
# 3 17.8842 17.8850 122.5859 0.0000 0.0000 0.0000
# 4 0.0000 0.0000 0.0000 22.2688 0.0000 0.0000
# 5 0.0000 0.0000 0.0000 0.0000 22.2693 0.0000
# 6 0.0000 0.0000 0.0000 0.0000 0.0000 14.7376
#
#
#
# Elastic Compliance Matrix: (Units=1/GPa)
#
#
# Indices 1 2 3 4 5 6 
#
# 1 0.016202 -0.006757 -0.001378 0.000000 0.000000 0.000000
# 2 -0.006757 0.016202 -0.001378 0.000000 0.000000 0.000000
# 3 -0.001378 -0.001378 0.008560 0.000000 0.000000 0.000000
# 4 0.000000 0.000000 0.000000 0.044906 0.000000 0.000000
# 5 0.000000 0.000000 0.000000 0.000000 0.044905 0.000000
# 6 0.000000 0.000000 0.000000 0.000000 0.000000 0.067854
#
#
# Mechanical properties :
#
#
# Convention : Reuss Voigt Hill
#
# Bulk Modulus (GPa) = 45.58425 46.25762 45.92093
# Shear Modulus (GPa) = 22.22547 25.70168 23.96358
#
# Velocity S-wave (km/s) = 3.15315 3.39078 3.27412
# Velocity P-wave (km/s) = 5.80071 6.00190 5.90216
#
# Compressibility (1/GPa) = 0.02193740
#
# Stress axis : x y z
#
# Youngs Moduli (GPa) = 61.72146 61.71965 116.82770
#
# Poissons Ratio (x) = 0.41706 0.16097
# Poissons Ratio (y) = 0.41707 0.16099
# Poissons Ratio (z) = 0.08504 0.08505
#
# Static dielectric constant tensor:
#      x y z
#    x 3.843730 0.000000 0.000000 
#    y 0.000000 3.843730 0.000000 
#    z 0.000000 0.000000 4.496430 
# 
# 
# High freq. dielectric constant tensor:
#      x y z
#    x 1.866540 0.000000 0.000000 
#    y 0.000000 1.866550 0.000000 
#    z 0.000000 0.000000 1.890800 
# 
# From -- ./inp_files/513.got.cif
#   From: 2010.03.12/outbox.cif.g09.slc.cpg/sg115_1_cif.got.tgz:513.got - 2010.04.14 02:11:21.
