data_PCOD8309965
_publ_section_title
;
Structure prediction by ZEFSAII (Michael W. Deem and Ramdas Pophale) SiO2 
 PCOD8309965
Probable space group: P -4 M 2
;
_chemical_formula_sum "Si O2"
_cell_formula_units_Z 21
_cell_length_a 7.304945
_cell_length_b 7.304945
_cell_length_c 20.346194
_cell_angle_alpha 90.000000
_cell_angle_beta 90.000000
_cell_angle_gamma 90.000000
_cell_volume 1085.718110
_symmetry_space_group_name_H-M "P -4 M 2"
_symmetry_group_IT_number 115
_symmetry_cell_setting 'tetragonal'
loop_
_space_group_symop_operation_xyz
x,y,z
y,-x,-z
-x,-y,z
-y,x,-z
y,x,-z
-y,-x,-z
-x,y,z
x,-y,z
loop_
_atom_site_type_symbol
_atom_site_label
_atom_site_fract_x
_atom_site_fract_y
_atom_site_fract_z
Si Si1 0.785093 0.500000 0.678795
Si Si2 0.211811 0.500000 0.111407
Si Si3 0.500000 0.223069 0.470506
Si Si4 0.789048 0.790488 0.781567
Si Si5 0.500000 0.500000 0.000000
O O1 0.711028 0.500000 0.605160
O O2 0.717229 0.678171 0.718638
O O3 0.000000 0.500000 0.674140
O O4 0.265661 0.678686 0.153477
O O5 0.000000 0.500000 0.092460
O O6 0.319392 0.500000 0.043826
O O7 0.314590 0.314590 0.500000
O O8 0.500000 0.000000 0.480347
O O9 0.000000 0.747615 0.797170
O O10 0.753590 0.000000 0.763066
#
# Coordination Sequence:
#
# PCOD8309965 Si02
#       5
#     4   4   4   8   1
#     4   9  18  34  56  80 106 139 180 226 276 327
#     4  10  22  36  52  78 104 133 174 210 254 315
#     4  10  23  40  57  83 119 158 199 238 283 345
#     4   9  18  34  56  80 104 130 168 222 275 318
#     4  12  24  36  52  72 104 144 174 204 244 304
#
# _framework density 19.342037999999999
#
# number of rings (size 3 to 8) (size 9 to 14) (size 15 to 20)
#    0.000    2.476    0.000    1.143    0.000    6.476 
#    0.000    5.714    0.000    0.000    0.000    0.000 
#    0.000    0.000    0.000    0.000    0.000    0.000 
#
# Total GULP energy -260312.542609 kJ/mol
# GULP energy per Si atom -12395.835362 kJ/mol
# Density = 1.929802 g / cm^3
# Si number density = 19.342038 Si / 1000 Ang^3
#
#
#
# Elastic Constant Matrix: (Units=GPa)
#
#
# Indices 1 2 3 4 5 6 
#
# 1 116.0156 48.3778 73.7037 0.0000 0.0000 0.0000
# 2 48.3778 116.0156 73.7037 0.0000 0.0000 0.0000
# 3 73.7037 73.7037 183.6390 0.0000 0.0000 0.0000
# 4 0.0000 0.0000 0.0000 3.7738 0.0000 0.0000
# 5 0.0000 0.0000 0.0000 0.0000 3.7738 0.0000
# 6 0.0000 0.0000 0.0000 0.0000 0.0000 22.0697
#
#
#
# Elastic Compliance Matrix: (Units=1/GPa)
#
#
# Indices 1 2 3 4 5 6 
#
# 1 0.012144 -0.002641 -0.003814 0.000000 0.000000 0.000000
# 2 -0.002641 0.012144 -0.003814 0.000000 0.000000 0.000000
# 3 -0.003814 -0.003814 0.008507 0.000000 0.000000 0.000000
# 4 0.000000 0.000000 0.000000 0.264985 0.000000 0.000000
# 5 0.000000 0.000000 0.000000 0.000000 0.264985 0.000000
# 6 0.000000 0.000000 0.000000 0.000000 0.000000 0.045311
#
#
# Mechanical properties :
#
#
# Convention : Reuss Voigt Hill
#
# Bulk Modulus (GPa) = 81.58760 89.69339 85.64050
# Shear Modulus (GPa) = 7.90265 20.58246 14.24255
#
# Velocity S-wave (km/s) = 2.02351 3.26564 2.71652
# Velocity P-wave (km/s) = 6.90887 7.79052 7.36290
#
# Compressibility (1/GPa) = 0.01225676
#
# Stress axis : x y z
#
# Youngs Moduli (GPa) = 82.34682 82.34682 117.55067
#
# Poissons Ratio (x) = 0.21747 0.44834
# Poissons Ratio (y) = 0.21747 0.44834
# Poissons Ratio (z) = 0.31407 0.31407
#
# Static dielectric constant tensor:
#      x y z
#    x 3.876890 0.000000 0.000000 
#    y 0.000000 3.876890 0.000000 
#    z 0.000000 0.000000 3.652150 
# 
# 
# High freq. dielectric constant tensor:
#      x y z
#    x 1.761870 0.000000 0.000000 
#    y 0.000000 1.761870 0.000000 
#    z 0.000000 0.000000 1.744890 
# 
# From -- ./inp_files/3405.got.cif
#   From: 2010.03.12/outbox.cif.g09.slc.cpg/sg115_2_cif.got.tgz:3405.got - 2010.04.14 02:11:21.
