data_PCOD8309634
_publ_section_title
;
Structure prediction by ZEFSAII (Michael W. Deem and Ramdas Pophale) SiO2 
 PCOD8309634
Probable space group: P -4 M 2
;
_chemical_formula_sum "Si O2"
_cell_formula_units_Z 48
_cell_length_a 8.141179
_cell_length_b 8.141179
_cell_length_c 33.737320
_cell_angle_alpha 90.000000
_cell_angle_beta 90.000000
_cell_angle_gamma 90.000000
_cell_volume 2236.068933
_symmetry_space_group_name_H-M "P -4 M 2"
_symmetry_group_IT_number 115
_symmetry_cell_setting 'tetragonal'
loop_
_space_group_symop_operation_xyz
x,y,z
y,-x,-z
-x,-y,z
-y,x,-z
y,x,-z
-y,-x,-z
-x,y,z
x,-y,z
loop_
_atom_site_type_symbol
_atom_site_label
_atom_site_fract_x
_atom_site_fract_y
_atom_site_fract_z
Si Si1 0.808599 0.819738 0.659173
Si Si2 0.309520 0.309520 0.000000
Si Si3 0.687375 0.687133 0.419813
Si Si4 0.805222 0.500000 0.703469
Si Si5 0.810768 0.687361 0.916736
Si Si6 0.813166 0.813166 0.500000
Si Si7 0.695763 0.500000 0.793233
Si Si8 0.690015 0.180290 0.838129
O O1 0.779185 0.798024 0.612393
O O2 0.729490 0.666459 0.683525
O O3 0.000000 0.821862 0.667777
O O4 0.735976 0.000000 0.671885
O O5 0.242258 0.217087 0.039022
O O6 0.272153 0.500000 0.006449
O O7 0.500000 0.701325 0.405767
O O8 0.746159 0.500000 0.422816
O O9 0.701682 0.769760 0.462596
O O10 0.756254 0.500000 0.748762
O O11 0.000000 0.500000 0.697844
O O12 0.745492 0.500000 0.915028
O O13 0.711463 0.794037 0.885082
O O14 0.000000 0.698283 0.905302
O O15 0.000000 0.780920 0.487478
O O16 0.500000 0.500000 0.796000
O O17 0.768947 0.334855 0.814243
O O18 0.500000 0.174778 0.827709
O O19 0.766250 0.000000 0.826507
#
# Coordination Sequence:
#
# PCOD8309634 Si02
#       8
#     8   4   8   4   8   4   4   8
#     4  10  21  39  63  89 118 157 201 241 293 361
#     4   9  18  32  52  77 110 156 202 241 285 342
#     4  11  23  38  58  86 119 155 199 249 303 358
#     4  10  22  40  62  90 122 156 194 242 298 356
#     4  10  20  34  54  81 114 151 193 242 295 350
#     4  11  24  39  56  82 116 157 204 251 300 358
#     4  10  22  40  62  88 120 152 192 246 296 358
#     4  10  21  38  61  86 113 152 197 241 295 358
#
# _framework density 21.466245000000001
#
# number of rings (size 3 to 8) (size 9 to 14) (size 15 to 20)
#    0.000    1.833    1.667    2.000    0.000    8.667 
#    0.000    1.667    0.000    0.000    0.000    0.000 
#    0.000    0.000    0.000    0.000    0.000    0.000 
#
# Total GULP energy -595091.547302 kJ/mol
# GULP energy per Si atom -12397.740569 kJ/mol
# Density = 2.141739 g / cm^3
# Si number density = 21.466245 Si / 1000 Ang^3
#
#
#
# Elastic Constant Matrix: (Units=GPa)
#
#
# Indices 1 2 3 4 5 6 
#
# 1 88.9304 29.1455 37.2228 0.0000 0.0000 0.0000
# 2 29.1455 88.9304 37.2228 0.0000 0.0000 0.0000
# 3 37.2228 37.2228 135.2701 0.0000 0.0000 0.0000
# 4 0.0000 0.0000 0.0000 24.7590 0.0000 0.0000
# 5 0.0000 0.0000 0.0000 0.0000 24.7590 0.0000
# 6 0.0000 0.0000 0.0000 0.0000 0.0000 16.6026
#
#
#
# Elastic Compliance Matrix: (Units=1/GPa)
#
#
# Indices 1 2 3 4 5 6 
#
# 1 0.013487 -0.003240 -0.002820 0.000000 0.000000 0.000000
# 2 -0.003240 0.013487 -0.002820 0.000000 0.000000 0.000000
# 3 -0.002820 -0.002820 0.008944 0.000000 0.000000 0.000000
# 4 0.000000 0.000000 0.000000 0.040389 0.000000 0.000000
# 5 0.000000 0.000000 0.000000 0.000000 0.040389 0.000000
# 6 0.000000 0.000000 0.000000 0.000000 0.000000 0.060232
#
#
# Mechanical properties :
#
#
# Convention : Reuss Voigt Hill
#
# Bulk Modulus (GPa) = 55.06754 57.81254 56.44004
# Shear Modulus (GPa) = 24.90785 27.19344 26.05065
#
# Velocity S-wave (km/s) = 3.41005 3.56307 3.48740
# Velocity P-wave (km/s) = 6.41976 6.62704 6.52422
#
# Compressibility (1/GPa) = 0.01815952
#
# Stress axis : x y z
#
# Youngs Moduli (GPa) = 74.14674 74.14674 111.80152
#
# Poissons Ratio (x) = 0.24023 0.31524
# Poissons Ratio (y) = 0.24023 0.31524
# Poissons Ratio (z) = 0.20907 0.20907
#
# Static dielectric constant tensor:
#      x y z
#    x 4.054720 0.000000 0.000000 
#    y 0.000000 4.054720 0.000000 
#    z 0.000000 0.000000 3.759100 
# 
# 
# High freq. dielectric constant tensor:
#      x y z
#    x 1.835180 0.000000 0.000000 
#    y 0.000000 1.835180 0.000000 
#    z 0.000000 0.000000 1.836810 
# 
# From -- ./inp_files/6294.got.cif
#   From: 2010.03.12/outbox.cif.g09.slc.cpg/sg115_4_cif.got.tgz:6294.got - 2010.04.14 02:11:21.
