data_PCOD8309415
_publ_section_title
;
Structure prediction by ZEFSAII (Michael W. Deem and Ramdas Pophale) SiO2 
 PCOD8309415
Probable space group: P -4 M 2
;
_chemical_formula_sum "Si O2"
_cell_formula_units_Z 48
_cell_length_a 9.360668
_cell_length_b 9.360668
_cell_length_c 30.788164
_cell_angle_alpha 90.000000
_cell_angle_beta 90.000000
_cell_angle_gamma 90.000000
_cell_volume 2697.723751
_symmetry_space_group_name_H-M "P -4 M 2"
_symmetry_group_IT_number 115
_symmetry_cell_setting 'tetragonal'
loop_
_space_group_symop_operation_xyz
x,y,z
y,-x,-z
-x,-y,z
-y,x,-z
y,x,-z
-y,-x,-z
-x,y,z
x,-y,z
loop_
_atom_site_type_symbol
_atom_site_label
_atom_site_fract_x
_atom_site_fract_y
_atom_site_fract_z
Si Si1 0.839690 0.169359 0.878047
Si Si2 0.339717 0.831337 0.465165
Si Si3 0.170087 0.340783 0.201767
Si Si4 0.668697 0.160615 0.368052
Si Si5 0.668993 0.160626 0.701945
Si Si6 0.833639 0.668444 0.036871
O O1 0.767759 0.232135 0.834249
O O2 0.742603 0.215423 0.918534
O O3 0.000000 0.232442 0.882914
O O4 0.846906 0.000000 0.874992
O O5 0.235227 0.764774 0.500000
O O6 0.500000 0.774489 0.473329
O O7 0.288636 0.789347 0.416634
O O8 0.335601 0.000000 0.470427
O O9 0.230877 0.500000 0.192711
O O10 0.215155 0.287245 0.249816
O O11 0.000000 0.347523 0.199280
O O12 0.500000 0.166665 0.362815
O O13 0.736958 0.265549 0.333629
O O14 0.724126 0.000000 0.359613
O O15 0.500000 0.164590 0.697391
O O16 0.725919 0.000000 0.694406
O O17 0.805300 0.500000 0.040600
O O18 0.000000 0.700308 0.026704
O O19 0.735331 0.735331 0.000000
#
# Coordination Sequence:
#
# PCOD8309415 Si02
#       6
#     8   8   8   8   8   8
#     4   9  16  26  44  71  99 126 159 200 243 286
#     4   9  19  35  52  71  96 125 158 198 243 291
#     4   8  14  26  43  65  97 131 159 193 240 290
#     4   9  19  35  51  68  95 130 164 198 240 290
#     4   9  18  31  48  73 102 130 163 203 243 284
#     4  10  20  33  50  72  98 129 163 199 242 290
#
# _framework density 17.792776
#
# number of rings (size 3 to 8) (size 9 to 14) (size 15 to 20)
#    0.000    3.000    0.000    3.000    0.000    6.000 
#    0.000    6.667    0.000    1.000    0.000    4.667 
#    0.000    0.000    0.000    0.000    0.000    0.000 
#
# Total GULP energy -595025.366790 kJ/mol
# GULP energy per Si atom -12396.361808 kJ/mol
# Density = 1.775228 g / cm^3
# Si number density = 17.792776 Si / 1000 Ang^3
#
#
#
# Elastic Constant Matrix: (Units=GPa)
#
#
# Indices 1 2 3 4 5 6 
#
# 1 56.2633 28.2566 57.8870 0.0000 0.0000 0.0000
# 2 28.2566 56.2618 57.8862 0.0000 0.0000 0.0000
# 3 57.8870 57.8862 160.7206 0.0000 0.0000 0.0000
# 4 0.0000 0.0000 0.0000 -39.9598 0.0000 0.0000
# 5 0.0000 0.0000 0.0000 0.0000 -39.9703 0.0000
# 6 0.0000 0.0000 0.0000 0.0000 0.0000 24.0750
#
#
#
# Elastic Compliance Matrix: (Units=1/GPa)
#
#
# Indices 1 2 3 4 5 6 
#
# 1 0.029529 -0.006177 -0.008411 0.000000 0.000000 0.000000
# 2 -0.006177 0.029530 -0.008411 0.000000 0.000000 0.000000
# 3 -0.008411 -0.008411 0.012281 0.000000 0.000000 0.000000
# 4 0.000000 0.000000 0.000000 -0.025025 0.000000 0.000000
# 5 0.000000 0.000000 0.000000 0.000000 -0.025019 0.000000
# 6 0.000000 0.000000 0.000000 0.000000 0.000000 0.041537
#
#
# Mechanical properties :
#
#
# Convention : Reuss Voigt Hill
#
# Bulk Modulus (GPa) = 39.45930 62.36724 50.91327
# Shear Modulus (GPa) = 42.63347 -2.55663 20.03842
#
# Velocity S-wave (km/s) = 4.90032 -1.20001 3.35955
# Velocity P-wave (km/s) = 7.36497 5.76265 6.61252
#
# Compressibility (1/GPa) = 0.02534257
#
# Stress axis : x y z
#
# Youngs Moduli (GPa) = 33.86453 33.86370 81.42834
#
# Poissons Ratio (x) = 0.20917 0.68489
# Poissons Ratio (y) = 0.20918 0.68490
# Poissons Ratio (z) = 0.28483 0.28483
#
# Static dielectric constant tensor:
#      x y z
#    x 3.167070 0.000000 0.000000 
#    y 0.000000 3.167070 0.000000 
#    z 0.000000 0.000000 3.525810 
# 
# 
# High freq. dielectric constant tensor:
#      x y z
#    x 1.666210 0.000000 0.000000 
#    y 0.000000 1.666210 0.000000 
#    z 0.000000 0.000000 1.703490 
# 
# From -- ./inp_files/6125.got.cif
#   From: 2010.03.12/outbox.cif.g09.slc.cpg/sg115_4_cif.got.tgz:6125.got - 2010.04.14 02:11:21.
