data_PCOD8309428
_publ_section_title
;
Structure prediction by ZEFSAII (Michael W. Deem and Ramdas Pophale) SiO2 
 PCOD8309428
Probable space group: P -4 M 2
;
_chemical_formula_sum "Si O2"
_cell_formula_units_Z 48
_cell_length_a 8.947904
_cell_length_b 8.947904
_cell_length_c 31.040527
_cell_angle_alpha 90.000000
_cell_angle_beta 90.000000
_cell_angle_gamma 90.000000
_cell_volume 2485.259359
_symmetry_space_group_name_H-M "P -4 M 2"
_symmetry_group_IT_number 115
_symmetry_cell_setting 'tetragonal'
loop_
_space_group_symop_operation_xyz
x,y,z
y,-x,-z
-x,-y,z
-y,x,-z
y,x,-z
-y,-x,-z
-x,y,z
x,-y,z
loop_
_atom_site_type_symbol
_atom_site_label
_atom_site_fract_x
_atom_site_fract_y
_atom_site_fract_z
Si Si1 0.325015 0.172984 0.460053
Si Si2 0.676479 0.828604 0.301166
Si Si3 0.327779 0.823916 0.619839
Si Si4 0.322008 0.666471 0.877485
Si Si5 0.677602 0.666279 0.216354
Si Si6 0.677378 0.832499 0.960981
O O1 0.268495 0.268495 0.500000
O O2 0.500000 0.199616 0.454328
O O3 0.245003 0.225080 0.416927
O O4 0.287749 0.000000 0.468488
O O5 0.500000 0.806224 0.306940
O O6 0.759867 0.723221 0.334624
O O7 0.730204 0.779222 0.253599
O O8 0.722866 0.000000 0.308521
O O9 0.500000 0.780453 0.611593
O O10 0.305119 0.000000 0.619730
O O11 0.500000 0.659755 0.878654
O O12 0.256278 0.500000 0.884328
O O13 0.274156 0.732619 0.830560
O O14 0.258940 0.770010 0.915684
O O15 0.500000 0.657364 0.214434
O O16 0.741641 0.500000 0.226002
O O17 0.500000 0.827082 0.960711
O O18 0.737821 0.000000 0.966655
O O19 0.732308 0.732308 0.000000
#
# Coordination Sequence:
#
# PCOD8309428 Si02
#       6
#     8   8   8   8   8   8
#     4  11  24  41  62  89 118 148 184 224 268 320
#     4  10  20  34  54  81 111 143 179 218 263 316
#     4  11  24  40  58  82 111 145 187 230 271 317
#     4   8  14  27  49  74  98 128 169 215 259 304
#     4   8  14  27  49  75 102 134 172 214 260 308
#     4  10  20  33  50  73 100 132 170 211 258 311
#
# _framework density 19.313880999999999
#
# number of rings (size 3 to 8) (size 9 to 14) (size 15 to 20)
#    0.000    2.333    0.000    4.000    0.000    8.667 
#    0.000    1.667    0.000    6.000    0.000    0.000 
#    0.000    0.000    0.000    0.000    0.000    0.000 
#
# Total GULP energy -595156.699786 kJ/mol
# GULP energy per Si atom -12399.097912 kJ/mol
# Density = 1.926992 g / cm^3
# Si number density = 19.313881 Si / 1000 Ang^3
#
#
#
# Elastic Constant Matrix: (Units=GPa)
#
#
# Indices 1 2 3 4 5 6 
#
# 1 42.3803 38.3907 27.6202 0.0000 0.0000 0.0000
# 2 38.3907 42.3803 27.6202 0.0000 0.0000 0.0000
# 3 27.6202 27.6202 134.4337 0.0000 0.0000 0.0000
# 4 0.0000 0.0000 0.0000 -29.8768 0.0000 0.0000
# 5 0.0000 0.0000 0.0000 0.0000 -29.8768 0.0000
# 6 0.0000 0.0000 0.0000 0.0000 0.0000 20.8657
#
#
#
# Elastic Compliance Matrix: (Units=1/GPa)
#
#
# Indices 1 2 3 4 5 6 
#
# 1 0.132528 -0.118124 -0.002960 0.000000 0.000000 0.000000
# 2 -0.118124 0.132528 -0.002960 0.000000 0.000000 0.000000
# 3 -0.002960 -0.002960 0.008655 0.000000 0.000000 0.000000
# 4 0.000000 0.000000 0.000000 -0.033471 0.000000 0.000000
# 5 0.000000 0.000000 0.000000 0.000000 -0.033471 0.000000
# 6 0.000000 0.000000 0.000000 0.000000 0.000000 0.047926
#
#
# Mechanical properties :
#
#
# Convention : Reuss Voigt Hill
#
# Bulk Modulus (GPa) = 39.02281 45.16186 42.09234
# Shear Modulus (GPa) = 9.77855 0.59327 5.18591
#
# Velocity S-wave (km/s) = 2.25254 0.55484 1.64040
# Velocity P-wave (km/s) = 5.19747 4.88307 5.04272
#
# Compressibility (1/GPa) = 0.02562604
#
# Stress axis : x y z
#
# Youngs Moduli (GPa) = 7.54555 7.54555 115.54384
#
# Poissons Ratio (x) = 0.89131 0.34196
# Poissons Ratio (y) = 0.89131 0.34196
# Poissons Ratio (z) = 0.02233 0.02233
#
# Static dielectric constant tensor:
#      x y z
#    x 3.421680 0.000000 0.000000 
#    y 0.000000 3.421680 0.000000 
#    z 0.000000 0.000000 4.325990 
# 
# 
# High freq. dielectric constant tensor:
#      x y z
#    x 1.732670 0.000000 0.000000 
#    y 0.000000 1.732670 0.000000 
#    z 0.000000 0.000000 1.772950 
# 
# From -- ./inp_files/5895.got.cif
#   From: 2010.03.12/outbox.cif.g09.slc.cpg/sg115_3_cif.got.tgz:5895.got - 2010.04.14 02:11:21.
