data_PCOD8309869
_publ_section_title
;
Structure prediction by ZEFSAII (Michael W. Deem and Ramdas Pophale) SiO2 
 PCOD8309869
Probable space group: P -4 M 2
;
_chemical_formula_sum "Si O2"
_cell_formula_units_Z 36
_cell_length_a 9.187061
_cell_length_b 9.187061
_cell_length_c 23.008836
_cell_angle_alpha 90.000000
_cell_angle_beta 90.000000
_cell_angle_gamma 90.000000
_cell_volume 1941.993843
_symmetry_space_group_name_H-M "P -4 M 2"
_symmetry_group_IT_number 115
_symmetry_cell_setting 'tetragonal'
loop_
_space_group_symop_operation_xyz
x,y,z
y,-x,-z
-x,-y,z
-y,x,-z
y,x,-z
-y,-x,-z
-x,y,z
x,-y,z
loop_
_atom_site_type_symbol
_atom_site_label
_atom_site_fract_x
_atom_site_fract_y
_atom_site_fract_z
Si Si1 0.831724 0.831724 0.500000
Si Si2 0.328738 0.832524 0.281738
Si Si3 0.667959 0.829261 0.615552
Si Si4 0.667972 0.331489 0.833253
Si Si5 0.829014 0.332578 0.050543
O O1 0.736986 0.780060 0.554583
O O2 0.000000 0.803312 0.515229
O O3 0.500000 0.813574 0.289971
O O4 0.251703 0.749107 0.333288
O O5 0.278089 0.763752 0.220847
O O6 0.280710 0.000000 0.282612
O O7 0.500000 0.783464 0.615637
O O8 0.689236 0.000000 0.625047
O O9 0.500000 0.301836 0.817780
O O10 0.696117 0.500000 0.847550
O O11 0.718657 0.239799 0.888766
O O12 0.787722 0.500000 0.037772
O O13 0.000000 0.309170 0.054460
O O14 0.766804 0.233197 0.000000
#
# Coordination Sequence:
#
# PCOD8309869 Si02
#       5
#     4   8   8   8   8
#     4   9  18  34  54  75 104 142 180 217 260 313
#     4  10  21  36  55  80 109 141 177 218 264 314
#     4  10  21  36  55  80 109 141 177 218 264 314
#     4   9  18  34  55  77 104 140 180 220 262 311
#     4  10  21  36  55  80 109 141 177 218 264 314
#
# _framework density 18.537648000000001
#
# number of rings (size 3 to 8) (size 9 to 14) (size 15 to 20)
#    0.000    2.333    0.000    2.000    0.000    6.667 
#    0.000    6.667    0.000    0.000    0.000    0.000 
#    0.000    0.000    0.000    0.000    0.000    0.000 
#
# Total GULP energy -446560.795215 kJ/mol
# GULP energy per Si atom -12404.466534 kJ/mol
# Density = 1.849546 g / cm^3
# Si number density = 18.537648 Si / 1000 Ang^3
#
#
#
# Elastic Constant Matrix: (Units=GPa)
#
#
# Indices 1 2 3 4 5 6 
#
# 1 90.5629 50.8332 87.8596 0.0000 0.0000 0.0000
# 2 50.8332 90.5647 87.8617 0.0000 0.0000 0.0000
# 3 87.8596 87.8617 187.5203 0.0000 0.0000 0.0000
# 4 0.0000 0.0000 0.0000 54.6327 0.0000 0.0000
# 5 0.0000 0.0000 0.0000 0.0000 54.6316 0.0000
# 6 0.0000 0.0000 0.0000 0.0000 0.0000 27.3375
#
#
#
# Elastic Compliance Matrix: (Units=1/GPa)
#
#
# Indices 1 2 3 4 5 6 
#
# 1 0.021050 -0.004119 -0.007932 0.000000 0.000000 0.000000
# 2 -0.004119 0.021050 -0.007933 0.000000 0.000000 0.000000
# 3 -0.007932 -0.007933 0.012766 0.000000 0.000000 0.000000
# 4 0.000000 0.000000 0.000000 0.018304 0.000000 0.000000
# 5 0.000000 0.000000 0.000000 0.000000 0.018304 0.000000
# 6 0.000000 0.000000 0.000000 0.000000 0.000000 0.036580
#
#
# Mechanical properties :
#
#
# Convention : Reuss Voigt Hill
#
# Bulk Modulus (GPa) = 67.12824 91.30632 79.21728
# Shear Modulus (GPa) = 28.90343 36.79325 32.84834
#
# Velocity S-wave (km/s) = 3.95292 4.45993 4.21406
# Velocity P-wave (km/s) = 7.55808 8.71107 8.15498
#
# Compressibility (1/GPa) = 0.01489686
#
# Stress axis : x y z
#
# Youngs Moduli (GPa) = 47.50590 47.50571 78.33148
#
# Poissons Ratio (x) = 0.19570 0.62136
# Poissons Ratio (y) = 0.19570 0.62139
# Poissons Ratio (z) = 0.37684 0.37685
#
# Static dielectric constant tensor:
#      x y z
#    x 3.310470 0.000000 0.000000 
#    y 0.000000 3.310470 0.000000 
#    z 0.000000 0.000000 3.512240 
# 
# 
# High freq. dielectric constant tensor:
#      x y z
#    x 1.717720 0.000000 0.000000 
#    y 0.000000 1.717720 0.000000 
#    z 0.000000 0.000000 1.731680 
# 
# From -- ./inp_files/5094.got.cif
#   From: 2010.03.12/outbox.cif.g09.slc.cpg/sg115_3_cif.got.tgz:5094.got - 2010.04.14 02:11:21.
