data_PCOD8309003
_publ_section_title
;
Structure prediction by ZEFSAII (Michael W. Deem and Ramdas Pophale) SiO2 
 PCOD8309003
Probable space group: P -4 21 C
;
_chemical_formula_sum "Si O2"
_cell_formula_units_Z 38
_cell_length_a 9.219434
_cell_length_b 9.219434
_cell_length_c 21.148259
_cell_angle_alpha 90.000000
_cell_angle_beta 90.000000
_cell_angle_gamma 90.000000
_cell_volume 1797.558942
_symmetry_space_group_name_H-M "P -4 21 C"
_symmetry_group_IT_number 114
_symmetry_cell_setting 'tetragonal'
loop_
_space_group_symop_operation_xyz
x,y,z
y,-x,-z
-x,-y,z
-y,x,-z
1/2+x,1/2-y,1/2-z
1/2-x,1/2+y,1/2-z
1/2-y,1/2-x,1/2+z
1/2+y,1/2+x,1/2+z
loop_
_atom_site_type_symbol
_atom_site_label
_atom_site_fract_x
_atom_site_fract_y
_atom_site_fract_z
Si Si1 0.210660 0.640264 0.383453
Si Si2 0.000000 0.500000 0.288104
Si Si3 0.849869 0.170020 0.094549
Si Si4 0.128763 0.807413 0.503316
Si Si5 0.554156 0.149663 0.332437
Si Si6 0.500000 0.500000 0.500000
O O1 0.091950 0.608894 0.330460
O O2 0.296760 0.490866 0.390265
O O3 0.139835 0.683417 0.449959
O O4 0.303530 0.778475 0.361248
O O5 0.086525 0.388564 0.241429
O O6 0.919732 0.238741 0.157555
O O7 0.975825 0.146146 0.041514
O O8 0.728376 0.276016 0.065593
O O9 0.961244 0.817155 0.524430
O O10 0.500000 0.000000 0.367336
#
# Coordination Sequence:
#
# PCOD8309003 Si02
#       6
#     8   4   8   8   8   2
#     4  12  23  45  69  99 139 182 237 291 359 425
#     4  10  28  42  64 100 130 194 228 296 346 414
#     4  12  21  41  68 102 133 179 226 293 350 429
#     4  11  25  43  68 107 145 183 226 288 370 436
#     4  10  24  42  68  98 136 181 239 292 353 413
#     4  12  20  36  60 108 128 156 228 264 366 400
#
# _framework density 21.139780999999999
#
# number of rings (size 3 to 8) (size 9 to 14) (size 15 to 20)
#    0.632    0.211    4.211    2.526    2.947    0.000 
#    1.895    0.000    0.000    0.000    0.000    0.000 
#    0.000    0.000    0.000    0.000    0.000    0.000 
#
# Total GULP energy -470815.203748 kJ/mol
# GULP energy per Si atom -12389.873783 kJ/mol
# Density = 2.109167 g / cm^3
# Si number density = 21.139781 Si / 1000 Ang^3
#
#
#
# Elastic Constant Matrix: (Units=GPa)
#
#
# Indices 1 2 3 4 5 6 
#
# 1 92.4113 28.7191 17.2425 0.0000 0.0000 0.0000
# 2 28.7191 92.4113 17.2425 0.0000 0.0000 0.0000
# 3 17.2425 17.2425 68.1716 0.0000 0.0000 0.0000
# 4 0.0000 0.0000 0.0000 29.6432 0.0000 0.0000
# 5 0.0000 0.0000 0.0000 0.0000 29.6432 0.0000
# 6 0.0000 0.0000 0.0000 0.0000 0.0000 43.0862
#
#
#
# Elastic Compliance Matrix: (Units=1/GPa)
#
#
# Indices 1 2 3 4 5 6 
#
# 1 0.012298 -0.003402 -0.002250 0.000000 0.000000 0.000000
# 2 -0.003402 0.012298 -0.002250 0.000000 0.000000 0.000000
# 3 -0.002250 -0.002250 0.015807 0.000000 0.000000 0.000000
# 4 0.000000 0.000000 0.000000 0.033734 0.000000 0.000000
# 5 0.000000 0.000000 0.000000 0.000000 0.033734 0.000000
# 6 0.000000 0.000000 0.000000 0.000000 0.000000 0.023209
#
#
# Mechanical properties :
#
#
# Convention : Reuss Voigt Hill
#
# Bulk Modulus (GPa) = 40.65201 42.15585 41.40393
# Shear Modulus (GPa) = 32.24009 33.12720 32.68365
#
# Velocity S-wave (km/s) = 3.90948 3.96290 3.93628
# Velocity P-wave (km/s) = 6.29687 6.39720 6.34723
#
# Compressibility (1/GPa) = 0.02459903
#
# Stress axis : x y z
#
# Youngs Moduli (GPa) = 81.31186 81.31186 63.26275
#
# Poissons Ratio (x) = 0.27664 0.14235
# Poissons Ratio (y) = 0.27664 0.14235
# Poissons Ratio (z) = 0.18296 0.18296
#
# Static dielectric constant tensor:
#      x y z
#    x 4.068910 0.000000 0.000000 
#    y 0.000000 4.068910 0.000000 
#    z 0.000000 0.000000 3.955040 
# 
# 
# High freq. dielectric constant tensor:
#      x y z
#    x 1.832100 0.000000 0.000000 
#    y 0.000000 1.832100 0.000000 
#    z 0.000000 0.000000 1.814420 
# 
# From -- ./inp_files/3417.got.cif
#   From: 2010.03.12/outbox.cif.g09.slc.cpg/sg114_2_cif.got.tgz:3417.got - 2010.04.14 02:08:34.
