data_PCOD8309345
_publ_section_title
;
Structure prediction by ZEFSAII (Michael W. Deem and Ramdas Pophale) SiO2 
 PCOD8309345
Probable space group: P -4 M 2
;
_chemical_formula_sum "Si O2"
_cell_formula_units_Z 40
_cell_length_a 9.505434
_cell_length_b 9.505434
_cell_length_c 25.830042
_cell_angle_alpha 90.000000
_cell_angle_beta 90.000000
_cell_angle_gamma 90.000000
_cell_volume 2333.828902
_symmetry_space_group_name_H-M "P -4 M 2"
_symmetry_group_IT_number 115
_symmetry_cell_setting 'tetragonal'
loop_
_space_group_symop_operation_xyz
x,y,z
y,-x,-z
-x,-y,z
-y,x,-z
y,x,-z
-y,-x,-z
-x,y,z
x,-y,z
loop_
_atom_site_type_symbol
_atom_site_label
_atom_site_fract_x
_atom_site_fract_y
_atom_site_fract_z
Si Si1 0.656661 0.666995 0.943230
Si Si2 0.166016 0.338180 0.236013
Si Si3 0.836212 0.665665 0.846749
Si Si4 0.666334 0.154716 0.647923
Si Si5 0.656205 0.331847 0.443472
O O1 0.500000 0.728975 0.932290
O O2 0.647557 0.500000 0.943028
O O3 0.764199 0.720785 0.899651
O O4 0.713641 0.713641 0.000000
O O5 0.205042 0.500000 0.223194
O O6 0.253064 0.233710 0.200439
O O7 0.211876 0.299786 0.294672
O O8 0.000000 0.314389 0.228437
O O9 0.811539 0.500000 0.838905
O O10 0.000000 0.703523 0.849470
O O11 0.500000 0.146523 0.641103
O O12 0.732737 0.251680 0.603109
O O13 0.732065 0.000000 0.641041
O O14 0.715270 0.284731 0.500000
O O15 0.500000 0.271745 0.435254
O O16 0.653574 0.500000 0.441890
#
# Coordination Sequence:
#
# PCOD8309345 Si02
#       5
#     8   8   8   8   8
#     4   8  14  27  48  70  91 119 155 191 225 263
#     4   9  18  32  49  69  91 118 157 199 233 269
#     4  10  20  32  47  70  99 127 153 184 227 277
#     4   8  14  25  41  61  85 112 144 183 223 262
#     4   8  13  21  35  58  86 112 139 173 214 261
#
# _framework density 17.139216000000001
#
# number of rings (size 3 to 8) (size 9 to 14) (size 15 to 20)
#    0.000    3.400    0.000    3.000    0.000    2.400 
#    0.000    3.000    0.000    4.800    0.000    2.800 
#    0.000    0.000    0.000    0.000    0.000    0.000 
#
# Total GULP energy -495690.543688 kJ/mol
# GULP energy per Si atom -12392.263592 kJ/mol
# Density = 1.710021 g / cm^3
# Si number density = 17.139216 Si / 1000 Ang^3
#
#
#
# Elastic Constant Matrix: (Units=GPa)
#
#
# Indices 1 2 3 4 5 6 
#
# 1 62.1519 34.1103 65.0397 0.0000 0.0000 0.0000
# 2 34.1103 62.1521 65.0397 0.0000 0.0000 0.0000
# 3 65.0397 65.0397 176.4389 0.0000 0.0000 0.0000
# 4 0.0000 0.0000 0.0000 3.0291 0.0000 0.0000
# 5 0.0000 0.0000 0.0000 0.0000 3.0290 0.0000
# 6 0.0000 0.0000 0.0000 0.0000 0.0000 16.5396
#
#
#
# Elastic Compliance Matrix: (Units=1/GPa)
#
#
# Indices 1 2 3 4 5 6 
#
# 1 0.028180 -0.007481 -0.007630 0.000000 0.000000 0.000000
# 2 -0.007481 0.028180 -0.007630 0.000000 0.000000 0.000000
# 3 -0.007630 -0.007630 0.011293 0.000000 0.000000 0.000000
# 4 0.000000 0.000000 0.000000 0.330136 0.000000 0.000000
# 5 0.000000 0.000000 0.000000 0.000000 0.330139 0.000000
# 6 0.000000 0.000000 0.000000 0.000000 0.000000 0.060461
#
#
# Mechanical properties :
#
#
# Convention : Reuss Voigt Hill
#
# Bulk Modulus (GPa) = 45.10550 69.90249 57.50400
# Shear Modulus (GPa) = 5.94345 13.62308 9.78327
#
# Velocity S-wave (km/s) = 1.86421 2.82236 2.39176
# Velocity P-wave (km/s) = 5.56848 7.17598 6.42272
#
# Compressibility (1/GPa) = 0.02217025
#
# Stress axis : x y z
#
# Youngs Moduli (GPa) = 35.48606 35.48619 88.55068
#
# Poissons Ratio (x) = 0.26548 0.67565
# Poissons Ratio (y) = 0.26548 0.67565
# Poissons Ratio (z) = 0.27076 0.27076
#
# Static dielectric constant tensor:
#      x y z
#    x 3.001300 0.000000 0.000000 
#    y 0.000000 3.001300 0.000000 
#    z 0.000000 0.000000 3.591550 
# 
# 
# High freq. dielectric constant tensor:
#      x y z
#    x 1.624730 0.000000 0.000000 
#    y 0.000000 1.624730 0.000000 
#    z 0.000000 0.000000 1.680210 
# 
# From -- ./inp_files/5462.got.cif
#   From: 2010.03.12/outbox.cif.g09.slc.cpg/sg115_3_cif.got.tgz:5462.got - 2010.04.14 02:11:21.
