data_PCOD8309939
_publ_section_title
;
Structure prediction by ZEFSAII (Michael W. Deem and Ramdas Pophale) SiO2 
 PCOD8309939
Probable space group: P -4 M 2
;
_chemical_formula_sum "Si O2"
_cell_formula_units_Z 48
_cell_length_a 8.933341
_cell_length_b 8.933341
_cell_length_c 30.565288
_cell_angle_alpha 90.000000
_cell_angle_beta 90.000000
_cell_angle_gamma 90.000000
_cell_volume 2439.250015
_symmetry_space_group_name_H-M "P -4 M 2"
_symmetry_group_IT_number 115
_symmetry_cell_setting 'tetragonal'
loop_
_space_group_symop_operation_xyz
x,y,z
y,-x,-z
-x,-y,z
-y,x,-z
y,x,-z
-y,-x,-z
-x,y,z
x,-y,z
loop_
_atom_site_type_symbol
_atom_site_label
_atom_site_fract_x
_atom_site_fract_y
_atom_site_fract_z
Si Si1 0.829136 0.323798 0.879690
Si Si2 0.175685 0.672235 0.459476
Si Si3 0.172651 0.171617 0.209357
Si Si4 0.676469 0.171646 0.378309
Si Si5 0.673492 0.174500 0.701598
Si Si6 0.825368 0.672313 0.040331
O O1 0.813583 0.500000 0.882319
O O2 0.776932 0.270152 0.831950
O O3 0.720819 0.253299 0.915220
O O4 0.000000 0.272374 0.888609
O O5 0.231701 0.768300 0.500000
O O6 0.218354 0.500000 0.467570
O O7 0.250120 0.726399 0.415063
O O8 0.000000 0.694437 0.454740
O O9 0.218704 0.276414 0.249675
O O10 0.000000 0.193850 0.196747
O O11 0.206321 0.000000 0.222270
O O12 0.500000 0.188186 0.381931
O O13 0.728858 0.228117 0.331284
O O14 0.726488 0.000000 0.384796
O O15 0.500000 0.214638 0.695575
O O16 0.704177 0.000000 0.692542
O O17 0.787686 0.500000 0.030762
O O18 0.000000 0.700000 0.046011
O O19 0.769211 0.769211 0.000000
#
# Coordination Sequence:
#
# PCOD8309939 Si02
#       6
#     8   8   8   8   8   8
#     4  10  21  37  58  85 116 149 187 231 279 333
#     4  11  24  41  62  89 119 151 190 234 281 336
#     4   9  18  34  56  81 112 152 194 234 278 330
#     4  11  24  40  59  85 116 151 193 238 284 337
#     4  10  21  37  58  85 116 150 190 236 285 338
#     4  11  24  40  59  84 113 146 186 231 279 333
#
# _framework density 19.678180999999999
#
# number of rings (size 3 to 8) (size 9 to 14) (size 15 to 20)
#    0.000    1.667    0.000    4.000    0.000   13.333 
#    0.000    3.333    0.000    0.000    0.000    0.000 
#    0.000    0.000    0.000    0.000    0.000    0.000 
#
# Total GULP energy -595501.375273 kJ/mol
# GULP energy per Si atom -12406.278652 kJ/mol
# Density = 1.963339 g / cm^3
# Si number density = 19.678181 Si / 1000 Ang^3
#
#
#
# Elastic Constant Matrix: (Units=GPa)
#
#
# Indices 1 2 3 4 5 6 
#
# 1 60.9438 44.9814 37.9867 0.0000 0.0000 0.0000
# 2 44.9814 60.9416 37.9865 0.0000 0.0000 0.0000
# 3 37.9867 37.9865 106.3056 0.0000 0.0000 0.0000
# 4 0.0000 0.0000 0.0000 67.7082 0.0000 0.0000
# 5 0.0000 0.0000 0.0000 0.0000 67.7053 0.0000
# 6 0.0000 0.0000 0.0000 0.0000 0.0000 29.6401
#
#
#
# Elastic Compliance Matrix: (Units=1/GPa)
#
#
# Indices 1 2 3 4 5 6 
#
# 1 0.037672 -0.024979 -0.004536 0.000000 0.000000 0.000000
# 2 -0.024979 0.037674 -0.004536 0.000000 0.000000 0.000000
# 3 -0.004536 -0.004536 0.012649 0.000000 0.000000 0.000000
# 4 0.000000 0.000000 0.000000 0.014769 0.000000 0.000000
# 5 0.000000 0.000000 0.000000 0.000000 0.014770 0.000000
# 6 0.000000 0.000000 0.000000 0.000000 0.000000 0.033738
#
#
# Mechanical properties :
#
#
# Convention : Reuss Voigt Hill
#
# Bulk Modulus (GPa) = 50.26963 52.23336 51.25150
# Shear Modulus (GPa) = 22.12349 40.15979 31.14164
#
# Velocity S-wave (km/s) = 3.35664 4.52245 3.98244
# Velocity P-wave (km/s) = 6.37370 7.33972 6.87370
#
# Compressibility (1/GPa) = 0.01989273
#
# Stress axis : x y z
#
# Youngs Moduli (GPa) = 26.54488 26.54374 79.05999
#
# Poissons Ratio (x) = 0.66303 0.35860
# Poissons Ratio (y) = 0.66306 0.35864
# Poissons Ratio (z) = 0.12040 0.12041
#
# Static dielectric constant tensor:
#      x y z
#    x 3.673670 0.000000 0.000000 
#    y 0.000000 3.673670 0.000000 
#    z 0.000000 0.000000 3.812210 
# 
# 
# High freq. dielectric constant tensor:
#      x y z
#    x 1.772470 0.000000 0.000000 
#    y 0.000000 1.772470 0.000000 
#    z 0.000000 0.000000 1.781090 
# 
# From -- ./inp_files/6126.got.cif
#   From: 2010.03.12/outbox.cif.g09.slc.cpg/sg115_4_cif.got.tgz:6126.got - 2010.04.14 02:11:21.
