data_PCOD8309118
_publ_section_title
;
Structure prediction by ZEFSAII (Michael W. Deem and Ramdas Pophale) SiO2 
 PCOD8309118
Probable space group: P -4 21 C
;
_chemical_formula_sum "Si O2"
_cell_formula_units_Z 26
_cell_length_a 9.879626
_cell_length_b 9.879626
_cell_length_c 10.854037
_cell_angle_alpha 90.000000
_cell_angle_beta 90.000000
_cell_angle_gamma 90.000000
_cell_volume 1059.430097
_symmetry_space_group_name_H-M "P -4 21 C"
_symmetry_group_IT_number 114
_symmetry_cell_setting 'tetragonal'
loop_
_space_group_symop_operation_xyz
x,y,z
y,-x,-z
-x,-y,z
-y,x,-z
1/2+x,1/2-y,1/2-z
1/2-x,1/2+y,1/2-z
1/2-y,1/2-x,1/2+z
1/2+y,1/2+x,1/2+z
loop_
_atom_site_type_symbol
_atom_site_label
_atom_site_fract_x
_atom_site_fract_y
_atom_site_fract_z
Si Si1 0.135366 0.822456 0.203586
Si Si2 0.347003 0.018110 0.332289
Si Si3 0.981789 0.801014 0.448504
Si Si4 0.000000 0.000000 0.000000
O O1 0.198628 0.675986 0.176196
O O2 0.021732 0.795649 0.307177
O O3 0.252175 0.925929 0.244925
O O4 0.061348 0.880630 0.083473
O O5 0.339290 0.961322 0.475186
O O6 0.500000 0.000000 0.286173
O O7 0.855575 0.898672 0.461803
#
# Coordination Sequence:
#
# PCOD8309118 Si02
#       4
#     8   8   8   2
#     4  11  27  48  74 114 155 203 263 330 395 481
#     4  11  27  46  78 112 157 204 265 325 401 481
#     4   9  20  44  73  97 142 198 248 306 383 459
#     4  12  28  48  82 108 160 204 272 338 408 468
#
# _framework density 24.541498000000001
#
# number of rings (size 3 to 8) (size 9 to 14) (size 15 to 20)
#    0.000    1.538    0.000    3.692   12.923    3.692 
#    0.000    0.000    0.000    0.000    0.000    0.000 
#    0.000    0.000    0.000    0.000    0.000    0.000 
#
# Total GULP energy -322133.111850 kJ/mol
# GULP energy per Si atom -12389.735071 kJ/mol
# Density = 2.448564 g / cm^3
# Si number density = 24.541498 Si / 1000 Ang^3
#
#
#
# Elastic Constant Matrix: (Units=GPa)
#
#
# Indices 1 2 3 4 5 6 
#
# 1 89.2221 33.9534 28.1674 0.0000 0.0000 0.0000
# 2 33.9534 89.2221 28.1674 0.0000 0.0000 0.0000
# 3 28.1674 28.1674 155.4298 0.0000 0.0000 0.0000
# 4 0.0000 0.0000 0.0000 13.1819 0.0000 0.0000
# 5 0.0000 0.0000 0.0000 0.0000 13.1819 0.0000
# 6 0.0000 0.0000 0.0000 0.0000 0.0000 36.7607
#
#
#
# Elastic Compliance Matrix: (Units=1/GPa)
#
#
# Indices 1 2 3 4 5 6 
#
# 1 0.013473 -0.004621 -0.001604 0.000000 0.000000 0.000000
# 2 -0.004621 0.013473 -0.001604 0.000000 0.000000 0.000000
# 3 -0.001604 -0.001604 0.007015 0.000000 0.000000 0.000000
# 4 0.000000 0.000000 0.000000 0.075861 0.000000 0.000000
# 5 0.000000 0.000000 0.000000 0.000000 0.075861 0.000000
# 6 0.000000 0.000000 0.000000 0.000000 0.000000 0.027203
#
#
# Mechanical properties :
#
#
# Convention : Reuss Voigt Hill
#
# Bulk Modulus (GPa) = 54.63669 57.16118 55.89894
# Shear Modulus (GPa) = 21.30873 28.86397 25.08635
#
# Velocity S-wave (km/s) = 2.94984 3.43319 3.20066
# Velocity P-wave (km/s) = 5.82352 6.24964 6.04034
#
# Compressibility (1/GPa) = 0.01830272
#
# Stress axis : x y z
#
# Youngs Moduli (GPa) = 74.22359 74.22359 142.54736
#
# Poissons Ratio (x) = 0.34296 0.22868
# Poissons Ratio (y) = 0.34296 0.22868
# Poissons Ratio (z) = 0.11907 0.11907
#
# Static dielectric constant tensor:
#      x y z
#    x 4.517720 0.000000 0.000000 
#    y 0.000000 4.517720 0.000000 
#    z 0.000000 0.000000 4.316010 
# 
# 
# High freq. dielectric constant tensor:
#      x y z
#    x 1.981040 0.000000 0.000000 
#    y 0.000000 1.981040 0.000000 
#    z 0.000000 0.000000 1.986290 
# 
# From -- ./inp_files/489.got.cif
#   From: 2010.03.12/outbox.cif.g09.slc.cpg/sg114_1_cif.got.tgz:489.got - 2010.04.14 02:08:34.
