data_PCOD8309351
_publ_section_title
;
Structure prediction by ZEFSAII (Michael W. Deem and Ramdas Pophale) SiO2 
 PCOD8309351
Probable space group: P -4 M 2
;
_chemical_formula_sum "Si O2"
_cell_formula_units_Z 48
_cell_length_a 9.349022
_cell_length_b 9.349022
_cell_length_c 30.921318
_cell_angle_alpha 90.000000
_cell_angle_beta 90.000000
_cell_angle_gamma 90.000000
_cell_volume 2702.653445
_symmetry_space_group_name_H-M "P -4 M 2"
_symmetry_group_IT_number 115
_symmetry_cell_setting 'tetragonal'
loop_
_space_group_symop_operation_xyz
x,y,z
y,-x,-z
-x,-y,z
-y,x,-z
y,x,-z
-y,-x,-z
-x,y,z
x,-y,z
loop_
_atom_site_type_symbol
_atom_site_label
_atom_site_fract_x
_atom_site_fract_y
_atom_site_fract_z
Si Si1 0.340704 0.329840 0.547250
Si Si2 0.666834 0.336289 0.121666
Si Si3 0.333950 0.831722 0.036616
Si Si4 0.668219 0.165557 0.371099
Si Si5 0.664198 0.831214 0.701238
Si Si6 0.669773 0.842174 0.797386
O O1 0.281428 0.281428 0.500000
O O2 0.500000 0.267773 0.555796
O O3 0.347355 0.500000 0.547131
O O4 0.236491 0.273163 0.584707
O O5 0.500000 0.326376 0.130080
O O6 0.713968 0.500000 0.112209
O O7 0.714191 0.238592 0.081678
O O8 0.739547 0.272848 0.164839
O O9 0.500000 0.797457 0.026760
O O10 0.305477 0.000000 0.039040
O O11 0.236244 0.763757 0.000000
O O12 0.500000 0.191700 0.365719
O O13 0.746504 0.234465 0.330700
O O14 0.707598 0.000000 0.373114
O O15 0.500000 0.785529 0.693186
O O16 0.714736 0.787830 0.749724
O O17 0.682069 0.000000 0.694332
O O18 0.500000 0.848696 0.798539
O O19 0.733230 0.000000 0.805825
#
# Coordination Sequence:
#
# PCOD8309351 Si02
#       6
#     8   8   8   8   8   8
#     4   8  14  27  48  70  91 120 160 203 244 286
#     4   9  17  30  50  75 100 126 158 197 242 291
#     4  10  21  36  53  74 101 133 167 203 244 289
#     4  10  20  32  47  71 102 132 161 196 242 293
#     4   9  18  33  52  73  97 128 167 206 242 284
#     4   8  15  29  49  72  96 122 157 201 243 284
#
# _framework density 17.760324000000001
#
# number of rings (size 3 to 8) (size 9 to 14) (size 15 to 20)
#    0.000    3.000    0.000    2.500    0.000    3.667 
#    0.000    5.000    0.000    6.000    0.000    0.000 
#    0.000    0.000    0.000    0.000    0.000    0.000 
#
# Total GULP energy -595041.309738 kJ/mol
# GULP energy per Si atom -12396.693953 kJ/mol
# Density = 1.771990 g / cm^3
# Si number density = 17.760324 Si / 1000 Ang^3
#
#
#
# Elastic Constant Matrix: (Units=GPa)
#
#
# Indices 1 2 3 4 5 6 
#
# 1 70.2168 42.9677 74.6939 0.0000 0.0000 0.0000
# 2 42.9677 70.2167 74.6928 0.0000 0.0000 0.0000
# 3 74.6939 74.6928 189.6133 0.0000 0.0000 0.0000
# 4 0.0000 0.0000 0.0000 -1.4072 0.0000 0.0000
# 5 0.0000 0.0000 0.0000 0.0000 -1.4063 0.0000
# 6 0.0000 0.0000 0.0000 0.0000 0.0000 20.0015
#
#
#
# Elastic Compliance Matrix: (Units=1/GPa)
#
#
# Indices 1 2 3 4 5 6 
#
# 1 0.027551 -0.009148 -0.007250 0.000000 0.000000 0.000000
# 2 -0.009148 0.027551 -0.007249 0.000000 0.000000 0.000000
# 3 -0.007250 -0.007249 0.010986 0.000000 0.000000 0.000000
# 4 0.000000 0.000000 0.000000 -0.710646 0.000000 0.000000
# 5 0.000000 0.000000 0.000000 0.000000 -0.711107 0.000000
# 6 0.000000 0.000000 0.000000 0.000000 0.000000 0.049996
#
#
# Mechanical properties :
#
#
# Convention : Reuss Voigt Hill
#
# Bulk Modulus (GPa) = 53.20807 79.41730 66.31268
# Shear Modulus (GPa) = -3.99325 12.61710 4.31192
#
# Velocity S-wave (km/s) = -1.50110 2.66824 1.55984
# Velocity P-wave (km/s) = 5.19804 7.36925 6.37673
#
# Compressibility (1/GPa) = 0.01879414
#
# Stress axis : x y z
#
# Youngs Moduli (GPa) = 36.29590 36.29654 91.02908
#
# Poissons Ratio (x) = 0.33202 0.65994
# Poissons Ratio (y) = 0.33202 0.65991
# Poissons Ratio (z) = 0.26314 0.26313
#
# Static dielectric constant tensor:
#      x y z
#    x 3.171130 0.000000 0.000000 
#    y 0.000000 3.171130 0.000000 
#    z 0.000000 0.000000 3.636450 
# 
# 
# High freq. dielectric constant tensor:
#      x y z
#    x 1.664010 0.000000 0.000000 
#    y 0.000000 1.664010 0.000000 
#    z 0.000000 0.000000 1.703880 
# 
# From -- ./inp_files/6041.got.cif
#   From: 2010.03.12/outbox.cif.g09.slc.cpg/sg115_4_cif.got.tgz:6041.got - 2010.04.14 02:11:21.
