data_PCOD8309541
_publ_section_title
;
Structure prediction by ZEFSAII (Michael W. Deem and Ramdas Pophale) SiO2 
 PCOD8309541
Probable space group: P -4 M 2
;
_chemical_formula_sum "Si O2"
_cell_formula_units_Z 48
_cell_length_a 9.109375
_cell_length_b 9.109375
_cell_length_c 30.783641
_cell_angle_alpha 90.000000
_cell_angle_beta 90.000000
_cell_angle_gamma 90.000000
_cell_volume 2554.448476
_symmetry_space_group_name_H-M "P -4 M 2"
_symmetry_group_IT_number 115
_symmetry_cell_setting 'tetragonal'
loop_
_space_group_symop_operation_xyz
x,y,z
y,-x,-z
-x,-y,z
-y,x,-z
y,x,-z
-y,-x,-z
-x,y,z
x,-y,z
loop_
_atom_site_type_symbol
_atom_site_label
_atom_site_fract_x
_atom_site_fract_y
_atom_site_fract_z
Si Si1 0.329412 0.827736 0.960540
Si Si2 0.173976 0.338208 0.787250
Si Si3 0.827729 0.331064 0.538393
Si Si4 0.172458 0.831412 0.296715
Si Si5 0.169131 0.327091 0.883840
Si Si6 0.671060 0.330217 0.626247
O O1 0.500000 0.790371 0.965866
O O2 0.273027 0.762679 0.915469
O O3 0.299952 0.000000 0.960886
O O4 0.242822 0.757179 0.000000
O O5 0.238791 0.500000 0.777205
O O6 0.228639 0.228147 0.749862
O O7 0.223282 0.285515 0.835123
O O8 0.000000 0.347409 0.787865
O O9 0.769890 0.230111 0.500000
O O10 0.787582 0.500000 0.528299
O O11 0.751890 0.278074 0.582661
O O12 0.000000 0.307736 0.543637
O O13 0.237592 0.730847 0.333970
O O14 0.000000 0.815264 0.297403
O O15 0.221915 0.000000 0.304072
O O16 0.187312 0.500000 0.892176
O O17 0.000000 0.280979 0.891408
O O18 0.500000 0.298666 0.620220
O O19 0.704202 0.500000 0.635697
#
# Coordination Sequence:
#
# PCOD8309541 Si02
#       6
#     8   8   8   8   8   8
#     4  11  24  39  55  78 107 139 177 219 263 314
#     4   8  15  30  53  79 107 140 177 217 260 309
#     4  10  21  37  58  83 109 139 175 216 264 316
#     4  10  20  33  52  80 111 142 178 220 266 315
#     4   9  18  34  57  84 110 137 174 218 263 314
#     4  10  21  37  57  79 104 139 182 223 264 313
#
# _framework density 18.790749999999999
#
# number of rings (size 3 to 8) (size 9 to 14) (size 15 to 20)
#    0.000    2.333    0.000    3.500    0.000    8.000 
#    0.000    2.500    0.000    1.000    0.000    0.000 
#    0.000    0.000    0.000    0.000    0.000    0.000 
#
# Total GULP energy -595263.114056 kJ/mol
# GULP energy per Si atom -12401.314876 kJ/mol
# Density = 1.874798 g / cm^3
# Si number density = 18.790750 Si / 1000 Ang^3
#
#
#
# Elastic Constant Matrix: (Units=GPa)
#
#
# Indices 1 2 3 4 5 6 
#
# 1 72.8160 45.4008 61.5049 0.0000 0.0000 0.0000
# 2 45.4008 72.8123 61.5039 0.0000 0.0000 0.0000
# 3 61.5049 61.5039 159.9849 0.0000 0.0000 0.0000
# 4 0.0000 0.0000 0.0000 34.2820 0.0000 0.0000
# 5 0.0000 0.0000 0.0000 0.0000 34.2820 0.0000
# 6 0.0000 0.0000 0.0000 0.0000 0.0000 28.4733
#
#
#
# Elastic Compliance Matrix: (Units=1/GPa)
#
#
# Indices 1 2 3 4 5 6 
#
# 1 0.025288 -0.011190 -0.005420 0.000000 0.000000 0.000000
# 2 -0.011190 0.025290 -0.005420 0.000000 0.000000 0.000000
# 3 -0.005420 -0.005420 0.010418 0.000000 0.000000 0.000000
# 4 0.000000 0.000000 0.000000 0.029170 0.000000 0.000000
# 5 0.000000 0.000000 0.000000 0.000000 0.029170 0.000000
# 6 0.000000 0.000000 0.000000 0.000000 0.000000 0.035121
#
#
# Mechanical properties :
#
#
# Convention : Reuss Voigt Hill
#
# Bulk Modulus (GPa) = 59.04766 71.38137 65.21451
# Shear Modulus (GPa) = 24.49038 28.55437 26.52237
#
# Velocity S-wave (km/s) = 3.61407 3.90243 3.76101
# Velocity P-wave (km/s) = 6.99338 7.64037 7.32402
#
# Compressibility (1/GPa) = 0.01693547
#
# Stress axis : x y z
#
# Youngs Moduli (GPa) = 39.54421 39.54188 95.98640
#
# Poissons Ratio (x) = 0.44246 0.52026
# Poissons Ratio (y) = 0.44248 0.52029
# Poissons Ratio (z) = 0.21433 0.21434
#
# Static dielectric constant tensor:
#      x y z
#    x 3.367640 0.000000 0.000000 
#    y 0.000000 3.367640 0.000000 
#    z 0.000000 0.000000 3.717010 
# 
# 
# High freq. dielectric constant tensor:
#      x y z
#    x 1.719970 0.000000 0.000000 
#    y 0.000000 1.719970 0.000000 
#    z 0.000000 0.000000 1.747070 
# 
# From -- ./inp_files/6055.got.cif
#   From: 2010.03.12/outbox.cif.g09.slc.cpg/sg115_4_cif.got.tgz:6055.got - 2010.04.14 02:11:21.
