data_PCOD8309895
_publ_section_title
;
Structure prediction by ZEFSAII (Michael W. Deem and Ramdas Pophale) SiO2 
 PCOD8309895
Probable space group: P -4 M 2
;
_chemical_formula_sum "Si O2"
_cell_formula_units_Z 40
_cell_length_a 9.140385
_cell_length_b 9.140385
_cell_length_c 25.888457
_cell_angle_alpha 90.000000
_cell_angle_beta 90.000000
_cell_angle_gamma 90.000000
_cell_volume 2162.893544
_symmetry_space_group_name_H-M "P -4 M 2"
_symmetry_group_IT_number 115
_symmetry_cell_setting 'tetragonal'
loop_
_space_group_symop_operation_xyz
x,y,z
y,-x,-z
-x,-y,z
-y,x,-z
y,x,-z
-y,-x,-z
-x,y,z
x,-y,z
loop_
_atom_site_type_symbol
_atom_site_label
_atom_site_fract_x
_atom_site_fract_y
_atom_site_fract_z
Si Si1 0.165979 0.171052 0.757060
Si Si2 0.328364 0.829554 0.860397
Si Si3 0.336197 0.173885 0.342026
Si Si4 0.328261 0.828049 0.047173
Si Si5 0.334318 0.827375 0.455382
O O1 0.269139 0.216639 0.804368
O O2 0.234810 0.238739 0.704858
O O3 0.000000 0.226828 0.767714
O O4 0.166376 0.000000 0.748544
O O5 0.500000 0.796640 0.863356
O O6 0.244054 0.729084 0.900648
O O7 0.295470 0.000000 0.872053
O O8 0.500000 0.232169 0.333511
O O9 0.278937 0.226126 0.398534
O O10 0.333284 0.000000 0.341027
O O11 0.500000 0.796833 0.040913
O O12 0.294972 0.000000 0.048392
O O13 0.243161 0.756840 0.000000
O O14 0.234899 0.765102 0.500000
O O15 0.500000 0.773793 0.463650
O O16 0.324931 0.000000 0.458592
#
# Coordination Sequence:
#
# PCOD8309895 Si02
#       5
#     8   8   8   8   8
#     4   9  17  30  50  75 101 131 169 211 254 301
#     4  10  21  37  56  79 109 143 176 211 254 304
#     4   8  15  29  48  69  95 127 164 208 255 303
#     4  11  24  40  59  84 111 140 176 216 258 304
#     4   9  18  32  49  71  99 131 168 210 257 308
#
# _framework density 18.493742999999998
#
# number of rings (size 3 to 8) (size 9 to 14) (size 15 to 20)
#    0.000    2.600    0.000    3.000    0.000    7.200 
#    0.000    5.000    0.000    3.600    0.000    0.000 
#    0.000    0.000    0.000    0.000    0.000    0.000 
#
# Total GULP energy -495871.795874 kJ/mol
# GULP energy per Si atom -12396.794897 kJ/mol
# Density = 1.845165 g / cm^3
# Si number density = 18.493743 Si / 1000 Ang^3
#
#
#
# Elastic Constant Matrix: (Units=GPa)
#
#
# Indices 1 2 3 4 5 6 
#
# 1 62.0846 39.1804 56.2022 0.0000 0.0000 0.0000
# 2 39.1804 62.0788 56.1981 0.0000 0.0000 0.0000
# 3 56.2022 56.1981 161.4083 0.0000 0.0000 0.0000
# 4 0.0000 0.0000 0.0000 -584.0714 0.0000 0.0000
# 5 0.0000 0.0000 0.0000 0.0000 -585.1816 0.0000
# 6 0.0000 0.0000 0.0000 0.0000 0.0000 21.6083
#
#
#
# Elastic Compliance Matrix: (Units=1/GPa)
#
#
# Indices 1 2 3 4 5 6 
#
# 1 0.029880 -0.013785 -0.005605 0.000000 0.000000 0.000000
# 2 -0.013785 0.029882 -0.005604 0.000000 0.000000 0.000000
# 3 -0.005605 -0.005604 0.010098 0.000000 0.000000 0.000000
# 4 0.000000 0.000000 0.000000 -0.001712 0.000000 0.000000
# 5 0.000000 0.000000 0.000000 0.000000 -0.001709 0.000000
# 6 0.000000 0.000000 0.000000 0.000000 0.000000 0.046278
#
#
# Mechanical properties :
#
#
# Convention : Reuss Voigt Hill
#
# Bulk Modulus (GPa) = 50.31975 65.41478 57.86726
# Shear Modulus (GPa) = 29.52825 -220.59619 -95.53397
#
# Velocity S-wave (km/s) = 4.00016 -10.93346 -7.19511
# Velocity P-wave (km/s) = 6.97160 11.13280 6.13743
#
# Compressibility (1/GPa) = 0.01987291
#
# Stress axis : x y z
#
# Youngs Moduli (GPa) = 33.46731 33.46492 99.02649
#
# Poissons Ratio (x) = 0.46130 0.55501
# Poissons Ratio (y) = 0.46133 0.55498
# Poissons Ratio (z) = 0.18757 0.18755
#
# Static dielectric constant tensor:
#      x y z
#    x 3.785510 0.000000 0.000000 
#    y 0.000000 3.784720 0.000000 
#    z 0.000000 0.000000 3.815040 
# 
# 
# High freq. dielectric constant tensor:
#      x y z
#    x 1.702920 0.000000 0.000000 
#    y 0.000000 1.702920 0.000000 
#    z 0.000000 0.000000 1.737470 
# 
# From -- ./inp_files/5124.got.cif
#   From: 2010.03.12/outbox.cif.g09.slc.cpg/sg115_3_cif.got.tgz:5124.got - 2010.04.14 02:11:21.
