data_PCOD8309419
_publ_section_title
;
Structure prediction by ZEFSAII (Michael W. Deem and Ramdas Pophale) SiO2 
 PCOD8309419
Probable space group: P -4 M 2
;
_chemical_formula_sum "Si O2"
_cell_formula_units_Z 48
_cell_length_a 9.024073
_cell_length_b 9.024073
_cell_length_c 30.903238
_cell_angle_alpha 90.000000
_cell_angle_beta 90.000000
_cell_angle_gamma 90.000000
_cell_volume 2516.570992
_symmetry_space_group_name_H-M "P -4 M 2"
_symmetry_group_IT_number 115
_symmetry_cell_setting 'tetragonal'
loop_
_space_group_symop_operation_xyz
x,y,z
y,-x,-z
-x,-y,z
-y,x,-z
y,x,-z
-y,-x,-z
-x,y,z
x,-y,z
loop_
_atom_site_type_symbol
_atom_site_label
_atom_site_fract_x
_atom_site_fract_y
_atom_site_fract_z
Si Si1 0.828146 0.325919 0.880590
Si Si2 0.174260 0.669664 0.461040
Si Si3 0.174681 0.329049 0.196491
Si Si4 0.665153 0.323547 0.375262
Si Si5 0.675599 0.163649 0.706817
Si Si6 0.825761 0.672127 0.039974
O O1 0.799642 0.500000 0.883459
O O2 0.778809 0.267370 0.833973
O O3 0.729022 0.246053 0.916135
O O4 0.000000 0.287596 0.888298
O O5 0.231537 0.768464 0.500000
O O6 0.223360 0.500000 0.469011
O O7 0.241247 0.731717 0.416324
O O8 0.000000 0.684916 0.457515
O O9 0.214844 0.500000 0.186584
O O10 0.222750 0.284824 0.245295
O O11 0.000000 0.303854 0.189735
O O12 0.500000 0.260795 0.380229
O O13 0.666461 0.500000 0.373233
O O14 0.731702 0.257916 0.330624
O O15 0.500000 0.154020 0.702579
O O16 0.743212 0.000000 0.700180
O O17 0.787447 0.500000 0.033714
O O18 0.000000 0.699032 0.042605
O O19 0.762322 0.762322 0.000000
#
# Coordination Sequence:
#
# PCOD8309419 Si02
#       6
#     8   8   8   8   8   8
#     4  11  24  39  55  79 111 146 185 226 268 316
#     4  10  20  33  50  72  99 132 169 210 258 310
#     4   9  18  33  54  80 108 140 180 223 266 314
#     4   9  16  26  44  72 103 133 167 209 257 309
#     4   8  14  26  45  71 104 137 169 210 260 313
#     4  11  24  41  62  88 115 143 179 221 265 317
#
# _framework density 19.073571000000001
#
# number of rings (size 3 to 8) (size 9 to 14) (size 15 to 20)
#    0.000    2.333    0.000    4.000    0.000   10.667 
#    0.000    1.667    0.000    1.000    0.000    4.667 
#    0.000    0.000    0.000    0.000    0.000    0.000 
#
# Total GULP energy -595210.546426 kJ/mol
# GULP energy per Si atom -12400.219717 kJ/mol
# Density = 1.903016 g / cm^3
# Si number density = 19.073571 Si / 1000 Ang^3
#
#
#
# Elastic Constant Matrix: (Units=GPa)
#
#
# Indices 1 2 3 4 5 6 
#
# 1 67.1568 37.5683 43.3437 0.0000 0.0000 0.0000
# 2 37.5683 67.1555 43.3423 0.0000 0.0000 0.0000
# 3 43.3437 43.3423 142.1008 0.0000 0.0000 0.0000
# 4 0.0000 0.0000 0.0000 -115.9877 0.0000 0.0000
# 5 0.0000 0.0000 0.0000 0.0000 -115.9633 0.0000
# 6 0.0000 0.0000 0.0000 0.0000 0.0000 24.0011
#
#
#
# Elastic Compliance Matrix: (Units=1/GPa)
#
#
# Indices 1 2 3 4 5 6 
#
# 1 0.023286 -0.010512 -0.003896 0.000000 0.000000 0.000000
# 2 -0.010512 0.023286 -0.003896 0.000000 0.000000 0.000000
# 3 -0.003896 -0.003896 0.009414 0.000000 0.000000 0.000000
# 4 0.000000 0.000000 0.000000 -0.008622 0.000000 0.000000
# 5 0.000000 0.000000 0.000000 0.000000 -0.008623 0.000000
# 6 0.000000 0.000000 0.000000 0.000000 0.000000 0.041665
#
#
# Mechanical properties :
#
#
# Convention : Reuss Voigt Hill
#
# Bulk Modulus (GPa) = 51.60746 58.32464 54.96605
# Shear Modulus (GPa) = 40.49460 -31.44604 4.52428
#
# Velocity S-wave (km/s) = 4.61268 -4.06479 1.54181
# Velocity P-wave (km/s) = 7.44882 2.93516 5.66127
#
# Compressibility (1/GPa) = 0.01937704
#
# Stress axis : x y z
#
# Youngs Moduli (GPa) = 42.94474 42.94434 106.22346
#
# Poissons Ratio (x) = 0.45142 0.41389
# Poissons Ratio (y) = 0.45143 0.41386
# Poissons Ratio (z) = 0.16733 0.16732
#
# Static dielectric constant tensor:
#      x y z
#    x 3.403650 0.000000 0.000000 
#    y 0.000000 3.403660 0.000000 
#    z 0.000000 0.000000 3.777960 
# 
# 
# High freq. dielectric constant tensor:
#      x y z
#    x 1.724260 0.000000 0.000000 
#    y 0.000000 1.724260 0.000000 
#    z 0.000000 0.000000 1.761530 
# 
# From -- ./inp_files/6078.got.cif
#   From: 2010.03.12/outbox.cif.g09.slc.cpg/sg115_4_cif.got.tgz:6078.got - 2010.04.14 02:11:21.
