data_PCOD8309020
_publ_section_title
;
Structure prediction by ZEFSAII (Michael W. Deem and Ramdas Pophale) SiO2 
 PCOD8309020
Probable space group: P -4 21 C
;
_chemical_formula_sum "Si O2"
_cell_formula_units_Z 40
_cell_length_a 8.725163
_cell_length_b 8.725163
_cell_length_c 24.091285
_cell_angle_alpha 90.000000
_cell_angle_beta 90.000000
_cell_angle_gamma 90.000000
_cell_volume 1834.032652
_symmetry_space_group_name_H-M "P -4 21 C"
_symmetry_group_IT_number 114
_symmetry_cell_setting 'tetragonal'
loop_
_space_group_symop_operation_xyz
x,y,z
y,-x,-z
-x,-y,z
-y,x,-z
1/2+x,1/2-y,1/2-z
1/2-x,1/2+y,1/2-z
1/2-y,1/2-x,1/2+z
1/2+y,1/2+x,1/2+z
loop_
_atom_site_type_symbol
_atom_site_label
_atom_site_fract_x
_atom_site_fract_y
_atom_site_fract_z
Si Si1 0.758451 0.094451 0.557408
Si Si2 0.264362 0.811563 0.828524
Si Si3 0.582202 0.271485 0.933979
Si Si4 0.157786 0.089943 0.765838
Si Si5 0.666394 0.044689 0.155559
O O1 0.697507 0.114606 0.494300
O O2 0.617564 0.140132 0.595607
O O3 0.901446 0.203018 0.570014
O O4 0.815559 0.923914 0.570330
O O5 0.374492 0.835235 0.881690
O O6 0.299696 0.654511 0.794701
O O7 0.094936 0.784453 0.852522
O O8 0.277532 0.966667 0.791513
O O9 0.158991 0.243809 0.803378
O O10 0.000000 0.000000 0.759444
O O11 0.500000 0.000000 0.181213
#
# Coordination Sequence:
#
# PCOD8309020 Si02
#       5
#     8   8   8   8   8
#     4   9  19  37  62  94 118 165 217 266 324 387
#     4  11  22  40  63  91 127 172 213 271 325 387
#     4   9  19  37  64  88 125 165 217 267 319 388
#     4  10  25  41  62  97 132 168 224 263 327 400
#     4  11  21  39  65  89 127 163 209 267 332 385
#
# _framework density 21.809864999999999
#
# number of rings (size 3 to 8) (size 9 to 14) (size 15 to 20)
#    0.000    2.000    2.000    2.400    2.800    1.600 
#    3.600    5.000    0.000    0.000    0.000    0.000 
#    0.000    0.000    0.000    0.000    0.000    0.000 
#
# Total GULP energy -495753.692627 kJ/mol
# GULP energy per Si atom -12393.842316 kJ/mol
# Density = 2.176022 g / cm^3
# Si number density = 21.809865 Si / 1000 Ang^3
#
#
#
# Elastic Constant Matrix: (Units=GPa)
#
#
# Indices 1 2 3 4 5 6 
#
# 1 74.5218 23.7927 48.0491 0.0000 0.0000 0.0000
# 2 23.7927 74.5218 48.0491 0.0000 0.0000 0.0000
# 3 48.0491 48.0491 138.7267 0.0000 0.0000 0.0000
# 4 0.0000 0.0000 0.0000 33.3384 0.0000 0.0000
# 5 0.0000 0.0000 0.0000 0.0000 33.3384 0.0000
# 6 0.0000 0.0000 0.0000 0.0000 0.0000 27.4215
#
#
#
# Elastic Compliance Matrix: (Units=1/GPa)
#
#
# Indices 1 2 3 4 5 6 
#
# 1 0.017545 -0.002168 -0.005326 0.000000 0.000000 0.000000
# 2 -0.002168 0.017545 -0.005326 0.000000 0.000000 0.000000
# 3 -0.005326 -0.005326 0.010898 0.000000 0.000000 0.000000
# 4 0.000000 0.000000 0.000000 0.029995 0.000000 0.000000
# 5 0.000000 0.000000 0.000000 0.000000 0.029995 0.000000
# 6 0.000000 0.000000 0.000000 0.000000 0.000000 0.036468
#
#
# Mechanical properties :
#
#
# Convention : Reuss Voigt Hill
#
# Bulk Modulus (GPa) = 49.14388 58.61691 53.88040
# Shear Modulus (GPa) = 28.59284 30.01161 29.30222
#
# Velocity S-wave (km/s) = 3.62471 3.71355 3.66940
# Velocity P-wave (km/s) = 6.33244 6.73216 6.53535
#
# Compressibility (1/GPa) = 0.02034841
#
# Stress axis : x y z
#
# Youngs Moduli (GPa) = 56.99621 56.99621 91.76067
#
# Poissons Ratio (x) = 0.12354 0.48873
# Poissons Ratio (y) = 0.12354 0.48873
# Poissons Ratio (z) = 0.30357 0.30357
#
# Static dielectric constant tensor:
#      x y z
#    x 3.825430 0.000000 0.000000 
#    y 0.000000 3.825430 0.000000 
#    z 0.000000 0.000000 4.060840 
# 
# 
# High freq. dielectric constant tensor:
#      x y z
#    x 1.842440 0.000000 0.000000 
#    y 0.000000 1.842440 0.000000 
#    z 0.000000 0.000000 1.864300 
# 
# From -- ./inp_files/3649.got.cif
#   From: 2010.03.12/outbox.cif.g09.slc.cpg/sg114_2_cif.got.tgz:3649.got - 2010.04.14 02:08:34.
