data_PCOD8309766
_publ_section_title
;
Structure prediction by ZEFSAII (Michael W. Deem and Ramdas Pophale) SiO2 
 PCOD8309766
Probable space group: P -4 M 2
;
_chemical_formula_sum "Si O2"
_cell_formula_units_Z 48
_cell_length_a 9.490779
_cell_length_b 9.490779
_cell_length_c 30.475154
_cell_angle_alpha 90.000000
_cell_angle_beta 90.000000
_cell_angle_gamma 90.000000
_cell_volume 2745.046023
_symmetry_space_group_name_H-M "P -4 M 2"
_symmetry_group_IT_number 115
_symmetry_cell_setting 'tetragonal'
loop_
_space_group_symop_operation_xyz
x,y,z
y,-x,-z
-x,-y,z
-y,x,-z
y,x,-z
-y,-x,-z
-x,y,z
x,-y,z
loop_
_atom_site_type_symbol
_atom_site_label
_atom_site_fract_x
_atom_site_fract_y
_atom_site_fract_z
Si Si1 0.337568 0.163606 0.297322
Si Si2 0.663013 0.336723 0.212828
Si Si3 0.843113 0.832160 0.952110
Si Si4 0.163250 0.834926 0.381737
Si Si5 0.659846 0.337397 0.448919
Si Si6 0.336360 0.163699 0.870914
O O1 0.500000 0.196349 0.308817
O O2 0.287045 0.250024 0.255074
O O3 0.242810 0.214341 0.337825
O O4 0.314034 0.000000 0.286931
O O5 0.500000 0.308549 0.202290
O O6 0.693135 0.500000 0.222492
O O7 0.752456 0.282275 0.171525
O O8 0.742932 0.775441 0.913596
O O9 0.000000 0.771824 0.943906
O O10 0.847294 0.000000 0.952123
O O11 0.784257 0.784257 0.000000
O O12 0.228964 0.756105 0.423029
O O13 0.000000 0.794139 0.377278
O O14 0.184507 0.000000 0.389588
O O15 0.688150 0.311851 0.500000
O O16 0.500000 0.292456 0.436995
O O17 0.683422 0.500000 0.436631
O O18 0.500000 0.191136 0.879102
O O19 0.302586 0.000000 0.863161
#
# Coordination Sequence:
#
# PCOD8309766 Si02
#       6
#     8   8   8   8   8   8
#     4   9  18  33  51  69  92 125 162 197 235 280
#     4   9  18  32  48  66  90 120 152 187 230 279
#     4   8  14  26  44  64  86 114 148 183 219 263
#     4  10  21  35  51  75 106 135 163 199 245 294
#     4   9  19  36  56  77 101 131 169 209 245 285
#     4   9  17  29  45  65  89 116 146 182 225 271
#
# _framework density 17.486045000000001
#
# number of rings (size 3 to 8) (size 9 to 14) (size 15 to 20)
#    0.000    3.000    0.000    1.500    0.000    4.000 
#    0.000    5.000    0.000    1.000    0.000    0.000 
#    0.000    0.000    0.000    0.000    0.000    0.000 
#
# Total GULP energy -595202.115886 kJ/mol
# GULP energy per Si atom -12400.044081 kJ/mol
# Density = 1.744625 g / cm^3
# Si number density = 17.486045 Si / 1000 Ang^3
#
#
#
# Elastic Constant Matrix: (Units=GPa)
#
#
# Indices 1 2 3 4 5 6 
#
# 1 67.4535 40.8000 68.6213 0.0000 0.0000 0.0000
# 2 40.8000 67.4536 68.6214 0.0000 0.0000 0.0000
# 3 68.6213 68.6214 147.9550 0.0000 0.0000 0.0000
# 4 0.0000 0.0000 0.0000 33.8123 0.0000 0.0000
# 5 0.0000 0.0000 0.0000 0.0000 33.8123 0.0000
# 6 0.0000 0.0000 0.0000 0.0000 0.0000 22.3656
#
#
#
# Elastic Compliance Matrix: (Units=1/GPa)
#
#
# Indices 1 2 3 4 5 6 
#
# 1 0.029970 -0.007549 -0.010399 0.000000 0.000000 0.000000
# 2 -0.007549 0.029970 -0.010399 0.000000 0.000000 0.000000
# 3 -0.010399 -0.010399 0.016405 0.000000 0.000000 0.000000
# 4 0.000000 0.000000 0.000000 0.029575 0.000000 0.000000
# 5 0.000000 0.000000 0.000000 0.000000 0.029575 0.000000
# 6 0.000000 0.000000 0.000000 0.000000 0.000000 0.044711
#
#
# Mechanical properties :
#
#
# Convention : Reuss Voigt Hill
#
# Bulk Modulus (GPa) = 50.88654 70.99416 60.94035
# Shear Modulus (GPa) = 20.53812 24.98599 22.76206
#
# Velocity S-wave (km/s) = 3.43088 3.78419 3.61186
# Velocity P-wave (km/s) = 6.69768 7.73189 7.23329
#
# Compressibility (1/GPa) = 0.01965156
#
# Stress axis : x y z
#
# Youngs Moduli (GPa) = 33.36682 33.36686 60.95755
#
# Poissons Ratio (x) = 0.25187 0.63389
# Poissons Ratio (y) = 0.25187 0.63389
# Poissons Ratio (z) = 0.34698 0.34698
#
# Static dielectric constant tensor:
#      x y z
#    x 3.165690 0.000000 0.000000 
#    y 0.000000 3.165690 0.000000 
#    z 0.000000 0.000000 3.406620 
# 
# 
# High freq. dielectric constant tensor:
#      x y z
#    x 1.662890 0.000000 0.000000 
#    y 0.000000 1.662890 0.000000 
#    z 0.000000 0.000000 1.684650 
# 
# From -- ./inp_files/5982.got.cif
#   From: 2010.03.12/outbox.cif.g09.slc.cpg/sg115_3_cif.got.tgz:5982.got - 2010.04.14 02:11:21.
