data_PCOD8309383
_publ_section_title
;
Structure prediction by ZEFSAII (Michael W. Deem and Ramdas Pophale) SiO2 
 PCOD8309383
Probable space group: P -4 M 2
;
_chemical_formula_sum "Si O2"
_cell_formula_units_Z 64
_cell_length_a 14.431990
_cell_length_b 14.431990
_cell_length_c 17.526351
_cell_angle_alpha 90.000000
_cell_angle_beta 90.000000
_cell_angle_gamma 90.000000
_cell_volume 3650.429317
_symmetry_space_group_name_H-M "P -4 M 2"
_symmetry_group_IT_number 115
_symmetry_cell_setting 'tetragonal'
loop_
_space_group_symop_operation_xyz
x,y,z
y,-x,-z
-x,-y,z
-y,x,-z
y,x,-z
-y,-x,-z
-x,y,z
x,-y,z
loop_
_atom_site_type_symbol
_atom_site_label
_atom_site_fract_x
_atom_site_fract_y
_atom_site_fract_z
Si Si1 0.610172 0.799456 0.905456
Si Si2 0.252318 0.106583 0.623545
Si Si3 0.895289 0.744509 0.201848
Si Si4 0.396976 0.109495 0.498524
Si Si5 0.261362 0.892879 0.368253
Si Si6 0.401887 0.396542 0.090200
Si Si7 0.106186 0.393225 0.938826
Si Si8 0.893525 0.744579 0.805507
O O1 0.500000 0.804358 0.896805
O O2 0.654120 0.870808 0.846744
O O3 0.649660 0.695777 0.884774
O O4 0.637778 0.827450 0.991798
O O5 0.284544 0.118388 0.710537
O O6 0.336719 0.142440 0.571076
O O7 0.161998 0.168699 0.608333
O O8 0.226278 0.000000 0.604605
O O9 0.834187 0.831992 0.176750
O O10 0.000000 0.774269 0.184969
O O11 0.500000 0.154440 0.502018
O O12 0.346654 0.141256 0.420500
O O13 0.406844 0.000000 0.500133
O O14 0.290959 0.875578 0.280637
O O15 0.238205 0.000000 0.383892
O O16 0.500000 0.346230 0.115726
O O17 0.404183 0.500000 0.124014
O O18 0.400986 0.400986 0.000000
O O19 0.121436 0.500000 0.918046
O O20 0.134287 0.336505 0.863621
O O21 0.000000 0.374268 0.962972
O O22 0.000000 0.774570 0.816173
#
# Coordination Sequence:
#
# PCOD8309383 Si02
#       8
#     8   8   8   8   8   8   8   8
#     4  10  20  32  49  72  95 124 161 199 242 293
#     4   9  18  32  48  70 100 129 158 194 238 283
#     4  10  21  34  49  69  94 127 165 205 242 280
#     4   9  17  29  47  71  98 128 157 184 221 273
#     4   9  17  30  49  73  98 124 158 197 236 283
#     4   8  15  28  45  67  93 117 146 187 238 297
#     4   9  18  32  49  70  96 126 161 201 246 295
#     4   9  19  34  50  69  95 126 159 200 246 288
#
# _framework density 17.532184999999998
#
# number of rings (size 3 to 8) (size 9 to 14) (size 15 to 20)
#    0.000    2.875    0.000    1.125    1.750    2.250 
#    0.000    6.250    0.000    3.000    0.000    1.750 
#    0.000    4.000    0.000    0.000    0.000    0.000 
#
# Total GULP energy -793154.227666 kJ/mol
# GULP energy per Si atom -12393.034807 kJ/mol
# Density = 1.749228 g / cm^3
# Si number density = 17.532185 Si / 1000 Ang^3
#
#
#
# Elastic Constant Matrix: (Units=GPa)
#
#
# Indices 1 2 3 4 5 6 
#
# 1 95.5674 49.8386 57.2491 0.0000 0.0000 0.0000
# 2 49.8386 95.5674 57.2491 0.0000 0.0000 0.0000
# 3 57.2491 57.2491 96.1993 0.0000 0.0000 0.0000
# 4 0.0000 0.0000 0.0000 25.1147 0.0000 0.0000
# 5 0.0000 0.0000 0.0000 0.0000 25.1147 0.0000
# 6 0.0000 0.0000 0.0000 0.0000 0.0000 17.9571
#
#
#
# Elastic Compliance Matrix: (Units=1/GPa)
#
#
# Indices 1 2 3 4 5 6 
#
# 1 0.017405 -0.004463 -0.007702 0.000000 0.000000 0.000000
# 2 -0.004463 0.017405 -0.007702 0.000000 0.000000 0.000000
# 3 -0.007702 -0.007702 0.019562 0.000000 0.000000 0.000000
# 4 0.000000 0.000000 0.000000 0.039817 0.000000 0.000000
# 5 0.000000 0.000000 0.000000 0.000000 0.039817 0.000000
# 6 0.000000 0.000000 0.000000 0.000000 0.000000 0.055688
#
#
# Mechanical properties :
#
#
# Convention : Reuss Voigt Hill
#
# Bulk Modulus (GPa) = 68.31323 68.44533 68.37928
# Shear Modulus (GPa) = 21.33939 21.83713 21.58826
#
# Velocity S-wave (km/s) = 3.49256 3.53306 3.51287
# Velocity P-wave (km/s) = 7.43727 7.46779 7.45255
#
# Compressibility (1/GPa) = 0.01463845
#
# Stress axis : x y z
#
# Youngs Moduli (GPa) = 57.45437 57.45437 51.11916
#
# Poissons Ratio (x) = 0.25642 0.39372
# Poissons Ratio (y) = 0.25642 0.39372
# Poissons Ratio (z) = 0.44251 0.44251
#
# Static dielectric constant tensor:
#      x y z
#    x 3.363900 0.000000 0.000000 
#    y 0.000000 3.363900 0.000000 
#    z 0.000000 0.000000 3.221370 
# 
# 
# High freq. dielectric constant tensor:
#      x y z
#    x 1.669940 0.000000 0.000000 
#    y 0.000000 1.669940 0.000000 
#    z 0.000000 0.000000 1.665010 
# 
# From -- ./inp_files/4419.got.cif
#   From: 2010.03.12/outbox.cif.g09.slc.cpg/sg115_3_cif.got.tgz:4419.got - 2010.04.14 02:11:21.
