data_PCOD8309748
_publ_section_title
;
Structure prediction by ZEFSAII (Michael W. Deem and Ramdas Pophale) SiO2 
 PCOD8309748
Probable space group: P -4 M 2
;
_chemical_formula_sum "Si O2"
_cell_formula_units_Z 40
_cell_length_a 9.489984
_cell_length_b 9.489984
_cell_length_c 25.967396
_cell_angle_alpha 90.000000
_cell_angle_beta 90.000000
_cell_angle_gamma 90.000000
_cell_volume 2338.618395
_symmetry_space_group_name_H-M "P -4 M 2"
_symmetry_group_IT_number 115
_symmetry_cell_setting 'tetragonal'
loop_
_space_group_symop_operation_xyz
x,y,z
y,-x,-z
-x,-y,z
-y,x,-z
y,x,-z
-y,-x,-z
-x,y,z
x,-y,z
loop_
_atom_site_type_symbol
_atom_site_label
_atom_site_fract_x
_atom_site_fract_y
_atom_site_fract_z
Si Si1 0.336160 0.336160 0.000000
Si Si2 0.155471 0.667035 0.797935
Si Si3 0.341401 0.668801 0.889856
Si Si4 0.164487 0.663614 0.399936
Si Si5 0.335313 0.163545 0.317575
Si Si6 0.162392 0.162392 0.500000
O O1 0.272573 0.280728 0.945225
O O2 0.305952 0.500000 0.005727
O O3 0.150625 0.500000 0.803240
O O4 0.254507 0.732991 0.842095
O O5 0.208359 0.705712 0.740683
O O6 0.000000 0.729759 0.806560
O O7 0.500000 0.725376 0.883575
O O8 0.341038 0.500000 0.888964
O O9 0.205755 0.500000 0.404181
O O10 0.248311 0.734421 0.353835
O O11 0.207812 0.739798 0.452721
O O12 0.000000 0.684149 0.388819
O O13 0.500000 0.187429 0.327913
O O14 0.296150 0.000000 0.327349
O O15 0.000000 0.187882 0.515698
#
# Coordination Sequence:
#
# PCOD8309748 Si02
#       6
#     4   8   8   8   8   4
#     4   7  10  16  26  44  70  96 126 169 216 258
#     4   8  14  24  37  56  83 112 143 181 222 261
#     4   8  12  18  30  49  74 104 137 174 216 261
#     4  10  21  35  51  74 101 125 152 188 228 270
#     4   9  18  32  49  69  94 124 157 193 232 273
#     4   9  18  34  54  71  90 122 160 191 220 261
#
# _framework density 17.104116000000001
#
# number of rings (size 3 to 8) (size 9 to 14) (size 15 to 20)
#    0.000    3.400    0.000    3.000    0.000    3.200 
#    0.000    4.000    0.000    0.000    0.000    1.400 
#    0.000    4.800    0.000    0.000    0.000    0.000 
#
# Total GULP energy -495558.425748 kJ/mol
# GULP energy per Si atom -12388.960644 kJ/mol
# Density = 1.706519 g / cm^3
# Si number density = 17.104116 Si / 1000 Ang^3
#
#
#
# Elastic Constant Matrix: (Units=GPa)
#
#
# Indices 1 2 3 4 5 6 
#
# 1 57.7647 32.2508 69.1431 0.0000 0.0000 0.0000
# 2 32.2508 57.7647 69.1431 0.0000 0.0000 0.0000
# 3 69.1431 69.1431 187.1218 0.0000 0.0000 0.0000
# 4 0.0000 0.0000 0.0000 0.0080 0.0000 0.0000
# 5 0.0000 0.0000 0.0000 0.0000 0.0080 0.0000
# 6 0.0000 0.0000 0.0000 0.0000 0.0000 18.0523
#
#
#
# Elastic Compliance Matrix: (Units=1/GPa)
#
#
# Indices 1 2 3 4 5 6 
#
# 1 0.032445 -0.006749 -0.009495 0.000000 0.000000 0.000000
# 2 -0.006749 0.032445 -0.009495 0.000000 0.000000 0.000000
# 3 -0.009495 -0.009495 0.012361 0.000000 0.000000 0.000000
# 4 0.000000 0.000000 0.000000124.621431 0.000000 0.000000
# 5 0.000000 0.000000 0.000000 0.000000124.621430 0.000000
# 6 0.000000 0.000000 0.000000 0.000000 0.000000 0.055395
#
#
# Mechanical properties :
#
#
# Convention : Reuss Voigt Hill
#
# Bulk Modulus (GPa) = 38.80048 71.52505 55.16276
# Shear Modulus (GPa) = 0.02005 12.42127 6.22066
#
# Velocity S-wave (km/s) = 0.10837 2.69776 1.90914
# Velocity P-wave (km/s) = 4.76967 7.18416 6.09762
#
# Compressibility (1/GPa) = 0.02577288
#
# Stress axis : x y z
#
# Youngs Moduli (GPa) = 30.82157 30.82157 80.90075
#
# Poissons Ratio (x) = 0.20803 0.76812
# Poissons Ratio (y) = 0.20803 0.76812
# Poissons Ratio (z) = 0.29264 0.29264
#
# Static dielectric constant tensor:
#      x y z
#    x 2.976900 0.000000 0.000000 
#    y 0.000000 2.976900 0.000000 
#    z 0.000000 0.000000 3.586770 
# 
# 
# High freq. dielectric constant tensor:
#      x y z
#    x 1.621870 0.000000 0.000000 
#    y 0.000000 1.621870 0.000000 
#    z 0.000000 0.000000 1.683150 
# 
# From -- ./inp_files/5571.got.cif
#   From: 2010.03.12/outbox.cif.g09.slc.cpg/sg115_3_cif.got.tgz:5571.got - 2010.04.14 02:11:21.
