data_PCOD8309093
_publ_section_title
;
Structure prediction by ZEFSAII (Michael W. Deem and Ramdas Pophale) SiO2 
 PCOD8309093
Probable space group: P -4 21 C
;
_chemical_formula_sum "Si O2"
_cell_formula_units_Z 36
_cell_length_a 13.546140
_cell_length_b 13.546140
_cell_length_c 9.111281
_cell_angle_alpha 90.000000
_cell_angle_beta 90.000000
_cell_angle_gamma 90.000000
_cell_volume 1671.901011
_symmetry_space_group_name_H-M "P -4 21 C"
_symmetry_group_IT_number 114
_symmetry_cell_setting 'tetragonal'
loop_
_space_group_symop_operation_xyz
x,y,z
y,-x,-z
-x,-y,z
-y,x,-z
1/2+x,1/2-y,1/2-z
1/2-x,1/2+y,1/2-z
1/2-y,1/2-x,1/2+z
1/2+y,1/2+x,1/2+z
loop_
_atom_site_type_symbol
_atom_site_label
_atom_site_fract_x
_atom_site_fract_y
_atom_site_fract_z
Si Si1 0.000000 0.500000 0.892339
Si Si2 0.913439 0.685440 0.051909
Si Si3 0.295391 0.058924 0.715280
Si Si4 0.013133 0.153574 0.527087
Si Si5 0.654493 0.267793 0.743940
O O1 0.945948 0.580586 0.989833
O O2 0.915118 0.444943 0.795531
O O3 0.867079 0.755651 0.928350
O O4 0.837507 0.667871 0.183171
O O5 0.005350 0.737744 0.133570
O O6 0.254830 0.170068 0.730757
O O7 0.249601 0.006328 0.571568
O O8 0.059278 0.180094 0.684308
O O9 0.913629 0.092907 0.559898
#
# Coordination Sequence:
#
# PCOD8309093 Si02
#       5
#     4   8   8   8   8
#     4  12  24  46  70  98 138 180 236 284 348 410
#     4  12  25  45  64 102 138 179 237 290 349 425
#     4  11  25  44  70 101 137 185 231 296 359 414
#     4   9  19  41  68  94 131 182 233 287 356 423
#     4  11  24  44  68 101 139 187 233 297 353 430
#
# _framework density 21.532375999999999
#
# number of rings (size 3 to 8) (size 9 to 14) (size 15 to 20)
#    0.000    1.111    4.444    0.667    3.111    1.778 
#    4.000    0.000    0.000    0.000    0.000    0.000 
#    0.000    0.000    0.000    0.000    0.000    0.000 
#
# Total GULP energy -446381.861701 kJ/mol
# GULP energy per Si atom -12399.496158 kJ/mol
# Density = 2.148337 g / cm^3
# Si number density = 21.532376 Si / 1000 Ang^3
#
#
#
# Elastic Constant Matrix: (Units=GPa)
#
#
# Indices 1 2 3 4 5 6 
#
# 1 97.0899 40.5951 26.4066 0.0000 0.0000 0.0000
# 2 40.5951 97.0899 26.4066 0.0000 0.0000 0.0000
# 3 26.4066 26.4066 91.1335 0.0000 0.0000 0.0000
# 4 0.0000 0.0000 0.0000 26.9590 0.0000 0.0000
# 5 0.0000 0.0000 0.0000 0.0000 26.9590 0.0000
# 6 0.0000 0.0000 0.0000 0.0000 0.0000 27.6054
#
#
#
# Elastic Compliance Matrix: (Units=1/GPa)
#
#
# Indices 1 2 3 4 5 6 
#
# 1 0.012936 -0.004765 -0.002368 0.000000 0.000000 0.000000
# 2 -0.004765 0.012936 -0.002368 0.000000 0.000000 0.000000
# 3 -0.002368 -0.002368 0.012345 0.000000 0.000000 0.000000
# 4 0.000000 0.000000 0.000000 0.037093 0.000000 0.000000
# 5 0.000000 0.000000 0.000000 0.000000 0.037093 0.000000
# 6 0.000000 0.000000 0.000000 0.000000 0.000000 0.036225
#
#
# Mechanical properties :
#
#
# Convention : Reuss Voigt Hill
#
# Bulk Modulus (GPa) = 52.03810 52.45887 52.24849
# Shear Modulus (GPa) = 28.73001 29.09836 28.91418
#
# Velocity S-wave (km/s) = 3.65673 3.68010 3.66843
# Velocity P-wave (km/s) = 6.48450 6.51714 6.50084
#
# Compressibility (1/GPa) = 0.01921669
#
# Stress axis : x y z
#
# Youngs Moduli (GPa) = 77.30405 77.30405 81.00445
#
# Poissons Ratio (x) = 0.36834 0.19179
# Poissons Ratio (y) = 0.36834 0.19179
# Poissons Ratio (z) = 0.18303 0.18303
#
# Static dielectric constant tensor:
#      x y z
#    x 4.018480 0.000000 0.000000 
#    y 0.000000 4.018480 0.000000 
#    z 0.000000 0.000000 3.859270 
# 
# 
# High freq. dielectric constant tensor:
#      x y z
#    x 1.848030 0.000000 0.000000 
#    y 0.000000 1.848030 0.000000 
#    z 0.000000 0.000000 1.842080 
# 
# From -- ./inp_files/708.got.cif
#   From: 2010.03.12/outbox.cif.g09.slc.cpg/sg114_1_cif.got.tgz:708.got - 2010.04.14 02:08:34.
