data_PCOD8309816
_publ_section_title
;
Structure prediction by ZEFSAII (Michael W. Deem and Ramdas Pophale) SiO2 
 PCOD8309816
Probable space group: P -4 M 2
;
_chemical_formula_sum "Si O2"
_cell_formula_units_Z 40
_cell_length_a 14.387135
_cell_length_b 14.387135
_cell_length_c 10.117550
_cell_angle_alpha 90.000000
_cell_angle_beta 90.000000
_cell_angle_gamma 90.000000
_cell_volume 2094.228169
_symmetry_space_group_name_H-M "P -4 M 2"
_symmetry_group_IT_number 115
_symmetry_cell_setting 'tetragonal'
loop_
_space_group_symop_operation_xyz
x,y,z
y,-x,-z
-x,-y,z
-y,x,-z
y,x,-z
-y,-x,-z
-x,y,z
x,-y,z
loop_
_atom_site_type_symbol
_atom_site_label
_atom_site_fract_x
_atom_site_fract_y
_atom_site_fract_z
Si Si1 0.107976 0.893373 0.346260
Si Si2 0.205246 0.281537 0.231041
Si Si3 0.605998 0.243113 0.526686
Si Si4 0.604238 0.105756 0.984210
Si Si5 0.788896 0.602263 0.760870
O O1 0.127154 0.872847 0.500000
O O2 0.169230 0.823193 0.258128
O O3 0.000000 0.876633 0.313503
O O4 0.135257 0.000000 0.311803
O O5 0.182396 0.347094 0.356807
O O6 0.162933 0.320694 0.097392
O O7 0.316281 0.284129 0.207339
O O8 0.660548 0.339453 0.500000
O O9 0.500000 0.267083 0.564754
O O10 0.611027 0.180202 0.393118
O O11 0.500000 0.131300 0.936895
O O12 0.627061 0.000000 0.956612
O O13 0.614269 0.123925 0.141070
O O14 0.742365 0.500000 0.782665
#
# Coordination Sequence:
#
# PCOD8309816 Si02
#       5
#     8   8   8   8   8
#     4   9  18  32  50  75 107 140 173 211 262 324
#     4  11  19  33  56  81 105 135 176 226 269 307
#     4   9  18  32  52  78 106 138 176 217 262 315
#     4  10  21  36  53  75 105 140 176 216 266 319
#     4   9  19  35  52  72 102 139 175 210 256 318
#
# _framework density 19.100116
#
# number of rings (size 3 to 8) (size 9 to 14) (size 15 to 20)
#    0.000    2.400    0.000    4.200    0.000    1.000 
#    0.000    2.000    0.000    6.600    0.000   16.800 
#    0.000    0.000    0.000    0.000    0.000    0.000 
#
# Total GULP energy -495721.616199 kJ/mol
# GULP energy per Si atom -12393.040405 kJ/mol
# Density = 1.905664 g / cm^3
# Si number density = 19.100116 Si / 1000 Ang^3
#
#
#
# Elastic Constant Matrix: (Units=GPa)
#
#
# Indices 1 2 3 4 5 6 
#
# 1 89.3344 41.7223 44.4057 0.0000 0.0000 0.0000
# 2 41.7223 89.3338 44.4057 0.0000 0.0000 0.0000
# 3 44.4057 44.4057 89.3273 0.0000 0.0000 0.0000
# 4 0.0000 0.0000 0.0000 25.8094 0.0000 0.0000
# 5 0.0000 0.0000 0.0000 0.0000 25.8095 0.0000
# 6 0.0000 0.0000 0.0000 0.0000 0.0000 20.9055
#
#
#
# Elastic Compliance Matrix: (Units=1/GPa)
#
#
# Indices 1 2 3 4 5 6 
#
# 1 0.016255 -0.004748 -0.005720 0.000000 0.000000 0.000000
# 2 -0.004748 0.016255 -0.005720 0.000000 0.000000 0.000000
# 3 -0.005720 -0.005720 0.016882 0.000000 0.000000 0.000000
# 4 0.000000 0.000000 0.000000 0.038746 0.000000 0.000000
# 5 0.000000 0.000000 0.000000 0.000000 0.038745 0.000000
# 6 0.000000 0.000000 0.000000 0.000000 0.000000 0.047834
#
#
# Mechanical properties :
#
#
# Convention : Reuss Voigt Hill
#
# Bulk Modulus (GPa) = 58.77271 58.78476 58.77874
# Shear Modulus (GPa) = 23.50008 23.66901 23.58454
#
# Velocity S-wave (km/s) = 3.51146 3.52406 3.51776
# Velocity P-wave (km/s) = 6.87591 6.88496 6.88043
#
# Compressibility (1/GPa) = 0.01701470
#
# Stress axis : x y z
#
# Youngs Moduli (GPa) = 61.52029 61.51986 59.23539
#
# Poissons Ratio (x) = 0.29212 0.33883
# Poissons Ratio (y) = 0.29212 0.33883
# Poissons Ratio (z) = 0.35190 0.35190
#
# Static dielectric constant tensor:
#      x y z
#    x 3.454350 0.000000 0.000000 
#    y 0.000000 3.454360 0.000000 
#    z 0.000000 0.000000 3.570270 
# 
# 
# High freq. dielectric constant tensor:
#      x y z
#    x 1.731390 0.000000 0.000000 
#    y 0.000000 1.731390 0.000000 
#    z 0.000000 0.000000 1.745350 
# 
# From -- ./inp_files/1582.got.cif
#   From: 2010.03.12/outbox.cif.g09.slc.cpg/sg115_1_cif.got.tgz:1582.got - 2010.04.14 02:11:21.
