data_PCOD8309220
_publ_section_title
;
Structure prediction by ZEFSAII (Michael W. Deem and Ramdas Pophale) SiO2 
 PCOD8309220
Probable space group: P -4 M 2
;
_chemical_formula_sum "Si O2"
_cell_formula_units_Z 64
_cell_length_a 20.457734
_cell_length_b 20.457734
_cell_length_c 12.176119
_cell_angle_alpha 90.000000
_cell_angle_beta 90.000000
_cell_angle_gamma 90.000000
_cell_volume 5095.935692
_symmetry_space_group_name_H-M "P -4 M 2"
_symmetry_group_IT_number 115
_symmetry_cell_setting 'tetragonal'
loop_
_space_group_symop_operation_xyz
x,y,z
y,-x,-z
-x,-y,z
-y,x,-z
y,x,-z
-y,-x,-z
-x,y,z
x,-y,z
loop_
_atom_site_type_symbol
_atom_site_label
_atom_site_fract_x
_atom_site_fract_y
_atom_site_fract_z
Si Si1 0.425438 0.779675 0.622692
Si Si2 0.927697 0.577624 0.761227
Si Si3 0.310271 0.425379 0.736207
Si Si4 0.802490 0.421829 0.137067
Si Si5 0.682675 0.575205 0.987250
Si Si6 0.628430 0.426248 0.389044
Si Si7 0.185275 0.578442 0.608218
Si Si8 0.072716 0.577756 0.007514
O O1 0.500000 0.800746 0.637443
O O2 0.391634 0.795953 0.739718
O O3 0.419316 0.704717 0.588149
O O4 0.395895 0.819150 0.518166
O O5 0.922428 0.500000 0.761411
O O6 0.876271 0.607441 0.674815
O O7 0.913008 0.603297 0.884184
O O8 0.000000 0.599899 0.724248
O O9 0.321083 0.500000 0.701715
O O10 0.291310 0.418643 0.863286
O O11 0.378240 0.389169 0.710713
O O12 0.251120 0.394799 0.665664
O O13 0.802016 0.500000 0.136842
O O14 0.740403 0.397907 0.065794
O O15 0.870591 0.394501 0.087046
O O16 0.665082 0.500000 0.015503
O O17 0.617423 0.617423 0.000000
O O18 0.590172 0.409829 0.500000
O O19 0.610791 0.500000 0.352187
O O20 0.185984 0.500000 0.611231
O O21 0.074664 0.500000 0.008071
O O22 0.000000 0.601157 0.045824
#
# Coordination Sequence:
#
# PCOD8309220 Si02
#       8
#     8   8   8   8   8   8   8   8
#     4   9  17  27  38  49  65  86 107 133 167 207
#     4   8  13  21  35  53  70  86 102 123 150 183
#     4  10  19  29  40  52  63  79 105 139 179 216
#     4   9  16  27  40  53  68  90 112 133 171 217
#     4  10  20  31  41  51  65  87 115 147 183 225
#     4  11  20  30  40  51  66  84 111 148 186 224
#     4   9  15  25  37  50  66  82 101 126 157 199
#     4   8  13  22  37  56  73  87 106 131 158 197
#
# _framework density 12.559027
#
# number of rings (size 3 to 8) (size 9 to 14) (size 15 to 20)
#    0.000    2.750    1.250    2.625    0.000    5.500 
#    0.000    1.875    0.000    3.750    0.000    0.000 
#    0.000    0.000    0.000    0.000    0.000    0.000 
#
# Total GULP energy -793136.642461 kJ/mol
# GULP energy per Si atom -12392.760038 kJ/mol
# Density = 1.253044 g / cm^3
# Si number density = 12.559027 Si / 1000 Ang^3
#
#
#
# Elastic Constant Matrix: (Units=GPa)
#
#
# Indices 1 2 3 4 5 6 
#
# 1 55.0968 15.6052 33.7398 0.0000 0.0000 0.0000
# 2 15.6052 55.0964 33.7389 0.0000 0.0000 0.0000
# 3 33.7398 33.7389 95.8938 0.0000 0.0000 0.0000
# 4 0.0000 0.0000 0.0000 15.6106 0.0000 0.0000
# 5 0.0000 0.0000 0.0000 0.0000 15.6107 0.0000
# 6 0.0000 0.0000 0.0000 0.0000 0.0000 0.3639
#
#
#
# Elastic Compliance Matrix: (Units=1/GPa)
#
#
# Indices 1 2 3 4 5 6 
#
# 1 0.023308 -0.002014 -0.007493 0.000000 0.000000 0.000000
# 2 -0.002014 0.023308 -0.007492 0.000000 0.000000 0.000000
# 3 -0.007493 -0.007492 0.015700 0.000000 0.000000 0.000000
# 4 0.000000 0.000000 0.000000 0.064059 0.000000 0.000000
# 5 0.000000 0.000000 0.000000 0.000000 0.064059 0.000000
# 6 0.000000 0.000000 0.000000 0.000000 0.000000 2.748065
#
#
# Mechanical properties :
#
#
# Convention : Reuss Voigt Hill
#
# Bulk Modulus (GPa) = 35.31015 41.36164 38.33590
# Shear Modulus (GPa) = 1.67676 14.51724 8.09700
#
# Velocity S-wave (km/s) = 1.15672 3.40357 2.54188
# Velocity P-wave (km/s) = 5.47361 6.96068 6.26145
#
# Compressibility (1/GPa) = 0.02832047
#
# Stress axis : x y z
#
# Youngs Moduli (GPa) = 42.90295 42.90321 63.69245
#
# Poissons Ratio (x) = 0.08639 0.47722
# Poissons Ratio (y) = 0.08639 0.47720
# Poissons Ratio (z) = 0.32145 0.32144
#
# Static dielectric constant tensor:
#      x y z
#    x 2.368690 0.000000 0.000000 
#    y 0.000000 2.368690 0.000000 
#    z 0.000000 0.000000 2.840260 
# 
# 
# High freq. dielectric constant tensor:
#      x y z
#    x 1.432400 0.000000 0.000000 
#    y 0.000000 1.432400 0.000000 
#    z 0.000000 0.000000 1.495570 
# 
# From -- ./inp_files/3247.got.cif
#   From: 2010.03.12/outbox.cif.g09.slc.cpg/sg115_2_cif.got.tgz:3247.got - 2010.04.14 02:11:21.
