data_PCOD8309721
_publ_section_title
;
Structure prediction by ZEFSAII (Michael W. Deem and Ramdas Pophale) SiO2 
 PCOD8309721
Probable space group: P -4 M 2
;
_chemical_formula_sum "Si O2"
_cell_formula_units_Z 56
_cell_length_a 14.311238
_cell_length_b 14.311238
_cell_length_c 12.492755
_cell_angle_alpha 90.000000
_cell_angle_beta 90.000000
_cell_angle_gamma 90.000000
_cell_volume 2558.660304
_symmetry_space_group_name_H-M "P -4 M 2"
_symmetry_group_IT_number 115
_symmetry_cell_setting 'tetragonal'
loop_
_space_group_symop_operation_xyz
x,y,z
y,-x,-z
-x,-y,z
-y,x,-z
y,x,-z
-y,-x,-z
-x,y,z
x,-y,z
loop_
_atom_site_type_symbol
_atom_site_label
_atom_site_fract_x
_atom_site_fract_y
_atom_site_fract_z
Si Si1 0.247830 0.103967 0.753000
Si Si2 0.896457 0.331857 0.024923
Si Si3 0.789511 0.610809 0.396234
Si Si4 0.893691 0.608232 0.607036
Si Si5 0.257323 0.891719 0.205950
Si Si6 0.390978 0.395205 0.701723
Si Si7 0.602200 0.707575 0.915309
O O1 0.256997 0.094506 0.880892
O O2 0.336536 0.152544 0.696215
O O3 0.156803 0.167710 0.740452
O O4 0.232806 0.000000 0.703845
O O5 0.820008 0.404699 0.071824
O O6 0.000000 0.378365 0.005716
O O7 0.860740 0.283237 0.914944
O O8 0.805594 0.500000 0.375683
O O9 0.827118 0.643261 0.511451
O O10 0.677179 0.633672 0.394016
O O11 0.879301 0.500000 0.628369
O O12 0.864427 0.656183 0.717762
O O13 0.000000 0.631931 0.574617
O O14 0.234034 0.000000 0.208359
O O15 0.500000 0.413951 0.706521
O O16 0.343317 0.500000 0.691146
O O17 0.358945 0.334218 0.804310
O O18 0.500000 0.665148 0.937248
O O19 0.676480 0.676480 0.000000
#
# Coordination Sequence:
#
# PCOD8309721 Si02
#       7
#     8   8   8   8   8   8   8
#     4  11  22  37  62  94 125 159 203 257 320 386
#     4  10  22  39  59  87 124 165 208 260 320 376
#     4  10  20  37  61  91 125 161 207 261 319 380
#     4   9  19  38  64  91 121 163 213 264 321 383
#     4  10  22  41  62  86 123 166 209 261 317 382
#     4   9  18  33  54  86 126 163 203 251 304 368
#     4  11  21  34  54  84 125 168 207 250 305 378
#
# _framework density 21.886452999999999
#
# number of rings (size 3 to 8) (size 9 to 14) (size 15 to 20)
#    0.000    2.000    1.429    2.143    0.000    3.286 
#    0.000    3.571    0.000    3.429    0.000    2.000 
#    0.000    6.857    0.000    0.000    0.000    0.000 
#
# Total GULP energy -693752.737873 kJ/mol
# GULP energy per Si atom -12388.441748 kJ/mol
# Density = 2.183664 g / cm^3
# Si number density = 21.886453 Si / 1000 Ang^3
#
#
#
# Elastic Constant Matrix: (Units=GPa)
#
#
# Indices 1 2 3 4 5 6 
#
# 1 109.1506 36.8808 47.7582 0.0000 0.0000 0.0000
# 2 36.8808 109.1506 47.7582 0.0000 0.0000 0.0000
# 3 47.7582 47.7582 96.9882 0.0000 0.0000 0.0000
# 4 0.0000 0.0000 0.0000 27.4217 0.0000 0.0000
# 5 0.0000 0.0000 0.0000 0.0000 27.4217 0.0000
# 6 0.0000 0.0000 0.0000 0.0000 0.0000 27.7835
#
#
#
# Elastic Compliance Matrix: (Units=1/GPa)
#
#
# Indices 1 2 3 4 5 6 
#
# 1 0.011969 -0.001868 -0.004974 0.000000 0.000000 0.000000
# 2 -0.001868 0.011969 -0.004974 0.000000 0.000000 0.000000
# 3 -0.004974 -0.004974 0.015209 0.000000 0.000000 0.000000
# 4 0.000000 0.000000 0.000000 0.036467 0.000000 0.000000
# 5 0.000000 0.000000 0.000000 0.000000 0.036467 0.000000
# 6 0.000000 0.000000 0.000000 0.000000 0.000000 0.035993
#
#
# Mechanical properties :
#
#
# Convention : Reuss Voigt Hill
#
# Bulk Modulus (GPa) = 64.45130 64.45376 64.45253
# Shear Modulus (GPa) = 28.26803 28.71821 28.49312
#
# Velocity S-wave (km/s) = 3.59775 3.62628 3.61205
# Velocity P-wave (km/s) = 6.83889 6.85903 6.84897
#
# Compressibility (1/GPa) = 0.01551559
#
# Stress axis : x y z
#
# Youngs Moduli (GPa) = 83.54829 83.54829 65.75052
#
# Poissons Ratio (x) = 0.15606 0.32704
# Poissons Ratio (y) = 0.15606 0.32704
# Poissons Ratio (z) = 0.41557 0.41557
#
# Static dielectric constant tensor:
#      x y z
#    x 4.009340 0.000000 0.000000 
#    y 0.000000 4.009340 0.000000 
#    z 0.000000 0.000000 4.088920 
# 
# 
# High freq. dielectric constant tensor:
#      x y z
#    x 1.854910 0.000000 0.000000 
#    y 0.000000 1.854910 0.000000 
#    z 0.000000 0.000000 1.861460 
# 
# From -- ./inp_files/3100.got.cif
#   From: 2010.03.12/outbox.cif.g09.slc.cpg/sg115_2_cif.got.tgz:3100.got - 2010.04.14 02:11:21.
