data_PCOD8309251
_publ_section_title
;
Structure prediction by ZEFSAII (Michael W. Deem and Ramdas Pophale) SiO2 
 PCOD8309251
Probable space group: P -4 M 2
;
_chemical_formula_sum "Si O2"
_cell_formula_units_Z 36
_cell_length_a 14.292003
_cell_length_b 14.292003
_cell_length_c 9.971443
_cell_angle_alpha 90.000000
_cell_angle_beta 90.000000
_cell_angle_gamma 90.000000
_cell_volume 2036.780406
_symmetry_space_group_name_H-M "P -4 M 2"
_symmetry_group_IT_number 115
_symmetry_cell_setting 'tetragonal'
loop_
_space_group_symop_operation_xyz
x,y,z
y,-x,-z
-x,-y,z
-y,x,-z
y,x,-z
-y,-x,-z
-x,y,z
x,-y,z
loop_
_atom_site_type_symbol
_atom_site_label
_atom_site_fract_x
_atom_site_fract_y
_atom_site_fract_z
Si Si1 0.105671 0.105671 0.500000
Si Si2 0.392141 0.235558 0.848817
Si Si3 0.893724 0.609866 0.624596
Si Si4 0.710802 0.107664 0.643408
Si Si5 0.606094 0.747805 0.154986
O O1 0.123790 0.177558 0.376965
O O2 0.000000 0.120040 0.555976
O O3 0.500000 0.234580 0.799779
O O4 0.328821 0.161366 0.770984
O O5 0.348274 0.337602 0.823505
O O6 0.384693 0.210669 0.005575
O O7 0.886763 0.500000 0.600391
O O8 0.856519 0.660304 0.491357
O O9 0.828692 0.643305 0.746660
O O10 0.000000 0.640328 0.657531
O O11 0.686566 0.000000 0.668987
O O12 0.500000 0.720686 0.188184
#
# Coordination Sequence:
#
# PCOD8309251 Si02
#       5
#     4   8   8   8   8
#     4   9  18  32  50  74 102 131 164 200 240 293
#     4  10  20  33  49  70  97 127 162 207 250 289
#     4   9  17  30  49  73 100 129 160 196 242 296
#     4  10  19  31  51  77 101 127 160 200 245 289
#     4   9  19  34  50  69  95 129 166 201 243 297
#
# _framework density 17.674954
#
# number of rings (size 3 to 8) (size 9 to 14) (size 15 to 20)
#    0.000    2.556    0.000    2.000    0.000    2.667 
#    0.000    4.444    0.000    1.333    0.000    3.111 
#    0.000    7.111    0.000    0.000    0.000    0.000 
#
# Total GULP energy -446344.582185 kJ/mol
# GULP energy per Si atom -12398.460616 kJ/mol
# Density = 1.763473 g / cm^3
# Si number density = 17.674954 Si / 1000 Ang^3
#
#
#
# Elastic Constant Matrix: (Units=GPa)
#
#
# Indices 1 2 3 4 5 6 
#
# 1 85.0621 43.5259 44.3296 0.0000 0.0000 0.0000
# 2 43.5259 85.0621 44.3296 0.0000 0.0000 0.0000
# 3 44.3296 44.3296 75.9936 0.0000 0.0000 0.0000
# 4 0.0000 0.0000 0.0000 27.5578 0.0000 0.0000
# 5 0.0000 0.0000 0.0000 0.0000 27.5578 0.0000
# 6 0.0000 0.0000 0.0000 0.0000 0.0000 27.2627
#
#
#
# Elastic Compliance Matrix: (Units=1/GPa)
#
#
# Indices 1 2 3 4 5 6 
#
# 1 0.018542 -0.005533 -0.007589 0.000000 0.000000 0.000000
# 2 -0.005533 0.018542 -0.007589 0.000000 0.000000 0.000000
# 3 -0.007589 -0.007589 0.022012 0.000000 0.000000 0.000000
# 4 0.000000 0.000000 0.000000 0.036287 0.000000 0.000000
# 5 0.000000 0.000000 0.000000 0.000000 0.036287 0.000000
# 6 0.000000 0.000000 0.000000 0.000000 0.000000 0.036680
#
#
# Mechanical properties :
#
#
# Convention : Reuss Voigt Hill
#
# Bulk Modulus (GPa) = 56.57391 56.72092 56.64742
# Shear Modulus (GPa) = 23.18418 24.07116 23.62767
#
# Velocity S-wave (km/s) = 3.62566 3.69437 3.66018
# Velocity P-wave (km/s) = 7.04306 7.09638 7.06977
#
# Compressibility (1/GPa) = 0.01767599
#
# Stress axis : x y z
#
# Youngs Moduli (GPa) = 53.93110 53.93110 45.42903
#
# Poissons Ratio (x) = 0.29841 0.34474
# Poissons Ratio (y) = 0.29841 0.34474
# Poissons Ratio (z) = 0.40926 0.40926
#
# Static dielectric constant tensor:
#      x y z
#    x 3.397810 0.000000 0.000000 
#    y 0.000000 3.397810 0.000000 
#    z 0.000000 0.000000 3.199160 
# 
# 
# High freq. dielectric constant tensor:
#      x y z
#    x 1.688680 0.000000 0.000000 
#    y 0.000000 1.688680 0.000000 
#    z 0.000000 0.000000 1.666730 
# 
# From -- ./inp_files/1445.got.cif
#   From: 2010.03.12/outbox.cif.g09.slc.cpg/sg115_1_cif.got.tgz:1445.got - 2010.04.14 02:11:21.
