data_PCOD8309804
_publ_section_title
;
Structure prediction by ZEFSAII (Michael W. Deem and Ramdas Pophale) SiO2 
 PCOD8309804
Probable space group: P -4 M 2
;
_chemical_formula_sum "Si O2"
_cell_formula_units_Z 44
_cell_length_a 9.347442
_cell_length_b 9.347442
_cell_length_c 27.994011
_cell_angle_alpha 90.000000
_cell_angle_beta 90.000000
_cell_angle_gamma 90.000000
_cell_volume 2445.967528
_symmetry_space_group_name_H-M "P -4 M 2"
_symmetry_group_IT_number 115
_symmetry_cell_setting 'tetragonal'
loop_
_space_group_symop_operation_xyz
x,y,z
y,-x,-z
-x,-y,z
-y,x,-z
y,x,-z
-y,-x,-z
-x,y,z
x,-y,z
loop_
_atom_site_type_symbol
_atom_site_label
_atom_site_fract_x
_atom_site_fract_y
_atom_site_fract_z
Si Si1 0.667614 0.664913 0.868161
Si Si2 0.837999 0.833922 0.055208
Si Si3 0.830611 0.663434 0.695228
Si Si4 0.333672 0.333672 0.500000
Si Si5 0.833516 0.332947 0.225422
Si Si6 0.330227 0.841943 0.411148
O O1 0.500000 0.684288 0.876283
O O2 0.710109 0.500000 0.860812
O O3 0.744795 0.725090 0.914651
O O4 0.719700 0.752411 0.821985
O O5 0.000000 0.785188 0.067257
O O6 0.819091 0.000000 0.067337
O O7 0.804279 0.804279 0.000000
O O8 0.782081 0.500000 0.705454
O O9 0.752025 0.771654 0.730009
O O10 0.785677 0.711140 0.641595
O O11 0.000000 0.677015 0.701759
O O12 0.300949 0.500000 0.494526
O O13 0.260398 0.268792 0.547483
O O14 0.806983 0.500000 0.234362
O O15 0.000000 0.296733 0.219399
O O16 0.500000 0.848558 0.414033
O O17 0.266070 0.000000 0.419427
#
# Coordination Sequence:
#
# PCOD8309804 Si02
#       6
#     8   8   8   4   8   8
#     4  10  21  36  54  77 104 134 169 208 250 297
#     4   9  19  36  56  78 105 137 172 208 247 293
#     4   9  18  33  53  75  98 128 167 207 248 297
#     4   9  16  26  44  71  96 120 158 201 236 278
#     4  10  21  36  53  74 101 133 168 206 251 301
#     4   8  15  29  47  67  94 126 157 193 240 290
#
# _framework density 17.988790999999999
#
# number of rings (size 3 to 8) (size 9 to 14) (size 15 to 20)
#    0.000    2.818    0.000    2.727    0.000    5.091 
#    0.000    5.455    0.000    3.545    0.000    0.000 
#    0.000    0.000    0.000    0.000    0.000    0.000 
#
# Total GULP energy -545563.251661 kJ/mol
# GULP energy per Si atom -12399.164810 kJ/mol
# Density = 1.794785 g / cm^3
# Si number density = 17.988791 Si / 1000 Ang^3
#
#
#
# Elastic Constant Matrix: (Units=GPa)
#
#
# Indices 1 2 3 4 5 6 
#
# 1 75.5808 46.5556 68.0121 0.0000 0.0000 0.0000
# 2 46.5556 75.5808 68.0121 0.0000 0.0000 0.0000
# 3 68.0121 68.0121 145.3104 0.0000 0.0000 0.0000
# 4 0.0000 0.0000 0.0000 17.9380 0.0000 0.0000
# 5 0.0000 0.0000 0.0000 0.0000 17.9380 0.0000
# 6 0.0000 0.0000 0.0000 0.0000 0.0000 27.5226
#
#
#
# Elastic Compliance Matrix: (Units=1/GPa)
#
#
# Indices 1 2 3 4 5 6 
#
# 1 0.025778 -0.008675 -0.008005 0.000000 0.000000 0.000000
# 2 -0.008675 0.025778 -0.008005 0.000000 0.000000 0.000000
# 3 -0.008005 -0.008005 0.014375 0.000000 0.000000 0.000000
# 4 0.000000 0.000000 0.000000 0.055748 0.000000 0.000000
# 5 0.000000 0.000000 0.000000 0.000000 0.055748 0.000000
# 6 0.000000 0.000000 0.000000 0.000000 0.000000 0.036334
#
#
# Mechanical properties :
#
#
# Convention : Reuss Voigt Hill
#
# Bulk Modulus (GPa) = 60.38282 73.51463 66.94872
# Shear Modulus (GPa) = 18.61163 20.27254 19.44209
#
# Velocity S-wave (km/s) = 3.22005 3.36066 3.29110
# Velocity P-wave (km/s) = 6.88946 7.48427 7.19302
#
# Compressibility (1/GPa) = 0.01656100
#
# Stress axis : x y z
#
# Youngs Moduli (GPa) = 38.79323 38.79323 69.56478
#
# Poissons Ratio (x) = 0.33653 0.55685
# Poissons Ratio (y) = 0.33653 0.55685
# Poissons Ratio (z) = 0.31053 0.31053
#
# Static dielectric constant tensor:
#      x y z
#    x 3.253340 0.000000 0.000000 
#    y 0.000000 3.253340 0.000000 
#    z 0.000000 0.000000 3.526810 
# 
# 
# High freq. dielectric constant tensor:
#      x y z
#    x 1.683620 0.000000 0.000000 
#    y 0.000000 1.683620 0.000000 
#    z 0.000000 0.000000 1.708840 
# 
# From -- ./inp_files/5800.got.cif
#   From: 2010.03.12/outbox.cif.g09.slc.cpg/sg115_3_cif.got.tgz:5800.got - 2010.04.14 02:11:21.
