data_PCOD8309107
_publ_section_title
;
Structure prediction by ZEFSAII (Michael W. Deem and Ramdas Pophale) SiO2 
 PCOD8309107
Probable space group: P -4 21 C
;
_chemical_formula_sum "Si O2"
_cell_formula_units_Z 48
_cell_length_a 9.013307
_cell_length_b 9.013307
_cell_length_c 27.331758
_cell_angle_alpha 90.000000
_cell_angle_beta 90.000000
_cell_angle_gamma 90.000000
_cell_volume 2220.423904
_symmetry_space_group_name_H-M "P -4 21 C"
_symmetry_group_IT_number 114
_symmetry_cell_setting 'tetragonal'
loop_
_space_group_symop_operation_xyz
x,y,z
y,-x,-z
-x,-y,z
-y,x,-z
1/2+x,1/2-y,1/2-z
1/2-x,1/2+y,1/2-z
1/2-y,1/2-x,1/2+z
1/2+y,1/2+x,1/2+z
loop_
_atom_site_type_symbol
_atom_site_label
_atom_site_fract_x
_atom_site_fract_y
_atom_site_fract_z
Si Si1 0.214257 0.166482 0.558096
Si Si2 0.650161 0.923955 0.282143
Si Si3 0.036368 0.667648 0.606892
Si Si4 0.155975 0.926335 0.202235
Si Si5 0.267936 0.822356 0.550931
Si Si6 0.484229 0.324040 0.597517
O O1 0.220735 0.200668 0.500921
O O2 0.313978 0.275115 0.591531
O O3 0.051552 0.205479 0.577410
O O4 0.248440 0.993598 0.565670
O O5 0.686087 0.988805 0.335484
O O6 0.642262 0.745745 0.282893
O O7 0.500000 0.000000 0.262901
O O8 0.774889 0.977659 0.245441
O O9 0.203033 0.709616 0.592215
O O10 0.000000 0.500000 0.589761
O O11 0.235351 0.952314 0.149893
O O12 0.000000 0.000000 0.192717
O O13 0.439442 0.773218 0.554026
O O14 0.500000 0.500000 0.589213
#
# Coordination Sequence:
#
# PCOD8309107 Si02
#       6
#     8   8   8   8   8   8
#     4  12  27  41  72 100 143 188 234 298 348 420
#     4  11  25  46  74 104 139 185 231 288 357 423
#     4  11  25  45  71  98 141 187 231 281 356 415
#     4  11  25  47  73 104 140 181 233 293 352 426
#     4  12  25  46  65 104 140 185 239 289 353 415
#     4  11  27  47  71 102 141 182 240 287 352 425
#
# _framework density 21.617495999999999
#
# number of rings (size 3 to 8) (size 9 to 14) (size 15 to 20)
#    0.000    0.667    3.333    3.000   14.000    2.667 
#    0.000    0.000    0.000    0.000    0.000    0.000 
#    0.000    0.000    0.000    0.000    0.000    0.000 
#
# Total GULP energy -595163.595055 kJ/mol
# GULP energy per Si atom -12399.241564 kJ/mol
# Density = 2.156829 g / cm^3
# Si number density = 21.617496 Si / 1000 Ang^3
#
#
#
# Elastic Constant Matrix: (Units=GPa)
#
#
# Indices 1 2 3 4 5 6 
#
# 1 103.0559 20.9904 35.3599 0.0000 0.0000 0.0000
# 2 20.9904 103.0559 35.3599 0.0000 0.0000 0.0000
# 3 35.3599 35.3599 83.1343 0.0000 0.0000 0.0000
# 4 0.0000 0.0000 0.0000 64.9234 0.0000 0.0000
# 5 0.0000 0.0000 0.0000 0.0000 64.9234 0.0000
# 6 0.0000 0.0000 0.0000 0.0000 0.0000 45.3337
#
#
#
# Elastic Compliance Matrix: (Units=1/GPa)
#
#
# Indices 1 2 3 4 5 6 
#
# 1 0.011414 -0.000772 -0.004526 0.000000 0.000000 0.000000
# 2 -0.000772 0.011414 -0.004526 0.000000 0.000000 0.000000
# 3 -0.004526 -0.004526 0.015879 0.000000 0.000000 0.000000
# 4 0.000000 0.000000 0.000000 0.015403 0.000000 0.000000
# 5 0.000000 0.000000 0.000000 0.000000 0.015403 0.000000
# 6 0.000000 0.000000 0.000000 0.000000 0.000000 0.022059
#
#
# Mechanical properties :
#
#
# Convention : Reuss Voigt Hill
#
# Bulk Modulus (GPa) = 52.47248 52.51849 52.49548
# Shear Modulus (GPa) = 42.52697 48.20516 45.36607
#
# Velocity S-wave (km/s) = 4.44018 4.72732 4.58600
# Velocity P-wave (km/s) = 7.11426 7.35825 7.23729
#
# Compressibility (1/GPa) = 0.01905761
#
# Stress axis : x y z
#
# Youngs Moduli (GPa) = 87.61379 87.61379 62.97540
#
# Poissons Ratio (x) = 0.06761 0.28505
# Poissons Ratio (y) = 0.06761 0.28505
# Poissons Ratio (z) = 0.39658 0.39658
#
# Static dielectric constant tensor:
#      x y z
#    x 3.867490 0.000000 0.000000 
#    y 0.000000 3.867490 0.000000 
#    z 0.000000 0.000000 3.866350 
# 
# 
# High freq. dielectric constant tensor:
#      x y z
#    x 1.859260 0.000000 0.000000 
#    y 0.000000 1.859260 0.000000 
#    z 0.000000 0.000000 1.854690 
# 
# From -- ./inp_files/3968.got.cif
#   From: 2010.03.12/outbox.cif.g09.slc.cpg/sg114_2_cif.got.tgz:3968.got - 2010.04.14 02:08:34.
