data_PCOD8309957
_publ_section_title
;
Structure prediction by ZEFSAII (Michael W. Deem and Ramdas Pophale) SiO2 
 PCOD8309957
Probable space group: P -4 M 2
;
_chemical_formula_sum "Si O2"
_cell_formula_units_Z 56
_cell_length_a 14.460949
_cell_length_b 14.460949
_cell_length_c 12.181783
_cell_angle_alpha 90.000000
_cell_angle_beta 90.000000
_cell_angle_gamma 90.000000
_cell_volume 2547.442839
_symmetry_space_group_name_H-M "P -4 M 2"
_symmetry_group_IT_number 115
_symmetry_cell_setting 'tetragonal'
loop_
_space_group_symop_operation_xyz
x,y,z
y,-x,-z
-x,-y,z
-y,x,-z
y,x,-z
-y,-x,-z
-x,y,z
x,-y,z
loop_
_atom_site_type_symbol
_atom_site_label
_atom_site_fract_x
_atom_site_fract_y
_atom_site_fract_z
Si Si1 0.898712 0.820242 0.775420
Si Si2 0.105521 0.752307 0.541934
Si Si3 0.603308 0.605517 0.309559
Si Si4 0.794207 0.606992 0.398897
Si Si5 0.103259 0.705321 0.207088
Si Si6 0.103295 0.329183 0.955666
Si Si7 0.601866 0.291544 0.089352
O O1 0.891040 0.748326 0.673789
O O2 0.814950 0.892217 0.766657
O O3 0.891250 0.766474 0.889777
O O4 0.000000 0.870097 0.769389
O O5 0.153443 0.846558 0.500000
O O6 0.160597 0.662915 0.498687
O O7 0.000000 0.750440 0.497843
O O8 0.500000 0.628407 0.357290
O O9 0.606039 0.500000 0.266932
O O10 0.682467 0.620159 0.401475
O O11 0.628748 0.671413 0.208533
O O12 0.822256 0.500000 0.411251
O O13 0.828945 0.645442 0.282094
O O14 0.000000 0.671799 0.232534
O O15 0.129756 0.689470 0.081427
O O16 0.179815 0.398121 0.906597
O O17 0.000000 0.372313 0.945326
O O18 0.500000 0.326839 0.056889
O O19 0.674657 0.325344 0.000000
#
# Coordination Sequence:
#
# PCOD8309957 Si02
#       7
#     8   8   8   8   8   8   8
#     4  10  21  39  63  87 121 167 209 257 316 379
#     4  11  24  42  67  95 128 167 211 264 315 375
#     4   9  19  36  60  91 123 158 206 263 320 378
#     4  11  23  41  66  94 128 169 212 263 322 381
#     4  11  22  37  61  92 127 164 208 264 318 380
#     4  10  22  39  60  88 124 167 211 257 313 380
#     4  11  21  33  55  86 122 165 210 257 310 369
#
# _framework density 21.982828000000001
#
# number of rings (size 3 to 8) (size 9 to 14) (size 15 to 20)
#    0.000    1.571    1.429    3.857    0.000    4.286 
#    0.000    4.286    0.000    5.143    0.000    0.000 
#    0.000    0.000    0.000    0.000    0.000    0.000 
#
# Total GULP energy -694270.816820 kJ/mol
# GULP energy per Si atom -12397.693158 kJ/mol
# Density = 2.193279 g / cm^3
# Si number density = 21.982828 Si / 1000 Ang^3
#
#
#
# Elastic Constant Matrix: (Units=GPa)
#
#
# Indices 1 2 3 4 5 6 
#
# 1 108.9705 38.9699 13.3705 0.0000 0.0000 0.0000
# 2 38.9699 108.9669 13.3705 0.0000 0.0000 0.0000
# 3 13.3705 13.3705 61.7181 0.0000 0.0000 0.0000
# 4 0.0000 0.0000 0.0000 23.9235 0.0000 0.0000
# 5 0.0000 0.0000 0.0000 0.0000 23.9236 0.0000
# 6 0.0000 0.0000 0.0000 0.0000 0.0000 29.4355
#
#
#
# Elastic Compliance Matrix: (Units=1/GPa)
#
#
# Indices 1 2 3 4 5 6 
#
# 1 0.010660 -0.003625 -0.001524 0.000000 0.000000 0.000000
# 2 -0.003625 0.010661 -0.001524 0.000000 0.000000 0.000000
# 3 -0.001524 -0.001524 0.016863 0.000000 0.000000 0.000000
# 4 0.000000 0.000000 0.000000 0.041800 0.000000 0.000000
# 5 0.000000 0.000000 0.000000 0.000000 0.041800 0.000000
# 6 0.000000 0.000000 0.000000 0.000000 0.000000 0.033973
#
#
# Mechanical properties :
#
#
# Convention : Reuss Voigt Hill
#
# Bulk Modulus (GPa) = 40.26267 45.67524 42.96896
# Shear Modulus (GPa) = 28.18769 29.71950 28.95359
#
# Velocity S-wave (km/s) = 3.58475 3.68086 3.63313
# Velocity P-wave (km/s) = 5.95728 6.23601 6.09824
#
# Compressibility (1/GPa) = 0.02483690
#
# Stress axis : x y z
#
# Youngs Moduli (GPa) = 93.80576 93.80263 59.30134
#
# Poissons Ratio (x) = 0.34008 0.09038
# Poissons Ratio (y) = 0.34009 0.09038
# Poissons Ratio (z) = 0.14296 0.14296
#
# Static dielectric constant tensor:
#      x y z
#    x 4.014190 0.000000 0.000000 
#    y 0.000000 4.014190 0.000000 
#    z 0.000000 0.000000 3.889120 
# 
# 
# High freq. dielectric constant tensor:
#      x y z
#    x 1.863310 0.000000 0.000000 
#    y 0.000000 1.863310 0.000000 
#    z 0.000000 0.000000 1.865070 
# 
# From -- ./inp_files/3085.got.cif
#   From: 2010.03.12/outbox.cif.g09.slc.cpg/sg115_2_cif.got.tgz:3085.got - 2010.04.14 02:11:21.
