data_PCOD8309945
_publ_section_title
;
Structure prediction by ZEFSAII (Michael W. Deem and Ramdas Pophale) SiO2 
 PCOD8309945
Probable space group: P -4 M 2
;
_chemical_formula_sum "Si O2"
_cell_formula_units_Z 34
_cell_length_a 11.889865
_cell_length_b 11.889865
_cell_length_c 11.532826
_cell_angle_alpha 90.000000
_cell_angle_beta 90.000000
_cell_angle_gamma 90.000000
_cell_volume 1630.382807
_symmetry_space_group_name_H-M "P -4 M 2"
_symmetry_group_IT_number 115
_symmetry_cell_setting 'tetragonal'
loop_
_space_group_symop_operation_xyz
x,y,z
y,-x,-z
-x,-y,z
-y,x,-z
y,x,-z
-y,-x,-z
-x,y,z
x,-y,z
loop_
_atom_site_type_symbol
_atom_site_label
_atom_site_fract_x
_atom_site_fract_y
_atom_site_fract_z
Si Si1 0.125687 0.716306 0.219377
Si Si2 0.750875 0.500000 0.313866
Si Si3 0.500000 0.749934 0.417826
Si Si4 0.500000 0.500000 0.650748
Si Si5 0.802850 0.627054 0.993409
Si Si6 0.320205 0.129980 0.261591
O O1 0.193979 0.610225 0.263084
O O2 0.190980 0.828460 0.259621
O O3 0.000000 0.722247 0.270090
O O4 0.121166 0.703948 0.079233
O O5 0.783061 0.500000 0.448921
O O6 0.617852 0.500000 0.278252
O O7 0.500000 0.614637 0.423422
O O8 0.610658 0.797720 0.354954
O O9 0.799038 0.500000 0.039812
O O10 0.854124 0.626816 0.865208
O O11 0.676267 0.676267 0.000000
O O12 0.324810 0.000000 0.298275
#
# Coordination Sequence:
#
# PCOD8309945 Si02
#       6
#     8   4   4   2   8   8
#     4  11  24  41  63  91 124 165 210 256 307 367
#     4  12  24  41  65  94 126 161 203 253 314 378
#     4  12  24  41  65  94 126 161 203 253 314 378
#     4  12  25  44  68  93 130 165 196 252 317 382
#     4  10  21  38  58  90 126 164 203 250 313 373
#     4  11  24  41  63  91 124 165 210 256 307 367
#
# _framework density 20.853998000000001
#
# number of rings (size 3 to 8) (size 9 to 14) (size 15 to 20)
#    0.000    0.941    4.706    2.471    0.000    3.529 
#    0.000    0.000    0.000    4.235    0.000    3.294 
#    0.000    0.000    0.000    0.000    0.000    0.000 
#
# Total GULP energy -421518.257640 kJ/mol
# GULP energy per Si atom -12397.595813 kJ/mol
# Density = 2.080653 g / cm^3
# Si number density = 20.853998 Si / 1000 Ang^3
#
#
#
# Elastic Constant Matrix: (Units=GPa)
#
#
# Indices 1 2 3 4 5 6 
#
# 1 144.5956 43.7248 22.1031 0.0000 0.0000 0.0000
# 2 43.7248 144.5956 22.1031 0.0000 0.0000 0.0000
# 3 22.1031 22.1031 90.2741 0.0000 0.0000 0.0000
# 4 0.0000 0.0000 0.0000 14.6446 0.0000 0.0000
# 5 0.0000 0.0000 0.0000 0.0000 14.6446 0.0000
# 6 0.0000 0.0000 0.0000 0.0000 0.0000 18.4765
#
#
#
# Elastic Compliance Matrix: (Units=1/GPa)
#
#
# Indices 1 2 3 4 5 6 
#
# 1 0.007774 -0.002140 -0.001379 0.000000 0.000000 0.000000
# 2 -0.002140 0.007774 -0.001379 0.000000 0.000000 0.000000
# 3 -0.001379 -0.001379 0.011753 0.000000 0.000000 0.000000
# 4 0.000000 0.000000 0.000000 0.068284 0.000000 0.000000
# 5 0.000000 0.000000 0.000000 0.000000 0.068284 0.000000
# 6 0.000000 0.000000 0.000000 0.000000 0.000000 0.054123
#
#
# Mechanical properties :
#
#
# Convention : Reuss Voigt Hill
#
# Bulk Modulus (GPa) = 57.13318 61.70302 59.41810
# Shear Modulus (GPa) = 21.40191 28.98877 25.19534
#
# Velocity S-wave (km/s) = 3.20703 3.73243 3.47966
# Velocity P-wave (km/s) = 6.41635 6.94457 6.68568
#
# Compressibility (1/GPa) = 0.01750296
#
# Stress axis : x y z
#
# Youngs Moduli (GPa) = 128.63737 128.63737 85.08568
#
# Poissons Ratio (x) = 0.27527 0.11737
# Poissons Ratio (y) = 0.27527 0.11737
# Poissons Ratio (z) = 0.17745 0.17745
#
# Static dielectric constant tensor:
#      x y z
#    x 3.826590 0.000000 0.000000 
#    y 0.000000 3.826590 0.000000 
#    z 0.000000 0.000000 3.752130 
# 
# 
# High freq. dielectric constant tensor:
#      x y z
#    x 1.814240 0.000000 0.000000 
#    y 0.000000 1.814240 0.000000 
#    z 0.000000 0.000000 1.814590 
# 
# From -- ./inp_files/2669.got.cif
#   From: 2010.03.12/outbox.cif.g09.slc.cpg/sg115_2_cif.got.tgz:2669.got - 2010.04.14 02:11:21.
