data_PCOD8309168
_publ_section_title
;
Structure prediction by ZEFSAII (Michael W. Deem and Ramdas Pophale) SiO2 
 PCOD8309168
Probable space group: P -4 M 2
;
_chemical_formula_sum "Si O2"
_cell_formula_units_Z 48
_cell_length_a 12.201349
_cell_length_b 12.201349
_cell_length_c 19.313898
_cell_angle_alpha 90.000000
_cell_angle_beta 90.000000
_cell_angle_gamma 90.000000
_cell_volume 2875.316342
_symmetry_space_group_name_H-M "P -4 M 2"
_symmetry_group_IT_number 115
_symmetry_cell_setting 'tetragonal'
loop_
_space_group_symop_operation_xyz
x,y,z
y,-x,-z
-x,-y,z
-y,x,-z
y,x,-z
-y,-x,-z
-x,y,z
x,-y,z
loop_
_atom_site_type_symbol
_atom_site_label
_atom_site_fract_x
_atom_site_fract_y
_atom_site_fract_z
Si Si1 0.000000 0.373339 0.069063
Si Si2 0.129236 0.000000 0.191446
Si Si3 0.000000 0.697971 0.914447
Si Si4 0.380283 0.380283 0.000000
Si Si5 0.766763 0.378687 0.871630
Si Si6 0.130544 0.876367 0.425657
Si Si7 0.185142 0.629312 0.180833
Si Si8 0.200233 0.124762 0.717103
O O1 0.892455 0.346414 0.114709
O O2 0.000000 0.500000 0.046930
O O3 0.000000 0.302987 0.998417
O O4 0.174699 0.892027 0.231426
O O5 0.177272 0.000000 0.113278
O O6 0.000000 0.000000 0.181592
O O7 0.104641 0.639710 0.880570
O O8 0.282460 0.367427 0.947615
O O9 0.370886 0.500000 0.037176
O O10 0.747727 0.500000 0.840838
O O11 0.698745 0.296462 0.823642
O O12 0.172371 0.827630 0.500000
O O13 0.176345 0.804707 0.360534
O O14 0.000000 0.875185 0.430892
O O15 0.172709 0.000000 0.413112
O O16 0.205580 0.500000 0.189878
O O17 0.131588 0.677584 0.250890
O O18 0.164725 0.000000 0.707436
#
# Coordination Sequence:
#
# PCOD8309168 Si02
#       8
#     4   4   4   4   8   8   8   8
#     4  10  22  38  54  71  95 129 174 224 270 314
#     4  10  20  34  52  71 101 139 165 200 250 310
#     4  12  22  36  54  70  94 131 172 211 265 319
#     4   9  18  34  54  70  85 112 154 210 269 310
#     4  11  22  35  51  72  94 120 163 214 263 311
#     4   8  13  22  42  74 106 136 166 195 235 293
#     4  11  22  36  53  72  97 134 174 215 264 307
#     4  10  17  31  51  72 105 136 166 203 246 299
#
# _framework density 16.693815000000001
#
# number of rings (size 3 to 8) (size 9 to 14) (size 15 to 20)
#    0.000    1.917    3.333    2.750    0.000    3.667 
#    0.000    0.000    1.833    0.000    0.000    1.167 
#    0.000    1.333    0.000    0.000    0.000    0.000 
#
# Total GULP energy -594719.074918 kJ/mol
# GULP energy per Si atom -12389.980727 kJ/mol
# Density = 1.665582 g / cm^3
# Si number density = 16.693815 Si / 1000 Ang^3
#
#
#
# Elastic Constant Matrix: (Units=GPa)
#
#
# Indices 1 2 3 4 5 6 
#
# 1 80.3641 25.1309 37.0179 0.0000 0.0000 0.0000
# 2 25.1309 80.3642 37.0180 0.0000 0.0000 0.0000
# 3 37.0179 37.0180 132.2512 0.0000 0.0000 0.0000
# 4 0.0000 0.0000 0.0000 11.0707 0.0000 0.0000
# 5 0.0000 0.0000 0.0000 0.0000 11.0707 0.0000
# 6 0.0000 0.0000 0.0000 0.0000 0.0000 16.8848
#
#
#
# Elastic Compliance Matrix: (Units=1/GPa)
#
#
# Indices 1 2 3 4 5 6 
#
# 1 0.014951 -0.003154 -0.003302 0.000000 0.000000 0.000000
# 2 -0.003154 0.014951 -0.003302 0.000000 0.000000 0.000000
# 3 -0.003302 -0.003302 0.009410 0.000000 0.000000 0.000000
# 4 0.000000 0.000000 0.000000 0.090329 0.000000 0.000000
# 5 0.000000 0.000000 0.000000 0.000000 0.090329 0.000000
# 6 0.000000 0.000000 0.000000 0.000000 0.000000 0.059225
#
#
# Mechanical properties :
#
#
# Convention : Reuss Voigt Hill
#
# Bulk Modulus (GPa) = 50.51780 54.59037 52.55408
# Shear Modulus (GPa) = 16.37691 20.72608 18.55150
#
# Velocity S-wave (km/s) = 3.13552 3.52738 3.33720
# Velocity P-wave (km/s) = 6.59058 7.02579 6.81166
#
# Compressibility (1/GPa) = 0.01979500
#
# Stress axis : x y z
#
# Youngs Moduli (GPa) = 66.88646 66.88657 106.27222
#
# Poissons Ratio (x) = 0.21098 0.35090
# Poissons Ratio (y) = 0.21098 0.35090
# Poissons Ratio (z) = 0.22085 0.22085
#
# Static dielectric constant tensor:
#      x y z
#    x 3.130860 0.000000 0.000000 
#    y 0.000000 3.130860 0.000000 
#    z 0.000000 0.000000 3.253110 
# 
# 
# High freq. dielectric constant tensor:
#      x y z
#    x 1.627850 0.000000 0.000000 
#    y 0.000000 1.627850 0.000000 
#    z 0.000000 0.000000 1.622870 
# 
# From -- ./inp_files/4884.got.cif
#   From: 2010.03.12/outbox.cif.g09.slc.cpg/sg115_3_cif.got.tgz:4884.got - 2010.04.14 02:11:21.
