data_PCOD8309613
_publ_section_title
;
Structure prediction by ZEFSAII (Michael W. Deem and Ramdas Pophale) SiO2 
 PCOD8309613
Probable space group: P -4 M 2
;
_chemical_formula_sum "Si O2"
_cell_formula_units_Z 44
_cell_length_a 9.111243
_cell_length_b 9.111243
_cell_length_c 28.618691
_cell_angle_alpha 90.000000
_cell_angle_beta 90.000000
_cell_angle_gamma 90.000000
_cell_volume 2375.773450
_symmetry_space_group_name_H-M "P -4 M 2"
_symmetry_group_IT_number 115
_symmetry_cell_setting 'tetragonal'
loop_
_space_group_symop_operation_xyz
x,y,z
y,-x,-z
-x,-y,z
-y,x,-z
y,x,-z
-y,-x,-z
-x,y,z
x,-y,z
loop_
_atom_site_type_symbol
_atom_site_label
_atom_site_fract_x
_atom_site_fract_y
_atom_site_fract_z
Si Si1 0.328123 0.827580 0.542886
Si Si2 0.336865 0.325794 0.718065
Si Si3 0.670728 0.670728 0.000000
Si Si4 0.829698 0.672531 0.626975
Si Si5 0.674746 0.336634 0.819956
Si Si6 0.675026 0.835415 0.908686
O O1 0.248709 0.751292 0.500000
O O2 0.500000 0.792653 0.540216
O O3 0.264496 0.763439 0.590447
O O4 0.296861 0.000000 0.540664
O O5 0.500000 0.263527 0.706516
O O6 0.346226 0.500000 0.721014
O O7 0.223042 0.276317 0.678273
O O8 0.281252 0.269794 0.769022
O O9 0.750946 0.733853 0.045756
O O10 0.702829 0.500000 0.992902
O O11 0.801511 0.500000 0.618981
O O12 0.000000 0.711718 0.621272
O O13 0.500000 0.343195 0.822653
O O14 0.739806 0.500000 0.826410
O O15 0.739393 0.237126 0.861496
O O16 0.500000 0.829529 0.907676
O O17 0.734761 0.000000 0.910942
#
# Coordination Sequence:
#
# PCOD8309613 Si02
#       6
#     8   8   4   8   8   8
#     4  11  24  40  58  81 107 136 172 211 252 299
#     4   8  14  26  46  71  98 129 164 201 240 283
#     4   9  16  26  42  63  86 114 148 185 228 282
#     4  10  20  34  54  80 108 138 172 208 248 295
#     4   8  13  23  41  64  89 119 156 196 239 285
#     4   9  16  25  39  62  90 116 146 190 239 280
#
# _framework density 18.520285000000001
#
# number of rings (size 3 to 8) (size 9 to 14) (size 15 to 20)
#    0.000    2.818    0.000    3.273    0.000    6.909 
#    0.000    0.909    0.000    4.636    0.000    5.091 
#    0.000    0.000    0.000    0.000    0.000    0.000 
#
# Total GULP energy -545438.943507 kJ/mol
# GULP energy per Si atom -12396.339625 kJ/mol
# Density = 1.847813 g / cm^3
# Si number density = 18.520285 Si / 1000 Ang^3
#
#
#
# Elastic Constant Matrix: (Units=GPa)
#
#
# Indices 1 2 3 4 5 6 
#
# 1 70.7252 43.0943 62.4085 0.0000 0.0000 0.0000
# 2 43.0943 70.7217 62.4070 0.0000 0.0000 0.0000
# 3 62.4085 62.4070 186.3561 0.0000 0.0000 0.0000
# 4 0.0000 0.0000 0.0000 -2.4504 0.0000 0.0000
# 5 0.0000 0.0000 0.0000 0.0000 -2.4496 0.0000
# 6 0.0000 0.0000 0.0000 0.0000 0.0000 14.9853
#
#
#
# Elastic Compliance Matrix: (Units=1/GPa)
#
#
# Indices 1 2 3 4 5 6 
#
# 1 0.025039 -0.011154 -0.004650 0.000000 0.000000 0.000000
# 2 -0.011154 0.025040 -0.004650 0.000000 0.000000 0.000000
# 3 -0.004650 -0.004650 0.008480 0.000000 0.000000 0.000000
# 4 0.000000 0.000000 0.000000 -0.408095 0.000000 0.000000
# 5 0.000000 0.000000 0.000000 0.000000 -0.408233 0.000000
# 6 0.000000 0.000000 0.000000 0.000000 0.000000 0.066732
#
#
# Mechanical properties :
#
#
# Convention : Reuss Voigt Hill
#
# Bulk Modulus (GPa) = 56.65361 73.73585 65.19473
# Shear Modulus (GPa) = -7.76103 12.67661 2.45779
#
# Velocity S-wave (km/s) = -2.04931 2.61908 1.15324
# Velocity P-wave (km/s) = 5.00569 7.00329 6.08699
#
# Compressibility (1/GPa) = 0.01765113
#
# Stress axis : x y z
#
# Youngs Moduli (GPa) = 39.93798 39.93595 117.91814
#
# Poissons Ratio (x) = 0.44545 0.54831
# Poissons Ratio (y) = 0.44548 0.54832
# Poissons Ratio (z) = 0.18571 0.18570
#
# Static dielectric constant tensor:
#      x y z
#    x 3.181790 0.000000 0.000000 
#    y 0.000000 3.181790 0.000000 
#    z 0.000000 0.000000 3.916210 
# 
# 
# High freq. dielectric constant tensor:
#      x y z
#    x 1.685750 0.000000 0.000000 
#    y 0.000000 1.685750 0.000000 
#    z 0.000000 0.000000 1.742190 
# 
# From -- ./inp_files/5701.got.cif
#   From: 2010.03.12/outbox.cif.g09.slc.cpg/sg115_3_cif.got.tgz:5701.got - 2010.04.14 02:11:21.
