data_PCOD8309872
_publ_section_title
;
Structure prediction by ZEFSAII (Michael W. Deem and Ramdas Pophale) SiO2 
 PCOD8309872
Probable space group: P -4 M 2
;
_chemical_formula_sum "Si O2"
_cell_formula_units_Z 48
_cell_length_a 9.197880
_cell_length_b 9.197880
_cell_length_c 30.522048
_cell_angle_alpha 90.000000
_cell_angle_beta 90.000000
_cell_angle_gamma 90.000000
_cell_volume 2582.195676
_symmetry_space_group_name_H-M "P -4 M 2"
_symmetry_group_IT_number 115
_symmetry_cell_setting 'tetragonal'
loop_
_space_group_symop_operation_xyz
x,y,z
y,-x,-z
-x,-y,z
-y,x,-z
y,x,-z
-y,-x,-z
-x,y,z
x,-y,z
loop_
_atom_site_type_symbol
_atom_site_label
_atom_site_fract_x
_atom_site_fract_y
_atom_site_fract_z
Si Si1 0.167352 0.670623 0.134555
Si Si2 0.828994 0.339338 0.035838
Si Si3 0.331366 0.170257 0.712798
Si Si4 0.332730 0.667876 0.374686
Si Si5 0.667265 0.170761 0.461977
Si Si6 0.331470 0.828929 0.209892
O O1 0.190143 0.500000 0.143098
O O2 0.211031 0.712033 0.084869
O O3 0.273185 0.762004 0.164992
O O4 0.000000 0.712320 0.144304
O O5 0.764294 0.500000 0.027469
O O6 0.000000 0.344103 0.030950
O O7 0.769509 0.230492 0.000000
O O8 0.500000 0.203996 0.722453
O O9 0.284137 0.234798 0.666121
O O10 0.235524 0.244029 0.749671
O O11 0.299410 0.000000 0.712569
O O12 0.500000 0.699247 0.362520
O O13 0.307829 0.500000 0.386711
O O14 0.281633 0.761785 0.416022
O O15 0.766190 0.233811 0.500000
O O16 0.500000 0.212111 0.471440
O O17 0.690991 0.000000 0.459452
O O18 0.500000 0.788352 0.215114
O O19 0.306216 0.000000 0.208586
#
# Coordination Sequence:
#
# PCOD8309872 Si02
#       6
#     8   8   8   8   8   8
#     4   9  19  37  58  78 103 138 179 220 263 313
#     4   9  19  35  54  78 108 140 175 217 263 312
#     4  10  21  37  58  83 109 139 176 217 262 315
#     4   9  18  34  56  80 107 141 180 220 262 311
#     4  10  21  36  55  80 110 144 181 222 267 314
#     4  11  24  38  53  78 110 141 175 218 266 314
#
# _framework density 18.588833000000001
#
# number of rings (size 3 to 8) (size 9 to 14) (size 15 to 20)
#    0.000    2.333    0.000    3.000    0.000    8.667 
#    0.000    8.333    0.000    0.000    0.000    0.000 
#    0.000    0.000    0.000    0.000    0.000    0.000 
#
# Total GULP energy -595329.255861 kJ/mol
# GULP energy per Si atom -12402.692830 kJ/mol
# Density = 1.854652 g / cm^3
# Si number density = 18.588833 Si / 1000 Ang^3
#
#
#
# Elastic Constant Matrix: (Units=GPa)
#
#
# Indices 1 2 3 4 5 6 
#
# 1 78.5410 49.4724 73.0000 0.0000 0.0000 0.0000
# 2 49.4724 78.5440 73.0018 0.0000 0.0000 0.0000
# 3 73.0000 73.0018 156.5065 0.0000 0.0000 0.0000
# 4 0.0000 0.0000 0.0000 100.7987 0.0000 0.0000
# 5 0.0000 0.0000 0.0000 0.0000 100.7860 0.0000
# 6 0.0000 0.0000 0.0000 0.0000 0.0000 29.7371
#
#
#
# Elastic Compliance Matrix: (Units=1/GPa)
#
#
# Indices 1 2 3 4 5 6 
#
# 1 0.025545 -0.008854 -0.007785 0.000000 0.000000 0.000000
# 2 -0.008854 0.025545 -0.007785 0.000000 0.000000 0.000000
# 3 -0.007785 -0.007785 0.013652 0.000000 0.000000 0.000000
# 4 0.000000 0.000000 0.000000 0.009921 0.000000 0.000000
# 5 0.000000 0.000000 0.000000 0.000000 0.009922 0.000000
# 6 0.000000 0.000000 0.000000 0.000000 0.000000 0.033628
#
#
# Mechanical properties :
#
#
# Convention : Reuss Voigt Hill
#
# Bulk Modulus (GPa) = 62.92196 78.28221 70.60208
# Shear Modulus (GPa) = 29.00898 54.13885 41.57391
#
# Velocity S-wave (km/s) = 3.95468 5.40256 4.73429
# Velocity P-wave (km/s) = 7.40104 9.00671 8.24306
#
# Compressibility (1/GPa) = 0.01589270
#
# Stress axis : x y z
#
# Youngs Moduli (GPa) = 39.14588 39.14695 73.24849
#
# Poissons Ratio (x) = 0.34663 0.57025
# Poissons Ratio (y) = 0.34662 0.57026
# Poissons Ratio (z) = 0.30476 0.30477
#
# Static dielectric constant tensor:
#      x y z
#    x 3.268760 0.000000 0.000000 
#    y 0.000000 3.268740 0.000000 
#    z 0.000000 0.000000 3.535240 
# 
# 
# High freq. dielectric constant tensor:
#      x y z
#    x 1.718860 0.000000 0.000000 
#    y 0.000000 1.718860 0.000000 
#    z 0.000000 0.000000 1.734570 
# 
# From -- ./inp_files/5937.got.cif
#   From: 2010.03.12/outbox.cif.g09.slc.cpg/sg115_3_cif.got.tgz:5937.got - 2010.04.14 02:11:21.
