data_PCOD8309123
_publ_section_title
;
Structure prediction by ZEFSAII (Michael W. Deem and Ramdas Pophale) SiO2 
 PCOD8309123
Probable space group: P -4 21 C
;
_chemical_formula_sum "Si O2"
_cell_formula_units_Z 48
_cell_length_a 13.081289
_cell_length_b 13.081289
_cell_length_c 12.773645
_cell_angle_alpha 90.000000
_cell_angle_beta 90.000000
_cell_angle_gamma 90.000000
_cell_volume 2185.827690
_symmetry_space_group_name_H-M "P -4 21 C"
_symmetry_group_IT_number 114
_symmetry_cell_setting 'tetragonal'
loop_
_space_group_symop_operation_xyz
x,y,z
y,-x,-z
-x,-y,z
-y,x,-z
1/2+x,1/2-y,1/2-z
1/2-x,1/2+y,1/2-z
1/2-y,1/2-x,1/2+z
1/2+y,1/2+x,1/2+z
loop_
_atom_site_type_symbol
_atom_site_label
_atom_site_fract_x
_atom_site_fract_y
_atom_site_fract_z
Si Si1 0.500000 0.000000 0.235307
Si Si2 0.144552 0.855914 0.379059
Si Si3 0.570791 0.863672 0.079815
Si Si4 0.169085 0.343853 0.970419
Si Si5 0.500000 0.500000 0.500000
Si Si6 0.335508 0.019136 0.896511
Si Si7 0.140751 0.140639 0.856380
Si Si8 0.000000 0.000000 0.500000
O O1 0.406545 0.042681 0.161406
O O2 0.533094 0.093583 0.309055
O O3 0.129635 0.734430 0.379591
O O4 0.243058 0.876355 0.448975
O O5 0.159710 0.899882 0.261701
O O6 0.046355 0.911118 0.428238
O O7 0.448099 0.851677 0.092203
O O8 0.603512 0.893592 0.962331
O O9 0.070215 0.300709 0.028213
O O10 0.191614 0.246920 0.896337
O O11 0.552322 0.411392 0.571825
O O12 0.234300 0.062666 0.844274
#
# Coordination Sequence:
#
# PCOD8309123 Si02
#       8
#     4   8   8   8   2   8   8   2
#     4  12  22  40  72  96 136 178 228 290 348 416
#     4  12  27  44  72 104 140 193 237 287 364 433
#     4  12  24  43  68 102 137 176 231 297 344 408
#     4  12  25  44  68 103 142 176 236 300 352 427
#     4  12  26  52  68 102 156 184 234 308 352 442
#     4  12  24  43  68 102 137 176 231 297 344 408
#     4  12  27  44  72 104 140 193 237 287 364 433
#     4  12  26  52  68 102 156 184 234 308 352 442
#
# _framework density 21.959644999999998
#
# number of rings (size 3 to 8) (size 9 to 14) (size 15 to 20)
#    0.000    0.000   10.000    0.500    2.333    0.000 
#    0.000    3.333    0.000    0.000    0.000    0.000 
#    0.000    0.000    0.000    0.000    0.000    0.000 
#
# Total GULP energy -594975.899062 kJ/mol
# GULP energy per Si atom -12395.331230 kJ/mol
# Density = 2.190966 g / cm^3
# Si number density = 21.959645 Si / 1000 Ang^3
#
#
#
# Elastic Constant Matrix: (Units=GPa)
#
#
# Indices 1 2 3 4 5 6 
#
# 1 76.8700 9.3576 23.7017 0.0000 0.0000 0.0000
# 2 9.3576 76.8700 23.7017 0.0000 0.0000 0.0000
# 3 23.7017 23.7017 132.9349 0.0000 0.0000 0.0000
# 4 0.0000 0.0000 0.0000 20.2033 0.0000 0.0000
# 5 0.0000 0.0000 0.0000 0.0000 20.2033 0.0000
# 6 0.0000 0.0000 0.0000 0.0000 0.0000 29.4746
#
#
#
# Elastic Compliance Matrix: (Units=1/GPa)
#
#
# Indices 1 2 3 4 5 6 
#
# 1 0.013835 -0.000977 -0.002292 0.000000 0.000000 0.000000
# 2 -0.000977 0.013835 -0.002292 0.000000 0.000000 0.000000
# 3 -0.002292 -0.002292 0.008340 0.000000 0.000000 0.000000
# 4 0.000000 0.000000 0.000000 0.049497 0.000000 0.000000
# 5 0.000000 0.000000 0.000000 0.000000 0.049497 0.000000
# 6 0.000000 0.000000 0.000000 0.000000 0.000000 0.033927
#
#
# Mechanical properties :
#
#
# Convention : Reuss Voigt Hill
#
# Bulk Modulus (GPa) = 40.18461 44.46635 42.32548
# Shear Modulus (GPa) = 26.54627 29.30382 27.92505
#
# Velocity S-wave (km/s) = 3.48065 3.65696 3.56989
# Velocity P-wave (km/s) = 5.87301 6.17448 6.02563
#
# Compressibility (1/GPa) = 0.02488515
#
# Stress axis : x y z
#
# Youngs Moduli (GPa) = 72.28159 72.28159 119.90498
#
# Poissons Ratio (x) = 0.07064 0.27487
# Poissons Ratio (y) = 0.07064 0.27487
# Poissons Ratio (z) = 0.16570 0.16570
#
# Static dielectric constant tensor:
#      x y z
#    x 3.862650 0.000000 0.000000 
#    y 0.000000 3.862650 0.000000 
#    z 0.000000 0.000000 4.132170 
# 
# 
# High freq. dielectric constant tensor:
#      x y z
#    x 1.860750 0.000000 0.000000 
#    y 0.000000 1.860750 0.000000 
#    z 0.000000 0.000000 1.875940 
# 
# From -- ./inp_files/1735.got.cif
#   From: 2010.03.12/outbox.cif.g09.slc.cpg/sg114_1_cif.got.tgz:1735.got - 2010.04.14 02:08:34.
