data_PCOD8309600
_publ_section_title
;
Structure prediction by ZEFSAII (Michael W. Deem and Ramdas Pophale) SiO2 
 PCOD8309600
Probable space group: P -4 M 2
;
_chemical_formula_sum "Si O2"
_cell_formula_units_Z 48
_cell_length_a 9.035912
_cell_length_b 9.035912
_cell_length_c 30.926590
_cell_angle_alpha 90.000000
_cell_angle_beta 90.000000
_cell_angle_gamma 90.000000
_cell_volume 2525.085118
_symmetry_space_group_name_H-M "P -4 M 2"
_symmetry_group_IT_number 115
_symmetry_cell_setting 'tetragonal'
loop_
_space_group_symop_operation_xyz
x,y,z
y,-x,-z
-x,-y,z
-y,x,-z
y,x,-z
-y,-x,-z
-x,y,z
x,-y,z
loop_
_atom_site_type_symbol
_atom_site_label
_atom_site_fract_x
_atom_site_fract_y
_atom_site_fract_z
Si Si1 0.834741 0.324058 0.370156
Si Si2 0.670390 0.326128 0.127117
Si Si3 0.323329 0.334860 0.547216
Si Si4 0.172288 0.827839 0.205321
Si Si5 0.172681 0.330228 0.961638
Si Si6 0.325649 0.329292 0.283980
O O1 0.834668 0.500000 0.372660
O O2 0.767426 0.258795 0.414601
O O3 0.738167 0.271522 0.329473
O O4 0.000000 0.261396 0.364717
O O5 0.500000 0.288062 0.138076
O O6 0.696988 0.500000 0.124885
O O7 0.774915 0.258792 0.163297
O O8 0.717908 0.257255 0.081553
O O9 0.273241 0.273241 0.500000
O O10 0.500000 0.338774 0.548173
O O11 0.261182 0.500000 0.554736
O O12 0.259864 0.771237 0.246688
O O13 0.000000 0.796449 0.212589
O O14 0.206168 0.000000 0.198649
O O15 0.209060 0.500000 0.973511
O O16 0.000000 0.305401 0.953755
O O17 0.225948 0.225948 0.000000
O O18 0.500000 0.309180 0.285119
O O19 0.281548 0.500000 0.275446
#
# Coordination Sequence:
#
# PCOD8309600 Si02
#       6
#     8   8   8   8   8   8
#     4   9  16  26  43  69 100 131 164 207 258 308
#     4  10  21  38  61  86 110 140 181 226 269 314
#     4   8  13  22  38  61  89 122 162 207 252 299
#     4  11  24  39  55  78 109 143 177 215 263 318
#     4  10  21  37  58  84 114 149 187 226 270 318
#     4  10  20  34  54  79 105 135 174 218 263 313
#
# _framework density 19.009260000000001
#
# number of rings (size 3 to 8) (size 9 to 14) (size 15 to 20)
#    0.000    2.333    0.000    3.500    0.000    9.000 
#    0.000    0.000    0.000    1.000    0.000    2.333 
#    0.000    0.000    0.000    0.000    0.000    0.000 
#
# Total GULP energy -595264.014963 kJ/mol
# GULP energy per Si atom -12401.333645 kJ/mol
# Density = 1.896599 g / cm^3
# Si number density = 19.009260 Si / 1000 Ang^3
#
#
#
# Elastic Constant Matrix: (Units=GPa)
#
#
# Indices 1 2 3 4 5 6 
#
# 1 73.8425 34.3356 54.0553 0.0000 0.0000 0.0000
# 2 34.3356 73.8425 54.0553 0.0000 0.0000 0.0000
# 3 54.0553 54.0553 153.3868 0.0000 0.0000 0.0000
# 4 0.0000 0.0000 0.0000 -11.3433 0.0000 0.0000
# 5 0.0000 0.0000 0.0000 0.0000 -11.3433 0.0000
# 6 0.0000 0.0000 0.0000 0.0000 0.0000 22.9574
#
#
#
# Elastic Compliance Matrix: (Units=1/GPa)
#
#
# Indices 1 2 3 4 5 6 
#
# 1 0.019791 -0.005521 -0.005029 0.000000 0.000000 0.000000
# 2 -0.005521 0.019791 -0.005029 0.000000 0.000000 0.000000
# 3 -0.005029 -0.005029 0.010064 0.000000 0.000000 0.000000
# 4 0.000000 0.000000 0.000000 -0.088158 0.000000 0.000000
# 5 0.000000 0.000000 0.000000 0.000000 -0.088158 0.000000
# 6 0.000000 0.000000 0.000000 0.000000 0.000000 0.043559
#
#
# Mechanical properties :
#
#
# Convention : Reuss Voigt Hill
#
# Bulk Modulus (GPa) = 54.08907 65.10714 59.59810
# Shear Modulus (GPa) = -109.19210 10.62922 -49.28144
#
# Velocity S-wave (km/s) = -7.58724 2.36722 -5.09718
# Velocity P-wave (km/s) = 6.94544 6.46500 1.79484
#
# Compressibility (1/GPa) = 0.01848802
#
# Stress axis : x y z
#
# Youngs Moduli (GPa) = 50.52844 50.52844 99.36533
#
# Poissons Ratio (x) = 0.27898 0.49969
# Poissons Ratio (y) = 0.27898 0.49969
# Poissons Ratio (z) = 0.25410 0.25410
#
# Static dielectric constant tensor:
#      x y z
#    x 3.387800 0.000000 0.000000 
#    y 0.000000 3.387800 0.000000 
#    z 0.000000 0.000000 3.780550 
# 
# 
# High freq. dielectric constant tensor:
#      x y z
#    x 1.722210 0.000000 0.000000 
#    y 0.000000 1.722210 0.000000 
#    z 0.000000 0.000000 1.757330 
# 
# From -- ./inp_files/6123.got.cif
#   From: 2010.03.12/outbox.cif.g09.slc.cpg/sg115_4_cif.got.tgz:6123.got - 2010.04.14 02:11:21.
