data_PCOD8309646
_publ_section_title
;
Structure prediction by ZEFSAII (Michael W. Deem and Ramdas Pophale) SiO2 
 PCOD8309646
Probable space group: P -4 M 2
;
_chemical_formula_sum "Si O2"
_cell_formula_units_Z 40
_cell_length_a 9.122122
_cell_length_b 9.122122
_cell_length_c 25.820076
_cell_angle_alpha 90.000000
_cell_angle_beta 90.000000
_cell_angle_gamma 90.000000
_cell_volume 2148.568819
_symmetry_space_group_name_H-M "P -4 M 2"
_symmetry_group_IT_number 115
_symmetry_cell_setting 'tetragonal'
loop_
_space_group_symop_operation_xyz
x,y,z
y,-x,-z
-x,-y,z
-y,x,-z
y,x,-z
-y,-x,-z
-x,y,z
x,-y,z
loop_
_atom_site_type_symbol
_atom_site_label
_atom_site_fract_x
_atom_site_fract_y
_atom_site_fract_z
Si Si1 0.326577 0.663368 0.854641
Si Si2 0.172309 0.671792 0.452523
Si Si3 0.673817 0.337340 0.258732
Si Si4 0.163401 0.826432 0.942906
Si Si5 0.327552 0.170091 0.359466
O O1 0.500000 0.658601 0.857527
O O2 0.262085 0.500000 0.862850
O O3 0.280856 0.726760 0.797873
O O4 0.269913 0.767951 0.899200
O O5 0.248615 0.751385 0.500000
O O6 0.206978 0.500000 0.455529
O O7 0.236799 0.735407 0.399870
O O8 0.000000 0.703018 0.454907
O O9 0.500000 0.348672 0.256490
O O10 0.737675 0.500000 0.271134
O O11 0.723568 0.222986 0.302619
O O12 0.000000 0.764240 0.933288
O O13 0.161026 0.000000 0.940317
O O14 0.221049 0.778952 0.000000
O O15 0.500000 0.197545 0.368391
O O16 0.287935 0.000000 0.365726
#
# Coordination Sequence:
#
# PCOD8309646 Si02
#       5
#     8   8   8   8   8
#     4   9  18  32  51  77 105 131 165 211 259 306
#     4  11  24  40  58  81 108 139 176 215 256 305
#     4   8  15  30  51  74 103 138 172 208 252 301
#     4   9  19  35  51  68  95 132 172 212 255 307
#     4  10  20  34  55  83 110 137 173 214 255 302
#
# _framework density 18.617044
#
# number of rings (size 3 to 8) (size 9 to 14) (size 15 to 20)
#    0.000    2.600    0.000    3.600    0.000    7.600 
#    0.000    6.000    0.000    1.200    0.000    0.000 
#    0.000    0.000    0.000    0.000    0.000    0.000 
#
# Total GULP energy -495881.737346 kJ/mol
# GULP energy per Si atom -12397.043434 kJ/mol
# Density = 1.857467 g / cm^3
# Si number density = 18.617044 Si / 1000 Ang^3
#
#
#
# Elastic Constant Matrix: (Units=GPa)
#
#
# Indices 1 2 3 4 5 6 
#
# 1 63.9125 42.5820 59.1589 0.0000 0.0000 0.0000
# 2 42.5820 63.9125 59.1589 0.0000 0.0000 0.0000
# 3 59.1589 59.1589 169.3751 0.0000 0.0000 0.0000
# 4 0.0000 0.0000 0.0000 93.1741 0.0000 0.0000
# 5 0.0000 0.0000 0.0000 0.0000 93.1738 0.0000
# 6 0.0000 0.0000 0.0000 0.0000 0.0000 26.7463
#
#
#
# Elastic Compliance Matrix: (Units=1/GPa)
#
#
# Indices 1 2 3 4 5 6 
#
# 1 0.031113 -0.015768 -0.005360 0.000000 0.000000 0.000000
# 2 -0.015768 0.031113 -0.005360 0.000000 0.000000 0.000000
# 3 -0.005360 -0.005360 0.009648 0.000000 0.000000 0.000000
# 4 0.000000 0.000000 0.000000 0.010733 0.000000 0.000000
# 5 0.000000 0.000000 0.000000 0.000000 0.010733 0.000000
# 6 0.000000 0.000000 0.000000 0.000000 0.000000 0.037388
#
#
# Mechanical properties :
#
#
# Convention : Reuss Voigt Hill
#
# Bulk Modulus (GPa) = 52.91216 68.77774 60.84495
# Shear Modulus (GPa) = 26.31551 51.70552 39.01051
#
# Velocity S-wave (km/s) = 3.76376 5.27575 4.58254
# Velocity P-wave (km/s) = 6.88265 8.61017 7.79442
#
# Compressibility (1/GPa) = 0.01889925
#
# Stress axis : x y z
#
# Youngs Moduli (GPa) = 32.14094 32.14094 103.64812
#
# Poissons Ratio (x) = 0.50680 0.55551
# Poissons Ratio (y) = 0.50680 0.55551
# Poissons Ratio (z) = 0.17226 0.17226
#
# Static dielectric constant tensor:
#      x y z
#    x 3.305510 0.000000 0.000000 
#    y 0.000000 3.305520 0.000000 
#    z 0.000000 0.000000 3.837490 
# 
# 
# High freq. dielectric constant tensor:
#      x y z
#    x 1.707630 0.000000 0.000000 
#    y 0.000000 1.707630 0.000000 
#    z 0.000000 0.000000 1.742000 
# 
# From -- ./inp_files/5101.got.cif
#   From: 2010.03.12/outbox.cif.g09.slc.cpg/sg115_3_cif.got.tgz:5101.got - 2010.04.14 02:11:21.
