data_PCOD8309165
_publ_section_title
;
Structure prediction by ZEFSAII (Michael W. Deem and Ramdas Pophale) SiO2 
 PCOD8309165
Probable space group: P -4 M 2
;
_chemical_formula_sum "Si O2"
_cell_formula_units_Z 64
_cell_length_a 13.879038
_cell_length_b 13.879038
_cell_length_c 20.926853
_cell_angle_alpha 90.000000
_cell_angle_beta 90.000000
_cell_angle_gamma 90.000000
_cell_volume 4031.091474
_symmetry_space_group_name_H-M "P -4 M 2"
_symmetry_group_IT_number 115
_symmetry_cell_setting 'tetragonal'
loop_
_space_group_symop_operation_xyz
x,y,z
y,-x,-z
-x,-y,z
-y,x,-z
y,x,-z
-y,-x,-z
-x,y,z
x,-y,z
loop_
_atom_site_type_symbol
_atom_site_label
_atom_site_fract_x
_atom_site_fract_y
_atom_site_fract_z
Si Si1 0.885319 0.222379 0.946941
Si Si2 0.390142 0.704206 0.440620
Si Si3 0.888075 0.893923 0.823924
Si Si4 0.387035 0.733056 0.048191
Si Si5 0.389329 0.728458 0.191619
Si Si6 0.607037 0.614616 0.690267
Si Si7 0.889553 0.718844 0.748785
Si Si8 0.608938 0.107704 0.376208
O O1 0.849124 0.172493 0.881374
O O2 0.830919 0.324397 0.958424
O O3 0.000000 0.241329 0.948787
O O4 0.855246 0.144755 0.000000
O O5 0.326595 0.673406 0.500000
O O6 0.500000 0.671604 0.453098
O O7 0.350944 0.659828 0.374317
O O8 0.380404 0.819961 0.435609
O O9 0.870195 0.833770 0.758081
O O10 0.000000 0.910667 0.835686
O O11 0.837749 0.000000 0.820156
O O12 0.500000 0.755693 0.034175
O O13 0.374994 0.689226 0.119763
O O14 0.348618 0.651383 0.000000
O O15 0.500000 0.744450 0.207764
O O16 0.344272 0.657448 0.245487
O O17 0.338689 0.831658 0.197298
O O18 0.500000 0.657744 0.688891
O O19 0.605373 0.500000 0.692777
O O20 0.860433 0.684457 0.678155
O O21 0.000000 0.693276 0.762542
O O22 0.500000 0.115918 0.348000
O O23 0.630300 0.000000 0.401043
#
# Coordination Sequence:
#
# PCOD8309165 Si02
#       8
#     8   8   8   8   8   8   8   8
#     4  10  19  32  49  70  94 122 155 193 242 298
#     4  10  18  28  44  68  97 127 157 192 236 286
#     4   9  17  28  43  67  96 122 149 186 236 291
#     4  10  22  36  50  69  95 128 168 209 248 294
#     4  10  18  30  47  68  93 122 157 197 239 284
#     4   9  17  28  42  64  93 122 153 188 229 278
#     4  10  17  27  45  70  98 124 152 190 237 289
#     4   9  17  29  46  69  97 128 159 192 234 285
#
# _framework density 15.876595
#
# number of rings (size 3 to 8) (size 9 to 14) (size 15 to 20)
#    0.000    2.375    2.500    1.125    0.000    2.875 
#    0.000    2.500    0.000    0.750    0.000    0.000 
#    0.000    0.500    0.000    0.125    0.000    0.125 
#
# Total GULP energy -793114.278688 kJ/mol
# GULP energy per Si atom -12392.410605 kJ/mol
# Density = 1.584046 g / cm^3
# Si number density = 15.876595 Si / 1000 Ang^3
#
#
#
# Elastic Constant Matrix: (Units=GPa)
#
#
# Indices 1 2 3 4 5 6 
#
# 1 80.9992 37.1037 45.0168 0.0000 0.0000 0.0000
# 2 37.1037 80.9997 45.0167 0.0000 0.0000 0.0000
# 3 45.0168 45.0167 98.1347 0.0000 0.0000 0.0000
# 4 0.0000 0.0000 0.0000 22.5619 0.0000 0.0000
# 5 0.0000 0.0000 0.0000 0.0000 22.5621 0.0000
# 6 0.0000 0.0000 0.0000 0.0000 0.0000 14.9548
#
#
#
# Elastic Compliance Matrix: (Units=1/GPa)
#
#
# Indices 1 2 3 4 5 6 
#
# 1 0.017901 -0.004880 -0.005973 0.000000 0.000000 0.000000
# 2 -0.004880 0.017901 -0.005973 0.000000 0.000000 0.000000
# 3 -0.005973 -0.005973 0.015670 0.000000 0.000000 0.000000
# 4 0.000000 0.000000 0.000000 0.044322 0.000000 0.000000
# 5 0.000000 0.000000 0.000000 0.000000 0.044322 0.000000
# 6 0.000000 0.000000 0.000000 0.000000 0.000000 0.066868
#
#
# Mechanical properties :
#
#
# Convention : Reuss Voigt Hill
#
# Bulk Modulus (GPa) = 56.11830 57.15644 56.63737
# Shear Modulus (GPa) = 20.27772 20.88218 20.57995
#
# Velocity S-wave (km/s) = 3.57768 3.63061 3.60425
# Velocity P-wave (km/s) = 7.24498 7.32487 7.28503
#
# Compressibility (1/GPa) = 0.01781950
#
# Stress axis : x y z
#
# Youngs Moduli (GPa) = 55.86306 55.86358 63.81700
#
# Poissons Ratio (x) = 0.27264 0.38117
# Poissons Ratio (y) = 0.27263 0.38116
# Poissons Ratio (z) = 0.33366 0.33366
#
# Static dielectric constant tensor:
#      x y z
#    x 3.027040 0.000000 0.000000 
#    y 0.000000 3.027040 0.000000 
#    z 0.000000 0.000000 2.980040 
# 
# 
# High freq. dielectric constant tensor:
#      x y z
#    x 1.593530 0.000000 0.000000 
#    y 0.000000 1.593530 0.000000 
#    z 0.000000 0.000000 1.600790 
# 
# From -- ./inp_files/4483.got.cif
#   From: 2010.03.12/outbox.cif.g09.slc.cpg/sg115_3_cif.got.tgz:4483.got - 2010.04.14 02:11:21.
