data_PCOD8309394
_publ_section_title
;
Structure prediction by ZEFSAII (Michael W. Deem and Ramdas Pophale) SiO2 
 PCOD8309394
Probable space group: P -4 M 2
;
_chemical_formula_sum "Si O2"
_cell_formula_units_Z 40
_cell_length_a 14.519682
_cell_length_b 14.519682
_cell_length_c 9.895294
_cell_angle_alpha 90.000000
_cell_angle_beta 90.000000
_cell_angle_gamma 90.000000
_cell_volume 2086.137413
_symmetry_space_group_name_H-M "P -4 M 2"
_symmetry_group_IT_number 115
_symmetry_cell_setting 'tetragonal'
loop_
_space_group_symop_operation_xyz
x,y,z
y,-x,-z
-x,-y,z
-y,x,-z
y,x,-z
-y,-x,-z
-x,y,z
x,-y,z
loop_
_atom_site_type_symbol
_atom_site_label
_atom_site_fract_x
_atom_site_fract_y
_atom_site_fract_z
Si Si1 0.105806 0.394144 0.605500
Si Si2 0.750534 0.894639 0.166818
Si Si3 0.609345 0.798019 0.669482
Si Si4 0.742845 0.104933 0.856780
Si Si5 0.597690 0.602835 0.340263
O O1 0.122858 0.500000 0.645531
O O2 0.131972 0.333594 0.735549
O O3 0.171844 0.363734 0.482531
O O4 0.000000 0.378502 0.561182
O O5 0.837452 0.829914 0.197323
O O6 0.781909 0.000000 0.189967
O O7 0.718544 0.878494 0.013236
O O8 0.500000 0.801110 0.685055
O O9 0.651593 0.868402 0.775631
O O10 0.649245 0.694705 0.703658
O O11 0.768724 0.000000 0.827776
O O12 0.598334 0.598334 0.500000
O O13 0.500000 0.652522 0.294765
O O14 0.595678 0.500000 0.280174
#
# Coordination Sequence:
#
# PCOD8309394 Si02
#       5
#     8   8   8   8   8
#     4   9  18  33  53  79 110 142 175 212 259 317
#     4   9  20  38  56  75 102 137 176 218 267 324
#     4  10  20  32  52  83 112 140 175 217 263 308
#     4  10  21  36  55  78 103 134 174 223 273 319
#     4   8  15  28  45  70 104 139 176 213 247 293
#
# _framework density 19.174192999999999
#
# number of rings (size 3 to 8) (size 9 to 14) (size 15 to 20)
#    0.000    2.800    0.000    1.200    2.800    2.400 
#    0.000    4.000    0.000    1.200    0.000    2.800 
#    0.000    6.400    0.000    0.000    0.000    0.000 
#
# Total GULP energy -495639.532015 kJ/mol
# GULP energy per Si atom -12390.988300 kJ/mol
# Density = 1.913055 g / cm^3
# Si number density = 19.174193 Si / 1000 Ang^3
#
#
#
# Elastic Constant Matrix: (Units=GPa)
#
#
# Indices 1 2 3 4 5 6 
#
# 1 105.5864 57.8911 57.7953 0.0000 0.0000 0.0000
# 2 57.8911 105.5864 57.7953 0.0000 0.0000 0.0000
# 3 57.7953 57.7953 81.1840 0.0000 0.0000 0.0000
# 4 0.0000 0.0000 0.0000 26.0890 0.0000 0.0000
# 5 0.0000 0.0000 0.0000 0.0000 26.0890 0.0000
# 6 0.0000 0.0000 0.0000 0.0000 0.0000 25.6103
#
#
#
# Elastic Compliance Matrix: (Units=1/GPa)
#
#
# Indices 1 2 3 4 5 6 
#
# 1 0.016642 -0.004325 -0.008769 0.000000 0.000000 0.000000
# 2 -0.004325 0.016642 -0.008769 0.000000 0.000000 0.000000
# 3 -0.008769 -0.008769 0.024803 0.000000 0.000000 0.000000
# 4 0.000000 0.000000 0.000000 0.038330 0.000000 0.000000
# 5 0.000000 0.000000 0.000000 0.000000 0.038330 0.000000
# 6 0.000000 0.000000 0.000000 0.000000 0.000000 0.039047
#
#
# Mechanical properties :
#
#
# Convention : Reuss Voigt Hill
#
# Bulk Modulus (GPa) = 69.62671 71.03558 70.33114
# Shear Modulus (GPa) = 22.49166 23.48268 22.98717
#
# Velocity S-wave (km/s) = 3.42865 3.50337 3.46621
# Velocity P-wave (km/s) = 7.21566 7.31387 7.26493
#
# Compressibility (1/GPa) = 0.01436230
#
# Stress axis : x y z
#
# Youngs Moduli (GPa) = 60.08980 60.08980 40.31843
#
# Poissons Ratio (x) = 0.25987 0.35354
# Poissons Ratio (y) = 0.25987 0.35354
# Poissons Ratio (z) = 0.52690 0.52690
#
# Static dielectric constant tensor:
#      x y z
#    x 3.732010 0.000000 0.000000 
#    y 0.000000 3.732010 0.000000 
#    z 0.000000 0.000000 3.249410 
# 
# 
# High freq. dielectric constant tensor:
#      x y z
#    x 1.749750 0.000000 0.000000 
#    y 0.000000 1.749750 0.000000 
#    z 0.000000 0.000000 1.714150 
# 
# From -- ./inp_files/1599.got.cif
#   From: 2010.03.12/outbox.cif.g09.slc.cpg/sg115_1_cif.got.tgz:1599.got - 2010.04.14 02:11:21.
