data_PCOD8309685
_publ_section_title
;
Structure prediction by ZEFSAII (Michael W. Deem and Ramdas Pophale) SiO2 
 PCOD8309685
Probable space group: P -4 M 2
;
_chemical_formula_sum "Si O2"
_cell_formula_units_Z 48
_cell_length_a 8.201056
_cell_length_b 8.201056
_cell_length_c 34.243103
_cell_angle_alpha 90.000000
_cell_angle_beta 90.000000
_cell_angle_gamma 90.000000
_cell_volume 2303.099320
_symmetry_space_group_name_H-M "P -4 M 2"
_symmetry_group_IT_number 115
_symmetry_cell_setting 'tetragonal'
loop_
_space_group_symop_operation_xyz
x,y,z
y,-x,-z
-x,-y,z
-y,x,-z
y,x,-z
-y,-x,-z
-x,y,z
x,-y,z
loop_
_atom_site_type_symbol
_atom_site_label
_atom_site_fract_x
_atom_site_fract_y
_atom_site_fract_z
Si Si1 0.808892 0.815370 0.878525
Si Si2 0.685763 0.193629 0.377423
Si Si3 0.688372 0.824113 0.462057
Si Si4 0.694397 0.000000 0.758505
Si Si5 0.691393 0.000000 0.669451
Si Si6 0.310151 0.679429 0.801542
Si Si7 0.192011 0.682090 0.959234
O O1 0.719670 0.699661 0.847687
O O2 0.741072 0.784037 0.922255
O O3 0.000000 0.776821 0.876832
O O4 0.768754 0.000000 0.866960
O O5 0.500000 0.256924 0.366150
O O6 0.741816 0.257609 0.420739
O O7 0.828853 0.247887 0.348450
O O8 0.680130 0.000000 0.378668
O O9 0.715015 0.715015 0.500000
O O10 0.500000 0.855107 0.457224
O O11 0.775512 0.000000 0.468269
O O12 0.752053 0.000000 0.713906
O O13 0.767871 0.165958 0.778262
O O14 0.500000 0.000000 0.762833
O O15 0.500000 0.000000 0.666045
O O16 0.500000 0.677616 0.792679
O O17 0.238721 0.500000 0.788880
O O18 0.255413 0.500000 0.953324
O O19 0.000000 0.693521 0.960298
O O20 0.253406 0.746595 0.000000
#
# Coordination Sequence:
#
# PCOD8309685 Si02
#       7
#     8   8   8   4   4   8   8
#     4  10  20  35  57  83 111 145 183 228 285 344
#     4   9  20  40  60  81 116 159 200 244 298 361
#     4   9  19  34  52  77 109 145 187 234 284 341
#     4   9  20  39  57  83 119 149 187 237 291 353
#     4  11  23  37  61  91 117 153 199 251 305 361
#     4  10  20  36  60  85 111 147 187 231 286 347
#     4  10  21  36  53  75 105 142 184 228 274 327
#
# _framework density 20.841480000000001
#
# number of rings (size 3 to 8) (size 9 to 14) (size 15 to 20)
#    0.000    2.333    0.833    2.250    1.167    4.667 
#    0.000    5.000    0.000    0.000    0.000    0.000 
#    0.000    0.000    0.000    0.000    0.000    0.000 
#
# Total GULP energy -594677.140486 kJ/mol
# GULP energy per Si atom -12389.107093 kJ/mol
# Density = 2.079404 g / cm^3
# Si number density = 20.841480 Si / 1000 Ang^3
#
#
#
# Elastic Constant Matrix: (Units=GPa)
#
#
# Indices 1 2 3 4 5 6 
#
# 1 73.2635 38.1250 47.5851 0.0000 0.0000 0.0000
# 2 38.1250 73.2626 47.5849 0.0000 0.0000 0.0000
# 3 47.5851 47.5849 158.3885 0.0000 0.0000 0.0000
# 4 0.0000 0.0000 0.0000 15.5816 0.0000 0.0000
# 5 0.0000 0.0000 0.0000 0.0000 15.5813 0.0000
# 6 0.0000 0.0000 0.0000 0.0000 0.0000 19.8678
#
#
#
# Elastic Compliance Matrix: (Units=1/GPa)
#
#
# Indices 1 2 3 4 5 6 
#
# 1 0.020268 -0.008191 -0.003629 0.000000 0.000000 0.000000
# 2 -0.008191 0.020269 -0.003629 0.000000 0.000000 0.000000
# 3 -0.003629 -0.003629 0.008494 0.000000 0.000000 0.000000
# 4 0.000000 0.000000 0.000000 0.064178 0.000000 0.000000
# 5 0.000000 0.000000 0.000000 0.000000 0.064179 0.000000
# 6 0.000000 0.000000 0.000000 0.000000 0.000000 0.050333
#
#
# Mechanical properties :
#
#
# Convention : Reuss Voigt Hill
#
# Bulk Modulus (GPa) = 55.14103 63.50052 59.32078
# Shear Modulus (GPa) = 18.89203 21.64746 20.26974
#
# Velocity S-wave (km/s) = 3.01402 3.22634 3.12198
# Velocity P-wave (km/s) = 6.21508 6.66435 6.44363
#
# Compressibility (1/GPa) = 0.01813531
#
# Stress axis : x y z
#
# Youngs Moduli (GPa) = 49.33792 49.33730 117.73182
#
# Poissons Ratio (x) = 0.40410 0.42720
# Poissons Ratio (y) = 0.40411 0.42720
# Poissons Ratio (z) = 0.17903 0.17903
#
# Static dielectric constant tensor:
#      x y z
#    x 5.238220 0.000000 0.000000 
#    y 0.000000 5.238200 0.000000 
#    z 0.000000 0.000000 3.956480 
# 
# 
# High freq. dielectric constant tensor:
#      x y z
#    x 1.805160 0.000000 0.000000 
#    y 0.000000 1.805160 0.000000 
#    z 0.000000 0.000000 1.819960 
# 
# From -- ./inp_files/6178.got.cif
#   From: 2010.03.12/outbox.cif.g09.slc.cpg/sg115_4_cif.got.tgz:6178.got - 2010.04.14 02:11:21.
