data_PCOD8309025
_publ_section_title
;
Structure prediction by ZEFSAII (Michael W. Deem and Ramdas Pophale) SiO2 
 PCOD8309025
Probable space group: P -4 21 C
;
_chemical_formula_sum "Si O2"
_cell_formula_units_Z 40
_cell_length_a 8.162973
_cell_length_b 8.162973
_cell_length_c 24.238834
_cell_angle_alpha 90.000000
_cell_angle_beta 90.000000
_cell_angle_gamma 90.000000
_cell_volume 1615.133572
_symmetry_space_group_name_H-M "P -4 21 C"
_symmetry_group_IT_number 114
_symmetry_cell_setting 'tetragonal'
loop_
_space_group_symop_operation_xyz
x,y,z
y,-x,-z
-x,-y,z
-y,x,-z
1/2+x,1/2-y,1/2-z
1/2-x,1/2+y,1/2-z
1/2-y,1/2-x,1/2+z
1/2+y,1/2+x,1/2+z
loop_
_atom_site_type_symbol
_atom_site_label
_atom_site_fract_x
_atom_site_fract_y
_atom_site_fract_z
Si Si1 0.883804 0.748538 0.716689
Si Si2 0.597939 0.280171 0.190384
Si Si3 0.798768 0.810302 0.421392
Si Si4 0.115285 0.341642 0.533937
Si Si5 0.033135 0.191655 0.128020
O O1 0.876744 0.681303 0.779988
O O2 0.781349 0.621305 0.679004
O O3 0.069982 0.773423 0.698977
O O4 0.799391 0.924324 0.718664
O O5 0.562699 0.268031 0.124313
O O6 0.816604 0.691865 0.473264
O O7 0.637466 0.778333 0.385007
O O8 0.804299 0.999251 0.442459
O O9 0.274652 0.357968 0.572948
O O10 0.000000 0.500000 0.531274
O O11 0.000000 0.000000 0.139309
#
# Coordination Sequence:
#
# PCOD8309025 Si02
#       5
#     8   8   8   8   8
#     4  11  26  47  74 104 148 189 247 302 374 439
#     4  11  26  47  72 109 143 196 244 307 366 441
#     4  11  25  44  73 100 151 191 244 308 367 446
#     4  10  25  45  70 107 144 192 247 304 375 445
#     4  11  26  45  72 104 145 191 244 306 372 441
#
# _framework density 24.765753
#
# number of rings (size 3 to 8) (size 9 to 14) (size 15 to 20)
#    0.000    1.200    2.000    1.200   14.000    2.800 
#    0.000    0.000    0.000    0.000    0.000    0.000 
#    0.000    0.000    0.000    0.000    0.000    0.000 
#
# Total GULP energy -495668.456250 kJ/mol
# GULP energy per Si atom -12391.711406 kJ/mol
# Density = 2.470938 g / cm^3
# Si number density = 24.765753 Si / 1000 Ang^3
#
#
#
# Elastic Constant Matrix: (Units=GPa)
#
#
# Indices 1 2 3 4 5 6 
#
# 1 61.2374 9.4918 12.6131 0.0000 0.0000 0.0000
# 2 9.4918 61.2374 12.6131 0.0000 0.0000 0.0000
# 3 12.6131 12.6131 140.4170 0.0000 0.0000 0.0000
# 4 0.0000 0.0000 0.0000 40.3089 0.0000 0.0000
# 5 0.0000 0.0000 0.0000 0.0000 40.3089 0.0000
# 6 0.0000 0.0000 0.0000 0.0000 0.0000 28.7979
#
#
#
# Elastic Compliance Matrix: (Units=1/GPa)
#
#
# Indices 1 2 3 4 5 6 
#
# 1 0.016966 -0.002359 -0.001312 0.000000 0.000000 0.000000
# 2 -0.002359 0.016966 -0.001312 0.000000 0.000000 0.000000
# 3 -0.001312 -0.001312 0.007357 0.000000 0.000000 0.000000
# 4 0.000000 0.000000 0.000000 0.024808 0.000000 0.000000
# 5 0.000000 0.000000 0.000000 0.000000 0.024808 0.000000
# 6 0.000000 0.000000 0.000000 0.000000 0.000000 0.034725
#
#
# Mechanical properties :
#
#
# Convention : Reuss Voigt Hill
#
# Bulk Modulus (GPa) = 31.92647 36.92532 34.42590
# Shear Modulus (GPa) = 34.23758 37.09472 35.66615
#
# Velocity S-wave (km/s) = 3.72217 3.87437 3.79903
# Velocity P-wave (km/s) = 5.60287 5.91240 5.75972
#
# Compressibility (1/GPa) = 0.03132197
#
# Stress axis : x y z
#
# Youngs Moduli (GPa) = 58.94199 58.94199 135.91842
#
# Poissons Ratio (x) = 0.13907 0.17833
# Poissons Ratio (y) = 0.13907 0.17833
# Poissons Ratio (z) = 0.07733 0.07733
#
# Static dielectric constant tensor:
#      x y z
#    x 4.506820 0.000000 0.000000 
#    y 0.000000 4.506820 0.000000 
#    z 0.000000 0.000000 4.849570 
# 
# 
# High freq. dielectric constant tensor:
#      x y z
#    x 1.978270 0.000000 0.000000 
#    y 0.000000 1.978270 0.000000 
#    z 0.000000 0.000000 2.008270 
# 
# From -- ./inp_files/3370.got.cif
#   From: 2010.03.12/outbox.cif.g09.slc.cpg/sg114_2_cif.got.tgz:3370.got - 2010.04.14 02:08:34.
