data_PCOD8309731
_publ_section_title
;
Structure prediction by ZEFSAII (Michael W. Deem and Ramdas Pophale) SiO2 
 PCOD8309731
Probable space group: P -4 M 2
;
_chemical_formula_sum "Si O2"
_cell_formula_units_Z 25
_cell_length_a 11.084028
_cell_length_b 11.084028
_cell_length_c 10.092054
_cell_angle_alpha 90.000000
_cell_angle_beta 90.000000
_cell_angle_gamma 90.000000
_cell_volume 1239.866124
_symmetry_space_group_name_H-M "P -4 M 2"
_symmetry_group_IT_number 115
_symmetry_cell_setting 'tetragonal'
loop_
_space_group_symop_operation_xyz
x,y,z
y,-x,-z
-x,-y,z
-y,x,-z
y,x,-z
-y,-x,-z
-x,y,z
x,-y,z
loop_
_atom_site_type_symbol
_atom_site_label
_atom_site_fract_x
_atom_site_fract_y
_atom_site_fract_z
Si Si1 0.856920 0.761664 0.863997
Si Si2 0.500000 0.237120 0.480225
Si Si3 0.267305 0.861816 0.608190
Si Si4 0.500000 0.862093 0.196316
Si Si5 0.500000 0.500000 0.500000
O O1 0.783632 0.831187 0.751777
O O2 0.808174 0.622995 0.866022
O O3 0.000000 0.768374 0.834724
O O4 0.827541 0.827541 0.000000
O O5 0.615639 0.217448 0.573417
O O6 0.500000 0.148476 0.355487
O O7 0.500000 0.373625 0.419048
O O8 0.163801 0.836200 0.500000
O O9 0.306222 0.000000 0.603722
O O10 0.500000 0.000000 0.157324
#
# Coordination Sequence:
#
# PCOD8309731 Si02
#       5
#     8   4   8   4   1
#     4  11  24  42  64  92 131 176 220 271 334 401
#     4  12  22  41  65  98 129 165 221 281 336 389
#     4  12  24  39  64  95 129 170 218 272 329 391
#     4  10  20  41  66  89 126 171 215 273 337 393
#     4  12  20  36  64  88 126 164 204 268 330 388
#
# _framework density 20.163466
#
# number of rings (size 3 to 8) (size 9 to 14) (size 15 to 20)
#    0.000    0.640    4.800    3.360    0.000    5.120 
#    0.000    4.800    0.000    0.000    0.000    0.000 
#    0.000    0.000    0.000    0.000    0.000    0.000 
#
# Total GULP energy -309918.073502 kJ/mol
# GULP energy per Si atom -12396.722940 kJ/mol
# Density = 2.011757 g / cm^3
# Si number density = 20.163466 Si / 1000 Ang^3
#
#
#
# Elastic Constant Matrix: (Units=GPa)
#
#
# Indices 1 2 3 4 5 6 
#
# 1 112.2659 41.5484 29.5093 0.0000 0.0000 0.0000
# 2 41.5484 112.2651 29.5101 0.0000 0.0000 0.0000
# 3 29.5093 29.5101 108.0747 0.0000 0.0000 0.0000
# 4 0.0000 0.0000 0.0000 27.8495 0.0000 0.0000
# 5 0.0000 0.0000 0.0000 0.0000 27.8497 0.0000
# 6 0.0000 0.0000 0.0000 0.0000 0.0000 28.0297
#
#
#
# Elastic Compliance Matrix: (Units=1/GPa)
#
#
# Indices 1 2 3 4 5 6 
#
# 1 0.010701 -0.003439 -0.001983 0.000000 0.000000 0.000000
# 2 -0.003439 0.010702 -0.001983 0.000000 0.000000 0.000000
# 3 -0.001983 -0.001983 0.010336 0.000000 0.000000 0.000000
# 4 0.000000 0.000000 0.000000 0.035907 0.000000 0.000000
# 5 0.000000 0.000000 0.000000 0.000000 0.035907 0.000000
# 6 0.000000 0.000000 0.000000 0.000000 0.000000 0.035677
#
#
# Mechanical properties :
#
#
# Convention : Reuss Voigt Hill
#
# Bulk Modulus (GPa) = 59.07228 59.30462 59.18845
# Shear Modulus (GPa) = 31.31208 32.21498 31.76353
#
# Velocity S-wave (km/s) = 3.94497 4.00145 3.97331
# Velocity P-wave (km/s) = 7.07889 7.12913 7.10406
#
# Compressibility (1/GPa) = 0.01692841
#
# Stress axis : x y z
#
# Youngs Moduli (GPa) = 93.44502 93.44394 96.75166
#
# Poissons Ratio (x) = 0.32138 0.19185
# Poissons Ratio (y) = 0.32139 0.19186
# Poissons Ratio (z) = 0.18529 0.18530
#
# Static dielectric constant tensor:
#      x y z
#    x 3.961830 0.000000 0.000000 
#    y 0.000000 3.961830 0.000000 
#    z 0.000000 0.000000 3.438530 
# 
# 
# High freq. dielectric constant tensor:
#      x y z
#    x 1.800550 0.000000 0.000000 
#    y 0.000000 1.800550 0.000000 
#    z 0.000000 0.000000 1.766210 
# 
# From -- ./inp_files/1130.got.cif
#   From: 2010.03.12/outbox.cif.g09.slc.cpg/sg115_1_cif.got.tgz:1130.got - 2010.04.14 02:11:21.
