data_PCOD8309373
_publ_section_title
;
Structure prediction by ZEFSAII (Michael W. Deem and Ramdas Pophale) SiO2 
 PCOD8309373
Probable space group: P -4 M 2
;
_chemical_formula_sum "Si O2"
_cell_formula_units_Z 32
_cell_length_a 9.475839
_cell_length_b 9.475839
_cell_length_c 20.289963
_cell_angle_alpha 90.000000
_cell_angle_beta 90.000000
_cell_angle_gamma 90.000000
_cell_volume 1821.866715
_symmetry_space_group_name_H-M "P -4 M 2"
_symmetry_group_IT_number 115
_symmetry_cell_setting 'tetragonal'
loop_
_space_group_symop_operation_xyz
x,y,z
y,-x,-z
-x,-y,z
-y,x,-z
y,x,-z
-y,-x,-z
-x,y,z
x,-y,z
loop_
_atom_site_type_symbol
_atom_site_label
_atom_site_fract_x
_atom_site_fract_y
_atom_site_fract_z
Si Si1 0.657860 0.164735 0.950068
Si Si2 0.162988 0.666875 0.694882
Si Si3 0.836545 0.336824 0.200461
Si Si4 0.342762 0.667704 0.572298
O O1 0.500000 0.220846 0.962804
O O2 0.701856 0.197098 0.875078
O O3 0.665458 0.000000 0.963847
O O4 0.762223 0.237778 0.000000
O O5 0.182071 0.500000 0.702510
O O6 0.235710 0.739557 0.756728
O O7 0.236404 0.723547 0.628039
O O8 0.000000 0.710746 0.692184
O O9 0.799248 0.500000 0.214698
O O10 0.000000 0.308268 0.216701
O O11 0.285675 0.714326 0.500000
O O12 0.500000 0.729317 0.585903
O O13 0.350626 0.500000 0.573004
#
# Coordination Sequence:
#
# PCOD8309373 Si02
#       4
#     8   8   8   8
#     4   9  19  35  53  74 100 128 161 202 244 289
#     4  10  20  32  48  74 105 132 160 199 246 292
#     4   9  19  36  54  71  95 130 169 204 240 286
#     4   8  14  27  48  70  92 124 166 206 242 284
#
# _framework density 17.564402000000001
#
# number of rings (size 3 to 8) (size 9 to 14) (size 15 to 20)
#    0.000    3.000    0.000    3.000    0.000    4.500 
#    0.000    8.750    0.000    4.500    0.000    0.000 
#    0.000    0.000    0.000    0.000    0.000    0.000 
#
# Total GULP energy -396716.176954 kJ/mol
# GULP energy per Si atom -12397.380530 kJ/mol
# Density = 1.752442 g / cm^3
# Si number density = 17.564402 Si / 1000 Ang^3
#
#
#
# Elastic Constant Matrix: (Units=GPa)
#
#
# Indices 1 2 3 4 5 6 
#
# 1 71.2278 41.7987 64.2619 0.0000 0.0000 0.0000
# 2 41.7987 71.2306 64.2631 0.0000 0.0000 0.0000
# 3 64.2619 64.2631 134.9452 0.0000 0.0000 0.0000
# 4 0.0000 0.0000 0.0000 -8.8473 0.0000 0.0000
# 5 0.0000 0.0000 0.0000 0.0000 -8.8490 0.0000
# 6 0.0000 0.0000 0.0000 0.0000 0.0000 27.5816
#
#
#
# Elastic Compliance Matrix: (Units=1/GPa)
#
#
# Indices 1 2 3 4 5 6 
#
# 1 0.026638 -0.007341 -0.009189 0.000000 0.000000 0.000000
# 2 -0.007341 0.026637 -0.009189 0.000000 0.000000 0.000000
# 3 -0.009189 -0.009189 0.016162 0.000000 0.000000 0.000000
# 4 0.000000 0.000000 0.000000 -0.113029 0.000000 0.000000
# 5 0.000000 0.000000 0.000000 0.000000 -0.113007 0.000000
# 6 0.000000 0.000000 0.000000 0.000000 0.000000 0.036256
#
#
# Mechanical properties :
#
#
# Convention : Reuss Voigt Hill
#
# Bulk Modulus (GPa) = 55.55997 68.67236 62.11616
# Shear Modulus (GPa) = -79.48592 9.11573 -35.18510
#
# Velocity S-wave (km/s) = -6.73441 2.28060 -4.48057
# Velocity P-wave (km/s) = 5.36366 6.79097 2.94520
#
# Compressibility (1/GPa) = 0.01799857
#
# Stress axis : x y z
#
# Youngs Moduli (GPa) = 37.54040 37.54186 61.87181
#
# Poissons Ratio (x) = 0.27559 0.56856
# Poissons Ratio (y) = 0.27558 0.56855
# Poissons Ratio (z) = 0.34497 0.34498
#
# Static dielectric constant tensor:
#      x y z
#    x 3.127950 0.000000 0.000000 
#    y 0.000000 3.127950 0.000000 
#    z 0.000000 0.000000 3.448460 
# 
# 
# High freq. dielectric constant tensor:
#      x y z
#    x 1.662510 0.000000 0.000000 
#    y 0.000000 1.662510 0.000000 
#    z 0.000000 0.000000 1.691500 
# 
# From -- ./inp_files/4565.got.cif
#   From: 2010.03.12/outbox.cif.g09.slc.cpg/sg115_3_cif.got.tgz:4565.got - 2010.04.14 02:11:21.
