data_PCOD8309823
_publ_section_title
;
Structure prediction by ZEFSAII (Michael W. Deem and Ramdas Pophale) SiO2 
 PCOD8309823
Probable space group: P -4 M 2
;
_chemical_formula_sum "Si O2"
_cell_formula_units_Z 48
_cell_length_a 9.311620
_cell_length_b 9.311620
_cell_length_c 31.102340
_cell_angle_alpha 90.000000
_cell_angle_beta 90.000000
_cell_angle_gamma 90.000000
_cell_volume 2696.767797
_symmetry_space_group_name_H-M "P -4 M 2"
_symmetry_group_IT_number 115
_symmetry_cell_setting 'tetragonal'
loop_
_space_group_symop_operation_xyz
x,y,z
y,-x,-z
-x,-y,z
-y,x,-z
y,x,-z
-y,-x,-z
-x,y,z
x,-y,z
loop_
_atom_site_type_symbol
_atom_site_label
_atom_site_fract_x
_atom_site_fract_y
_atom_site_fract_z
Si Si1 0.167146 0.167146 0.500000
Si Si2 0.162317 0.171675 0.591931
Si Si3 0.664753 0.664753 0.000000
Si Si4 0.333020 0.166670 0.673481
Si Si5 0.332971 0.334774 0.243008
Si Si6 0.666241 0.168604 0.158084
Si Si7 0.168675 0.334422 0.085261
O O1 0.230279 0.225908 0.545709
O O2 0.000000 0.198211 0.504037
O O3 0.255659 0.231391 0.631393
O O4 0.000000 0.227642 0.598160
O O5 0.164445 0.000000 0.591367
O O6 0.708803 0.765162 0.960495
O O7 0.690370 0.500000 0.986238
O O8 0.500000 0.194982 0.666713
O O9 0.276467 0.248071 0.715627
O O10 0.296818 0.000000 0.679742
O O11 0.500000 0.316266 0.252910
O O12 0.293244 0.500000 0.233034
O O13 0.284572 0.239919 0.202660
O O14 0.500000 0.204154 0.148462
O O15 0.762713 0.233073 0.120738
O O16 0.694050 0.000000 0.161223
O O17 0.204444 0.500000 0.096177
O O18 0.000000 0.306192 0.083450
#
# Coordination Sequence:
#
# PCOD8309823 Si02
#       7
#     4   8   4   8   8   8   8
#     4   7  10  18  34  56  80 107 142 180 214 257
#     4   8  13  22  38  60  84 111 144 180 219 266
#     4   9  18  34  56  79 104 138 178 213 242 279
#     4   9  17  28  43  65  90 114 144 186 232 273
#     4   9  18  33  51  68  89 122 160 193 230 282
#     4  10  21  36  54  76 101 130 165 205 248 293
#     4  10  21  36  55  80 108 137 169 205 245 289
#
# _framework density 17.799085000000002
#
# number of rings (size 3 to 8) (size 9 to 14) (size 15 to 20)
#    0.000    3.000    0.000    2.000    0.000    4.000 
#    0.000    3.333    0.000    1.000    0.000    2.333 
#    0.000    0.000    0.000    0.000    0.000    0.000 
#
# Total GULP energy -594963.890617 kJ/mol
# GULP energy per Si atom -12395.081055 kJ/mol
# Density = 1.775857 g / cm^3
# Si number density = 17.799085 Si / 1000 Ang^3
#
#
#
# Elastic Constant Matrix: (Units=GPa)
#
#
# Indices 1 2 3 4 5 6 
#
# 1 60.5136 36.6417 72.6137 0.0000 0.0000 0.0000
# 2 36.6417 60.5136 72.6137 0.0000 0.0000 0.0000
# 3 72.6137 72.6137 191.8049 0.0000 0.0000 0.0000
# 4 0.0000 0.0000 0.0000 16.1131 0.0000 0.0000
# 5 0.0000 0.0000 0.0000 0.0000 16.1131 0.0000
# 6 0.0000 0.0000 0.0000 0.0000 0.0000 18.2018
#
#
#
# Elastic Compliance Matrix: (Units=1/GPa)
#
#
# Indices 1 2 3 4 5 6 
#
# 1 0.032801 -0.009090 -0.008976 0.000000 0.000000 0.000000
# 2 -0.009090 0.032801 -0.008976 0.000000 0.000000 0.000000
# 3 -0.008976 -0.008976 0.012010 0.000000 0.000000 0.000000
# 4 0.000000 0.000000 0.000000 0.062061 0.000000 0.000000
# 5 0.000000 0.000000 0.000000 0.000000 0.062061 0.000000
# 6 0.000000 0.000000 0.000000 0.000000 0.000000 0.054940
#
#
# Mechanical properties :
#
#
# Convention : Reuss Voigt Hill
#
# Bulk Modulus (GPa) = 42.50617 75.17449 58.84033
# Shear Modulus (GPa) = 15.69362 18.81646 17.25504
#
# Velocity S-wave (km/s) = 2.97258 3.25493 3.11695
# Velocity P-wave (km/s) = 5.97617 7.51351 6.78850
#
# Compressibility (1/GPa) = 0.02352600
#
# Stress axis : x y z
#
# Youngs Moduli (GPa) = 30.48732 30.48732 83.26209
#
# Poissons Ratio (x) = 0.27712 0.74740
# Poissons Ratio (y) = 0.27712 0.74740
# Poissons Ratio (z) = 0.27367 0.27367
#
# Static dielectric constant tensor:
#      x y z
#    x 3.154070 0.000000 0.000000 
#    y 0.000000 3.154070 0.000000 
#    z 0.000000 0.000000 3.661830 
# 
# 
# High freq. dielectric constant tensor:
#      x y z
#    x 1.663600 0.000000 0.000000 
#    y 0.000000 1.663600 0.000000 
#    z 0.000000 0.000000 1.708750 
# 
# From -- ./inp_files/6277.got.cif
#   From: 2010.03.12/outbox.cif.g09.slc.cpg/sg115_4_cif.got.tgz:6277.got - 2010.04.14 02:11:21.
