data_PCOD8309839
_publ_section_title
;
Structure prediction by ZEFSAII (Michael W. Deem and Ramdas Pophale) SiO2 
 PCOD8309839
Probable space group: P -4 M 2
;
_chemical_formula_sum "Si O2"
_cell_formula_units_Z 44
_cell_length_a 9.314710
_cell_length_b 9.314710
_cell_length_c 28.253031
_cell_angle_alpha 90.000000
_cell_angle_beta 90.000000
_cell_angle_gamma 90.000000
_cell_volume 2451.340963
_symmetry_space_group_name_H-M "P -4 M 2"
_symmetry_group_IT_number 115
_symmetry_cell_setting 'tetragonal'
loop_
_space_group_symop_operation_xyz
x,y,z
y,-x,-z
-x,-y,z
-y,x,-z
y,x,-z
-y,-x,-z
-x,y,z
x,-y,z
loop_
_atom_site_type_symbol
_atom_site_label
_atom_site_fract_x
_atom_site_fract_y
_atom_site_fract_z
Si Si1 0.165729 0.166267 0.865654
Si Si2 0.666652 0.333349 0.500000
Si Si3 0.834341 0.331439 0.039949
Si Si4 0.166859 0.333797 0.408214
Si Si5 0.170745 0.662083 0.774744
Si Si6 0.166065 0.167945 0.315791
O O1 0.259960 0.209774 0.910619
O O2 0.225774 0.257872 0.821720
O O3 0.000000 0.202570 0.876974
O O4 0.184116 0.000000 0.852347
O O5 0.500000 0.301510 0.491607
O O6 0.724382 0.250202 0.545941
O O7 0.806025 0.500000 0.043589
O O8 0.000000 0.297135 0.027795
O O9 0.733906 0.266095 0.000000
O O10 0.201296 0.500000 0.399193
O O11 0.221852 0.247295 0.362652
O O12 0.000000 0.305765 0.417252
O O13 0.230038 0.500000 0.774704
O O14 0.228893 0.743717 0.728411
O O15 0.000000 0.665773 0.774225
O O16 0.000000 0.202872 0.305776
O O17 0.191788 0.000000 0.323325
#
# Coordination Sequence:
#
# PCOD8309839 Si02
#       6
#     8   4   8   8   8   8
#     4   9  17  31  52  74  96 126 163 201 241 287
#     4   9  18  32  48  65  88 120 154 187 226 274
#     4  10  21  36  54  77 104 134 169 208 250 297
#     4   9  18  32  48  67  92 121 153 189 230 276
#     4   9  17  29  47  72  98 123 156 198 239 280
#     4   9  17  30  48  69  93 121 153 190 233 279
#
# _framework density 17.949358
#
# number of rings (size 3 to 8) (size 9 to 14) (size 15 to 20)
#    0.000    2.818    0.000    1.091    0.000    5.455 
#    0.000    2.727    0.000    5.455    0.000    0.000 
#    0.000    0.000    0.000    0.000    0.000    0.000 
#
# Total GULP energy -545682.974852 kJ/mol
# GULP energy per Si atom -12401.885792 kJ/mol
# Density = 1.790850 g / cm^3
# Si number density = 17.949358 Si / 1000 Ang^3
#
#
#
# Elastic Constant Matrix: (Units=GPa)
#
#
# Indices 1 2 3 4 5 6 
#
# 1 70.5260 39.5386 78.3642 0.0000 0.0000 0.0000
# 2 39.5386 70.5259 78.3626 0.0000 0.0000 0.0000
# 3 78.3642 78.3626 194.8571 0.0000 0.0000 0.0000
# 4 0.0000 0.0000 0.0000 9.1190 0.0000 0.0000
# 5 0.0000 0.0000 0.0000 0.0000 9.1214 0.0000
# 6 0.0000 0.0000 0.0000 0.0000 0.0000 17.5033
#
#
#
# Elastic Compliance Matrix: (Units=1/GPa)
#
#
# Indices 1 2 3 4 5 6 
#
# 1 0.026766 -0.005505 -0.008550 0.000000 0.000000 0.000000
# 2 -0.005505 0.026765 -0.008550 0.000000 0.000000 0.000000
# 3 -0.008550 -0.008550 0.012009 0.000000 0.000000 0.000000
# 4 0.000000 0.000000 0.000000 0.109661 0.000000 0.000000
# 5 0.000000 0.000000 0.000000 0.000000 0.109632 0.000000
# 6 0.000000 0.000000 0.000000 0.000000 0.000000 0.057132
#
#
# Mechanical properties :
#
#
# Convention : Reuss Voigt Hill
#
# Bulk Modulus (GPa) = 49.18931 80.93773 65.06352
# Shear Modulus (GPa) = 12.69187 16.45832 14.57509
#
# Velocity S-wave (km/s) = 2.66201 3.03137 2.85267
# Velocity P-wave (km/s) = 6.07555 7.57908 6.86858
#
# Compressibility (1/GPa) = 0.02032962
#
# Stress axis : x y z
#
# Youngs Moduli (GPa) = 37.36047 37.36156 83.27121
#
# Poissons Ratio (x) = 0.20569 0.71200
# Poissons Ratio (y) = 0.20568 0.71195
# Poissons Ratio (z) = 0.31945 0.31943
#
# Static dielectric constant tensor:
#      x y z
#    x 3.206560 0.000000 0.000000 
#    y 0.000000 3.206560 0.000000 
#    z 0.000000 0.000000 3.505650 
# 
# 
# High freq. dielectric constant tensor:
#      x y z
#    x 1.679440 0.000000 0.000000 
#    y 0.000000 1.679440 0.000000 
#    z 0.000000 0.000000 1.707260 
# 
# From -- ./inp_files/5687.got.cif
#   From: 2010.03.12/outbox.cif.g09.slc.cpg/sg115_3_cif.got.tgz:5687.got - 2010.04.14 02:11:21.
