data_PCOD8309916
_publ_section_title
;
Structure prediction by ZEFSAII (Michael W. Deem and Ramdas Pophale) SiO2 
 PCOD8309916
Probable space group: P -4 M 2
;
_chemical_formula_sum "Si O2"
_cell_formula_units_Z 48
_cell_length_a 9.074940
_cell_length_b 9.074940
_cell_length_c 30.951689
_cell_angle_alpha 90.000000
_cell_angle_beta 90.000000
_cell_angle_gamma 90.000000
_cell_volume 2549.011986
_symmetry_space_group_name_H-M "P -4 M 2"
_symmetry_group_IT_number 115
_symmetry_cell_setting 'tetragonal'
loop_
_space_group_symop_operation_xyz
x,y,z
y,-x,-z
-x,-y,z
-y,x,-z
y,x,-z
-y,-x,-z
-x,y,z
x,-y,z
loop_
_atom_site_type_symbol
_atom_site_label
_atom_site_fract_x
_atom_site_fract_y
_atom_site_fract_z
Si Si1 0.171351 0.170985 0.170074
Si Si2 0.826705 0.827893 0.420454
Si Si3 0.671377 0.328624 0.000000
Si Si4 0.327117 0.672884 0.500000
Si Si5 0.328145 0.167645 0.744419
Si Si6 0.328385 0.171160 0.085108
Si Si7 0.327312 0.671211 0.342759
O O1 0.231554 0.249035 0.213131
O O2 0.251247 0.236440 0.127832
O O3 0.000000 0.203315 0.164315
O O4 0.207928 0.000000 0.175095
O O5 0.752318 0.735488 0.458172
O O6 0.759758 0.774298 0.375546
O O7 0.000000 0.796683 0.420720
O O8 0.792520 0.000000 0.427103
O O9 0.749901 0.264176 0.957426
O O10 0.500000 0.294318 0.994875
O O11 0.500000 0.705149 0.496249
O O12 0.500000 0.173405 0.753674
O O13 0.284438 0.271634 0.704656
O O14 0.276968 0.000000 0.734374
O O15 0.500000 0.203979 0.089994
O O16 0.292249 0.000000 0.080114
O O17 0.500000 0.703785 0.346321
O O18 0.292572 0.500000 0.352772
#
# Coordination Sequence:
#
# PCOD8309916 Si02
#       7
#     8   8   4   4   8   8   8
#     4   9  18  32  49  70  97 128 163 204 249 298
#     4  11  24  40  59  85 115 147 185 226 268 317
#     4   9  18  32  48  67  92 122 156 195 240 290
#     4  11  24  41  62  88 116 147 184 225 270 320
#     4   9  18  33  52  74 102 136 172 211 257 307
#     4   9  18  32  48  67  93 124 157 195 242 295
#     4  10  21  37  57  82 111 143 181 223 267 317
#
# _framework density 18.830825999999998
#
# number of rings (size 3 to 8) (size 9 to 14) (size 15 to 20)
#    0.000    2.333    0.000    2.000    0.000    8.667 
#    0.000    1.667    0.000    0.000    0.000    0.000 
#    0.000    0.000    0.000    0.000    0.000    0.000 
#
# Total GULP energy -595322.353730 kJ/mol
# GULP energy per Si atom -12402.549036 kJ/mol
# Density = 1.878797 g / cm^3
# Si number density = 18.830826 Si / 1000 Ang^3
#
#
#
# Elastic Constant Matrix: (Units=GPa)
#
#
# Indices 1 2 3 4 5 6 
#
# 1 67.5864 47.0888 60.3487 0.0000 0.0000 0.0000
# 2 47.0888 67.5862 60.3486 0.0000 0.0000 0.0000
# 3 60.3487 60.3486 162.6598 0.0000 0.0000 0.0000
# 4 0.0000 0.0000 0.0000 41.4019 0.0000 0.0000
# 5 0.0000 0.0000 0.0000 0.0000 41.4019 0.0000
# 6 0.0000 0.0000 0.0000 0.0000 0.0000 24.6821
#
#
#
# Elastic Compliance Matrix: (Units=1/GPa)
#
#
# Indices 1 2 3 4 5 6 
#
# 1 0.031547 -0.017240 -0.005308 0.000000 0.000000 0.000000
# 2 -0.017240 0.031547 -0.005308 0.000000 0.000000 0.000000
# 3 -0.005308 -0.005308 0.010087 0.000000 0.000000 0.000000
# 4 0.000000 0.000000 0.000000 0.024153 0.000000 0.000000
# 5 0.000000 0.000000 0.000000 0.000000 0.024153 0.000000
# 6 0.000000 0.000000 0.000000 0.000000 0.000000 0.040515
#
#
# Mechanical properties :
#
#
# Convention : Reuss Voigt Hill
#
# Bulk Modulus (GPa) = 57.24628 70.37830 63.81229
# Shear Modulus (GPa) = 22.36768 30.16695 26.26732
#
# Velocity S-wave (km/s) = 3.45022 4.00684 3.73890
# Velocity P-wave (km/s) = 6.80723 7.67212 7.25258
#
# Compressibility (1/GPa) = 0.01746838
#
# Stress axis : x y z
#
# Youngs Moduli (GPa) = 31.69899 31.69887 99.14198
#
# Poissons Ratio (x) = 0.54648 0.52626
# Poissons Ratio (y) = 0.54648 0.52626
# Poissons Ratio (z) = 0.16826 0.16826
#
# Static dielectric constant tensor:
#      x y z
#    x 3.429700 0.000000 0.000000 
#    y 0.000000 3.429710 0.000000 
#    z 0.000000 0.000000 3.803650 
# 
# 
# High freq. dielectric constant tensor:
#      x y z
#    x 1.726750 0.000000 0.000000 
#    y 0.000000 1.726750 0.000000 
#    z 0.000000 0.000000 1.748330 
# 
# From -- ./inp_files/6253.got.cif
#   From: 2010.03.12/outbox.cif.g09.slc.cpg/sg115_4_cif.got.tgz:6253.got - 2010.04.14 02:11:21.
