data_PCOD8309458
_publ_section_title
;
Structure prediction by ZEFSAII (Michael W. Deem and Ramdas Pophale) SiO2 
 PCOD8309458
Probable space group: P -4 M 2
;
_chemical_formula_sum "Si O2"
_cell_formula_units_Z 32
_cell_length_a 9.422528
_cell_length_b 9.422528
_cell_length_c 20.455342
_cell_angle_alpha 90.000000
_cell_angle_beta 90.000000
_cell_angle_gamma 90.000000
_cell_volume 1816.107778
_symmetry_space_group_name_H-M "P -4 M 2"
_symmetry_group_IT_number 115
_symmetry_cell_setting 'tetragonal'
loop_
_space_group_symop_operation_xyz
x,y,z
y,-x,-z
-x,-y,z
-y,x,-z
y,x,-z
-y,-x,-z
-x,y,z
x,-y,z
loop_
_atom_site_type_symbol
_atom_site_label
_atom_site_fract_x
_atom_site_fract_y
_atom_site_fract_z
Si Si1 0.833447 0.665974 0.945060
Si Si2 0.839975 0.832618 0.677445
Si Si3 0.831775 0.157191 0.821858
Si Si4 0.333142 0.660334 0.573706
O O1 0.798382 0.500000 0.945756
O O2 0.782062 0.729125 0.875604
O O3 0.000000 0.695073 0.956864
O O4 0.744097 0.744097 0.000000
O O5 0.779944 0.794014 0.749873
O O6 0.741646 0.763840 0.623640
O O7 0.000000 0.774977 0.668887
O O8 0.836431 0.000000 0.667656
O O9 0.000000 0.147091 0.819306
O O10 0.771127 0.000000 0.839342
O O11 0.293408 0.706593 0.500000
O O12 0.500000 0.671969 0.584187
O O13 0.281616 0.500000 0.586724
#
# Coordination Sequence:
#
# PCOD8309458 Si02
#       4
#     8   8   8   8
#     4  10  20  33  51  75 100 128 164 203 242 287
#     4   9  18  32  51  77 104 126 155 200 249 294
#     4   8  15  30  51  73  98 128 161 198 241 289
#     4   9  19  35  51  68  95 132 171 206 240 285
#
# _framework density 17.620100999999998
#
# number of rings (size 3 to 8) (size 9 to 14) (size 15 to 20)
#    0.000    3.000    0.000    3.000    0.000    4.500 
#    0.000    7.500    0.000    1.500    0.000    0.000 
#    0.000    0.000    0.000    0.000    0.000    0.000 
#
# Total GULP energy -396677.876679 kJ/mol
# GULP energy per Si atom -12396.183646 kJ/mol
# Density = 1.758000 g / cm^3
# Si number density = 17.620101 Si / 1000 Ang^3
#
#
#
# Elastic Constant Matrix: (Units=GPa)
#
#
# Indices 1 2 3 4 5 6 
#
# 1 58.1974 36.8164 65.2386 0.0000 0.0000 0.0000
# 2 36.8164 58.1974 65.2384 0.0000 0.0000 0.0000
# 3 65.2386 65.2384 161.4561 0.0000 0.0000 0.0000
# 4 0.0000 0.0000 0.0000 -65.5703 0.0000 0.0000
# 5 0.0000 0.0000 0.0000 0.0000 -65.5769 0.0000
# 6 0.0000 0.0000 0.0000 0.0000 0.0000 27.7423
#
#
#
# Elastic Compliance Matrix: (Units=1/GPa)
#
#
# Indices 1 2 3 4 5 6 
#
# 1 0.035208 -0.011563 -0.009554 0.000000 0.000000 0.000000
# 2 -0.011563 0.035207 -0.009554 0.000000 0.000000 0.000000
# 3 -0.009554 -0.009554 0.013914 0.000000 0.000000 0.000000
# 4 0.000000 0.000000 0.000000 -0.015251 0.000000 0.000000
# 5 0.000000 0.000000 0.000000 0.000000 -0.015249 0.000000
# 6 0.000000 0.000000 0.000000 0.000000 0.000000 0.036046
#
#
# Mechanical properties :
#
#
# Convention : Reuss Voigt Hill
#
# Bulk Modulus (GPa) = 43.50100 68.04864 55.77482
# Shear Modulus (GPa) = 31.47035 -13.31048 9.07993
#
# Velocity S-wave (km/s) = 4.23075 -2.75146 2.27252
# Velocity P-wave (km/s) = 6.97191 5.34880 6.21358
#
# Compressibility (1/GPa) = 0.02298798
#
# Stress axis : x y z
#
# Youngs Moduli (GPa) = 28.40296 28.40305 71.86780
#
# Poissons Ratio (x) = 0.32842 0.68662
# Poissons Ratio (y) = 0.32842 0.68662
# Poissons Ratio (z) = 0.27136 0.27136
#
# Static dielectric constant tensor:
#      x y z
#    x 3.236580 0.000000 0.000000 
#    y 0.000000 3.236580 0.000000 
#    z 0.000000 0.000000 3.548260 
# 
# 
# High freq. dielectric constant tensor:
#      x y z
#    x 1.663450 0.000000 0.000000 
#    y 0.000000 1.663450 0.000000 
#    z 0.000000 0.000000 1.695680 
# 
# From -- ./inp_files/4566.got.cif
#   From: 2010.03.12/outbox.cif.g09.slc.cpg/sg115_3_cif.got.tgz:4566.got - 2010.04.14 02:11:21.
