data_PCOD8309708
_publ_section_title
;
Structure prediction by ZEFSAII (Michael W. Deem and Ramdas Pophale) SiO2 
 PCOD8309708
Probable space group: P -4 M 2
;
_chemical_formula_sum "Si O2"
_cell_formula_units_Z 32
_cell_length_a 7.964104
_cell_length_b 7.964104
_cell_length_c 23.942786
_cell_angle_alpha 90.000000
_cell_angle_beta 90.000000
_cell_angle_gamma 90.000000
_cell_volume 1518.617951
_symmetry_space_group_name_H-M "P -4 M 2"
_symmetry_group_IT_number 115
_symmetry_cell_setting 'tetragonal'
loop_
_space_group_symop_operation_xyz
x,y,z
y,-x,-z
-x,-y,z
-y,x,-z
y,x,-z
-y,-x,-z
-x,y,z
x,-y,z
loop_
_atom_site_type_symbol
_atom_site_label
_atom_site_fract_x
_atom_site_fract_y
_atom_site_fract_z
Si Si1 0.200304 0.310101 0.824334
Si Si2 0.191531 0.314014 0.556286
Si Si3 0.199996 0.000000 0.749596
Si Si4 0.692677 0.180599 0.055595
Si Si5 0.000000 0.308205 0.375535
O O1 0.265783 0.500000 0.808921
O O2 0.262849 0.170008 0.780556
O O3 0.265412 0.246801 0.885980
O O4 0.000000 0.312155 0.826411
O O5 0.298954 0.298954 0.500000
O O6 0.226802 0.500000 0.582294
O O7 0.226776 0.170700 0.601506
O O8 0.000000 0.297023 0.537102
O O9 0.289106 0.000000 0.690437
O O10 0.000000 0.000000 0.742694
O O11 0.500000 0.148338 0.066733
O O12 0.782194 0.000000 0.045518
O O13 0.710084 0.289917 0.000000
O O14 0.000000 0.500000 0.393860
#
# Coordination Sequence:
#
# PCOD8309708 Si02
#       5
#     8   8   4   8   4
#     4   8  16  32  53  78 109 143 189 249 303 356
#     4  11  23  41  67  97 129 167 210 259 314 369
#     4  10  20  36  60  82 108 154 208 249 300 352
#     4   9  18  31  48  75 107 138 178 233 292 353
#     4  12  26  42  60  92 132 170 208 254 309 375
#
# _framework density 21.071788000000002
#
# number of rings (size 3 to 8) (size 9 to 14) (size 15 to 20)
#    0.000    2.250    1.250    3.375    1.750    3.250 
#    0.000    3.750    0.000    1.500    0.000    0.000 
#    0.000    0.000    0.000    0.000    0.000    0.000 
#
# Total GULP energy -396454.592943 kJ/mol
# GULP energy per Si atom -12389.206029 kJ/mol
# Density = 2.102383 g / cm^3
# Si number density = 21.071788 Si / 1000 Ang^3
#
#
#
# Elastic Constant Matrix: (Units=GPa)
#
#
# Indices 1 2 3 4 5 6 
#
# 1 99.2327 31.6287 42.7315 0.0000 0.0000 0.0000
# 2 31.6287 99.2321 42.7313 0.0000 0.0000 0.0000
# 3 42.7315 42.7313 141.2324 0.0000 0.0000 0.0000
# 4 0.0000 0.0000 0.0000 18.3349 0.0000 0.0000
# 5 0.0000 0.0000 0.0000 0.0000 18.3348 0.0000
# 6 0.0000 0.0000 0.0000 0.0000 0.0000 10.0603
#
#
#
# Elastic Compliance Matrix: (Units=1/GPa)
#
#
# Indices 1 2 3 4 5 6 
#
# 1 0.012158 -0.002634 -0.002881 0.000000 0.000000 0.000000
# 2 -0.002634 0.012158 -0.002881 0.000000 0.000000 0.000000
# 3 -0.002881 -0.002881 0.008824 0.000000 0.000000 0.000000
# 4 0.000000 0.000000 0.000000 0.054541 0.000000 0.000000
# 5 0.000000 0.000000 0.000000 0.000000 0.054541 0.000000
# 6 0.000000 0.000000 0.000000 0.000000 0.000000 0.099401
#
#
# Mechanical properties :
#
#
# Convention : Reuss Voigt Hill
#
# Bulk Modulus (GPa) = 61.17930 63.76447 62.47188
# Shear Modulus (GPa) = 18.94906 24.18637 21.56771
#
# Velocity S-wave (km/s) = 3.00202 3.39161 3.20274
# Velocity P-wave (km/s) = 6.41194 6.75749 6.58698
#
# Compressibility (1/GPa) = 0.01634540
#
# Stress axis : x y z
#
# Youngs Moduli (GPa) = 82.25198 82.25152 113.32527
#
# Poissons Ratio (x) = 0.21667 0.32654
# Poissons Ratio (y) = 0.21668 0.32654
# Poissons Ratio (z) = 0.23700 0.23700
#
# Static dielectric constant tensor:
#      x y z
#    x 3.766560 0.000000 0.000000 
#    y 0.000000 3.766560 0.000000 
#    z 0.000000 0.000000 3.744270 
# 
# 
# High freq. dielectric constant tensor:
#      x y z
#    x 1.813560 0.000000 0.000000 
#    y 0.000000 1.813560 0.000000 
#    z 0.000000 0.000000 1.821590 
# 
# From -- ./inp_files/5043.got.cif
#   From: 2010.03.12/outbox.cif.g09.slc.cpg/sg115_3_cif.got.tgz:5043.got - 2010.04.14 02:11:21.
