data_PCOD8309083
_publ_section_title
;
Structure prediction by ZEFSAII (Michael W. Deem and Ramdas Pophale) SiO2 
 PCOD8309083
Probable space group: P -4 21 C
;
_chemical_formula_sum "Si O2"
_cell_formula_units_Z 40
_cell_length_a 8.987240
_cell_length_b 8.987240
_cell_length_c 22.840056
_cell_angle_alpha 90.000000
_cell_angle_beta 90.000000
_cell_angle_gamma 90.000000
_cell_volume 1844.802351
_symmetry_space_group_name_H-M "P -4 21 C"
_symmetry_group_IT_number 114
_symmetry_cell_setting 'tetragonal'
loop_
_space_group_symop_operation_xyz
x,y,z
y,-x,-z
-x,-y,z
-y,x,-z
1/2+x,1/2-y,1/2-z
1/2-x,1/2+y,1/2-z
1/2-y,1/2-x,1/2+z
1/2+y,1/2+x,1/2+z
loop_
_atom_site_type_symbol
_atom_site_label
_atom_site_fract_x
_atom_site_fract_y
_atom_site_fract_z
Si Si1 0.401817 0.358960 0.181280
Si Si2 0.863579 0.608176 0.884349
Si Si3 0.400266 0.862860 0.383122
Si Si4 0.101188 0.855808 0.189323
Si Si5 0.122550 0.214001 0.999834
O O1 0.500000 0.500000 0.194299
O O2 0.496133 0.263811 0.135856
O O3 0.239037 0.404240 0.157832
O O4 0.378452 0.285167 0.245641
O O5 0.895970 0.735477 0.836090
O O6 0.000000 0.500000 0.894522
O O7 0.820767 0.688378 0.945212
O O8 0.517931 0.759369 0.351220
O O9 0.326673 0.790530 0.440310
O O10 0.500000 0.000000 0.403120
O O11 0.000000 0.000000 0.188905
O O12 0.944886 0.201112 0.001033
#
# Coordination Sequence:
#
# PCOD8309083 Si02
#       5
#     8   8   8   8   8
#     4  11  26  44  65 101 143 178 230 290 363 420
#     4  12  24  42  69 104 136 181 236 298 352 416
#     4  12  25  43  69 100 135 185 233 287 355 424
#     4  11  23  44  70  97 136 188 232 287 347 436
#     4  11  23  43  72  99 134 179 237 286 342 428
#
# _framework density 21.682538999999998
#
# number of rings (size 3 to 8) (size 9 to 14) (size 15 to 20)
#    0.000    0.600    2.000    6.600    0.000    6.400 
#    0.000    0.000    0.000    0.000    0.000    0.000 
#    0.000    0.000    0.000    0.000    0.000    0.000 
#
# Total GULP energy -495991.899102 kJ/mol
# GULP energy per Si atom -12399.797478 kJ/mol
# Density = 2.163319 g / cm^3
# Si number density = 21.682539 Si / 1000 Ang^3
#
#
#
# Elastic Constant Matrix: (Units=GPa)
#
#
# Indices 1 2 3 4 5 6 
#
# 1 72.5796 -4.4667 18.1955 0.0000 0.0000 0.0000
# 2 -4.4667 72.5796 18.1955 0.0000 0.0000 0.0000
# 3 18.1955 18.1955 147.2233 0.0000 0.0000 0.0000
# 4 0.0000 0.0000 0.0000 34.2687 0.0000 0.0000
# 5 0.0000 0.0000 0.0000 0.0000 34.2687 0.0000
# 6 0.0000 0.0000 0.0000 0.0000 0.0000 40.3964
#
#
#
# Elastic Compliance Matrix: (Units=1/GPa)
#
#
# Indices 1 2 3 4 5 6 
#
# 1 0.014349 0.001370 -0.001943 0.000000 0.000000 0.000000
# 2 0.001370 0.014349 -0.001943 0.000000 0.000000 0.000000
# 3 -0.001943 -0.001943 0.007273 0.000000 0.000000 0.000000
# 4 0.000000 0.000000 0.000000 0.029181 0.000000 0.000000
# 5 0.000000 0.000000 0.000000 0.000000 0.029181 0.000000
# 6 0.000000 0.000000 0.000000 0.000000 0.000000 0.024755
#
#
# Mechanical properties :
#
#
# Convention : Reuss Voigt Hill
#
# Bulk Modulus (GPa) = 32.32015 39.58124 35.95069
# Shear Modulus (GPa) = 37.19334 39.15064 38.17199
#
# Velocity S-wave (km/s) = 4.14618 4.25388 4.20038
# Velocity P-wave (km/s) = 6.15301 6.51321 6.33567
#
# Compressibility (1/GPa) = 0.03094045
#
# Stress axis : x y z
#
# Youngs Moduli (GPa) = 69.68955 69.68955 137.50184
#
# Poissons Ratio (x) = -0.09548 0.26714
# Poissons Ratio (y) = -0.09548 0.26714
# Poissons Ratio (z) = 0.13539 0.13539
#
# Static dielectric constant tensor:
#      x y z
#    x 3.539630 0.000000 0.000000 
#    y 0.000000 3.539630 0.000000 
#    z 0.000000 0.000000 4.289050 
# 
# 
# High freq. dielectric constant tensor:
#      x y z
#    x 1.855230 0.000000 0.000000 
#    y 0.000000 1.855230 0.000000 
#    z 0.000000 0.000000 1.870870 
# 
# From -- ./inp_files/3344.got.cif
#   From: 2010.03.12/outbox.cif.g09.slc.cpg/sg114_2_cif.got.tgz:3344.got - 2010.04.14 02:08:34.
