data_PCOD8309890
_publ_section_title
;
Structure prediction by ZEFSAII (Michael W. Deem and Ramdas Pophale) SiO2 
 PCOD8309890
Probable space group: P -4 M 2
;
_chemical_formula_sum "Si O2"
_cell_formula_units_Z 28
_cell_length_a 9.158741
_cell_length_b 9.158741
_cell_length_c 18.151347
_cell_angle_alpha 90.000000
_cell_angle_beta 90.000000
_cell_angle_gamma 90.000000
_cell_volume 1522.581031
_symmetry_space_group_name_H-M "P -4 M 2"
_symmetry_group_IT_number 115
_symmetry_cell_setting 'tetragonal'
loop_
_space_group_symop_operation_xyz
x,y,z
y,-x,-z
-x,-y,z
-y,x,-z
y,x,-z
-y,-x,-z
-x,y,z
x,-y,z
loop_
_atom_site_type_symbol
_atom_site_label
_atom_site_fract_x
_atom_site_fract_y
_atom_site_fract_z
Si Si1 0.674172 0.337412 0.579831
Si Si2 0.830126 0.828601 0.131672
Si Si3 0.666032 0.170922 0.721529
Si Si4 0.670989 0.670989 0.000000
O O1 0.725938 0.274063 0.500000
O O2 0.500000 0.339430 0.578492
O O3 0.735974 0.500000 0.592114
O O4 0.732406 0.240073 0.647143
O O5 0.780536 0.766075 0.210429
O O6 0.000000 0.793843 0.115969
O O7 0.799574 0.000000 0.130040
O O8 0.732050 0.751314 0.071257
O O9 0.500000 0.224169 0.736321
O O10 0.671224 0.000000 0.709797
O O11 0.703701 0.500000 0.007207
#
# Coordination Sequence:
#
# PCOD8309890 Si02
#       4
#     8   8   8   4
#     4   8  14  26  45  68  94 126 164 205 249 296
#     4  10  21  37  56  77 103 136 171 206 249 302
#     4   9  17  30  49  72  98 129 165 205 249 297
#     4  11  24  39  56  80 106 131 164 207 252 298
#
# _framework density 18.389827
#
# number of rings (size 3 to 8) (size 9 to 14) (size 15 to 20)
#    0.000    2.714    0.000    2.571    0.000    5.714 
#    0.000    4.286    0.000    1.714    0.000    0.000 
#    0.000    0.000    0.000    0.000    0.000    0.000 
#
# Total GULP energy -347134.012906 kJ/mol
# GULP energy per Si atom -12397.643318 kJ/mol
# Density = 1.834797 g / cm^3
# Si number density = 18.389827 Si / 1000 Ang^3
#
#
#
# Elastic Constant Matrix: (Units=GPa)
#
#
# Indices 1 2 3 4 5 6 
#
# 1 68.2521 44.0355 69.4362 0.0000 0.0000 0.0000
# 2 44.0355 68.2523 69.4362 0.0000 0.0000 0.0000
# 3 69.4362 69.4362 188.6002 0.0000 0.0000 0.0000
# 4 0.0000 0.0000 0.0000 467.1662 0.0000 0.0000
# 5 0.0000 0.0000 0.0000 0.0000 467.3152 0.0000
# 6 0.0000 0.0000 0.0000 0.0000 0.0000 20.7921
#
#
#
# Elastic Compliance Matrix: (Units=1/GPa)
#
#
# Indices 1 2 3 4 5 6 
#
# 1 0.028822 -0.012472 -0.006020 0.000000 0.000000 0.000000
# 2 -0.012472 0.028822 -0.006020 0.000000 0.000000 0.000000
# 3 -0.006020 -0.006020 0.009735 0.000000 0.000000 0.000000
# 4 0.000000 0.000000 0.000000 0.002141 0.000000 0.000000
# 5 0.000000 0.000000 0.000000 0.000000 0.002140 0.000000
# 6 0.000000 0.000000 0.000000 0.000000 0.000000 0.048095
#
#
# Mechanical properties :
#
#
# Convention : Reuss Voigt Hill
#
# Bulk Modulus (GPa) = 54.47496 76.76893 65.62195
# Shear Modulus (GPa) = 28.58839 200.53446 114.56143
#
# Velocity S-wave (km/s) = 3.94709 10.45386 7.90135
# Velocity P-wave (km/s) = 7.10347 13.69477 10.90885
#
# Compressibility (1/GPa) = 0.01835706
#
# Stress axis : x y z
#
# Youngs Moduli (GPa) = 34.69537 34.69550 102.72465
#
# Poissons Ratio (x) = 0.43271 0.61838
# Poissons Ratio (y) = 0.43271 0.61838
# Poissons Ratio (z) = 0.20886 0.20886
#
# Static dielectric constant tensor:
#      x y z
#    x 3.031680 0.000000 0.000000 
#    y 0.000000 3.031790 0.000000 
#    z 0.000000 0.000000 3.780830 
# 
# 
# High freq. dielectric constant tensor:
#      x y z
#    x 1.693680 0.000000 0.000000 
#    y 0.000000 1.693680 0.000000 
#    z 0.000000 0.000000 1.733340 
# 
# From -- ./inp_files/4013.got.cif
#   From: 2010.03.12/outbox.cif.g09.slc.cpg/sg115_3_cif.got.tgz:4013.got - 2010.04.14 02:11:21.
