data_PCOD8309548
_publ_section_title
;
Structure prediction by ZEFSAII (Michael W. Deem and Ramdas Pophale) SiO2 
 PCOD8309548
Probable space group: P -4 M 2
;
_chemical_formula_sum "Si O2"
_cell_formula_units_Z 40
_cell_length_a 8.061375
_cell_length_b 8.061375
_cell_length_c 29.263740
_cell_angle_alpha 90.000000
_cell_angle_beta 90.000000
_cell_angle_gamma 90.000000
_cell_volume 1901.726586
_symmetry_space_group_name_H-M "P -4 M 2"
_symmetry_group_IT_number 115
_symmetry_cell_setting 'tetragonal'
loop_
_space_group_symop_operation_xyz
x,y,z
y,-x,-z
-x,-y,z
-y,x,-z
y,x,-z
-y,-x,-z
-x,y,z
x,-y,z
loop_
_atom_site_type_symbol
_atom_site_label
_atom_site_fract_x
_atom_site_fract_y
_atom_site_fract_z
Si Si1 0.316462 0.810039 0.454191
Si Si2 0.000000 0.697405 0.107418
Si Si3 0.314024 0.810109 0.265264
Si Si4 0.196082 0.000000 0.788809
Si Si5 0.695039 0.684623 0.947952
Si Si6 0.305747 0.315612 0.360868
O O1 0.211302 0.788699 0.500000
O O2 0.500000 0.733632 0.462691
O O3 0.224066 0.730418 0.409834
O O4 0.331293 0.000000 0.441842
O O5 0.831836 0.768994 0.083702
O O6 0.000000 0.500000 0.104169
O O7 0.000000 0.758284 0.158707
O O8 0.500000 0.727248 0.258640
O O9 0.169282 0.728450 0.233815
O O10 0.253351 0.797365 0.317968
O O11 0.331284 0.000000 0.251586
O O12 0.000000 0.000000 0.780916
O O13 0.500000 0.672823 0.940724
O O14 0.770466 0.500000 0.936415
O O15 0.734724 0.734724 0.000000
O O16 0.500000 0.295049 0.369240
O O17 0.252828 0.500000 0.347166
#
# Coordination Sequence:
#
# PCOD8309548 Si02
#       6
#     8   4   8   4   8   8
#     4  10  20  34  52  75 105 139 174 214 264 323
#     4  10  20  34  54  80 110 144 186 230 276 331
#     4   9  18  35  57  76 101 142 183 221 273 334
#     4  10  22  38  52  76 114 144 178 226 276 325
#     4   8  15  31  54  78 108 145 184 229 279 331
#     4   9  17  31  54  81 103 127 169 221 268 319
#
# _framework density 21.033515999999999
#
# number of rings (size 3 to 8) (size 9 to 14) (size 15 to 20)
#    0.000    2.800    0.000    1.800    0.000    5.200 
#    3.600    0.000    0.000    0.000    0.000    0.000 
#    0.000    0.000    0.000    0.000    0.000    0.000 
#
# Total GULP energy -495550.634344 kJ/mol
# GULP energy per Si atom -12388.765859 kJ/mol
# Density = 2.098564 g / cm^3
# Si number density = 21.033516 Si / 1000 Ang^3
#
#
#
# Elastic Constant Matrix: (Units=GPa)
#
#
# Indices 1 2 3 4 5 6 
#
# 1 72.3336 20.6355 48.4100 0.0000 0.0000 0.0000
# 2 20.6355 72.3332 48.4097 0.0000 0.0000 0.0000
# 3 48.4100 48.4097 167.0239 0.0000 0.0000 0.0000
# 4 0.0000 0.0000 0.0000 32.0967 0.0000 0.0000
# 5 0.0000 0.0000 0.0000 0.0000 32.0967 0.0000
# 6 0.0000 0.0000 0.0000 0.0000 0.0000 9.4642
#
#
#
# Elastic Compliance Matrix: (Units=1/GPa)
#
#
# Indices 1 2 3 4 5 6 
#
# 1 0.017375 -0.001968 -0.004465 0.000000 0.000000 0.000000
# 2 -0.001968 0.017375 -0.004465 0.000000 0.000000 0.000000
# 3 -0.004465 -0.004465 0.008576 0.000000 0.000000 0.000000
# 4 0.000000 0.000000 0.000000 0.031156 0.000000 0.000000
# 5 0.000000 0.000000 0.000000 0.000000 0.031156 0.000000
# 6 0.000000 0.000000 0.000000 0.000000 0.000000 0.105662
#
#
# Mechanical properties :
#
#
# Convention : Reuss Voigt Hill
#
# Bulk Modulus (GPa) = 46.45270 60.73348 53.59309
# Shear Modulus (GPa) = 20.80966 27.68054 24.24510
#
# Velocity S-wave (km/s) = 3.14882 3.63164 3.39881
# Velocity P-wave (km/s) = 5.94585 6.82073 6.39826
#
# Compressibility (1/GPa) = 0.02152727
#
# Stress axis : x y z
#
# Youngs Moduli (GPa) = 57.55434 57.55413 116.60886
#
# Poissons Ratio (x) = 0.11328 0.52071
# Poissons Ratio (y) = 0.11328 0.52071
# Poissons Ratio (z) = 0.25701 0.25700
#
# Static dielectric constant tensor:
#      x y z
#    x 3.841170 0.000000 0.000000 
#    y 0.000000 3.841170 0.000000 
#    z 0.000000 0.000000 3.820650 
# 
# 
# High freq. dielectric constant tensor:
#      x y z
#    x 1.801210 0.000000 0.000000 
#    y 0.000000 1.801210 0.000000 
#    z 0.000000 0.000000 1.822800 
# 
# From -- ./inp_files/5556.got.cif
#   From: 2010.03.12/outbox.cif.g09.slc.cpg/sg115_3_cif.got.tgz:5556.got - 2010.04.14 02:11:21.
