data_PCOD8309649
_publ_section_title
;
Structure prediction by ZEFSAII (Michael W. Deem and Ramdas Pophale) SiO2 
 PCOD8309649
Probable space group: P -4 M 2
;
_chemical_formula_sum "Si O2"
_cell_formula_units_Z 44
_cell_length_a 8.101911
_cell_length_b 8.101911
_cell_length_c 31.325221
_cell_angle_alpha 90.000000
_cell_angle_beta 90.000000
_cell_angle_gamma 90.000000
_cell_volume 2056.217637
_symmetry_space_group_name_H-M "P -4 M 2"
_symmetry_group_IT_number 115
_symmetry_cell_setting 'tetragonal'
loop_
_space_group_symop_operation_xyz
x,y,z
y,-x,-z
-x,-y,z
-y,x,-z
y,x,-z
-y,-x,-z
-x,y,z
x,-y,z
loop_
_atom_site_type_symbol
_atom_site_label
_atom_site_fract_x
_atom_site_fract_y
_atom_site_fract_z
Si Si1 0.500000 0.197546 0.264504
Si Si2 0.310661 0.311024 0.131067
Si Si3 0.196321 0.500000 0.638757
Si Si4 0.684458 0.811346 0.042594
Si Si5 0.312455 0.312455 0.500000
Si Si6 0.815646 0.805985 0.413549
Si Si7 0.190337 0.819362 0.784080
O O1 0.500000 0.261643 0.312931
O O2 0.334793 0.270942 0.241694
O O3 0.500000 0.000000 0.261394
O O4 0.500000 0.249256 0.131710
O O5 0.295216 0.500000 0.144424
O O6 0.239243 0.285842 0.083169
O O7 0.207454 0.207483 0.165235
O O8 0.264199 0.668220 0.616463
O O9 0.000000 0.500000 0.638055
O O10 0.500000 0.746448 0.032770
O O11 0.684253 0.000000 0.056268
O O12 0.790599 0.790599 0.000000
O O13 0.281725 0.500000 0.514742
O O14 0.195670 0.272908 0.460260
O O15 0.000000 0.764086 0.395236
O O16 0.792852 0.000000 0.418347
O O17 0.000000 0.825776 0.771823
O O18 0.268250 0.000000 0.772046
#
# Coordination Sequence:
#
# PCOD8309649 Si02
#       7
#     4   8   4   8   4   8   8
#     4   9  18  34  57  83 117 153 187 239 297 351
#     4  10  20  35  57  81 107 142 183 230 284 340
#     4   9  18  34  55  83 119 155 193 243 299 352
#     4  10  21  36  55  79 109 146 185 226 275 331
#     4  11  22  35  54  80 112 153 200 247 298 356
#     4  10  20  34  55  83 115 153 197 243 296 355
#     4  10  20  34  56  85 113 145 188 236 291 353
#
# _framework density 21.398513999999999
#
# number of rings (size 3 to 8) (size 9 to 14) (size 15 to 20)
#    0.000    2.091    1.818    1.636    0.000    5.455 
#    0.000    3.636    0.000    2.182    0.000    2.545 
#    0.000    0.000    0.000    0.000    0.000    0.000 
#
# Total GULP energy -545453.611028 kJ/mol
# GULP energy per Si atom -12396.672978 kJ/mol
# Density = 2.134981 g / cm^3
# Si number density = 21.398514 Si / 1000 Ang^3
#
#
#
# Elastic Constant Matrix: (Units=GPa)
#
#
# Indices 1 2 3 4 5 6 
#
# 1 89.8218 27.9829 40.9704 0.0000 0.0000 0.0000
# 2 27.9829 89.8218 40.9704 0.0000 0.0000 0.0000
# 3 40.9704 40.9704 144.0659 0.0000 0.0000 0.0000
# 4 0.0000 0.0000 0.0000 22.8566 0.0000 0.0000
# 5 0.0000 0.0000 0.0000 0.0000 22.8566 0.0000
# 6 0.0000 0.0000 0.0000 0.0000 0.0000 15.9562
#
#
#
# Elastic Compliance Matrix: (Units=1/GPa)
#
#
# Indices 1 2 3 4 5 6 
#
# 1 0.013376 -0.002795 -0.003009 0.000000 0.000000 0.000000
# 2 -0.002795 0.013376 -0.003009 0.000000 0.000000 0.000000
# 3 -0.003009 -0.003009 0.008653 0.000000 0.000000 0.000000
# 4 0.000000 0.000000 0.000000 0.043751 0.000000 0.000000
# 5 0.000000 0.000000 0.000000 0.000000 0.043751 0.000000
# 6 0.000000 0.000000 0.000000 0.000000 0.000000 0.062672
#
#
# Mechanical properties :
#
#
# Convention : Reuss Voigt Hill
#
# Bulk Modulus (GPa) = 56.24549 60.39524 58.32036
# Shear Modulus (GPa) = 23.90830 26.58627 25.24728
#
# Velocity S-wave (km/s) = 3.34621 3.52864 3.43864
# Velocity P-wave (km/s) = 6.42428 6.69978 6.56347
#
# Compressibility (1/GPa) = 0.01777920
#
# Stress axis : x y z
#
# Youngs Moduli (GPa) = 74.75838 74.75838 115.56833
#
# Poissons Ratio (x) = 0.20892 0.34778
# Poissons Ratio (y) = 0.20892 0.34778
# Poissons Ratio (z) = 0.22497 0.22497
#
# Static dielectric constant tensor:
#      x y z
#    x 3.807390 0.000000 0.000000 
#    y 0.000000 3.807390 0.000000 
#    z 0.000000 0.000000 3.763610 
# 
# 
# High freq. dielectric constant tensor:
#      x y z
#    x 1.825040 0.000000 0.000000 
#    y 0.000000 1.825040 0.000000 
#    z 0.000000 0.000000 1.831430 
# 
# From -- ./inp_files/5880.got.cif
#   From: 2010.03.12/outbox.cif.g09.slc.cpg/sg115_3_cif.got.tgz:5880.got - 2010.04.14 02:11:21.
