data_PCOD8309147
_publ_section_title
;
Structure prediction by ZEFSAII (Michael W. Deem and Ramdas Pophale) SiO2 
 PCOD8309147
Probable space group: P -4 21 C
;
_chemical_formula_sum "Si O2"
_cell_formula_units_Z 24
_cell_length_a 9.901136
_cell_length_b 9.901136
_cell_length_c 9.958448
_cell_angle_alpha 90.000000
_cell_angle_beta 90.000000
_cell_angle_gamma 90.000000
_cell_volume 976.251495
_symmetry_space_group_name_H-M "P -4 21 C"
_symmetry_group_IT_number 114
_symmetry_cell_setting 'tetragonal'
loop_
_space_group_symop_operation_xyz
x,y,z
y,-x,-z
-x,-y,z
-y,x,-z
1/2+x,1/2-y,1/2-z
1/2-x,1/2+y,1/2-z
1/2-y,1/2-x,1/2+z
1/2+y,1/2+x,1/2+z
loop_
_atom_site_type_symbol
_atom_site_label
_atom_site_fract_x
_atom_site_fract_y
_atom_site_fract_z
Si Si1 0.000000 0.000000 0.500000
Si Si2 0.850519 0.754378 0.912830
Si Si3 0.000000 0.500000 0.877581
Si Si4 0.240412 0.146574 0.643612
Si Si5 0.000000 0.000000 0.000000
O O1 0.875879 0.958592 0.597613
O O2 0.926417 0.618291 0.962656
O O3 0.802262 0.746462 0.757933
O O4 0.728053 0.785051 0.011949
O O5 0.955092 0.877435 0.906248
O O6 0.873603 0.432020 0.797649
#
# Coordination Sequence:
#
# PCOD8309147 Si02
#       5
#     2   8   4   8   2
#     4  12  26  52  76 110 158 204 256 322 390 468
#     4  12  29  48  79 116 155 202 259 324 392 464
#     4  12  28  50  84 114 156 202 264 322 396 462
#     4  12  29  48  79 116 155 202 259 324 392 464
#     4  12  26  52  76 110 158 204 256 322 390 468
#
# _framework density 24.583832000000001
#
# number of rings (size 3 to 8) (size 9 to 14) (size 15 to 20)
#    0.000    0.000    6.667    1.000    9.333    2.667 
#    0.000    0.000    0.000    0.000    0.000    0.000 
#    0.000    0.000    0.000    0.000    0.000    0.000 
#
# Total GULP energy -297349.298258 kJ/mol
# GULP energy per Si atom -12389.554094 kJ/mol
# Density = 2.452788 g / cm^3
# Si number density = 24.583832 Si / 1000 Ang^3
#
#
#
# Elastic Constant Matrix: (Units=GPa)
#
#
# Indices 1 2 3 4 5 6 
#
# 1 167.4027 67.1799 39.2537 0.0000 0.0000 0.0000
# 2 67.1799 167.4027 39.2537 0.0000 0.0000 0.0000
# 3 39.2537 39.2537 118.5287 0.0000 0.0000 0.0000
# 4 0.0000 0.0000 0.0000 18.5004 0.0000 0.0000
# 5 0.0000 0.0000 0.0000 0.0000 18.5004 0.0000
# 6 0.0000 0.0000 0.0000 0.0000 0.0000 54.3627
#
#
#
# Elastic Compliance Matrix: (Units=1/GPa)
#
#
# Indices 1 2 3 4 5 6 
#
# 1 0.007386 -0.002592 -0.001588 0.000000 0.000000 0.000000
# 2 -0.002592 0.007386 -0.001588 0.000000 0.000000 0.000000
# 3 -0.001588 -0.001588 0.009488 0.000000 0.000000 0.000000
# 4 0.000000 0.000000 0.000000 0.054053 0.000000 0.000000
# 5 0.000000 0.000000 0.000000 0.000000 0.054053 0.000000
# 6 0.000000 0.000000 0.000000 0.000000 0.000000 0.018395
#
#
# Mechanical properties :
#
#
# Convention : Reuss Voigt Hill
#
# Bulk Modulus (GPa) = 78.57941 82.74541 80.66241
# Shear Modulus (GPa) = 30.02324 38.78247 34.40286
#
# Velocity S-wave (km/s) = 3.49844 3.97616 3.74493
# Velocity P-wave (km/s) = 6.95356 7.40347 7.18204
#
# Compressibility (1/GPa) = 0.01272598
#
# Stress axis : x y z
#
# Youngs Moduli (GPa) = 135.39097 135.39097 105.39167
#
# Poissons Ratio (x) = 0.35090 0.16733
# Poissons Ratio (y) = 0.35090 0.16733
# Poissons Ratio (z) = 0.21497 0.21497
#
# Static dielectric constant tensor:
#      x y z
#    x 4.732840 0.000000 0.000000 
#    y 0.000000 4.732840 0.000000 
#    z 0.000000 0.000000 3.706790 
# 
# 
# High freq. dielectric constant tensor:
#      x y z
#    x 2.002240 0.000000 0.000000 
#    y 0.000000 2.002240 0.000000 
#    z 0.000000 0.000000 1.930060 
# 
# From -- ./inp_files/525.got.cif
#   From: 2010.03.12/outbox.cif.g09.slc.cpg/sg114_1_cif.got.tgz:525.got - 2010.04.14 02:08:34.
