data_PCOD8309448
_publ_section_title
;
Structure prediction by ZEFSAII (Michael W. Deem and Ramdas Pophale) SiO2 
 PCOD8309448
Probable space group: P -4 M 2
;
_chemical_formula_sum "Si O2"
_cell_formula_units_Z 40
_cell_length_a 9.058764
_cell_length_b 9.058764
_cell_length_c 25.928270
_cell_angle_alpha 90.000000
_cell_angle_beta 90.000000
_cell_angle_gamma 90.000000
_cell_volume 2127.705085
_symmetry_space_group_name_H-M "P -4 M 2"
_symmetry_group_IT_number 115
_symmetry_cell_setting 'tetragonal'
loop_
_space_group_symop_operation_xyz
x,y,z
y,-x,-z
-x,-y,z
-y,x,-z
y,x,-z
-y,-x,-z
-x,y,z
x,-y,z
loop_
_atom_site_type_symbol
_atom_site_label
_atom_site_fract_x
_atom_site_fract_y
_atom_site_fract_z
Si Si1 0.172005 0.327777 0.251064
Si Si2 0.326476 0.829388 0.953472
Si Si3 0.675641 0.335514 0.443654
Si Si4 0.167278 0.675275 0.655989
Si Si5 0.824612 0.166404 0.149144
O O1 0.202397 0.500000 0.244508
O O2 0.259183 0.269004 0.299891
O O3 0.235007 0.247666 0.200113
O O4 0.000000 0.293304 0.258964
O O5 0.500000 0.808649 0.947469
O O6 0.251379 0.768174 0.901442
O O7 0.284372 0.000000 0.963511
O O8 0.268466 0.731535 0.000000
O O9 0.725602 0.274399 0.500000
O O10 0.500000 0.343395 0.443550
O O11 0.739774 0.500000 0.433526
O O12 0.733718 0.226784 0.399111
O O13 0.176994 0.500000 0.658905
O O14 0.000000 0.731180 0.662818
O O15 0.000000 0.168274 0.149810
O O16 0.762410 0.000000 0.148259
#
# Coordination Sequence:
#
# PCOD8309448 Si02
#       5
#     8   8   8   8   8
#     4  10  20  34  53  77 104 135 172 213 257 305
#     4  10  20  34  53  77 104 134 169 209 252 300
#     4   8  14  27  48  70  92 124 167 211 253 299
#     4  10  20  33  50  74 104 137 171 208 253 305
#     4   9  17  31  53  78 103 133 169 210 256 305
#
# _framework density 18.799596999999999
#
# number of rings (size 3 to 8) (size 9 to 14) (size 15 to 20)
#    0.000    2.600    0.000    3.000    0.000    6.000 
#    0.000    2.000    0.000    9.600    0.000    0.000 
#    0.000    0.000    0.000    0.000    0.000    0.000 
#
# Total GULP energy -495988.261500 kJ/mol
# GULP energy per Si atom -12399.706538 kJ/mol
# Density = 1.875681 g / cm^3
# Si number density = 18.799597 Si / 1000 Ang^3
#
#
#
# Elastic Constant Matrix: (Units=GPa)
#
#
# Indices 1 2 3 4 5 6 
#
# 1 64.5467 26.6417 46.8196 0.0000 0.0000 0.0000
# 2 26.6417 64.5480 46.8211 0.0000 0.0000 0.0000
# 3 46.8196 46.8211 169.2228 0.0000 0.0000 0.0000
# 4 0.0000 0.0000 0.0000 30.9238 0.0000 0.0000
# 5 0.0000 0.0000 0.0000 0.0000 30.9240 0.0000
# 6 0.0000 0.0000 0.0000 0.0000 0.0000 21.4784
#
#
#
# Elastic Compliance Matrix: (Units=1/GPa)
#
#
# Indices 1 2 3 4 5 6 
#
# 1 0.020850 -0.005531 -0.004238 0.000000 0.000000 0.000000
# 2 -0.005531 0.020850 -0.004238 0.000000 0.000000 0.000000
# 3 -0.004238 -0.004238 0.008255 0.000000 0.000000 0.000000
# 4 0.000000 0.000000 0.000000 0.032338 0.000000 0.000000
# 5 0.000000 0.000000 0.000000 0.000000 0.032337 0.000000
# 6 0.000000 0.000000 0.000000 0.000000 0.000000 0.046558
#
#
# Mechanical properties :
#
#
# Convention : Reuss Voigt Hill
#
# Bulk Modulus (GPa) = 45.58212 59.87581 52.72897
# Shear Modulus (GPa) = 25.44313 28.53422 26.98867
#
# Velocity S-wave (km/s) = 3.68283 3.90014 3.79304
# Velocity P-wave (km/s) = 6.51025 7.22496 6.87689
#
# Compressibility (1/GPa) = 0.02193843
#
# Stress axis : x y z
#
# Youngs Moduli (GPa) = 47.96166 47.96208 121.14360
#
# Poissons Ratio (x) = 0.26530 0.51343
# Poissons Ratio (y) = 0.26530 0.51345
# Poissons Ratio (z) = 0.20327 0.20328
#
# Static dielectric constant tensor:
#      x y z
#    x 3.410680 0.000000 0.000000 
#    y 0.000000 3.410710 0.000000 
#    z 0.000000 0.000000 3.771450 
# 
# 
# High freq. dielectric constant tensor:
#      x y z
#    x 1.708370 0.000000 0.000000 
#    y 0.000000 1.708370 0.000000 
#    z 0.000000 0.000000 1.749980 
# 
# From -- ./inp_files/5105.got.cif
#   From: 2010.03.12/outbox.cif.g09.slc.cpg/sg115_3_cif.got.tgz:5105.got - 2010.04.14 02:11:21.
