data_PCOD8309381
_publ_section_title
;
Structure prediction by ZEFSAII (Michael W. Deem and Ramdas Pophale) SiO2 
 PCOD8309381
Probable space group: P -4 M 2
;
_chemical_formula_sum "Si O2"
_cell_formula_units_Z 48
_cell_length_a 9.096697
_cell_length_b 9.096697
_cell_length_c 30.621859
_cell_angle_alpha 90.000000
_cell_angle_beta 90.000000
_cell_angle_gamma 90.000000
_cell_volume 2533.955657
_symmetry_space_group_name_H-M "P -4 M 2"
_symmetry_group_IT_number 115
_symmetry_cell_setting 'tetragonal'
loop_
_space_group_symop_operation_xyz
x,y,z
y,-x,-z
-x,-y,z
-y,x,-z
y,x,-z
-y,-x,-z
-x,y,z
x,-y,z
loop_
_atom_site_type_symbol
_atom_site_label
_atom_site_fract_x
_atom_site_fract_y
_atom_site_fract_z
Si Si1 0.328876 0.165646 0.294944
Si Si2 0.669770 0.170463 0.194769
Si Si3 0.172645 0.672456 0.959747
Si Si4 0.164127 0.674218 0.369411
Si Si5 0.336201 0.324495 0.452429
Si Si6 0.327950 0.171874 0.880345
O O1 0.500000 0.181196 0.304549
O O2 0.294873 0.206649 0.244968
O O3 0.245265 0.277419 0.325791
O O4 0.276031 0.000000 0.304610
O O5 0.500000 0.205693 0.183913
O O6 0.776056 0.274582 0.167059
O O7 0.702521 0.000000 0.184366
O O8 0.205935 0.500000 0.962166
O O9 0.237512 0.736014 0.915389
O O10 0.000000 0.704790 0.961376
O O11 0.248921 0.751080 0.000000
O O12 0.168298 0.500000 0.371035
O O13 0.237633 0.739629 0.413302
O O14 0.000000 0.736064 0.367878
O O15 0.274054 0.274054 0.500000
O O16 0.500000 0.262273 0.445089
O O17 0.339296 0.500000 0.451978
O O18 0.500000 0.204790 0.885821
O O19 0.294576 0.000000 0.886345
#
# Coordination Sequence:
#
# PCOD8309381 Si02
#       6
#     8   8   8   8   8   8
#     4   9  19  36  56  77 102 135 177 221 263 311
#     4   9  19  37  59  81 105 136 178 225 269 315
#     4  11  24  41  62  88 116 147 186 229 271 318
#     4  10  20  32  48  74 107 138 168 207 258 314
#     4   8  14  27  48  70  92 125 171 217 257 301
#     4  11  24  39  56  83 117 149 183 222 265 318
#
# _framework density 18.942716999999998
#
# number of rings (size 3 to 8) (size 9 to 14) (size 15 to 20)
#    0.000    2.333    0.000    4.000    0.000    9.667 
#    0.000    5.833    0.000    3.000    0.000    0.000 
#    0.000    0.000    0.000    0.000    0.000    0.000 
#
# Total GULP energy -595215.823400 kJ/mol
# GULP energy per Si atom -12400.329654 kJ/mol
# Density = 1.889960 g / cm^3
# Si number density = 18.942717 Si / 1000 Ang^3
#
#
#
# Elastic Constant Matrix: (Units=GPa)
#
#
# Indices 1 2 3 4 5 6 
#
# 1 79.5835 53.8905 59.6557 0.0000 0.0000 0.0000
# 2 53.8905 79.5815 59.6548 0.0000 0.0000 0.0000
# 3 59.6557 59.6548 134.0629 0.0000 0.0000 0.0000
# 4 0.0000 0.0000 0.0000 -7.4487 0.0000 0.0000
# 5 0.0000 0.0000 0.0000 0.0000 -7.4464 0.0000
# 6 0.0000 0.0000 0.0000 0.0000 0.0000 27.4022
#
#
#
# Elastic Compliance Matrix: (Units=1/GPa)
#
#
# Indices 1 2 3 4 5 6 
#
# 1 0.025681 -0.013241 -0.005536 0.000000 0.000000 0.000000
# 2 -0.013241 0.025682 -0.005536 0.000000 0.000000 0.000000
# 3 -0.005536 -0.005536 0.012386 0.000000 0.000000 0.000000
# 4 0.000000 0.000000 0.000000 -0.134251 0.000000 0.000000
# 5 0.000000 0.000000 0.000000 0.000000 -0.134293 0.000000
# 6 0.000000 0.000000 0.000000 0.000000 0.000000 0.036493
#
#
# Mechanical properties :
#
#
# Convention : Reuss Voigt Hill
#
# Bulk Modulus (GPa) = 66.12117 71.07000 68.59558
# Shear Modulus (GPa) = -43.61651 10.50322 -16.55664
#
# Velocity S-wave (km/s) = -4.80369 2.35728 -2.95962
# Velocity P-wave (km/s) = 2.05289 6.70886 4.96101
#
# Compressibility (1/GPa) = 0.01512375
#
# Stress axis : x y z
#
# Youngs Moduli (GPa) = 38.93886 38.93798 80.73760
#
# Poissons Ratio (x) = 0.51558 0.44695
# Poissons Ratio (y) = 0.51559 0.44695
# Poissons Ratio (z) = 0.21556 0.21555
#
# Static dielectric constant tensor:
#      x y z
#    x 3.435100 0.000000 0.000000 
#    y 0.000000 3.435100 0.000000 
#    z 0.000000 0.000000 3.677210 
# 
# 
# High freq. dielectric constant tensor:
#      x y z
#    x 1.726150 0.000000 0.000000 
#    y 0.000000 1.726150 0.000000 
#    z 0.000000 0.000000 1.753770 
# 
# From -- ./inp_files/5978.got.cif
#   From: 2010.03.12/outbox.cif.g09.slc.cpg/sg115_3_cif.got.tgz:5978.got - 2010.04.14 02:11:21.
