data_PCOD8309343
_publ_section_title
;
Structure prediction by ZEFSAII (Michael W. Deem and Ramdas Pophale) SiO2 
 PCOD8309343
Probable space group: P -4 M 2
;
_chemical_formula_sum "Si O2"
_cell_formula_units_Z 44
_cell_length_a 9.017498
_cell_length_b 9.017498
_cell_length_c 28.894108
_cell_angle_alpha 90.000000
_cell_angle_beta 90.000000
_cell_angle_gamma 90.000000
_cell_volume 2349.532199
_symmetry_space_group_name_H-M "P -4 M 2"
_symmetry_group_IT_number 115
_symmetry_cell_setting 'tetragonal'
loop_
_space_group_symop_operation_xyz
x,y,z
y,-x,-z
-x,-y,z
-y,x,-z
y,x,-z
-y,-x,-z
-x,y,z
x,-y,z
loop_
_atom_site_type_symbol
_atom_site_label
_atom_site_fract_x
_atom_site_fract_y
_atom_site_fract_z
Si Si1 0.177000 0.167955 0.351894
Si Si2 0.825311 0.171469 0.451221
Si Si3 0.172389 0.827612 0.000000
Si Si4 0.671273 0.827514 0.178681
Si Si5 0.176147 0.667078 0.261928
Si Si6 0.325570 0.670639 0.915988
O O1 0.231440 0.237580 0.401811
O O2 0.238636 0.269602 0.310515
O O3 0.000000 0.165600 0.351669
O O4 0.236065 0.000000 0.344813
O O5 0.759499 0.240502 0.500000
O O6 0.000000 0.192829 0.455038
O O7 0.783783 0.000000 0.448220
O O8 0.261493 0.774559 0.955481
O O9 0.000000 0.795258 0.991825
O O10 0.500000 0.795283 0.189532
O O11 0.767498 0.769041 0.220814
O O12 0.721895 0.743986 0.132402
O O13 0.703403 0.000000 0.171558
O O14 0.235779 0.500000 0.255832
O O15 0.000000 0.671365 0.261625
O O16 0.500000 0.694072 0.913063
O O17 0.284630 0.500000 0.927047
#
# Coordination Sequence:
#
# PCOD8309343 Si02
#       6
#     8   8   4   8   8   8
#     4   8  13  22  37  58  86 119 154 196 246 295
#     4   7   9  14  27  50  79 109 144 189 240 291
#     4  11  24  39  56  82 114 145 176 209 246 288
#     4  10  21  37  57  79 102 131 168 210 256 303
#     4  10  20  32  47  70 100 133 168 205 247 297
#     4  10  21  38  60  83 106 135 171 209 251 299
#
# _framework density 18.727132000000001
#
# number of rings (size 3 to 8) (size 9 to 14) (size 15 to 20)
#    0.000    2.818    0.000    3.818    0.000    5.818 
#    0.000    0.000    0.000    0.000    0.000    1.273 
#    0.000    7.273    0.000    0.000    0.000    0.000 
#
# Total GULP energy -545186.137920 kJ/mol
# GULP energy per Si atom -12390.594044 kJ/mol
# Density = 1.868451 g / cm^3
# Si number density = 18.727132 Si / 1000 Ang^3
#
#
#
# Elastic Constant Matrix: (Units=GPa)
#
#
# Indices 1 2 3 4 5 6 
#
# 1 49.8771 23.1246 42.9425 0.0000 0.0000 0.0000
# 2 23.1246 49.8772 42.9422 0.0000 0.0000 0.0000
# 3 42.9425 42.9422 172.3475 0.0000 0.0000 0.0000
# 4 0.0000 0.0000 0.0000 -19.3851 0.0000 0.0000
# 5 0.0000 0.0000 0.0000 0.0000 -19.3812 0.0000
# 6 0.0000 0.0000 0.0000 0.0000 0.0000 20.0675
#
#
#
# Elastic Compliance Matrix: (Units=1/GPa)
#
#
# Indices 1 2 3 4 5 6 
#
# 1 0.028379 -0.009000 -0.004829 0.000000 0.000000 0.000000
# 2 -0.009000 0.028379 -0.004828 0.000000 0.000000 0.000000
# 3 -0.004829 -0.004828 0.008208 0.000000 0.000000 0.000000
# 4 0.000000 0.000000 0.000000 -0.051586 0.000000 0.000000
# 5 0.000000 0.000000 0.000000 0.000000 -0.051596 0.000000
# 6 0.000000 0.000000 0.000000 0.000000 0.000000 0.049832
#
#
# Mechanical properties :
#
#
# Convention : Reuss Voigt Hill
#
# Bulk Modulus (GPa) = 36.16346 54.45783 45.31065
# Shear Modulus (GPa) = 85.98698 7.13307 46.56003
#
# Velocity S-wave (km/s) = 6.78347 1.95377 4.99162
# Velocity P-wave (km/s) = 8.98368 5.85085 7.58086
#
# Compressibility (1/GPa) = 0.02765222
#
# Stress axis : x y z
#
# Youngs Moduli (GPa) = 35.23694 35.23716 121.82703
#
# Poissons Ratio (x) = 0.31715 0.58824
# Poissons Ratio (y) = 0.31715 0.58823
# Poissons Ratio (z) = 0.17014 0.17014
#
# Static dielectric constant tensor:
#      x y z
#    x 3.218300 0.000000 0.000000 
#    y 0.000000 3.218290 0.000000 
#    z 0.000000 0.000000 4.041810 
# 
# 
# High freq. dielectric constant tensor:
#      x y z
#    x 1.692440 0.000000 0.000000 
#    y 0.000000 1.692440 0.000000 
#    z 0.000000 0.000000 1.758320 
# 
# From -- ./inp_files/5709.got.cif
#   From: 2010.03.12/outbox.cif.g09.slc.cpg/sg115_3_cif.got.tgz:5709.got - 2010.04.14 02:11:21.
