data_PCOD8309973
_publ_section_title
;
Structure prediction by ZEFSAII (Michael W. Deem and Ramdas Pophale) SiO2 
 PCOD8309973
Probable space group: P -4 M 2
;
_chemical_formula_sum "Si O2"
_cell_formula_units_Z 32
_cell_length_a 11.541794
_cell_length_b 11.541794
_cell_length_c 11.729483
_cell_angle_alpha 90.000000
_cell_angle_beta 90.000000
_cell_angle_gamma 90.000000
_cell_volume 1562.519721
_symmetry_space_group_name_H-M "P -4 M 2"
_symmetry_group_IT_number 115
_symmetry_cell_setting 'tetragonal'
loop_
_space_group_symop_operation_xyz
x,y,z
y,-x,-z
-x,-y,z
-y,x,-z
y,x,-z
-y,-x,-z
-x,y,z
x,-y,z
loop_
_atom_site_type_symbol
_atom_site_label
_atom_site_fract_x
_atom_site_fract_y
_atom_site_fract_z
Si Si1 0.627152 0.128945 0.510518
Si Si2 0.000000 0.364934 0.043020
Si Si3 0.772286 0.794775 0.313357
Si Si4 0.000000 0.131946 0.202585
Si Si5 0.764254 0.368577 0.909698
O O1 0.500000 0.180182 0.487871
O O2 0.683451 0.206218 0.608239
O O3 0.692290 0.122206 0.389104
O O4 0.621585 0.000000 0.560202
O O5 0.000000 0.251294 0.126154
O O6 0.000000 0.500000 0.096022
O O7 0.890118 0.349532 0.962955
O O8 0.710838 0.750028 0.200143
O O9 0.888265 0.864337 0.283042
O O10 0.000000 0.000000 0.143647
O O11 0.743564 0.500000 0.872948
O O12 0.666664 0.333337 0.000000
#
# Coordination Sequence:
#
# PCOD8309973 Si02
#       5
#     8   4   8   4   8
#     4  10  22  41  65  89 121 171 221 259 311 392
#     4  10  24  44  65  94 134 183 222 260 317 411
#     4  11  23  41  61  97 132 167 207 270 332 385
#     4  12  24  40  65 102 140 171 208 274 341 399
#     4  11  24  42  65  93 128 169 219 266 323 387
#
# _framework density 20.479742999999999
#
# number of rings (size 3 to 8) (size 9 to 14) (size 15 to 20)
#    0.000    1.250    3.750    1.500    3.500    2.250 
#    2.250    0.000    0.000   12.000    0.000    0.000 
#    0.000    0.000    0.000    0.000    0.000    0.000 
#
# Total GULP energy -396572.730926 kJ/mol
# GULP energy per Si atom -12392.897841 kJ/mol
# Density = 2.043313 g / cm^3
# Si number density = 20.479743 Si / 1000 Ang^3
#
#
#
# Elastic Constant Matrix: (Units=GPa)
#
#
# Indices 1 2 3 4 5 6 
#
# 1 131.7992 27.5391 52.5063 0.0000 0.0000 0.0000
# 2 27.5391 131.7970 52.5061 0.0000 0.0000 0.0000
# 3 52.5063 52.5061 117.1907 0.0000 0.0000 0.0000
# 4 0.0000 0.0000 0.0000 13.1920 0.0000 0.0000
# 5 0.0000 0.0000 0.0000 0.0000 13.1941 0.0000
# 6 0.0000 0.0000 0.0000 0.0000 0.0000 20.3712
#
#
#
# Elastic Compliance Matrix: (Units=1/GPa)
#
#
# Indices 1 2 3 4 5 6 
#
# 1 0.009249 -0.000343 -0.003990 0.000000 0.000000 0.000000
# 2 -0.000343 0.009249 -0.003990 0.000000 0.000000 0.000000
# 3 -0.003990 -0.003990 0.012109 0.000000 0.000000 0.000000
# 4 0.000000 0.000000 0.000000 0.075803 0.000000 0.000000
# 5 0.000000 0.000000 0.000000 0.000000 0.075792 0.000000
# 6 0.000000 0.000000 0.000000 0.000000 0.000000 0.049089
#
#
# Mechanical properties :
#
#
# Convention : Reuss Voigt Hill
#
# Bulk Modulus (GPa) = 71.63571 71.76554 71.70062
# Shear Modulus (GPa) = 19.79499 25.90049 22.84774
#
# Velocity S-wave (km/s) = 3.11234 3.56010 3.34372
# Velocity P-wave (km/s) = 6.92606 7.21231 7.07063
#
# Compressibility (1/GPa) = 0.01395952
#
# Stress axis : x y z
#
# Youngs Moduli (GPa) = 108.12537 108.12331 82.58603
#
# Poissons Ratio (x) = 0.03707 0.32953
# Poissons Ratio (y) = 0.03707 0.32953
# Poissons Ratio (z) = 0.43143 0.43143
#
# Static dielectric constant tensor:
#      x y z
#    x 3.978730 0.000000 0.000000 
#    y 0.000000 3.978730 0.000000 
#    z 0.000000 0.000000 3.630320 
# 
# 
# High freq. dielectric constant tensor:
#      x y z
#    x 1.807410 0.000000 0.000000 
#    y 0.000000 1.807410 0.000000 
#    z 0.000000 0.000000 1.795830 
# 
# From -- ./inp_files/2550.got.cif
#   From: 2010.03.12/outbox.cif.g09.slc.cpg/sg115_2_cif.got.tgz:2550.got - 2010.04.14 02:11:21.
