data_PCOD8309507
_publ_section_title
;
Structure prediction by ZEFSAII (Michael W. Deem and Ramdas Pophale) SiO2 
 PCOD8309507
Probable space group: P -4 M 2
;
_chemical_formula_sum "Si O2"
_cell_formula_units_Z 44
_cell_length_a 9.165139
_cell_length_b 9.165139
_cell_length_c 28.635039
_cell_angle_alpha 90.000000
_cell_angle_beta 90.000000
_cell_angle_gamma 90.000000
_cell_volume 2405.336773
_symmetry_space_group_name_H-M "P -4 M 2"
_symmetry_group_IT_number 115
_symmetry_cell_setting 'tetragonal'
loop_
_space_group_symop_operation_xyz
x,y,z
y,-x,-z
-x,-y,z
-y,x,-z
y,x,-z
-y,-x,-z
-x,y,z
x,-y,z
loop_
_atom_site_type_symbol
_atom_site_label
_atom_site_fract_x
_atom_site_fract_y
_atom_site_fract_z
Si Si1 0.328601 0.831437 0.858669
Si Si2 0.173435 0.162305 0.050762
Si Si3 0.326197 0.667775 0.600756
Si Si4 0.830529 0.169398 0.317325
Si Si5 0.669344 0.669344 0.500000
Si Si6 0.670743 0.168982 0.223674
O O1 0.500000 0.810242 0.859061
O O2 0.267880 0.772455 0.908091
O O3 0.262400 0.733831 0.818256
O O4 0.284232 0.000000 0.850577
O O5 0.000000 0.154657 0.049409
O O6 0.237193 0.000000 0.060010
O O7 0.224390 0.224390 0.000000
O O8 0.500000 0.676663 0.603460
O O9 0.275883 0.500000 0.608552
O O10 0.258354 0.771930 0.639036
O O11 0.270843 0.730175 0.549754
O O12 0.746620 0.222094 0.271188
O O13 0.000000 0.203885 0.310151
O O14 0.801107 0.000000 0.326894
O O15 0.701583 0.500000 0.502441
O O16 0.500000 0.198899 0.228468
O O17 0.705715 0.000000 0.213957
#
# Coordination Sequence:
#
# PCOD8309507 Si02
#       6
#     8   8   8   8   4   8
#     4  10  20  33  51  77 107 136 165 201 249 300
#     4   8  14  27  49  74  99 132 174 213 245 282
#     4   9  17  31  53  78 102 131 168 208 248 291
#     4  10  21  36  53  74 101 132 165 204 252 302
#     4   7  12  26  48  73 100 130 166 205 242 285
#     4  10  21  37  56  75  95 126 170 213 252 298
#
# _framework density 18.292656999999998
#
# number of rings (size 3 to 8) (size 9 to 14) (size 15 to 20)
#    0.000    2.818    0.000    3.273    0.000    4.364 
#    0.000    1.818    0.000    7.636    0.000    0.000 
#    0.000    0.000    0.000    0.000    0.000    0.000 
#
# Total GULP energy -545338.022863 kJ/mol
# GULP energy per Si atom -12394.045974 kJ/mol
# Density = 1.825102 g / cm^3
# Si number density = 18.292657 Si / 1000 Ang^3
#
#
#
# Elastic Constant Matrix: (Units=GPa)
#
#
# Indices 1 2 3 4 5 6 
#
# 1 61.3595 35.0535 59.6309 0.0000 0.0000 0.0000
# 2 35.0535 61.3595 59.6309 0.0000 0.0000 0.0000
# 3 59.6309 59.6309 184.5422 0.0000 0.0000 0.0000
# 4 0.0000 0.0000 0.0000 37.1223 0.0000 0.0000
# 5 0.0000 0.0000 0.0000 0.0000 37.1223 0.0000
# 6 0.0000 0.0000 0.0000 0.0000 0.0000 24.5534
#
#
#
# Elastic Compliance Matrix: (Units=1/GPa)
#
#
# Indices 1 2 3 4 5 6 
#
# 1 0.027646 -0.010368 -0.005583 0.000000 0.000000 0.000000
# 2 -0.010368 0.027646 -0.005583 0.000000 0.000000 0.000000
# 3 -0.005583 -0.005583 0.009027 0.000000 0.000000 0.000000
# 4 0.000000 0.000000 0.000000 0.026938 0.000000 0.000000
# 5 0.000000 0.000000 0.000000 0.000000 0.026938 0.000000
# 6 0.000000 0.000000 0.000000 0.000000 0.000000 0.040727
#
#
# Mechanical properties :
#
#
# Convention : Reuss Voigt Hill
#
# Bulk Modulus (GPa) = 47.05643 68.43241 57.74442
# Shear Modulus (GPa) = 23.91485 29.95598 26.93541
#
# Velocity S-wave (km/s) = 3.61965 4.05111 3.84144
# Velocity P-wave (km/s) = 6.57641 7.70539 7.16318
#
# Compressibility (1/GPa) = 0.02125108
#
# Stress axis : x y z
#
# Youngs Moduli (GPa) = 36.17124 36.17124 110.77942
#
# Poissons Ratio (x) = 0.37502 0.61849
# Poissons Ratio (y) = 0.37502 0.61849
# Poissons Ratio (z) = 0.20195 0.20195
#
# Static dielectric constant tensor:
#      x y z
#    x 3.112640 0.000000 0.000000 
#    y 0.000000 3.112640 0.000000 
#    z 0.000000 0.000000 3.828070 
# 
# 
# High freq. dielectric constant tensor:
#      x y z
#    x 1.684500 0.000000 0.000000 
#    y 0.000000 1.684500 0.000000 
#    z 0.000000 0.000000 1.733400 
# 
# From -- ./inp_files/5753.got.cif
#   From: 2010.03.12/outbox.cif.g09.slc.cpg/sg115_3_cif.got.tgz:5753.got - 2010.04.14 02:11:21.
