data_PCOD8309138
_publ_section_title
;
Structure prediction by ZEFSAII (Michael W. Deem and Ramdas Pophale) SiO2 
 PCOD8309138
Probable space group: P -4 21 C
;
_chemical_formula_sum "Si O2"
_cell_formula_units_Z 34
_cell_length_a 9.027644
_cell_length_b 9.027644
_cell_length_c 16.565582
_cell_angle_alpha 90.000000
_cell_angle_beta 90.000000
_cell_angle_gamma 90.000000
_cell_volume 1350.067702
_symmetry_space_group_name_H-M "P -4 21 C"
_symmetry_group_IT_number 114
_symmetry_cell_setting 'tetragonal'
loop_
_space_group_symop_operation_xyz
x,y,z
y,-x,-z
-x,-y,z
-y,x,-z
1/2+x,1/2-y,1/2-z
1/2-x,1/2+y,1/2-z
1/2-y,1/2-x,1/2+z
1/2+y,1/2+x,1/2+z
loop_
_atom_site_type_symbol
_atom_site_label
_atom_site_fract_x
_atom_site_fract_y
_atom_site_fract_z
Si Si1 0.345624 0.057943 0.591472
Si Si2 0.826353 0.178817 0.671098
Si Si3 0.544278 0.808751 0.426373
Si Si4 0.852606 0.718300 0.676726
Si Si5 0.000000 0.000000 0.000000
O O1 0.377188 0.104902 0.499536
O O2 0.288408 0.192187 0.644699
O O3 0.500000 0.000000 0.629510
O O4 0.217928 0.930970 0.597081
O O5 0.780850 0.342783 0.645689
O O6 0.716445 0.137212 0.744895
O O7 0.003401 0.176355 0.691936
O O8 0.404206 0.901250 0.390089
O O9 0.479102 0.648500 0.448599
#
# Coordination Sequence:
#
# PCOD8309138 Si02
#       5
#     8   8   8   8   2
#     4  12  26  48  75 116 156 208 263 330 393 469
#     4  12  28  48  81 113 163 202 261 329 401 476
#     4  12  27  48  79 113 155 204 270 323 397 475
#     4  12  27  51  77 118 157 214 263 327 403 479
#     4  12  24  48  84 112 148 212 258 320 384 488
#
# _framework density 25.183923
#
# number of rings (size 3 to 8) (size 9 to 14) (size 15 to 20)
#    0.000    0.000    2.353    7.059    6.588    0.000 
#    0.000    0.000    0.000    0.000    0.000    0.000 
#    0.000    0.000    0.000    0.000    0.000    0.000 
#
# Total GULP energy -421543.218169 kJ/mol
# GULP energy per Si atom -12398.329946 kJ/mol
# Density = 2.512660 g / cm^3
# Si number density = 25.183923 Si / 1000 Ang^3
#
#
#
# Elastic Constant Matrix: (Units=GPa)
#
#
# Indices 1 2 3 4 5 6 
#
# 1 126.8784 40.4109 59.3277 0.0000 0.0000 0.0000
# 2 40.4109 126.8784 59.3277 0.0000 0.0000 0.0000
# 3 59.3277 59.3277 107.8898 0.0000 0.0000 0.0000
# 4 0.0000 0.0000 0.0000 43.1599 0.0000 0.0000
# 5 0.0000 0.0000 0.0000 0.0000 43.1599 0.0000
# 6 0.0000 0.0000 0.0000 0.0000 0.0000 55.6032
#
#
#
# Elastic Compliance Matrix: (Units=1/GPa)
#
#
# Indices 1 2 3 4 5 6 
#
# 1 0.010682 -0.000883 -0.005389 0.000000 0.000000 0.000000
# 2 -0.000883 0.010682 -0.005389 0.000000 0.000000 0.000000
# 3 -0.005389 -0.005389 0.015195 0.000000 0.000000 0.000000
# 4 0.000000 0.000000 0.000000 0.023170 0.000000 0.000000
# 5 0.000000 0.000000 0.000000 0.000000 0.023170 0.000000
# 6 0.000000 0.000000 0.000000 0.000000 0.000000 0.017985
#
#
# Mechanical properties :
#
#
# Convention : Reuss Voigt Hill
#
# Bulk Modulus (GPa) = 75.53101 75.53102 75.53102
# Shear Modulus (GPa) = 38.87479 41.88995 40.38237
#
# Velocity S-wave (km/s) = 3.93317 4.08286 4.00871
# Velocity P-wave (km/s) = 7.11922 7.23071 7.17518
#
# Compressibility (1/GPa) = 0.01323959
#
# Stress axis : x y z
#
# Youngs Moduli (GPa) = 93.61126 93.61126 65.80971
#
# Poissons Ratio (x) = 0.08262 0.35464
# Poissons Ratio (y) = 0.08262 0.35464
# Poissons Ratio (z) = 0.50446 0.50446
#
# Static dielectric constant tensor:
#      x y z
#    x 4.632320 0.000000 0.000000 
#    y 0.000000 4.632320 0.000000 
#    z 0.000000 0.000000 4.288670 
# 
# 
# High freq. dielectric constant tensor:
#      x y z
#    x 2.020050 0.000000 0.000000 
#    y 0.000000 2.020050 0.000000 
#    z 0.000000 0.000000 1.994230 
# 
# From -- ./inp_files/2918.got.cif
#   From: 2010.03.12/outbox.cif.g09.slc.cpg/sg114_2_cif.got.tgz:2918.got - 2010.04.14 02:08:34.
