data_PCOD8309555
_publ_section_title
;
Structure prediction by ZEFSAII (Michael W. Deem and Ramdas Pophale) SiO2 
 PCOD8309555
Probable space group: P -4 M 2
;
_chemical_formula_sum "Si O2"
_cell_formula_units_Z 44
_cell_length_a 8.955291
_cell_length_b 8.955291
_cell_length_c 28.967514
_cell_angle_alpha 90.000000
_cell_angle_beta 90.000000
_cell_angle_gamma 90.000000
_cell_volume 2323.114583
_symmetry_space_group_name_H-M "P -4 M 2"
_symmetry_group_IT_number 115
_symmetry_cell_setting 'tetragonal'
loop_
_space_group_symop_operation_xyz
x,y,z
y,-x,-z
-x,-y,z
-y,x,-z
y,x,-z
-y,-x,-z
-x,y,z
x,-y,z
loop_
_atom_site_type_symbol
_atom_site_label
_atom_site_fract_x
_atom_site_fract_y
_atom_site_fract_z
Si Si1 0.178957 0.168277 0.352376
Si Si2 0.833929 0.178812 0.451344
Si Si3 0.173886 0.826115 0.000000
Si Si4 0.827489 0.824316 0.170646
Si Si5 0.177290 0.666546 0.263200
Si Si6 0.324681 0.672523 0.914391
O O1 0.244049 0.224872 0.402513
O O2 0.243594 0.269806 0.311160
O O3 0.000000 0.173067 0.354055
O O4 0.232702 0.000000 0.342620
O O5 0.760472 0.239529 0.500000
O O6 0.000000 0.245058 0.449533
O O7 0.839512 0.000000 0.453640
O O8 0.261802 0.771998 0.955437
O O9 0.000000 0.794209 0.992150
O O10 0.771608 0.768698 0.220543
O O11 0.723391 0.747867 0.133166
O O12 0.000000 0.779483 0.161878
O O13 0.805628 0.000000 0.167924
O O14 0.239787 0.500000 0.255766
O O15 0.000000 0.666621 0.266430
O O16 0.500000 0.698804 0.911140
O O17 0.285513 0.500000 0.923761
#
# Coordination Sequence:
#
# PCOD8309555 Si02
#       6
#     8   8   4   8   8   8
#     4   8  12  18  29  46  71 104 141 182 229 282
#     4   7   9  13  22  38  62  93 128 168 219 277
#     4  11  24  41  62  88 114 141 176 213 248 290
#     4  10  20  34  53  76 101 132 172 213 252 298
#     4   9  16  25  38  58  86 120 156 195 242 294
#     4  11  24  40  58  82 111 141 173 209 251 298
#
# _framework density 18.940089
#
# number of rings (size 3 to 8) (size 9 to 14) (size 15 to 20)
#    0.000    2.818    0.000    4.364    0.000    8.727 
#    0.000    0.000    0.000    0.000    0.000    0.000 
#    0.000    1.455    0.000   10.182    0.000   10.000 
#
# Total GULP energy -545157.109347 kJ/mol
# GULP energy per Si atom -12389.934303 kJ/mol
# Density = 1.889698 g / cm^3
# Si number density = 18.940089 Si / 1000 Ang^3
#
#
#
# Elastic Constant Matrix: (Units=GPa)
#
#
# Indices 1 2 3 4 5 6 
#
# 1 46.9809 27.0447 32.2501 0.0000 0.0000 0.0000
# 2 27.0447 46.9817 32.2499 0.0000 0.0000 0.0000
# 3 32.2501 32.2499 160.0164 0.0000 0.0000 0.0000
# 4 0.0000 0.0000 0.0000 -12.2944 0.0000 0.0000
# 5 0.0000 0.0000 0.0000 0.0000 -12.2932 0.0000
# 6 0.0000 0.0000 0.0000 0.0000 0.0000 16.3901
#
#
#
# Elastic Compliance Matrix: (Units=1/GPa)
#
#
# Indices 1 2 3 4 5 6 
#
# 1 0.033273 -0.016886 -0.003303 0.000000 0.000000 0.000000
# 2 -0.016886 0.033272 -0.003302 0.000000 0.000000 0.000000
# 3 -0.003303 -0.003302 0.007581 0.000000 0.000000 0.000000
# 4 0.000000 0.000000 0.000000 -0.081338 0.000000 0.000000
# 5 0.000000 0.000000 0.000000 0.000000 -0.081346 0.000000
# 6 0.000000 0.000000 0.000000 0.000000 0.000000 0.061012
#
#
# Mechanical properties :
#
#
# Convention : Reuss Voigt Hill
#
# Bulk Modulus (GPa) = 36.84183 48.56316 42.70250
# Shear Modulus (GPa) = 175.52941 9.18945 92.35943
#
# Velocity S-wave (km/s) = 9.63729 2.20508 6.99070
# Velocity P-wave (km/s) = 11.97207 5.67268 9.36776
#
# Compressibility (1/GPa) = 0.02714306
#
# Stress axis : x y z
#
# Youngs Moduli (GPa) = 30.05434 30.05497 131.91645
#
# Poissons Ratio (x) = 0.50752 0.43567
# Poissons Ratio (y) = 0.50751 0.43564
# Poissons Ratio (z) = 0.09926 0.09925
#
# Static dielectric constant tensor:
#      x y z
#    x 3.161260 0.000000 0.000000 
#    y 0.000000 3.161250 0.000000 
#    z 0.000000 0.000000 4.463130 
# 
# 
# High freq. dielectric constant tensor:
#      x y z
#    x 1.692650 0.000000 0.000000 
#    y 0.000000 1.692650 0.000000 
#    z 0.000000 0.000000 1.769370 
# 
# From -- ./inp_files/5708.got.cif
#   From: 2010.03.12/outbox.cif.g09.slc.cpg/sg115_3_cif.got.tgz:5708.got - 2010.04.14 02:11:21.
