data_PCOD8309743
_publ_section_title
;
Structure prediction by ZEFSAII (Michael W. Deem and Ramdas Pophale) SiO2 
 PCOD8309743
Probable space group: P -4 M 2
;
_chemical_formula_sum "Si O2"
_cell_formula_units_Z 48
_cell_length_a 9.264704
_cell_length_b 9.264704
_cell_length_c 31.177264
_cell_angle_alpha 90.000000
_cell_angle_beta 90.000000
_cell_angle_gamma 90.000000
_cell_volume 2676.092356
_symmetry_space_group_name_H-M "P -4 M 2"
_symmetry_group_IT_number 115
_symmetry_cell_setting 'tetragonal'
loop_
_space_group_symop_operation_xyz
x,y,z
y,-x,-z
-x,-y,z
-y,x,-z
y,x,-z
-y,-x,-z
-x,y,z
x,-y,z
loop_
_atom_site_type_symbol
_atom_site_label
_atom_site_fract_x
_atom_site_fract_y
_atom_site_fract_z
Si Si1 0.333037 0.666270 0.621915
Si Si2 0.831162 0.666616 0.706508
Si Si3 0.172121 0.336768 0.035874
Si Si4 0.333413 0.169576 0.536763
Si Si5 0.670610 0.157320 0.871928
Si Si6 0.335668 0.827637 0.779231
O O1 0.500000 0.690578 0.633147
O O2 0.300102 0.500000 0.610713
O O3 0.241759 0.719443 0.662542
O O4 0.284582 0.761838 0.581700
O O5 0.793219 0.500000 0.715187
O O6 0.772346 0.760248 0.745400
O O7 0.000000 0.693322 0.702223
O O8 0.221964 0.500000 0.025629
O O9 0.234722 0.286239 0.082976
O O10 0.000000 0.326922 0.036782
O O11 0.231419 0.231419 0.000000
O O12 0.234668 0.234668 0.500000
O O13 0.500000 0.207621 0.527029
O O14 0.307291 0.000000 0.539280
O O15 0.500000 0.136306 0.872722
O O16 0.710652 0.234478 0.826682
O O17 0.744897 0.000000 0.871465
O O18 0.500000 0.781618 0.768383
O O19 0.321992 0.000000 0.778714
#
# Coordination Sequence:
#
# PCOD8309743 Si02
#       6
#     8   8   8   8   8   8
#     4   9  18  34  55  75  97 131 174 212 242 280
#     4  10  21  35  50  72 104 137 164 195 242 296
#     4   9  17  30  48  69  94 124 158 197 241 289
#     4  10  21  36  55  80 108 136 167 205 248 292
#     4   7  12  26  47  68  90 119 157 199 240 283
#     4   9  17  31  53  76  94 119 161 208 247 286
#
# _framework density 17.936601
#
# number of rings (size 3 to 8) (size 9 to 14) (size 15 to 20)
#    0.000    3.000    0.000    3.000    0.000    4.000 
#    0.000    5.000    0.000    8.000    0.000    0.000 
#    0.000    0.000    0.000    0.000    0.000    0.000 
#
# Total GULP energy -594820.600296 kJ/mol
# GULP energy per Si atom -12392.095839 kJ/mol
# Density = 1.789578 g / cm^3
# Si number density = 17.936601 Si / 1000 Ang^3
#
#
#
# Elastic Constant Matrix: (Units=GPa)
#
#
# Indices 1 2 3 4 5 6 
#
# 1 52.3914 28.5814 59.4955 0.0000 0.0000 0.0000
# 2 28.5814 52.3914 59.4955 0.0000 0.0000 0.0000
# 3 59.4955 59.4955 180.1472 0.0000 0.0000 0.0000
# 4 0.0000 0.0000 0.0000 63.5157 0.0000 0.0000
# 5 0.0000 0.0000 0.0000 0.0000 63.5157 0.0000
# 6 0.0000 0.0000 0.0000 0.0000 0.0000 24.6166
#
#
#
# Elastic Compliance Matrix: (Units=1/GPa)
#
#
# Indices 1 2 3 4 5 6 
#
# 1 0.032997 -0.009002 -0.007925 0.000000 0.000000 0.000000
# 2 -0.009002 0.032997 -0.007925 0.000000 0.000000 0.000000
# 3 -0.007925 -0.007925 0.010785 0.000000 0.000000 0.000000
# 4 0.000000 0.000000 0.000000 0.015744 0.000000 0.000000
# 5 0.000000 0.000000 0.000000 0.000000 0.015744 0.000000
# 6 0.000000 0.000000 0.000000 0.000000 0.000000 0.040623
#
#
# Mechanical properties :
#
#
# Convention : Reuss Voigt Hill
#
# Bulk Modulus (GPa) = 36.93131 64.45275 50.69203
# Shear Modulus (GPa) = 24.08251 39.48679 31.78465
#
# Velocity S-wave (km/s) = 3.66819 4.69707 4.21415
# Velocity P-wave (km/s) = 6.21091 8.08877 7.21123
#
# Compressibility (1/GPa) = 0.02707729
#
# Stress axis : x y z
#
# Youngs Moduli (GPa) = 30.30557 30.30557 92.71747
#
# Poissons Ratio (x) = 0.27281 0.73476
# Poissons Ratio (y) = 0.27281 0.73476
# Poissons Ratio (z) = 0.24016 0.24016
#
# Static dielectric constant tensor:
#      x y z
#    x 3.035310 0.000000 0.000000 
#    y 0.000000 3.035310 0.000000 
#    z 0.000000 0.000000 3.701170 
# 
# 
# High freq. dielectric constant tensor:
#      x y z
#    x 1.668760 0.000000 0.000000 
#    y 0.000000 1.668760 0.000000 
#    z 0.000000 0.000000 1.716800 
# 
# From -- ./inp_files/5952.got.cif
#   From: 2010.03.12/outbox.cif.g09.slc.cpg/sg115_3_cif.got.tgz:5952.got - 2010.04.14 02:11:21.
