data_PCOD8309972
_publ_section_title
;
Structure prediction by ZEFSAII (Michael W. Deem and Ramdas Pophale) SiO2 
 PCOD8309972
Probable space group: P -4 M 2
;
_chemical_formula_sum "Si O2"
_cell_formula_units_Z 48
_cell_length_a 9.452943
_cell_length_b 9.452943
_cell_length_c 27.615384
_cell_angle_alpha 90.000000
_cell_angle_beta 90.000000
_cell_angle_gamma 90.000000
_cell_volume 2467.659111
_symmetry_space_group_name_H-M "P -4 M 2"
_symmetry_group_IT_number 115
_symmetry_cell_setting 'tetragonal'
loop_
_space_group_symop_operation_xyz
x,y,z
y,-x,-z
-x,-y,z
-y,x,-z
y,x,-z
-y,-x,-z
-x,y,z
x,-y,z
loop_
_atom_site_type_symbol
_atom_site_label
_atom_site_fract_x
_atom_site_fract_y
_atom_site_fract_z
Si Si1 0.000000 0.829962 0.789335
Si Si2 0.000000 0.164709 0.903551
Si Si3 0.658113 0.243669 0.052031
Si Si4 0.658678 0.164900 0.537256
Si Si5 0.672486 0.245433 0.265142
Si Si6 0.666933 0.162504 0.647311
Si Si7 0.654656 0.500000 0.123967
Si Si8 0.171280 0.500000 0.215850
O O1 0.125311 0.743555 0.765999
O O2 0.000000 0.802264 0.846563
O O3 0.000000 0.000000 0.778011
O O4 0.133394 0.227828 0.930383
O O5 0.000000 0.000000 0.913276
O O6 0.500000 0.178116 0.050115
O O7 0.665347 0.365393 0.090852
O O8 0.697148 0.302853 0.000000
O O9 0.760384 0.239617 0.500000
O O10 0.500000 0.222768 0.530136
O O11 0.709067 0.194610 0.592015
O O12 0.663863 0.000000 0.526227
O O13 0.500000 0.245634 0.262238
O O14 0.725232 0.242693 0.320990
O O15 0.750632 0.374770 0.241612
O O16 0.500000 0.185912 0.655412
O O17 0.705882 0.000000 0.660913
O O18 0.500000 0.500000 0.150903
O O19 0.788835 0.500000 0.159487
O O20 0.000000 0.500000 0.222119
#
# Coordination Sequence:
#
# PCOD8309972 Si02
#       8
#     4   4   8   8   8   8   4   4
#     4  11  25  47  67  89 127 173 211 255 320 393
#     4  11  27  45  65  93 125 163 209 251 298 365
#     4  11  23  42  66  94 124 162 199 250 313 371
#     4   9  19  36  58  86 121 163 211 262 315 374
#     4  12  24  39  64  95 128 163 213 267 322 377
#     4   9  18  36  61  88 120 166 215 262 319 381
#     4  10  22  40  66  92 126 156 208 262 313 370
#     4  12  24  40  62  94 128 168 212 262 313 380
#
# _framework density 19.451635
#
# number of rings (size 3 to 8) (size 9 to 14) (size 15 to 20)
#    0.000    1.500    1.667    4.750    1.167    5.667 
#    1.500    1.667    0.000    0.000    0.000    0.000 
#    0.000    0.000    0.000    0.000    0.000    0.000 
#
# Total GULP energy -594772.567305 kJ/mol
# GULP energy per Si atom -12391.095152 kJ/mol
# Density = 1.940736 g / cm^3
# Si number density = 19.451635 Si / 1000 Ang^3
#
#
#
# Elastic Constant Matrix: (Units=GPa)
#
#
# Indices 1 2 3 4 5 6 
#
# 1 108.1926 40.7893 41.1076 0.0000 0.0000 0.0000
# 2 40.7893 108.1941 41.1078 0.0000 0.0000 0.0000
# 3 41.1076 41.1078 108.0100 0.0000 0.0000 0.0000
# 4 0.0000 0.0000 0.0000 60.6201 0.0000 0.0000
# 5 0.0000 0.0000 0.0000 0.0000 60.6169 0.0000
# 6 0.0000 0.0000 0.0000 0.0000 0.0000 29.0149
#
#
#
# Elastic Compliance Matrix: (Units=1/GPa)
#
#
# Indices 1 2 3 4 5 6 
#
# 1 0.011666 -0.003170 -0.003234 0.000000 0.000000 0.000000
# 2 -0.003170 0.011666 -0.003234 0.000000 0.000000 0.000000
# 3 -0.003234 -0.003234 0.011720 0.000000 0.000000 0.000000
# 4 0.000000 0.000000 0.000000 0.016496 0.000000 0.000000
# 5 0.000000 0.000000 0.000000 0.000000 0.016497 0.000000
# 6 0.000000 0.000000 0.000000 0.000000 0.000000 0.034465
#
#
# Mechanical properties :
#
#
# Convention : Reuss Voigt Hill
#
# Bulk Modulus (GPa) = 63.37842 63.37844 63.37843
# Shear Modulus (GPa) = 39.35625 43.47650 41.41637
#
# Velocity S-wave (km/s) = 4.50298 4.73282 4.61933
# Velocity P-wave (km/s) = 7.72587 7.90692 7.81692
#
# Compressibility (1/GPa) = 0.01577824
#
# Stress axis : x y z
#
# Youngs Moduli (GPa) = 85.71613 85.71746 85.32491
#
# Poissons Ratio (x) = 0.27169 0.27592
# Poissons Ratio (y) = 0.27168 0.27592
# Poissons Ratio (z) = 0.27719 0.27719
#
# Static dielectric constant tensor:
#      x y z
#    x 3.570720 0.000000 0.000000 
#    y 0.000000 3.570720 0.000000 
#    z 0.000000 0.000000 3.891890 
# 
# 
# High freq. dielectric constant tensor:
#      x y z
#    x 1.760240 0.000000 0.000000 
#    y 0.000000 1.760240 0.000000 
#    z 0.000000 0.000000 1.773790 
# 
# From -- ./inp_files/6282.got.cif
#   From: 2010.03.12/outbox.cif.g09.slc.cpg/sg115_4_cif.got.tgz:6282.got - 2010.04.14 02:11:21.
