data_PCOD8309716
_publ_section_title
;
Structure prediction by ZEFSAII (Michael W. Deem and Ramdas Pophale) SiO2 
 PCOD8309716
Probable space group: P -4 M 2
;
_chemical_formula_sum "Si O2"
_cell_formula_units_Z 26
_cell_length_a 7.717505
_cell_length_b 7.717505
_cell_length_c 21.688305
_cell_angle_alpha 90.000000
_cell_angle_beta 90.000000
_cell_angle_gamma 90.000000
_cell_volume 1291.752917
_symmetry_space_group_name_H-M "P -4 M 2"
_symmetry_group_IT_number 115
_symmetry_cell_setting 'tetragonal'
loop_
_space_group_symop_operation_xyz
x,y,z
y,-x,-z
-x,-y,z
-y,x,-z
y,x,-z
-y,-x,-z
-x,y,z
x,-y,z
loop_
_atom_site_type_symbol
_atom_site_label
_atom_site_fract_x
_atom_site_fract_y
_atom_site_fract_z
Si Si1 0.694969 0.701348 0.310464
Si Si2 0.000000 0.688130 0.093531
Si Si3 0.000000 0.000000 0.000000
Si Si4 0.694796 0.803567 0.175470
Si Si5 0.000000 0.000000 0.500000
Si Si6 0.295781 0.000000 0.598432
O O1 0.500000 0.748920 0.332689
O O2 0.712065 0.500000 0.295290
O O3 0.742754 0.799965 0.247696
O O4 0.828849 0.755554 0.363276
O O5 0.829965 0.695168 0.135996
O O6 0.000000 0.500000 0.061244
O O7 0.000000 0.829301 0.040741
O O8 0.500000 0.729267 0.165688
O O9 0.706727 0.000000 0.152189
O O10 0.177575 0.000000 0.538355
O O11 0.500000 0.000000 0.580567
#
# Coordination Sequence:
#
# PCOD8309716 Si02
#       6
#     8   4   1   8   1   4
#     4   9  18  34  59  91 122 151 186 233 296 366
#     4  12  25  43  67  87 120 167 202 254 306 347
#     4  12  28  48  58  88 120 156 224 262 288 352
#     4  10  20  36  63  99 131 157 191 240 304 375
#     4  12  28  40  58  80 104 156 216 254 284 340
#     4  10  23  41  57  81 116 153 198 248 294 345
#
# _framework density 20.127687000000002
#
# number of rings (size 3 to 8) (size 9 to 14) (size 15 to 20)
#    0.000    1.846    1.538    1.846    2.154    5.538 
#    0.000    0.000    0.000    0.000    0.000    0.000 
#    0.000    0.000    0.000    0.000    0.000    0.000 
#
# Total GULP energy -322418.205021 kJ/mol
# GULP energy per Si atom -12400.700193 kJ/mol
# Density = 2.008188 g / cm^3
# Si number density = 20.127687 Si / 1000 Ang^3
#
#
#
# Elastic Constant Matrix: (Units=GPa)
#
#
# Indices 1 2 3 4 5 6 
#
# 1 125.8877 50.4177 68.4860 0.0000 0.0000 0.0000
# 2 50.4177 125.8877 68.4860 0.0000 0.0000 0.0000
# 3 68.4860 68.4860 111.1116 0.0000 0.0000 0.0000
# 4 0.0000 0.0000 0.0000 33.8483 0.0000 0.0000
# 5 0.0000 0.0000 0.0000 0.0000 33.8483 0.0000
# 6 0.0000 0.0000 0.0000 0.0000 0.0000 -10.2803
#
#
#
# Elastic Compliance Matrix: (Units=1/GPa)
#
#
# Indices 1 2 3 4 5 6 
#
# 1 0.012067 -0.001183 -0.006708 0.000000 0.000000 0.000000
# 2 -0.001183 0.012067 -0.006708 0.000000 0.000000 0.000000
# 3 -0.006708 -0.006708 0.017270 0.000000 0.000000 0.000000
# 4 0.000000 0.000000 0.000000 0.029544 0.000000 0.000000
# 5 0.000000 0.000000 0.000000 0.000000 0.029544 0.000000
# 6 0.000000 0.000000 0.000000 0.000000 0.000000 -0.097273
#
#
# Mechanical properties :
#
#
# Convention : Reuss Voigt Hill
#
# Bulk Modulus (GPa) = 81.94360 81.96293 81.95327
# Shear Modulus (GPa) = 137.03802 23.18307 80.11054
#
# Velocity S-wave (km/s) = 8.26027 3.39750 6.31566
# Velocity P-wave (km/s) = 11.47939 7.49670 9.69477
#
# Compressibility (1/GPa) = 0.01220352
#
# Stress axis : x y z
#
# Youngs Moduli (GPa) = 82.87029 82.87029 57.90463
#
# Poissons Ratio (x) = 0.09806 0.38845
# Poissons Ratio (y) = 0.09806 0.38845
# Poissons Ratio (z) = 0.55593 0.55593
#
# Static dielectric constant tensor:
#      x y z
#    x 3.836290 0.000000 0.000000 
#    y 0.000000 3.836290 0.000000 
#    z 0.000000 0.000000 3.370020 
# 
# 
# High freq. dielectric constant tensor:
#      x y z
#    x 1.797420 0.000000 0.000000 
#    y 0.000000 1.797420 0.000000 
#    z 0.000000 0.000000 1.757490 
# 
# From -- ./inp_files/4080.got.cif
#   From: 2010.03.12/outbox.cif.g09.slc.cpg/sg115_3_cif.got.tgz:4080.got - 2010.04.14 02:11:21.
