data_PCOD8309270
_publ_section_title
;
Structure prediction by ZEFSAII (Michael W. Deem and Ramdas Pophale) SiO2 
 PCOD8309270
Probable space group: P -4 M 2
;
_chemical_formula_sum "Si O2"
_cell_formula_units_Z 48
_cell_length_a 13.760387
_cell_length_b 13.760387
_cell_length_c 14.611414
_cell_angle_alpha 90.000000
_cell_angle_beta 90.000000
_cell_angle_gamma 90.000000
_cell_volume 2766.645677
_symmetry_space_group_name_H-M "P -4 M 2"
_symmetry_group_IT_number 115
_symmetry_cell_setting 'tetragonal'
loop_
_space_group_symop_operation_xyz
x,y,z
y,-x,-z
-x,-y,z
-y,x,-z
y,x,-z
-y,-x,-z
-x,y,z
x,-y,z
loop_
_atom_site_type_symbol
_atom_site_label
_atom_site_fract_x
_atom_site_fract_y
_atom_site_fract_z
Si Si1 0.740819 0.112070 0.957897
Si Si2 0.260085 0.887617 0.280734
Si Si3 0.272308 0.885640 0.746384
Si Si4 0.114132 0.393342 0.882147
Si Si5 0.780564 0.611029 0.589516
Si Si6 0.610271 0.249889 0.620487
O O1 0.715861 0.137310 0.853657
O O2 0.769610 0.000000 0.968595
O O3 0.831521 0.168479 0.000000
O O4 0.645115 0.138261 0.016448
O O5 0.158689 0.829843 0.288661
O O6 0.318721 0.845114 0.193273
O O7 0.327843 0.870000 0.368977
O O8 0.233222 0.000000 0.271812
O O9 0.359725 0.833571 0.692296
O O10 0.273938 0.000000 0.725329
O O11 0.162243 0.500000 0.871178
O O12 0.000000 0.401879 0.865922
O O13 0.785231 0.500000 0.623059
O O14 0.793574 0.618753 0.481068
O O15 0.679102 0.655662 0.626902
O O16 0.500000 0.282631 0.641474
#
# Coordination Sequence:
#
# PCOD8309270 Si02
#       6
#     8   8   8   8   8   8
#     4  10  19  32  49  71  98 130 168 208 254 307
#     4  10  19  32  50  73 101 132 169 212 255 301
#     4  10  21  34  50  72 102 138 174 212 254 305
#     4   9  17  29  46  69  95 122 157 204 255 301
#     4   9  18  33  54  79 104 132 169 211 256 305
#     4   9  19  35  53  76 106 136 168 210 257 305
#
# _framework density 17.349530000000001
#
# number of rings (size 3 to 8) (size 9 to 14) (size 15 to 20)
#    0.000    2.500    1.667    0.500    0.000    3.500 
#    0.000    6.667    0.000    0.000    0.000    4.667 
#    0.000    0.333    0.000    0.000    0.000    0.000 
#
# Total GULP energy -595112.004003 kJ/mol
# GULP energy per Si atom -12398.166750 kJ/mol
# Density = 1.731004 g / cm^3
# Si number density = 17.349530 Si / 1000 Ang^3
#
#
#
# Elastic Constant Matrix: (Units=GPa)
#
#
# Indices 1 2 3 4 5 6 
#
# 1 68.4124 15.5822 27.2154 0.0000 0.0000 0.0000
# 2 15.5822 68.4133 27.2148 0.0000 0.0000 0.0000
# 3 27.2154 27.2148 78.0195 0.0000 0.0000 0.0000
# 4 0.0000 0.0000 0.0000 23.9779 0.0000 0.0000
# 5 0.0000 0.0000 0.0000 0.0000 23.9780 0.0000
# 6 0.0000 0.0000 0.0000 0.0000 0.0000 14.9677
#
#
#
# Elastic Compliance Matrix: (Units=1/GPa)
#
#
# Indices 1 2 3 4 5 6 
#
# 1 0.017156 -0.001773 -0.005366 0.000000 0.000000 0.000000
# 2 -0.001773 0.017155 -0.005366 0.000000 0.000000 0.000000
# 3 -0.005366 -0.005366 0.016561 0.000000 0.000000 0.000000
# 4 0.000000 0.000000 0.000000 0.041705 0.000000 0.000000
# 5 0.000000 0.000000 0.000000 0.000000 0.041705 0.000000
# 6 0.000000 0.000000 0.000000 0.000000 0.000000 0.066811
#
#
# Mechanical properties :
#
#
# Convention : Reuss Voigt Hill
#
# Bulk Modulus (GPa) = 38.66574 39.42999 39.04787
# Shear Modulus (GPa) = 21.30176 22.24023 21.77100
#
# Velocity S-wave (km/s) = 3.50780 3.58424 3.54622
# Velocity P-wave (km/s) = 6.22422 6.31705 6.27081
#
# Compressibility (1/GPa) = 0.02586269
#
# Stress axis : x y z
#
# Youngs Moduli (GPa) = 58.28968 58.29097 60.38362
#
# Poissons Ratio (x) = 0.10334 0.32402
# Poissons Ratio (y) = 0.10334 0.32400
# Poissons Ratio (z) = 0.31278 0.31277
#
# Static dielectric constant tensor:
#      x y z
#    x 3.170240 0.000000 0.000000 
#    y 0.000000 3.170240 0.000000 
#    z 0.000000 0.000000 3.364480 
# 
# 
# High freq. dielectric constant tensor:
#      x y z
#    x 1.658680 0.000000 0.000000 
#    y 0.000000 1.658680 0.000000 
#    z 0.000000 0.000000 1.677950 
# 
# From -- ./inp_files/2991.got.cif
#   From: 2010.03.12/outbox.cif.g09.slc.cpg/sg115_2_cif.got.tgz:2991.got - 2010.04.14 02:11:21.
