data_PCOD8309311
_publ_section_title
;
Structure prediction by ZEFSAII (Michael W. Deem and Ramdas Pophale) SiO2 
 PCOD8309311
Probable space group: P -4 M 2
;
_chemical_formula_sum "Si O2"
_cell_formula_units_Z 56
_cell_length_a 14.190329
_cell_length_b 14.190329
_cell_length_c 15.014029
_cell_angle_alpha 90.000000
_cell_angle_beta 90.000000
_cell_angle_gamma 90.000000
_cell_volume 3023.306513
_symmetry_space_group_name_H-M "P -4 M 2"
_symmetry_group_IT_number 115
_symmetry_cell_setting 'tetragonal'
loop_
_space_group_symop_operation_xyz
x,y,z
y,-x,-z
-x,-y,z
-y,x,-z
y,x,-z
-y,-x,-z
-x,y,z
x,-y,z
loop_
_atom_site_type_symbol
_atom_site_label
_atom_site_fract_x
_atom_site_fract_y
_atom_site_fract_z
Si Si1 0.236242 0.610855 0.008767
Si Si2 0.107678 0.608307 0.842217
Si Si3 0.604899 0.240699 0.483541
Si Si4 0.893761 0.646554 0.367908
Si Si5 0.105529 0.611681 0.168996
Si Si6 0.301130 0.105165 0.340008
Si Si7 0.860629 0.101448 0.599261
O O1 0.258768 0.500000 0.014524
O O2 0.172494 0.636216 0.924462
O O3 0.334818 0.665183 0.000000
O O4 0.179492 0.647366 0.095442
O O5 0.121711 0.500000 0.814962
O O6 0.138923 0.670938 0.758341
O O7 0.000000 0.628136 0.870249
O O8 0.664717 0.335284 0.500000
O O9 0.500000 0.269411 0.450228
O O10 0.588402 0.180500 0.573699
O O11 0.657434 0.177620 0.410581
O O12 0.860323 0.648206 0.265333
O O13 0.890295 0.749307 0.409614
O O14 0.000000 0.603754 0.373857
O O15 0.103388 0.500000 0.169225
O O16 0.000000 0.650091 0.147761
O O17 0.187544 0.099226 0.343454
O O18 0.342094 0.000000 0.358345
O O19 0.899941 0.100060 0.500000
O O20 0.888066 0.000000 0.643591
#
# Coordination Sequence:
#
# PCOD8309311 Si02
#       7
#     8   8   8   8   8   8   8
#     4  10  21  35  55  80 107 142 178 218 270 328
#     4   9  19  36  57  81 108 138 178 230 280 325
#     4  12  24  38  55  77 109 146 186 229 275 327
#     4  10  19  34  56  82 109 137 175 225 277 324
#     4   9  18  33  54  80 105 130 169 223 278 326
#     4  11  21  36  58  84 111 143 186 229 274 326
#     4  11  21  34  53  79 115 154 186 220 267 328
#
# _framework density 18.522766000000001
#
# number of rings (size 3 to 8) (size 9 to 14) (size 15 to 20)
#    0.000    1.714    2.857    2.143    2.000    5.286 
#    0.000    0.000    0.000    0.000    0.000    4.000 
#    0.000    2.571    0.000    0.000    0.000    0.000 
#
# Total GULP energy -694277.739318 kJ/mol
# GULP energy per Si atom -12397.816774 kJ/mol
# Density = 1.848061 g / cm^3
# Si number density = 18.522766 Si / 1000 Ang^3
#
#
#
# Elastic Constant Matrix: (Units=GPa)
#
#
# Indices 1 2 3 4 5 6 
#
# 1 94.8934 36.1609 48.7707 0.0000 0.0000 0.0000
# 2 36.1609 94.8952 48.7710 0.0000 0.0000 0.0000
# 3 48.7707 48.7710 112.6894 0.0000 0.0000 0.0000
# 4 0.0000 0.0000 0.0000 20.4712 0.0000 0.0000
# 5 0.0000 0.0000 0.0000 0.0000 20.4718 0.0000
# 6 0.0000 0.0000 0.0000 0.0000 0.0000 19.7006
#
#
#
# Elastic Compliance Matrix: (Units=1/GPa)
#
#
# Indices 1 2 3 4 5 6 
#
# 1 0.014141 -0.002885 -0.004872 0.000000 0.000000 0.000000
# 2 -0.002885 0.014141 -0.004872 0.000000 0.000000 0.000000
# 3 -0.004872 -0.004872 0.013091 0.000000 0.000000 0.000000
# 4 0.000000 0.000000 0.000000 0.048849 0.000000 0.000000
# 5 0.000000 0.000000 0.000000 0.000000 0.048848 0.000000
# 6 0.000000 0.000000 0.000000 0.000000 0.000000 0.050760
#
#
# Mechanical properties :
#
#
# Convention : Reuss Voigt Hill
#
# Bulk Modulus (GPa) = 62.04712 63.32035 62.68374
# Shear Modulus (GPa) = 22.68007 23.38043 23.03025
#
# Velocity S-wave (km/s) = 3.50300 3.55668 3.52994
# Velocity P-wave (km/s) = 7.06625 7.15024 7.10837
#
# Compressibility (1/GPa) = 0.01611678
#
# Stress axis : x y z
#
# Youngs Moduli (GPa) = 70.71499 70.71651 76.39023
#
# Poissons Ratio (x) = 0.20401 0.37214
# Poissons Ratio (y) = 0.20401 0.37214
# Poissons Ratio (z) = 0.34450 0.34450
#
# Static dielectric constant tensor:
#      x y z
#    x 3.434160 0.000000 0.000000 
#    y 0.000000 3.434170 0.000000 
#    z 0.000000 0.000000 3.550850 
# 
# 
# High freq. dielectric constant tensor:
#      x y z
#    x 1.712810 0.000000 0.000000 
#    y 0.000000 1.712810 0.000000 
#    z 0.000000 0.000000 1.712560 
# 
# From -- ./inp_files/3835.got.cif
#   From: 2010.03.12/outbox.cif.g09.slc.cpg/sg115_2_cif.got.tgz:3835.got - 2010.04.14 02:11:21.
