data_PCOD8309927
_publ_section_title
;
Structure prediction by ZEFSAII (Michael W. Deem and Ramdas Pophale) SiO2 
 PCOD8309927
Probable space group: P -4 M 2
;
_chemical_formula_sum "Si O2"
_cell_formula_units_Z 32
_cell_length_a 9.084159
_cell_length_b 9.084159
_cell_length_c 20.239390
_cell_angle_alpha 90.000000
_cell_angle_beta 90.000000
_cell_angle_gamma 90.000000
_cell_volume 1670.193823
_symmetry_space_group_name_H-M "P -4 M 2"
_symmetry_group_IT_number 115
_symmetry_cell_setting 'tetragonal'
loop_
_space_group_symop_operation_xyz
x,y,z
y,-x,-z
-x,-y,z
-y,x,-z
y,x,-z
-y,-x,-z
-x,y,z
x,-y,z
loop_
_atom_site_type_symbol
_atom_site_label
_atom_site_fract_x
_atom_site_fract_y
_atom_site_fract_z
Si Si1 0.172744 0.669179 0.558642
Si Si2 0.831953 0.173539 0.810575
Si Si3 0.668308 0.670441 0.923784
Si Si4 0.670601 0.328568 0.307601
O O1 0.229843 0.770158 0.500000
O O2 0.214386 0.500000 0.543583
O O3 0.247956 0.723159 0.626034
O O4 0.000000 0.691357 0.566551
O O5 0.777912 0.231752 0.881082
O O6 0.731175 0.237548 0.753248
O O7 0.000000 0.223326 0.799432
O O8 0.816056 0.000000 0.810188
O O9 0.500000 0.712570 0.907203
O O10 0.695164 0.500000 0.907115
O O11 0.703096 0.703096 0.000000
O O12 0.500000 0.296680 0.293334
O O13 0.703013 0.500000 0.316418
#
# Coordination Sequence:
#
# PCOD8309927 Si02
#       4
#     8   8   8   8
#     4  10  21  37  58  84 113 146 183 223 271 326
#     4  11  24  38  53  79 115 150 183 223 273 328
#     4   9  19  37  60  84 109 140 182 229 274 324
#     4  10  21  38  61  85 108 140 185 233 276 322
#
# _framework density 19.159452000000002
#
# number of rings (size 3 to 8) (size 9 to 14) (size 15 to 20)
#    0.000    2.000    0.000    3.750    0.000   10.500 
#    0.000    3.750    0.000    0.000    0.000    0.000 
#    0.000    0.000    0.000    0.000    0.000    0.000 
#
# Total GULP energy -396972.322277 kJ/mol
# GULP energy per Si atom -12405.385071 kJ/mol
# Density = 1.911584 g / cm^3
# Si number density = 19.159452 Si / 1000 Ang^3
#
#
#
# Elastic Constant Matrix: (Units=GPa)
#
#
# Indices 1 2 3 4 5 6 
#
# 1 82.1814 48.7320 54.7598 0.0000 0.0000 0.0000
# 2 48.7320 82.1805 54.7584 0.0000 0.0000 0.0000
# 3 54.7598 54.7584 122.3569 0.0000 0.0000 0.0000
# 4 0.0000 0.0000 0.0000 -10.0389 0.0000 0.0000
# 5 0.0000 0.0000 0.0000 0.0000 -10.0371 0.0000
# 6 0.0000 0.0000 0.0000 0.0000 0.0000 32.9166
#
#
#
# Elastic Compliance Matrix: (Units=1/GPa)
#
#
# Indices 1 2 3 4 5 6 
#
# 1 0.021053 -0.008843 -0.005465 0.000000 0.000000 0.000000
# 2 -0.008843 0.021053 -0.005464 0.000000 0.000000 0.000000
# 3 -0.005465 -0.005464 0.013064 0.000000 0.000000 0.000000
# 4 0.000000 0.000000 0.000000 -0.099613 0.000000 0.000000
# 5 0.000000 0.000000 0.000000 0.000000 -0.099630 0.000000
# 6 0.000000 0.000000 0.000000 0.000000 0.000000 0.030380
#
#
# Mechanical properties :
#
#
# Convention : Reuss Voigt Hill
#
# Bulk Modulus (GPa) = 63.99493 67.02438 65.50965
# Shear Modulus (GPa) = -72.52655 11.13271 -30.69692
#
# Velocity S-wave (km/s) = -6.15925 2.41312 -4.00707
# Velocity P-wave (km/s) = 4.13619 6.54390 3.58570
#
# Compressibility (1/GPa) = 0.01562624
#
# Stress axis : x y z
#
# Youngs Moduli (GPa) = 47.49862 47.49884 76.54696
#
# Poissons Ratio (x) = 0.42004 0.41830
# Poissons Ratio (y) = 0.42004 0.41827
# Poissons Ratio (z) = 0.25956 0.25955
#
# Static dielectric constant tensor:
#      x y z
#    x 3.509060 0.000000 0.000000 
#    y 0.000000 3.509060 0.000000 
#    z 0.000000 0.000000 3.587210 
# 
# 
# High freq. dielectric constant tensor:
#      x y z
#    x 1.746290 0.000000 0.000000 
#    y 0.000000 1.746290 0.000000 
#    z 0.000000 0.000000 1.758570 
# 
# From -- ./inp_files/4574.got.cif
#   From: 2010.03.12/outbox.cif.g09.slc.cpg/sg115_3_cif.got.tgz:4574.got - 2010.04.14 02:11:21.
