data_PCOD8309455
_publ_section_title
;
Structure prediction by ZEFSAII (Michael W. Deem and Ramdas Pophale) SiO2 
 PCOD8309455
Probable space group: P -4 M 2
;
_chemical_formula_sum "Si O2"
_cell_formula_units_Z 56
_cell_length_a 15.350084
_cell_length_b 15.350084
_cell_length_c 13.201729
_cell_angle_alpha 90.000000
_cell_angle_beta 90.000000
_cell_angle_gamma 90.000000
_cell_volume 3110.658436
_symmetry_space_group_name_H-M "P -4 M 2"
_symmetry_group_IT_number 115
_symmetry_cell_setting 'tetragonal'
loop_
_space_group_symop_operation_xyz
x,y,z
y,-x,-z
-x,-y,z
-y,x,-z
y,x,-z
-y,-x,-z
-x,y,z
x,-y,z
loop_
_atom_site_type_symbol
_atom_site_label
_atom_site_fract_x
_atom_site_fract_y
_atom_site_fract_z
Si Si1 0.601890 0.097480 0.028344
Si Si2 0.675836 0.399474 0.399513
Si Si3 0.902984 0.903613 0.381018
Si Si4 0.405698 0.899418 0.805280
Si Si5 0.807032 0.733330 0.308996
Si Si6 0.753347 0.705284 0.893471
Si Si7 0.597445 0.400419 0.817505
O O1 0.500000 0.093668 0.048016
O O2 0.621912 0.137416 0.915780
O O3 0.641571 0.000000 0.041159
O O4 0.642733 0.162435 0.110454
O O5 0.620662 0.379339 0.500000
O O6 0.711682 0.500000 0.406629
O O7 0.749224 0.323922 0.386895
O O8 0.614111 0.389687 0.302290
O O9 0.908769 0.908769 0.500000
O O10 0.839640 0.823586 0.355662
O O11 0.000000 0.885870 0.336359
O O12 0.870180 0.000000 0.341806
O O13 0.500000 0.858100 0.772777
O O14 0.333251 0.884073 0.720457
O O15 0.420159 0.000000 0.822239
O O16 0.763636 0.762626 0.205010
O O17 0.662276 0.654542 0.886404
O O18 0.757193 0.757193 0.000000
O O19 0.500000 0.373135 0.849842
O O20 0.615931 0.500000 0.841520
#
# Coordination Sequence:
#
# PCOD8309455 Si02
#       7
#     8   8   8   8   8   8   8
#     4   9  18  33  51  68  91 132 181 218 255 307
#     4  10  20  33  51  74 103 141 181 223 271 322
#     4   9  19  37  60  83 105 132 168 211 267 335
#     4   9  17  30  49  72  99 133 173 218 264 310
#     4  11  20  32  52  78 109 134 175 218 269 322
#     4  11  21  32  46  72 103 137 168 213 265 308
#     4   9  19  33  48  69  96 132 179 223 264 313
#
# _framework density 18.002618999999999
#
# number of rings (size 3 to 8) (size 9 to 14) (size 15 to 20)
#    0.000    2.286    1.429    3.429    0.000    3.000 
#    0.000    0.714    0.000    0.000    0.000    1.000 
#    0.000    4.571    0.000    0.000    0.000    0.000 
#
# Total GULP energy -693794.673067 kJ/mol
# GULP energy per Si atom -12389.190590 kJ/mol
# Density = 1.796164 g / cm^3
# Si number density = 18.002619 Si / 1000 Ang^3
#
#
#
# Elastic Constant Matrix: (Units=GPa)
#
#
# Indices 1 2 3 4 5 6 
#
# 1 91.1867 44.1082 24.0360 0.0000 0.0000 0.0000
# 2 44.1082 91.1865 24.0359 0.0000 0.0000 0.0000
# 3 24.0360 24.0359 57.6067 0.0000 0.0000 0.0000
# 4 0.0000 0.0000 0.0000 21.9802 0.0000 0.0000
# 5 0.0000 0.0000 0.0000 0.0000 21.9801 0.0000
# 6 0.0000 0.0000 0.0000 0.0000 0.0000 30.7419
#
#
#
# Elastic Compliance Matrix: (Units=1/GPa)
#
#
# Indices 1 2 3 4 5 6 
#
# 1 0.014959 -0.006282 -0.003621 0.000000 0.000000 0.000000
# 2 -0.006282 0.014959 -0.003621 0.000000 0.000000 0.000000
# 3 -0.003621 -0.003621 0.020381 0.000000 0.000000 0.000000
# 4 0.000000 0.000000 0.000000 0.045496 0.000000 0.000000
# 5 0.000000 0.000000 0.000000 0.000000 0.045496 0.000000
# 6 0.000000 0.000000 0.000000 0.000000 0.000000 0.032529
#
#
# Mechanical properties :
#
#
# Convention : Reuss Voigt Hill
#
# Bulk Modulus (GPa) = 43.00492 47.14889 45.07690
# Shear Modulus (GPa) = 23.96737 24.79375 24.38056
#
# Velocity S-wave (km/s) = 3.65269 3.71513 3.68404
# Velocity P-wave (km/s) = 6.45984 6.68205 6.57189
#
# Compressibility (1/GPa) = 0.02325315
#
# Stress axis : x y z
#
# Youngs Moduli (GPa) = 66.84739 66.84732 49.06642
#
# Poissons Ratio (x) = 0.41991 0.17766
# Poissons Ratio (y) = 0.41992 0.17765
# Poissons Ratio (z) = 0.24204 0.24203
#
# Static dielectric constant tensor:
#      x y z
#    x 3.394330 0.000000 0.000000 
#    y 0.000000 3.394330 0.000000 
#    z 0.000000 0.000000 3.177700 
# 
# 
# High freq. dielectric constant tensor:
#      x y z
#    x 1.696990 0.000000 0.000000 
#    y 0.000000 1.696990 0.000000 
#    z 0.000000 0.000000 1.679470 
# 
# From -- ./inp_files/3051.got.cif
#   From: 2010.03.12/outbox.cif.g09.slc.cpg/sg115_2_cif.got.tgz:3051.got - 2010.04.14 02:11:21.
