data_PCOD8309099
_publ_section_title
;
Structure prediction by ZEFSAII (Michael W. Deem and Ramdas Pophale) SiO2 
 PCOD8309099
Probable space group: P -4 21 C
;
_chemical_formula_sum "Si O2"
_cell_formula_units_Z 34
_cell_length_a 11.005319
_cell_length_b 11.005319
_cell_length_c 11.796187
_cell_angle_alpha 90.000000
_cell_angle_beta 90.000000
_cell_angle_gamma 90.000000
_cell_volume 1428.719327
_symmetry_space_group_name_H-M "P -4 21 C"
_symmetry_group_IT_number 114
_symmetry_cell_setting 'tetragonal'
loop_
_space_group_symop_operation_xyz
x,y,z
y,-x,-z
-x,-y,z
-y,x,-z
1/2+x,1/2-y,1/2-z
1/2-x,1/2+y,1/2-z
1/2-y,1/2-x,1/2+z
1/2+y,1/2+x,1/2+z
loop_
_atom_site_type_symbol
_atom_site_label
_atom_site_fract_x
_atom_site_fract_y
_atom_site_fract_z
Si Si1 0.000000 0.000000 0.000000
Si Si2 0.189256 0.987725 0.343199
Si Si3 0.153283 0.837233 0.855431
Si Si4 0.249961 0.073732 0.590810
Si Si5 0.616414 0.071486 0.776324
O O1 0.114295 0.040849 0.073303
O O2 0.079915 0.889854 0.361805
O O3 0.288291 0.921962 0.261971
O O4 0.155568 0.110855 0.276753
O O5 0.246552 0.026423 0.462842
O O6 0.188919 0.705499 0.901237
O O7 0.269719 0.928101 0.863923
O O8 0.337928 0.982398 0.657459
O O9 0.500000 0.000000 0.825758
#
# Coordination Sequence:
#
# PCOD8309099 Si02
#       5
#     2   8   8   8   8
#     4  12  28  44  72 106 152 192 252 316 380 450
#     4  11  25  46  74 105 147 193 251 316 377 464
#     4  11  26  45  71 108 145 196 246 318 380 455
#     4  11  25  46  72 105 144 198 253 309 389 454
#     4  11  24  45  71 101 144 192 243 310 371 454
#
# _framework density 23.797535
#
# number of rings (size 3 to 8) (size 9 to 14) (size 15 to 20)
#    0.000    0.941    2.353    2.824    3.294   10.824 
#    0.000    0.000    0.000    0.000    0.000    0.000 
#    0.000    0.000    0.000    0.000    0.000    0.000 
#
# Total GULP energy -421443.715046 kJ/mol
# GULP energy per Si atom -12395.403384 kJ/mol
# Density = 2.374337 g / cm^3
# Si number density = 23.797535 Si / 1000 Ang^3
#
#
#
# Elastic Constant Matrix: (Units=GPa)
#
#
# Indices 1 2 3 4 5 6 
#
# 1 113.7769 51.5722 51.1207 0.0000 0.0000 0.0000
# 2 51.5722 113.7769 51.1207 0.0000 0.0000 0.0000
# 3 51.1207 51.1207 94.1571 0.0000 0.0000 0.0000
# 4 0.0000 0.0000 0.0000 30.2285 0.0000 0.0000
# 5 0.0000 0.0000 0.0000 0.0000 30.2285 0.0000
# 6 0.0000 0.0000 0.0000 0.0000 0.0000 46.9397
#
#
#
# Elastic Compliance Matrix: (Units=1/GPa)
#
#
# Indices 1 2 3 4 5 6 
#
# 1 0.012590 -0.003486 -0.004943 0.000000 0.000000 0.000000
# 2 -0.003486 0.012590 -0.004943 0.000000 0.000000 0.000000
# 3 -0.004943 -0.004943 0.015988 0.000000 0.000000 0.000000
# 4 0.000000 0.000000 0.000000 0.033081 0.000000 0.000000
# 5 0.000000 0.000000 0.000000 0.000000 0.033081 0.000000
# 6 0.000000 0.000000 0.000000 0.000000 0.000000 0.021304
#
#
# Mechanical properties :
#
#
# Convention : Reuss Voigt Hill
#
# Bulk Modulus (GPa) = 69.32634 69.92645 69.62640
# Shear Modulus (GPa) = 31.21364 32.67251 31.94308
#
# Velocity S-wave (km/s) = 3.62558 3.70934 3.66770
# Velocity P-wave (km/s) = 6.83530 6.91327 6.87440
#
# Compressibility (1/GPa) = 0.01442453
#
# Stress axis : x y z
#
# Youngs Moduli (GPa) = 79.42761 79.42761 62.54728
#
# Poissons Ratio (x) = 0.27687 0.30917
# Poissons Ratio (y) = 0.27687 0.30917
# Poissons Ratio (z) = 0.39261 0.39261
#
# Static dielectric constant tensor:
#      x y z
#    x 4.557710 0.000000 0.000000 
#    y 0.000000 4.557710 0.000000 
#    z 0.000000 0.000000 3.917130 
# 
# 
# High freq. dielectric constant tensor:
#      x y z
#    x 1.959980 0.000000 0.000000 
#    y 0.000000 1.959980 0.000000 
#    z 0.000000 0.000000 1.918970 
# 
# From -- ./inp_files/1437.got.cif
#   From: 2010.03.12/outbox.cif.g09.slc.cpg/sg114_1_cif.got.tgz:1437.got - 2010.04.14 02:08:34.
