data_PCOD8309942
_publ_section_title
;
Structure prediction by ZEFSAII (Michael W. Deem and Ramdas Pophale) SiO2 
 PCOD8309942
Probable space group: P -4 M 2
;
_chemical_formula_sum "Si O2"
_cell_formula_units_Z 56
_cell_length_a 15.049587
_cell_length_b 15.049587
_cell_length_c 11.747755
_cell_angle_alpha 90.000000
_cell_angle_beta 90.000000
_cell_angle_gamma 90.000000
_cell_volume 2660.749839
_symmetry_space_group_name_H-M "P -4 M 2"
_symmetry_group_IT_number 115
_symmetry_cell_setting 'tetragonal'
loop_
_space_group_symop_operation_xyz
x,y,z
y,-x,-z
-x,-y,z
-y,x,-z
y,x,-z
-y,-x,-z
-x,y,z
x,-y,z
loop_
_atom_site_type_symbol
_atom_site_label
_atom_site_fract_x
_atom_site_fract_y
_atom_site_fract_z
Si Si1 0.721892 0.845906 0.961731
Si Si2 0.403664 0.751119 0.608402
Si Si3 0.772822 0.656775 0.631981
Si Si4 0.399443 0.900277 0.166728
Si Si5 0.899953 0.899396 0.162869
Si Si6 0.399405 0.098467 0.768688
Si Si7 0.899651 0.810932 0.597974
O O1 0.818741 0.886906 0.926746
O O2 0.655237 0.843436 0.857956
O O3 0.744533 0.744533 0.000000
O O4 0.675157 0.895268 0.068000
O O5 0.500000 0.714560 0.651519
O O6 0.410020 0.753288 0.471557
O O7 0.324822 0.693722 0.665694
O O8 0.392103 0.853383 0.647981
O O9 0.824180 0.613941 0.738338
O O10 0.832866 0.731420 0.573518
O O11 0.500000 0.888002 0.118106
O O12 0.389878 0.000000 0.219241
O O13 0.842707 0.878792 0.274406
O O14 0.000000 0.899682 0.205639
O O15 0.877879 0.000000 0.113096
O O16 0.500000 0.092331 0.812775
O O17 0.357660 0.000000 0.758446
O O18 0.884691 0.884691 0.500000
O O19 0.000000 0.777045 0.589803
#
# Coordination Sequence:
#
# PCOD8309942 Si02
#       7
#     8   8   8   8   8   8   8
#     4  12  24  38  59  83 119 162 208 257 310 368
#     4  10  21  39  62  88 121 158 200 252 315 381
#     4  11  22  40  60  91 125 161 205 257 316 382
#     4  11  24  42  66  95 127 166 211 263 324 389
#     4  10  22  37  52  76 113 161 216 264 306 357
#     4  10  21  37  59  87 116 150 199 257 312 364
#     4  11  21  35  56  85 125 171 217 261 313 381
#
# _framework density 21.046697999999999
#
# number of rings (size 3 to 8) (size 9 to 14) (size 15 to 20)
#    0.000    1.286    1.429    5.571    0.000    5.857 
#    0.000    2.143    0.000    7.286    0.000    0.000 
#    0.000    3.714    0.000    0.000    0.000    0.000 
#
# Total GULP energy -693759.882043 kJ/mol
# GULP energy per Si atom -12388.569322 kJ/mol
# Density = 2.099879 g / cm^3
# Si number density = 21.046698 Si / 1000 Ang^3
#
#
#
# Elastic Constant Matrix: (Units=GPa)
#
#
# Indices 1 2 3 4 5 6 
#
# 1 117.3258 53.6597 41.3290 0.0000 0.0000 0.0000
# 2 53.6597 117.3258 41.3290 0.0000 0.0000 0.0000
# 3 41.3290 41.3290 74.3201 0.0000 0.0000 0.0000
# 4 0.0000 0.0000 0.0000 30.9677 0.0000 0.0000
# 5 0.0000 0.0000 0.0000 0.0000 30.9677 0.0000
# 6 0.0000 0.0000 0.0000 0.0000 0.0000 26.1594
#
#
#
# Elastic Compliance Matrix: (Units=1/GPa)
#
#
# Indices 1 2 3 4 5 6 
#
# 1 0.011853 -0.003854 -0.004448 0.000000 0.000000 0.000000
# 2 -0.003854 0.011853 -0.004448 0.000000 0.000000 0.000000
# 3 -0.004448 -0.004448 0.018402 0.000000 0.000000 0.000000
# 4 0.000000 0.000000 0.000000 0.032292 0.000000 0.000000
# 5 0.000000 0.000000 0.000000 0.000000 0.032292 0.000000
# 6 0.000000 0.000000 0.000000 0.000000 0.000000 0.038227
#
#
# Mechanical properties :
#
#
# Convention : Reuss Voigt Hill
#
# Bulk Modulus (GPa) = 60.21326 64.62302 62.41814
# Shear Modulus (GPa) = 28.41636 29.12922 28.77279
#
# Velocity S-wave (km/s) = 3.67844 3.72429 3.70143
# Velocity P-wave (km/s) = 6.83467 7.01890 6.92740
#
# Compressibility (1/GPa) = 0.01660764
#
# Stress axis : x y z
#
# Youngs Moduli (GPa) = 84.36800 84.36800 54.34073
#
# Poissons Ratio (x) = 0.32516 0.24171
# Poissons Ratio (y) = 0.32516 0.24171
# Poissons Ratio (z) = 0.37527 0.37527
#
# Static dielectric constant tensor:
#      x y z
#    x 4.008890 0.000000 0.000000 
#    y 0.000000 4.008890 0.000000 
#    z 0.000000 0.000000 3.704940 
# 
# 
# High freq. dielectric constant tensor:
#      x y z
#    x 1.821200 0.000000 0.000000 
#    y 0.000000 1.821200 0.000000 
#    z 0.000000 0.000000 1.824180 
# 
# From -- ./inp_files/3068.got.cif
#   From: 2010.03.12/outbox.cif.g09.slc.cpg/sg115_2_cif.got.tgz:3068.got - 2010.04.14 02:11:21.
