data_PCOD8309864
_publ_section_title
;
Structure prediction by ZEFSAII (Michael W. Deem and Ramdas Pophale) SiO2 
 PCOD8309864
Probable space group: P -4 M 2
;
_chemical_formula_sum "Si O2"
_cell_formula_units_Z 44
_cell_length_a 9.312822
_cell_length_b 9.312822
_cell_length_c 28.185821
_cell_angle_alpha 90.000000
_cell_angle_beta 90.000000
_cell_angle_gamma 90.000000
_cell_volume 2444.518306
_symmetry_space_group_name_H-M "P -4 M 2"
_symmetry_group_IT_number 115
_symmetry_cell_setting 'tetragonal'
loop_
_space_group_symop_operation_xyz
x,y,z
y,-x,-z
-x,-y,z
-y,x,-z
y,x,-z
-y,-x,-z
-x,y,z
x,-y,z
loop_
_atom_site_type_symbol
_atom_site_label
_atom_site_fract_x
_atom_site_fract_y
_atom_site_fract_z
Si Si1 0.337485 0.668824 0.287479
Si Si2 0.832858 0.165449 0.634920
Si Si3 0.166209 0.668841 0.540291
Si Si4 0.832955 0.832955 0.000000
Si Si5 0.661162 0.332153 0.820406
Si Si6 0.829328 0.836174 0.898165
O O1 0.500000 0.719176 0.299363
O O2 0.323920 0.500000 0.295856
O O3 0.223325 0.748366 0.319977
O O4 0.298916 0.708363 0.233396
O O5 0.787498 0.257045 0.589220
O O6 0.000000 0.183496 0.645783
O O7 0.791525 0.000000 0.625876
O O8 0.266511 0.733490 0.500000
O O9 0.194794 0.500000 0.544686
O O10 0.000000 0.702116 0.528344
O O11 0.770678 0.774550 0.050474
O O12 0.000000 0.801944 0.003425
O O13 0.500000 0.275281 0.829222
O O14 0.668474 0.500000 0.830260
O O15 0.768843 0.255449 0.855508
O O16 0.000000 0.827969 0.896584
O O17 0.777667 0.000000 0.892006
#
# Coordination Sequence:
#
# PCOD8309864 Si02
#       6
#     8   8   8   4   8   8
#     4   9  19  36  55  73  97 133 173 209 247 295
#     4  10  21  36  55  80 108 136 167 207 254 300
#     4  10  21  37  57  80 106 138 174 209 248 295
#     4   7  12  26  46  67  94 126 158 197 246 295
#     4   9  19  35  51  69  98 134 168 203 247 298
#     4   9  17  30  50  74  97 124 162 206 249 296
#
# _framework density 17.999455000000001
#
# number of rings (size 3 to 8) (size 9 to 14) (size 15 to 20)
#    0.000    2.818    0.000    3.273    0.000    5.455 
#    0.000    6.364    0.000    4.364    0.000    0.000 
#    0.000    0.000    0.000    0.000    0.000    0.000 
#
# Total GULP energy -545373.724202 kJ/mol
# GULP energy per Si atom -12394.857368 kJ/mol
# Density = 1.795849 g / cm^3
# Si number density = 17.999455 Si / 1000 Ang^3
#
#
#
# Elastic Constant Matrix: (Units=GPa)
#
#
# Indices 1 2 3 4 5 6 
#
# 1 62.1420 36.1731 62.1206 0.0000 0.0000 0.0000
# 2 36.1731 62.1420 62.1216 0.0000 0.0000 0.0000
# 3 62.1206 62.1216 144.7392 0.0000 0.0000 0.0000
# 4 0.0000 0.0000 0.0000 4569.7578 0.0000 0.0000
# 5 0.0000 0.0000 0.0000 0.0000 4531.9813 0.0000
# 6 0.0000 0.0000 0.0000 0.0000 0.0000 31.0336
#
#
#
# Elastic Compliance Matrix: (Units=1/GPa)
#
#
# Indices 1 2 3 4 5 6 
#
# 1 0.030367 -0.008141 -0.009539 0.000000 0.000000 0.000000
# 2 -0.008141 0.030367 -0.009540 0.000000 0.000000 0.000000
# 3 -0.009539 -0.009540 0.015098 0.000000 0.000000 0.000000
# 4 0.000000 0.000000 0.000000 0.000219 0.000000 0.000000
# 5 0.000000 0.000000 0.000000 0.000000 0.000221 0.000000
# 6 0.000000 0.000000 0.000000 0.000000 0.000000 0.032223
#
#
# Mechanical properties :
#
#
# Convention : Reuss Voigt Hill
#
# Bulk Modulus (GPa) = 46.74487 65.53931 56.14209
# Shear Modulus (GPa) = 29.40063 1833.79507 931.59785
#
# Velocity S-wave (km/s) = 4.04594 31.95337 22.77485
# Velocity P-wave (km/s) = 6.91757 37.38780 26.88587
#
# Compressibility (1/GPa) = 0.02139272
#
# Stress axis : x y z
#
# Youngs Moduli (GPa) = 32.93073 32.93000 66.23584
#
# Poissons Ratio (x) = 0.26807 0.63184
# Poissons Ratio (y) = 0.26807 0.63188
# Poissons Ratio (z) = 0.31413 0.31414
#
# Static dielectric constant tensor:
#      x y z
#    x 2.830690 0.000000 0.000000 
#    y 0.000000 2.827700 0.000000 
#    z 0.000000 0.000000 3.545850 
# 
# 
# High freq. dielectric constant tensor:
#      x y z
#    x 1.683070 0.000000 0.000000 
#    y 0.000000 1.683070 0.000000 
#    z 0.000000 0.000000 1.714350 
# 
# From -- ./inp_files/5754.got.cif
#   From: 2010.03.12/outbox.cif.g09.slc.cpg/sg115_3_cif.got.tgz:5754.got - 2010.04.14 02:11:21.
