data_PCOD8309745
_publ_section_title
;
Structure prediction by ZEFSAII (Michael W. Deem and Ramdas Pophale) SiO2 
 PCOD8309745
Probable space group: P -4 M 2
;
_chemical_formula_sum "Si O2"
_cell_formula_units_Z 40
_cell_length_a 9.150214
_cell_length_b 9.150214
_cell_length_c 25.904481
_cell_angle_alpha 90.000000
_cell_angle_beta 90.000000
_cell_angle_gamma 90.000000
_cell_volume 2168.889359
_symmetry_space_group_name_H-M "P -4 M 2"
_symmetry_group_IT_number 115
_symmetry_cell_setting 'tetragonal'
loop_
_space_group_symop_operation_xyz
x,y,z
y,-x,-z
-x,-y,z
-y,x,-z
y,x,-z
-y,-x,-z
-x,y,z
x,-y,z
loop_
_atom_site_type_symbol
_atom_site_label
_atom_site_fract_x
_atom_site_fract_y
_atom_site_fract_z
Si Si1 0.169727 0.830274 0.000000
Si Si2 0.331491 0.329174 0.798010
Si Si3 0.174003 0.832429 0.888798
Si Si4 0.169212 0.171542 0.408169
Si Si5 0.169460 0.332371 0.304396
Si Si6 0.329171 0.329171 0.500000
O O1 0.231509 0.770621 0.054971
O O2 0.000000 0.798207 0.003178
O O3 0.500000 0.288437 0.806994
O O4 0.305142 0.500000 0.793791
O O5 0.240315 0.269108 0.845445
O O6 0.275022 0.258196 0.744929
O O7 0.000000 0.824133 0.886215
O O8 0.225268 0.000000 0.880657
O O9 0.215043 0.232869 0.352525
O O10 0.270074 0.247928 0.449927
O O11 0.000000 0.207485 0.420280
O O12 0.198974 0.000000 0.409233
O O13 0.208894 0.500000 0.317658
O O14 0.000000 0.314364 0.291066
O O15 0.296426 0.500000 0.494241
#
# Coordination Sequence:
#
# PCOD8309745 Si02
#       6
#     4   8   8   8   8   4
#     4   7  12  26  48  73  98 124 160 209 260 305
#     4  10  21  35  50  72 105 141 173 208 253 305
#     4   9  17  31  53  77  99 127 167 214 260 307
#     4  10  21  37  58  84 111 137 169 213 262 308
#     4   9  18  34  55  76 101 137 178 216 254 300
#     4  11  24  39  56  80 110 145 182 215 250 298
#
# _framework density 18.442620999999999
#
# number of rings (size 3 to 8) (size 9 to 14) (size 15 to 20)
#    0.000    2.600    0.000    3.000    0.000    6.400 
#    0.000    5.000    0.000    4.800    0.000    0.000 
#    0.000    0.000    0.000    0.000    0.000    0.000 
#
# Total GULP energy -495853.026305 kJ/mol
# GULP energy per Si atom -12396.325658 kJ/mol
# Density = 1.840064 g / cm^3
# Si number density = 18.442621 Si / 1000 Ang^3
#
#
#
# Elastic Constant Matrix: (Units=GPa)
#
#
# Indices 1 2 3 4 5 6 
#
# 1 62.8607 36.6107 63.7481 0.0000 0.0000 0.0000
# 2 36.6107 62.8611 63.7481 0.0000 0.0000 0.0000
# 3 63.7481 63.7481 172.3170 0.0000 0.0000 0.0000
# 4 0.0000 0.0000 0.0000 -292.5194 0.0000 0.0000
# 5 0.0000 0.0000 0.0000 0.0000 -292.3100 0.0000
# 6 0.0000 0.0000 0.0000 0.0000 0.0000 26.6864
#
#
#
# Elastic Compliance Matrix: (Units=1/GPa)
#
#
# Indices 1 2 3 4 5 6 
#
# 1 0.028607 -0.009488 -0.007073 0.000000 0.000000 0.000000
# 2 -0.009488 0.028607 -0.007073 0.000000 0.000000 0.000000
# 3 -0.007073 -0.007073 0.011036 0.000000 0.000000 0.000000
# 4 0.000000 0.000000 0.000000 -0.003419 0.000000 0.000000
# 5 0.000000 0.000000 0.000000 0.000000 -0.003421 0.000000
# 6 0.000000 0.000000 0.000000 0.000000 0.000000 0.037472
#
#
# Mechanical properties :
#
#
# Convention : Reuss Voigt Hill
#
# Bulk Modulus (GPa) = 47.65931 69.58362 58.62147
# Shear Modulus (GPa) = 32.64886 -102.69981 -35.02548
#
# Velocity S-wave (km/s) = 4.21205 -7.47041 -4.36266
# Velocity P-wave (km/s) = 7.03940 6.04960 2.54515
#
# Compressibility (1/GPa) = 0.02098226
#
# Stress axis : x y z
#
# Youngs Moduli (GPa) = 34.95653 34.95686 90.60887
#
# Poissons Ratio (x) = 0.33167 0.64087
# Poissons Ratio (y) = 0.33167 0.64086
# Poissons Ratio (z) = 0.24725 0.24724
#
# Static dielectric constant tensor:
#      x y z
#    x 3.302150 0.000000 0.000000 
#    y 0.000000 3.302170 0.000000 
#    z 0.000000 0.000000 3.724890 
# 
# 
# High freq. dielectric constant tensor:
#      x y z
#    x 1.700070 0.000000 0.000000 
#    y 0.000000 1.700070 0.000000 
#    z 0.000000 0.000000 1.737390 
# 
# From -- ./inp_files/5566.got.cif
#   From: 2010.03.12/outbox.cif.g09.slc.cpg/sg115_3_cif.got.tgz:5566.got - 2010.04.14 02:11:21.
