data_PCOD8309192
_publ_section_title
;
Structure prediction by ZEFSAII (Michael W. Deem and Ramdas Pophale) SiO2 
 PCOD8309192
Probable space group: P -4 M 2
;
_chemical_formula_sum "Si O2"
_cell_formula_units_Z 64
_cell_length_a 13.803656
_cell_length_b 13.803656
_cell_length_c 18.778998
_cell_angle_alpha 90.000000
_cell_angle_beta 90.000000
_cell_angle_gamma 90.000000
_cell_volume 3578.167536
_symmetry_space_group_name_H-M "P -4 M 2"
_symmetry_group_IT_number 115
_symmetry_cell_setting 'tetragonal'
loop_
_space_group_symop_operation_xyz
x,y,z
y,-x,-z
-x,-y,z
-y,x,-z
y,x,-z
-y,-x,-z
-x,y,z
x,-y,z
loop_
_atom_site_type_symbol
_atom_site_label
_atom_site_fract_x
_atom_site_fract_y
_atom_site_fract_z
Si Si1 0.237810 0.113867 0.556757
Si Si2 0.738335 0.888592 0.219674
Si Si3 0.231685 0.610682 0.509275
Si Si4 0.758249 0.112537 0.719845
Si Si5 0.605651 0.111706 0.098549
Si Si6 0.265234 0.112665 0.967472
Si Si7 0.390342 0.113919 0.833800
Si Si8 0.107719 0.390767 0.645390
O O1 0.166956 0.166956 0.500000
O O2 0.347543 0.146797 0.540977
O O3 0.223262 0.146971 0.638496
O O4 0.223687 0.000000 0.546685
O O5 0.841115 0.838014 0.228748
O O6 0.680757 0.840131 0.153924
O O7 0.677220 0.868065 0.289671
O O8 0.760505 0.000000 0.205020
O O9 0.332005 0.667996 0.500000
O O10 0.250661 0.500000 0.488738
O O11 0.192743 0.624316 0.588925
O O12 0.652738 0.137798 0.754442
O O13 0.777212 0.000000 0.723827
O O14 0.500000 0.161966 0.103624
O O15 0.595303 0.000000 0.120861
O O16 0.643402 0.122623 0.019179
O O17 0.311689 0.151068 0.892861
O O18 0.229922 0.000000 0.962732
O O19 0.177005 0.177005 0.000000
O O20 0.500000 0.158943 0.840162
O O21 0.399621 0.000000 0.845130
O O22 0.108597 0.500000 0.674170
O O23 0.000000 0.366843 0.613675
#
# Coordination Sequence:
#
# PCOD8309192 Si02
#       8
#     8   8   8   8   8   8   8   8
#     4  10  21  36  53  75 103 135 173 216 262 315
#     4  10  18  29  47  70 100 132 158 193 243 300
#     4  10  20  33  49  69  93 122 159 204 254 309
#     4  10  21  34  48  70 100 133 171 210 246 297
#     4   9  17  29  46  70  97 125 162 209 256 294
#     4  10  19  31  49  74 106 141 175 212 254 307
#     4   9  18  34  53  70  94 133 178 221 260 296
#     4   9  17  30  49  71  93 120 155 196 246 303
#
# _framework density 17.88625
#
# number of rings (size 3 to 8) (size 9 to 14) (size 15 to 20)
#    0.000    2.375    0.000    3.375    0.000    6.375 
#    0.000    2.500    0.000    4.500    0.000    0.000 
#    0.000   25.500    0.000    0.000    0.000    0.000 
#
# Total GULP energy -792924.765186 kJ/mol
# GULP energy per Si atom -12389.449456 kJ/mol
# Density = 1.784554 g / cm^3
# Si number density = 17.886250 Si / 1000 Ang^3
#
#
#
# Elastic Constant Matrix: (Units=GPa)
#
#
# Indices 1 2 3 4 5 6 
#
# 1 61.1478 40.7567 41.4935 0.0000 0.0000 0.0000
# 2 40.7567 61.1472 41.4935 0.0000 0.0000 0.0000
# 3 41.4935 41.4935 98.2755 0.0000 0.0000 0.0000
# 4 0.0000 0.0000 0.0000 21.0635 0.0000 0.0000
# 5 0.0000 0.0000 0.0000 0.0000 21.0635 0.0000
# 6 0.0000 0.0000 0.0000 0.0000 0.0000 21.6013
#
#
#
# Elastic Compliance Matrix: (Units=1/GPa)
#
#
# Indices 1 2 3 4 5 6 
#
# 1 0.031998 -0.017043 -0.006314 0.000000 0.000000 0.000000
# 2 -0.017043 0.031999 -0.006314 0.000000 0.000000 0.000000
# 3 -0.006314 -0.006314 0.015508 0.000000 0.000000 0.000000
# 4 0.000000 0.000000 0.000000 0.047475 0.000000 0.000000
# 5 0.000000 0.000000 0.000000 0.000000 0.047476 0.000000
# 6 0.000000 0.000000 0.000000 0.000000 0.000000 0.046294
#
#
# Mechanical properties :
#
#
# Convention : Reuss Voigt Hill
#
# Bulk Modulus (GPa) = 49.60150 52.00645 50.80397
# Shear Modulus (GPa) = 17.43291 19.20075 18.31683
#
# Velocity S-wave (km/s) = 3.12533 3.27997 3.20359
# Velocity P-wave (km/s) = 6.38870 6.59421 6.49227
#
# Compressibility (1/GPa) = 0.02016068
#
# Stress axis : x y z
#
# Youngs Moduli (GPa) = 31.25153 31.25111 64.48467
#
# Poissons Ratio (x) = 0.53262 0.40718
# Poissons Ratio (y) = 0.53263 0.40719
# Poissons Ratio (z) = 0.19733 0.19733
#
# Static dielectric constant tensor:
#      x y z
#    x 3.263180 0.000000 0.000000 
#    y 0.000000 3.263180 0.000000 
#    z 0.000000 0.000000 3.527200 
# 
# 
# High freq. dielectric constant tensor:
#      x y z
#    x 1.674230 0.000000 0.000000 
#    y 0.000000 1.674230 0.000000 
#    z 0.000000 0.000000 1.705290 
# 
# From -- ./inp_files/4474.got.cif
#   From: 2010.03.12/outbox.cif.g09.slc.cpg/sg115_3_cif.got.tgz:4474.got - 2010.04.14 02:11:21.
