data_PCOD8309354
_publ_section_title
;
Structure prediction by ZEFSAII (Michael W. Deem and Ramdas Pophale) SiO2 
 PCOD8309354
Probable space group: P -4 M 2
;
_chemical_formula_sum "Si O2"
_cell_formula_units_Z 29
_cell_length_a 11.857922
_cell_length_b 11.857922
_cell_length_c 12.057569
_cell_angle_alpha 90.000000
_cell_angle_beta 90.000000
_cell_angle_gamma 90.000000
_cell_volume 1695.418565
_symmetry_space_group_name_H-M "P -4 M 2"
_symmetry_group_IT_number 115
_symmetry_cell_setting 'tetragonal'
loop_
_space_group_symop_operation_xyz
x,y,z
y,-x,-z
-x,-y,z
-y,x,-z
y,x,-z
-y,-x,-z
-x,y,z
x,-y,z
loop_
_atom_site_type_symbol
_atom_site_label
_atom_site_fract_x
_atom_site_fract_y
_atom_site_fract_z
Si Si1 0.500000 0.500000 0.000000
Si Si2 0.334325 0.500000 0.184839
Si Si3 0.631594 0.631594 0.500000
Si Si4 0.738003 0.625723 0.723381
Si Si5 0.500000 0.126855 0.944476
Si Si6 0.723638 0.868856 0.080346
O O1 0.500000 0.617897 0.938130
O O2 0.382664 0.608379 0.243613
O O3 0.199121 0.500000 0.168706
O O4 0.649165 0.500000 0.463756
O O5 0.724459 0.662507 0.594868
O O6 0.792170 0.500000 0.733593
O O7 0.807560 0.715211 0.798780
O O8 0.500000 0.000000 0.901116
O O9 0.393020 0.153797 0.019560
O O10 0.748797 0.000000 0.101593
O O11 0.820976 0.820976 0.000000
#
# Coordination Sequence:
#
# PCOD8309354 Si02
#       6
#     1   4   4   8   4   8
#     4  12  20  20  40  78 104 124 172 212 250 324
#     4  12  18  28  46  74 104 140 171 211 263 320
#     4   9  18  30  46  76 112 143 178 212 260 317
#     4  11  19  31  50  77 110 142 174 217 263 319
#     4  10  20  32  47  72 105 134 166 211 262 318
#     4  11  22  35  53  77 106 141 178 217 266 319
#
# _framework density 17.104921000000001
#
# number of rings (size 3 to 8) (size 9 to 14) (size 15 to 20)
#    0.000    1.241    6.897    1.655    0.000    0.276 
#    0.000    0.000    0.000    3.310    0.000    0.000 
#    0.000    0.000    0.000    0.000    0.000    0.000 
#
# Total GULP energy -359333.567780 kJ/mol
# GULP energy per Si atom -12390.812682 kJ/mol
# Density = 1.706599 g / cm^3
# Si number density = 17.104921 Si / 1000 Ang^3
#
#
#
# Elastic Constant Matrix: (Units=GPa)
#
#
# Indices 1 2 3 4 5 6 
#
# 1 79.9151 17.2257 35.5853 0.0000 0.0000 0.0000
# 2 17.2257 79.9151 35.5853 0.0000 0.0000 0.0000
# 3 35.5853 35.5853 97.2137 0.0000 0.0000 0.0000
# 4 0.0000 0.0000 0.0000 17.4601 0.0000 0.0000
# 5 0.0000 0.0000 0.0000 0.0000 17.4601 0.0000
# 6 0.0000 0.0000 0.0000 0.0000 0.0000 14.6678
#
#
#
# Elastic Compliance Matrix: (Units=1/GPa)
#
#
# Indices 1 2 3 4 5 6 
#
# 1 0.015009 -0.000942 -0.005149 0.000000 0.000000 0.000000
# 2 -0.000942 0.015009 -0.005149 0.000000 0.000000 0.000000
# 3 -0.005149 -0.005149 0.014056 0.000000 0.000000 0.000000
# 4 0.000000 0.000000 0.000000 0.057274 0.000000 0.000000
# 5 0.000000 0.000000 0.000000 0.000000 0.057274 0.000000
# 6 0.000000 0.000000 0.000000 0.000000 0.000000 0.068176
#
#
# Mechanical properties :
#
#
# Convention : Reuss Voigt Hill
#
# Bulk Modulus (GPa) = 46.31059 48.20406 47.25732
# Shear Modulus (GPa) = 19.49486 21.16077 20.32782
#
# Velocity S-wave (km/s) = 3.37964 3.52108 3.45109
# Velocity P-wave (km/s) = 6.50865 6.69128 6.60060
#
# Compressibility (1/GPa) = 0.02159333
#
# Stress axis : x y z
#
# Youngs Moduli (GPa) = 66.62535 66.62535 71.14203
#
# Poissons Ratio (x) = 0.06279 0.36633
# Poissons Ratio (y) = 0.06279 0.36633
# Poissons Ratio (z) = 0.34307 0.34307
#
# Static dielectric constant tensor:
#      x y z
#    x 2.955890 0.000000 0.000000 
#    y 0.000000 2.955890 0.000000 
#    z 0.000000 0.000000 3.334880 
# 
# 
# High freq. dielectric constant tensor:
#      x y z
#    x 1.638060 0.000000 0.000000 
#    y 0.000000 1.638060 0.000000 
#    z 0.000000 0.000000 1.656170 
# 
# From -- ./inp_files/2466.got.cif
#   From: 2010.03.12/outbox.cif.g09.slc.cpg/sg115_2_cif.got.tgz:2466.got - 2010.04.14 02:11:21.
