data_PCOD8309951
_publ_section_title
;
Structure prediction by ZEFSAII (Michael W. Deem and Ramdas Pophale) SiO2 
 PCOD8309951
Probable space group: P -4 M 2
;
_chemical_formula_sum "Si O2"
_cell_formula_units_Z 40
_cell_length_a 8.998727
_cell_length_b 8.998727
_cell_length_c 25.355744
_cell_angle_alpha 90.000000
_cell_angle_beta 90.000000
_cell_angle_gamma 90.000000
_cell_volume 2053.234304
_symmetry_space_group_name_H-M "P -4 M 2"
_symmetry_group_IT_number 115
_symmetry_cell_setting 'tetragonal'
loop_
_space_group_symop_operation_xyz
x,y,z
y,-x,-z
-x,-y,z
-y,x,-z
y,x,-z
-y,-x,-z
-x,y,z
x,-y,z
loop_
_atom_site_type_symbol
_atom_site_label
_atom_site_fract_x
_atom_site_fract_y
_atom_site_fract_z
Si Si1 0.824872 0.168297 0.347258
Si Si2 0.174970 0.671025 0.855332
Si Si3 0.330457 0.327188 0.560510
Si Si4 0.172541 0.673639 0.048598
Si Si5 0.328369 0.328054 0.747603
O O1 0.767100 0.219756 0.403965
O O2 0.764375 0.275022 0.302122
O O3 0.000000 0.179764 0.347499
O O4 0.771225 0.000000 0.336858
O O5 0.217988 0.500000 0.867333
O O6 0.246717 0.777118 0.898337
O O7 0.235952 0.721177 0.798719
O O8 0.000000 0.694388 0.855968
O O9 0.291912 0.291912 0.500000
O O10 0.500000 0.281674 0.572979
O O11 0.307331 0.500000 0.572868
O O12 0.203835 0.500000 0.054486
O O13 0.000000 0.707210 0.038308
O O14 0.265911 0.734090 0.000000
O O15 0.500000 0.293282 0.758668
O O16 0.301654 0.500000 0.734600
#
# Coordination Sequence:
#
# PCOD8309951 Si02
#       5
#     8   8   8   8   8
#     4  11  24  38  53  79 115 151 186 227 277 331
#     4  10  21  38  61  88 116 147 185 229 279 335
#     4   9  19  37  60  84 109 140 182 230 278 331
#     4  11  24  40  59  85 116 151 191 233 279 331
#     4  10  21  38  61  86 111 144 188 234 279 330
#
# _framework density 19.481458
#
# number of rings (size 3 to 8) (size 9 to 14) (size 15 to 20)
#    0.000    1.800    0.000    4.200    0.000   12.400 
#    0.000    3.000    0.000    0.000    0.000    0.000 
#    0.000    0.000    0.000    0.000    0.000    0.000 
#
# Total GULP energy -496227.626649 kJ/mol
# GULP energy per Si atom -12405.690666 kJ/mol
# Density = 1.943712 g / cm^3
# Si number density = 19.481458 Si / 1000 Ang^3
#
#
#
# Elastic Constant Matrix: (Units=GPa)
#
#
# Indices 1 2 3 4 5 6 
#
# 1 77.0709 47.0167 46.2770 0.0000 0.0000 0.0000
# 2 47.0167 77.0738 46.2788 0.0000 0.0000 0.0000
# 3 46.2770 46.2788 113.9666 0.0000 0.0000 0.0000
# 4 0.0000 0.0000 0.0000 201.8493 0.0000 0.0000
# 5 0.0000 0.0000 0.0000 0.0000 201.9070 0.0000
# 6 0.0000 0.0000 0.0000 0.0000 0.0000 32.9119
#
#
#
# Elastic Compliance Matrix: (Units=1/GPa)
#
#
# Indices 1 2 3 4 5 6 
#
# 1 0.022416 -0.010856 -0.004694 0.000000 0.000000 0.000000
# 2 -0.010856 0.022415 -0.004694 0.000000 0.000000 0.000000
# 3 -0.004694 -0.004694 0.012587 0.000000 0.000000 0.000000
# 4 0.000000 0.000000 0.000000 0.004954 0.000000 0.000000
# 5 0.000000 0.000000 0.000000 0.000000 0.004953 0.000000
# 6 0.000000 0.000000 0.000000 0.000000 0.000000 0.030384
#
#
# Mechanical properties :
#
#
# Convention : Reuss Voigt Hill
#
# Bulk Modulus (GPa) = 59.06586 60.80626 59.93606
# Shear Modulus (GPa) = 34.76066 95.90291 65.33178
#
# Velocity S-wave (km/s) = 4.22867 7.02386 5.79726
# Velocity P-wave (km/s) = 7.36390 9.85189 8.69732
#
# Compressibility (1/GPa) = 0.01693026
#
# Stress axis : x y z
#
# Youngs Moduli (GPa) = 44.61095 44.61200 79.44869
#
# Poissons Ratio (x) = 0.48430 0.37293
# Poissons Ratio (y) = 0.48429 0.37295
# Poissons Ratio (z) = 0.20940 0.20942
#
# Static dielectric constant tensor:
#      x y z
#    x 3.604790 0.000000 0.000000 
#    y 0.000000 3.604790 0.000000 
#    z 0.000000 0.000000 3.805020 
# 
# 
# High freq. dielectric constant tensor:
#      x y z
#    x 1.762600 0.000000 0.000000 
#    y 0.000000 1.762600 0.000000 
#    z 0.000000 0.000000 1.772700 
# 
# From -- ./inp_files/5057.got.cif
#   From: 2010.03.12/outbox.cif.g09.slc.cpg/sg115_3_cif.got.tgz:5057.got - 2010.04.14 02:11:21.
