data_PCOD8309664
_publ_section_title
;
Structure prediction by ZEFSAII (Michael W. Deem and Ramdas Pophale) SiO2 
 PCOD8309664
Probable space group: P -4 M 2
;
_chemical_formula_sum "Si O2"
_cell_formula_units_Z 64
_cell_length_a 19.131120
_cell_length_b 19.131120
_cell_length_c 9.739482
_cell_angle_alpha 90.000000
_cell_angle_beta 90.000000
_cell_angle_gamma 90.000000
_cell_volume 3564.648001
_symmetry_space_group_name_H-M "P -4 M 2"
_symmetry_group_IT_number 115
_symmetry_cell_setting 'tetragonal'
loop_
_space_group_symop_operation_xyz
x,y,z
y,-x,-z
-x,-y,z
-y,x,-z
y,x,-z
-y,-x,-z
-x,y,z
x,-y,z
loop_
_atom_site_type_symbol
_atom_site_label
_atom_site_fract_x
_atom_site_fract_y
_atom_site_fract_z
Si Si1 0.419252 0.689617 0.333019
Si Si2 0.417561 0.812572 0.139472
Si Si3 0.416932 0.826242 0.828111
Si Si4 0.917797 0.923244 0.149764
Si Si5 0.420646 0.304428 0.644625
Si Si6 0.172228 0.082931 0.605365
Si Si7 0.918931 0.580706 0.636130
Si Si8 0.082240 0.333540 0.372548
O O1 0.500000 0.670505 0.306244
O O2 0.390225 0.744906 0.221984
O O3 0.374347 0.620182 0.316082
O O4 0.409127 0.720131 0.487082
O O5 0.500000 0.808237 0.132847
O O6 0.394016 0.880635 0.225381
O O7 0.389395 0.816677 0.984160
O O8 0.500000 0.843158 0.820611
O O9 0.396854 0.757252 0.744284
O O10 0.371642 0.888155 0.762221
O O11 0.894700 0.862818 0.252045
O O12 0.000000 0.933440 0.153120
O O13 0.884168 0.000000 0.184212
O O14 0.895570 0.895570 0.000000
O O15 0.500000 0.324717 0.672324
O O16 0.130001 0.130001 0.500000
O O17 0.253006 0.105800 0.613057
O O18 0.163851 0.000000 0.572073
O O19 0.901323 0.500000 0.602237
O O20 0.891898 0.625816 0.507974
O O21 0.000000 0.592684 0.664184
O O22 0.000000 0.338387 0.356574
#
# Coordination Sequence:
#
# PCOD8309664 Si02
#       8
#     8   8   8   8   8   8   8   8
#     4   9  17  31  51  76 106 138 173 214 261 310
#     4   9  18  32  52  77 102 133 172 217 262 307
#     4  10  20  35  54  75 102 134 174 218 258 310
#     4   8  14  27  51  79 101 128 169 209 246 294
#     4   9  18  32  52  77 103 136 175 216 261 308
#     4  10  20  35  54  78 107 136 171 214 256 304
#     4   9  17  32  54  77 101 131 170 214 259 308
#     4  10  21  36  53  76 106 136 170 215 265 312
#
# _framework density 17.954086
#
# number of rings (size 3 to 8) (size 9 to 14) (size 15 to 20)
#    0.000    2.750    0.000    1.875    0.000    4.625 
#    4.500    3.750    0.000    4.500    0.000    3.500 
#    0.000    0.000    0.000    0.000    0.000    0.000 
#
# Total GULP energy -793323.439710 kJ/mol
# GULP energy per Si atom -12395.678745 kJ/mol
# Density = 1.791322 g / cm^3
# Si number density = 17.954086 Si / 1000 Ang^3
#
#
#
# Elastic Constant Matrix: (Units=GPa)
#
#
# Indices 1 2 3 4 5 6 
#
# 1 77.2879 37.9322 56.4592 0.0000 0.0000 0.0000
# 2 37.9322 77.2879 56.4592 0.0000 0.0000 0.0000
# 3 56.4592 56.4592 150.4544 0.0000 0.0000 0.0000
# 4 0.0000 0.0000 0.0000 20.6852 0.0000 0.0000
# 5 0.0000 0.0000 0.0000 0.0000 20.6852 0.0000
# 6 0.0000 0.0000 0.0000 0.0000 0.0000 21.2728
#
#
#
# Elastic Compliance Matrix: (Units=1/GPa)
#
#
# Indices 1 2 3 4 5 6 
#
# 1 0.019568 -0.005841 -0.005151 0.000000 0.000000 0.000000
# 2 -0.005841 0.019568 -0.005151 0.000000 0.000000 0.000000
# 3 -0.005151 -0.005151 0.010513 0.000000 0.000000 0.000000
# 4 0.000000 0.000000 0.000000 0.048344 0.000000 0.000000
# 5 0.000000 0.000000 0.000000 0.000000 0.048344 0.000000
# 6 0.000000 0.000000 0.000000 0.000000 0.000000 0.047008
#
#
# Mechanical properties :
#
#
# Convention : Reuss Voigt Hill
#
# Bulk Modulus (GPa) = 57.59614 67.41460 62.50537
# Shear Modulus (GPa) = 21.60574 22.80727 22.20650
#
# Velocity S-wave (km/s) = 3.47275 3.56801 3.52070
# Velocity P-wave (km/s) = 6.94473 7.38946 7.17054
#
# Compressibility (1/GPa) = 0.01736228
#
# Stress axis : x y z
#
# Youngs Moduli (GPa) = 51.10281 51.10281 95.12303
#
# Poissons Ratio (x) = 0.29849 0.49001
# Poissons Ratio (y) = 0.29849 0.49001
# Poissons Ratio (z) = 0.26325 0.26325
#
# Static dielectric constant tensor:
#      x y z
#    x 3.190150 0.000000 0.000000 
#    y 0.000000 3.190150 0.000000 
#    z 0.000000 0.000000 -11.091220 
# 
# 
# High freq. dielectric constant tensor:
#      x y z
#    x 1.680440 0.000000 0.000000 
#    y 0.000000 1.680440 0.000000 
#    z 0.000000 0.000000 1.700680 
# 
# From -- ./inp_files/2139.got.cif
#   From: 2010.03.12/outbox.cif.g09.slc.cpg/sg115_2_cif.got.tgz:2139.got - 2010.04.14 02:11:21.
