data_PCOD8309574
_publ_section_title
;
Structure prediction by ZEFSAII (Michael W. Deem and Ramdas Pophale) SiO2 
 PCOD8309574
Probable space group: P -4 M 2
;
_chemical_formula_sum "Si O2"
_cell_formula_units_Z 40
_cell_length_a 8.090716
_cell_length_b 8.090716
_cell_length_c 28.903260
_cell_angle_alpha 90.000000
_cell_angle_beta 90.000000
_cell_angle_gamma 90.000000
_cell_volume 1891.998306
_symmetry_space_group_name_H-M "P -4 M 2"
_symmetry_group_IT_number 115
_symmetry_cell_setting 'tetragonal'
loop_
_space_group_symop_operation_xyz
x,y,z
y,-x,-z
-x,-y,z
-y,x,-z
y,x,-z
-y,-x,-z
-x,y,z
x,-y,z
loop_
_atom_site_type_symbol
_atom_site_label
_atom_site_fract_x
_atom_site_fract_y
_atom_site_fract_z
Si Si1 0.680249 0.308416 0.765560
Si Si2 0.302605 0.000000 0.286518
Si Si3 0.310920 0.184347 0.953767
Si Si4 0.187572 0.192488 0.857909
Si Si5 0.305900 0.683888 0.447123
Si Si6 0.303014 0.000000 0.392144
O O1 0.500000 0.233302 0.750963
O O2 0.677800 0.500000 0.753701
O O3 0.700352 0.284531 0.820509
O O4 0.834256 0.227296 0.737639
O O5 0.500000 0.000000 0.281932
O O6 0.243851 0.000000 0.339337
O O7 0.500000 0.181089 0.939331
O O8 0.216487 0.263498 0.909702
O O9 0.243497 0.000000 0.963934
O O10 0.290299 0.290299 0.000000
O O11 0.000000 0.224865 0.843396
O O12 0.234754 0.000000 0.857874
O O13 0.268059 0.731942 0.500000
O O14 0.500000 0.672483 0.438870
O O15 0.230806 0.500000 0.435388
O O16 0.231067 0.831887 0.415675
O O17 0.500000 0.000000 0.396706
#
# Coordination Sequence:
#
# PCOD8309574 Si02
#       6
#     8   4   8   8   8   4
#     4  10  20  34  53  77 107 143 180 225 280 333
#     4   9  18  32  47  73 111 141 181 233 273 328
#     4  10  21  36  53  75 103 133 168 212 263 322
#     4  10  20  35  57  81 102 133 179 226 273 327
#     4   8  14  25  42  69 103 135 176 227 271 322
#     4   9  16  26  46  74 104 144 183 221 277 331
#
# _framework density 21.141670000000001
#
# number of rings (size 3 to 8) (size 9 to 14) (size 15 to 20)
#    0.000    2.600    1.000    1.800    0.000    4.000 
#    0.000    4.000    0.000    0.300    5.200    0.000 
#    0.000    0.000    0.000    0.000    0.000    0.000 
#
# Total GULP energy -495736.549612 kJ/mol
# GULP energy per Si atom -12393.413740 kJ/mol
# Density = 2.109355 g / cm^3
# Si number density = 21.141670 Si / 1000 Ang^3
#
#
#
# Elastic Constant Matrix: (Units=GPa)
#
#
# Indices 1 2 3 4 5 6 
#
# 1 87.0849 21.8208 46.8369 0.0000 0.0000 0.0000
# 2 21.8208 87.0847 46.8368 0.0000 0.0000 0.0000
# 3 46.8369 46.8368 145.6035 0.0000 0.0000 0.0000
# 4 0.0000 0.0000 0.0000 22.8408 0.0000 0.0000
# 5 0.0000 0.0000 0.0000 0.0000 22.8408 0.0000
# 6 0.0000 0.0000 0.0000 0.0000 0.0000 12.5481
#
#
#
# Elastic Compliance Matrix: (Units=1/GPa)
#
#
# Indices 1 2 3 4 5 6 
#
# 1 0.014009 -0.001314 -0.004084 0.000000 0.000000 0.000000
# 2 -0.001314 0.014009 -0.004084 0.000000 0.000000 0.000000
# 3 -0.004084 -0.004084 0.009495 0.000000 0.000000 0.000000
# 4 0.000000 0.000000 0.000000 0.043781 0.000000 0.000000
# 5 0.000000 0.000000 0.000000 0.000000 0.043781 0.000000
# 6 0.000000 0.000000 0.000000 0.000000 0.000000 0.079693
#
#
# Mechanical properties :
#
#
# Convention : Reuss Voigt Hill
#
# Bulk Modulus (GPa) = 53.90757 61.19578 57.55167
# Shear Modulus (GPa) = 21.74735 25.26454 23.50594
#
# Velocity S-wave (km/s) = 3.21073 3.46064 3.33803
# Velocity P-wave (km/s) = 6.26887 6.70645 6.49135
#
# Compressibility (1/GPa) = 0.01855027
#
# Stress axis : x y z
#
# Youngs Moduli (GPa) = 71.38520 71.38507 105.31740
#
# Poissons Ratio (x) = 0.09379 0.43007
# Poissons Ratio (y) = 0.09379 0.43007
# Poissons Ratio (z) = 0.29150 0.29150
#
# Static dielectric constant tensor:
#      x y z
#    x 3.801910 0.000000 0.000000 
#    y 0.000000 3.801920 0.000000 
#    z 0.000000 0.000000 3.735590 
# 
# 
# High freq. dielectric constant tensor:
#      x y z
#    x 1.806960 0.000000 0.000000 
#    y 0.000000 1.806960 0.000000 
#    z 0.000000 0.000000 1.822710 
# 
# From -- ./inp_files/5495.got.cif
#   From: 2010.03.12/outbox.cif.g09.slc.cpg/sg115_3_cif.got.tgz:5495.got - 2010.04.14 02:11:21.
