data_PCOD8309127
_publ_section_title
;
Structure prediction by ZEFSAII (Michael W. Deem and Ramdas Pophale) SiO2 
 PCOD8309127
Probable space group: P -4 21 C
;
_chemical_formula_sum "Si O2"
_cell_formula_units_Z 48
_cell_length_a 8.624935
_cell_length_b 8.624935
_cell_length_c 28.942969
_cell_angle_alpha 90.000000
_cell_angle_beta 90.000000
_cell_angle_gamma 90.000000
_cell_volume 2153.053101
_symmetry_space_group_name_H-M "P -4 21 C"
_symmetry_group_IT_number 114
_symmetry_cell_setting 'tetragonal'
loop_
_space_group_symop_operation_xyz
x,y,z
y,-x,-z
-x,-y,z
-y,x,-z
1/2+x,1/2-y,1/2-z
1/2-x,1/2+y,1/2-z
1/2-y,1/2-x,1/2+z
1/2+y,1/2+x,1/2+z
loop_
_atom_site_type_symbol
_atom_site_label
_atom_site_fract_x
_atom_site_fract_y
_atom_site_fract_z
Si Si1 0.168732 0.563433 0.867164
Si Si2 0.740949 0.349211 0.141047
Si Si3 0.111043 0.773633 0.054350
Si Si4 0.764893 0.660238 0.199124
Si Si5 0.932046 0.160685 0.210044
Si Si6 0.728579 0.385078 0.449371
O O1 0.308504 0.440034 0.863624
O O2 0.196460 0.698325 0.829955
O O3 0.178053 0.631769 0.918648
O O4 0.000000 0.500000 0.855665
O O5 0.822021 0.351742 0.090524
O O6 0.770458 0.511095 0.166157
O O7 0.813588 0.212218 0.171055
O O8 0.927786 0.791905 0.062205
O O9 0.200707 0.934808 0.061977
O O10 0.139836 0.717525 0.002091
O O11 0.654782 0.626747 0.242199
O O12 0.935518 0.707946 0.216872
O O13 0.000000 0.000000 0.191884
#
# Coordination Sequence:
#
# PCOD8309127 Si02
#       6
#     8   8   8   8   8   8
#     4  12  23  41  67  99 138 185 230 282 353 429
#     4  12  25  43  69 104 145 180 233 294 361 428
#     4   9  19  40  68 101 139 182 235 295 335 408
#     4  12  27  47  69 102 136 181 230 301 363 426
#     4  12  26  46  71  99 135 183 236 285 356 432
#     4   9  19  39  68 102 137 182 242 283 338 410
#
# _framework density 22.293924000000001
#
# number of rings (size 3 to 8) (size 9 to 14) (size 15 to 20)
#    0.000    1.000    1.667    7.000    2.333    1.333 
#    3.000    1.667    0.000    0.000    0.000    0.000 
#    0.000    0.000    0.000    0.000    0.000    0.000 
#
# Total GULP energy -595446.796704 kJ/mol
# GULP energy per Si atom -12405.141598 kJ/mol
# Density = 2.224318 g / cm^3
# Si number density = 22.293924 Si / 1000 Ang^3
#
#
#
# Elastic Constant Matrix: (Units=GPa)
#
#
# Indices 1 2 3 4 5 6 
#
# 1 87.0740 25.0308 37.4194 0.0000 0.0000 0.0000
# 2 25.0308 87.0740 37.4194 0.0000 0.0000 0.0000
# 3 37.4194 37.4194 127.4095 0.0000 0.0000 0.0000
# 4 0.0000 0.0000 0.0000 44.5758 0.0000 0.0000
# 5 0.0000 0.0000 0.0000 0.0000 44.5758 0.0000
# 6 0.0000 0.0000 0.0000 0.0000 0.0000 32.2433
#
#
#
# Elastic Compliance Matrix: (Units=1/GPa)
#
#
# Indices 1 2 3 4 5 6 
#
# 1 0.013607 -0.002511 -0.003259 0.000000 0.000000 0.000000
# 2 -0.002511 0.013607 -0.003259 0.000000 0.000000 0.000000
# 3 -0.003259 -0.003259 0.009763 0.000000 0.000000 0.000000
# 4 0.000000 0.000000 0.000000 0.022434 0.000000 0.000000
# 5 0.000000 0.000000 0.000000 0.000000 0.022434 0.000000
# 6 0.000000 0.000000 0.000000 0.000000 0.000000 0.031014
#
#
# Mechanical properties :
#
#
# Convention : Reuss Voigt Hill
#
# Bulk Modulus (GPa) = 52.85612 55.69963 54.27787
# Shear Modulus (GPa) = 36.43744 37.72483 37.08114
#
# Velocity S-wave (km/s) = 4.04717 4.11805 4.08276
# Velocity P-wave (km/s) = 6.75275 6.90286 6.82822
#
# Compressibility (1/GPa) = 0.01891929
#
# Stress axis : x y z
#
# Youngs Moduli (GPa) = 73.49292 73.49292 102.42909
#
# Poissons Ratio (x) = 0.18455 0.33379
# Poissons Ratio (y) = 0.18455 0.33379
# Poissons Ratio (z) = 0.23949 0.23949
#
# Static dielectric constant tensor:
#      x y z
#    x 3.974860 0.000000 0.000000 
#    y 0.000000 3.974860 0.000000 
#    z 0.000000 0.000000 4.119920 
# 
# 
# High freq. dielectric constant tensor:
#      x y z
#    x 1.875830 0.000000 0.000000 
#    y 0.000000 1.875830 0.000000 
#    z 0.000000 0.000000 1.890210 
# 
# From -- ./inp_files/3989.got.cif
#   From: 2010.03.12/outbox.cif.g09.slc.cpg/sg114_2_cif.got.tgz:3989.got - 2010.04.14 02:08:34.
