data_PCOD8309134
_publ_section_title
;
Structure prediction by ZEFSAII (Michael W. Deem and Ramdas Pophale) SiO2 
 PCOD8309134
Probable space group: P -4 21 C
;
_chemical_formula_sum "Si O2"
_cell_formula_units_Z 44
_cell_length_a 7.830152
_cell_length_b 7.830152
_cell_length_c 27.975365
_cell_angle_alpha 90.000000
_cell_angle_beta 90.000000
_cell_angle_gamma 90.000000
_cell_volume 1715.205446
_symmetry_space_group_name_H-M "P -4 21 C"
_symmetry_group_IT_number 114
_symmetry_cell_setting 'tetragonal'
loop_
_space_group_symop_operation_xyz
x,y,z
y,-x,-z
-x,-y,z
-y,x,-z
1/2+x,1/2-y,1/2-z
1/2-x,1/2+y,1/2-z
1/2-y,1/2-x,1/2+z
1/2+y,1/2+x,1/2+z
loop_
_atom_site_type_symbol
_atom_site_label
_atom_site_fract_x
_atom_site_fract_y
_atom_site_fract_z
Si Si1 0.059873 0.803719 0.854807
Si Si2 0.500000 0.000000 0.408573
Si Si3 0.000000 0.000000 0.000000
Si Si4 0.246334 0.759029 0.446733
Si Si5 0.500000 0.500000 0.817581
Si Si6 0.211442 0.697817 0.158847
Si Si7 0.000000 0.000000 0.500000
Si Si8 0.386523 0.167491 0.231956
O O1 0.180229 0.714395 0.894126
O O2 0.148486 0.778467 0.802932
O O3 0.877985 0.703025 0.855478
O O4 0.000000 0.000000 0.861770
O O5 0.353956 0.933639 0.443406
O O6 0.548089 0.838678 0.374674
O O7 0.892092 0.145720 0.972410
O O8 0.071034 0.832097 0.470636
O O9 0.538854 0.660914 0.851876
O O10 0.334409 0.511536 0.784215
O O11 0.166734 0.696972 0.214279
O O12 0.500000 0.000000 0.227626
#
# Coordination Sequence:
#
# PCOD8309134 Si02
#       8
#     8   4   2   8   4   8   2   8
#     4  12  26  49  78 114 158 213 281 336 405 501
#     4  12  24  46  78 118 164 210 272 338 408 502
#     4  12  24  56  86 120 154 212 276 336 438 560
#     4  12  27  53  86 124 161 209 270 351 439 536
#     4  12  28  43  67 102 154 219 294 345 403 457
#     4  12  26  45  73 112 163 226 277 335 397 482
#     4  12  32  58  88 128 170 200 268 368 476 538
#     4  12  27  47  69 112 167 227 287 339 402 477
#
# _framework density 25.652902000000001
#
# number of rings (size 3 to 8) (size 9 to 14) (size 15 to 20)
#    0.000    0.000    5.455    3.273    5.091    2.909 
#    3.273    0.000    0.000    0.000    0.000    0.000 
#    0.000    0.000    0.000    0.000    0.000    0.000 
#
# Total GULP energy -545176.490076 kJ/mol
# GULP energy per Si atom -12390.374774 kJ/mol
# Density = 2.559451 g / cm^3
# Si number density = 25.652902 Si / 1000 Ang^3
#
#
#
# Elastic Constant Matrix: (Units=GPa)
#
#
# Indices 1 2 3 4 5 6 
#
# 1 124.4856 33.9505 27.0774 0.0000 0.0000 0.0000
# 2 33.9505 124.4856 27.0774 0.0000 0.0000 0.0000
# 3 27.0774 27.0774 74.3622 0.0000 0.0000 0.0000
# 4 0.0000 0.0000 0.0000 -1.3003 0.0000 0.0000
# 5 0.0000 0.0000 0.0000 0.0000 -1.3003 0.0000
# 6 0.0000 0.0000 0.0000 0.0000 0.0000 53.8747
#
#
#
# Elastic Compliance Matrix: (Units=1/GPa)
#
#
# Indices 1 2 3 4 5 6 
#
# 1 0.009127 -0.001918 -0.002625 0.000000 0.000000 0.000000
# 2 -0.001918 0.009127 -0.002625 0.000000 0.000000 0.000000
# 3 -0.002625 -0.002625 0.015359 0.000000 0.000000 0.000000
# 4 0.000000 0.000000 0.000000 -0.769036 0.000000 0.000000
# 5 0.000000 0.000000 0.000000 0.000000 -0.769036 0.000000
# 6 0.000000 0.000000 0.000000 0.000000 0.000000 0.018562
#
#
# Mechanical properties :
#
#
# Convention : Reuss Voigt Hill
#
# Bulk Modulus (GPa) = 51.87449 55.50491 53.68970
# Shear Modulus (GPa) = -3.41266 25.93667 11.26201
#
# Velocity S-wave (km/s) = -1.15465 3.18317 2.09754
# Velocity P-wave (km/s) = 4.29976 5.93245 5.18083
#
# Compressibility (1/GPa) = 0.01927730
#
# Stress axis : x y z
#
# Youngs Moduli (GPa) = 109.56274 109.56274 65.10685
#
# Poissons Ratio (x) = 0.21017 0.17090
# Poissons Ratio (y) = 0.21017 0.17090
# Poissons Ratio (z) = 0.28760 0.28760
#
# Static dielectric constant tensor:
#      x y z
#    x 8.531400 0.000000 0.000000 
#    y 0.000000 8.531400 0.000000 
#    z 0.000000 0.000000 4.515760 
# 
# 
# High freq. dielectric constant tensor:
#      x y z
#    x 2.039440 0.000000 0.000000 
#    y 0.000000 2.039440 0.000000 
#    z 0.000000 0.000000 2.013720 
# 
# From -- ./inp_files/3892.got.cif
#   From: 2010.03.12/outbox.cif.g09.slc.cpg/sg114_2_cif.got.tgz:3892.got - 2010.04.14 02:08:34.
