data_PCOD8309205
_publ_section_title
;
Structure prediction by ZEFSAII (Michael W. Deem and Ramdas Pophale) SiO2 
 PCOD8309205
Probable space group: P -4 M 2
;
_chemical_formula_sum "Si O2"
_cell_formula_units_Z 48
_cell_length_a 9.491907
_cell_length_b 9.491907
_cell_length_c 28.089014
_cell_angle_alpha 90.000000
_cell_angle_beta 90.000000
_cell_angle_gamma 90.000000
_cell_volume 2530.716190
_symmetry_space_group_name_H-M "P -4 M 2"
_symmetry_group_IT_number 115
_symmetry_cell_setting 'tetragonal'
loop_
_space_group_symop_operation_xyz
x,y,z
y,-x,-z
-x,-y,z
-y,x,-z
y,x,-z
-y,-x,-z
-x,y,z
x,-y,z
loop_
_atom_site_type_symbol
_atom_site_label
_atom_site_fract_x
_atom_site_fract_y
_atom_site_fract_z
Si Si1 0.500000 0.339723 0.219217
Si Si2 0.777369 0.668013 0.274198
Si Si3 0.838394 0.164394 0.633725
Si Si4 0.000000 0.171450 0.212161
Si Si5 0.662220 0.741896 0.950483
Si Si6 0.000000 0.340720 0.116578
Si Si7 0.668783 0.500000 0.884843
Si Si8 0.666582 0.836449 0.538536
O O1 0.500000 0.500000 0.203667
O O2 0.372228 0.303704 0.252471
O O3 0.500000 0.260830 0.168077
O O4 0.818471 0.500000 0.276761
O O5 0.771313 0.738376 0.325914
O O6 0.870184 0.760327 0.239124
O O7 0.756916 0.197945 0.585248
O O8 0.000000 0.225511 0.633043
O O9 0.847921 0.000000 0.643537
O O10 0.000000 0.224145 0.157783
O O11 0.000000 0.000000 0.214722
O O12 0.500000 0.710026 0.963863
O O13 0.683048 0.877890 0.920010
O O14 0.727355 0.629900 0.914392
O O15 0.747959 0.747959 0.000000
O O16 0.000000 0.500000 0.138903
O O17 0.500000 0.500000 0.882426
O O18 0.729501 0.729501 0.500000
O O19 0.500000 0.806075 0.546461
O O20 0.688819 0.000000 0.523377
#
# Coordination Sequence:
#
# PCOD8309205 Si02
#       8
#     4   8   8   4   8   4   4   8
#     4   9  20  36  55  89 121 151 189 247 306 361
#     4  11  21  37  63  89 122 160 203 253 305 362
#     4  10  20  36  60  91 122 161 208 256 305 361
#     4  12  24  40  60  86 120 158 210 252 299 362
#     4  10  18  32  56  83 106 137 184 236 289 351
#     4  10  22  38  56  80 108 148 190 240 295 360
#     4   9  16  28  54  80 108 134 180 232 285 340
#     4  10  21  38  61  89 122 159 205 255 308 364
#
# _framework density 18.966963
#
# number of rings (size 3 to 8) (size 9 to 14) (size 15 to 20)
#    0.000    1.833    1.667    3.250    0.000    4.333 
#    3.000    1.667    0.000    0.000    0.000    0.000 
#    0.000    0.000    0.000    0.000    0.000    0.000 
#
# Total GULP energy -594627.550376 kJ/mol
# GULP energy per Si atom -12388.073966 kJ/mol
# Density = 1.892379 g / cm^3
# Si number density = 18.966963 Si / 1000 Ang^3
#
#
#
# Elastic Constant Matrix: (Units=GPa)
#
#
# Indices 1 2 3 4 5 6 
#
# 1 124.9516 46.6487 66.4236 0.0000 0.0000 0.0000
# 2 46.6487 124.9516 66.4236 0.0000 0.0000 0.0000
# 3 66.4236 66.4236 154.9183 0.0000 0.0000 0.0000
# 4 0.0000 0.0000 0.0000 18.0151 0.0000 0.0000
# 5 0.0000 0.0000 0.0000 0.0000 18.0151 0.0000
# 6 0.0000 0.0000 0.0000 0.0000 0.0000 17.1353
#
#
#
# Elastic Compliance Matrix: (Units=1/GPa)
#
#
# Indices 1 2 3 4 5 6 
#
# 1 0.010747 -0.002024 -0.003740 0.000000 0.000000 0.000000
# 2 -0.002024 0.010747 -0.003740 0.000000 0.000000 0.000000
# 3 -0.003740 -0.003740 0.009662 0.000000 0.000000 0.000000
# 4 0.000000 0.000000 0.000000 0.055509 0.000000 0.000000
# 5 0.000000 0.000000 0.000000 0.000000 0.055509 0.000000
# 6 0.000000 0.000000 0.000000 0.000000 0.000000 0.058359
#
#
# Mechanical properties :
#
#
# Convention : Reuss Voigt Hill
#
# Bulk Modulus (GPa) = 82.31962 84.86816 83.59389
# Shear Modulus (GPa) = 22.36226 25.65480 24.00853
#
# Velocity S-wave (km/s) = 3.43740 3.68177 3.56168
# Velocity P-wave (km/s) = 7.69741 7.93198 7.81557
#
# Compressibility (1/GPa) = 0.01214777
#
# Stress axis : x y z
#
# Youngs Moduli (GPa) = 93.04977 93.04977 103.49531
#
# Poissons Ratio (x) = 0.18833 0.38708
# Poissons Ratio (y) = 0.18833 0.38708
# Poissons Ratio (z) = 0.34802 0.34802
#
# Static dielectric constant tensor:
#      x y z
#    x 3.423330 0.000000 0.000000 
#    y 0.000000 3.423330 0.000000 
#    z 0.000000 0.000000 3.666910 
# 
# 
# High freq. dielectric constant tensor:
#      x y z
#    x 1.724990 0.000000 0.000000 
#    y 0.000000 1.724990 0.000000 
#    z 0.000000 0.000000 1.757840 
# 
# From -- ./inp_files/6291.got.cif
#   From: 2010.03.12/outbox.cif.g09.slc.cpg/sg115_4_cif.got.tgz:6291.got - 2010.04.14 02:11:21.
