data_PCOD8309944
_publ_section_title
;
Structure prediction by ZEFSAII (Michael W. Deem and Ramdas Pophale) SiO2 
 PCOD8309944
Probable space group: P -4 M 2
;
_chemical_formula_sum "Si O2"
_cell_formula_units_Z 56
_cell_length_a 14.920561
_cell_length_b 14.920561
_cell_length_c 11.901485
_cell_angle_alpha 90.000000
_cell_angle_beta 90.000000
_cell_angle_gamma 90.000000
_cell_volume 2649.545968
_symmetry_space_group_name_H-M "P -4 M 2"
_symmetry_group_IT_number 115
_symmetry_cell_setting 'tetragonal'
loop_
_space_group_symop_operation_xyz
x,y,z
y,-x,-z
-x,-y,z
-y,x,-z
y,x,-z
-y,-x,-z
-x,y,z
x,-y,z
loop_
_atom_site_type_symbol
_atom_site_label
_atom_site_fract_x
_atom_site_fract_y
_atom_site_fract_z
Si Si1 0.901559 0.401299 0.486462
Si Si2 0.837319 0.722842 0.068946
Si Si3 0.663152 0.772457 0.698404
Si Si4 0.100711 0.098713 0.184960
Si Si5 0.603700 0.596525 0.622704
Si Si6 0.397379 0.898172 0.123787
Si Si7 0.270109 0.855987 0.318666
O O1 0.886617 0.500000 0.542997
O O2 0.831652 0.395331 0.385287
O O3 0.900032 0.322422 0.578401
O O4 0.000000 0.396102 0.431548
O O5 0.817203 0.666623 0.180111
O O6 0.883231 0.818857 0.099252
O O7 0.746661 0.746661 0.000000
O O8 0.897102 0.656283 0.994175
O O9 0.623980 0.672264 0.714457
O O10 0.759562 0.762694 0.641554
O O11 0.178672 0.094050 0.280525
O O12 0.000000 0.110846 0.237042
O O13 0.105465 0.000000 0.124597
O O14 0.634278 0.634278 0.500000
O O15 0.500000 0.577978 0.615724
O O16 0.650577 0.500000 0.651600
O O17 0.500000 0.861305 0.111606
O O18 0.339446 0.843397 0.214783
O O19 0.400522 0.000000 0.166482
#
# Coordination Sequence:
#
# PCOD8309944 Si02
#       7
#     8   8   8   8   8   8   8
#     4  11  24  41  64  94 129 173 218 263 320 386
#     4  11  23  43  60  89 128 167 214 270 326 391
#     4  11  23  38  61  89 124 163 205 261 320 380
#     4  10  21  37  64  98 129 167 215 268 326 390
#     4   9  18  34  58  88 119 152 196 252 311 374
#     4  11  23  40  64  91 121 166 221 274 327 387
#     4  11  22  40  62  92 132 167 214 266 322 385
#
# _framework density 21.135695999999999
#
# number of rings (size 3 to 8) (size 9 to 14) (size 15 to 20)
#    0.000    1.429    2.857    4.286    0.000    8.000 
#    0.000    2.143    0.000    0.857    0.000    9.000 
#    0.000    0.000    0.000    0.000    0.000    0.000 
#
# Total GULP energy -693735.564658 kJ/mol
# GULP energy per Si atom -12388.135083 kJ/mol
# Density = 2.108759 g / cm^3
# Si number density = 21.135696 Si / 1000 Ang^3
#
#
#
# Elastic Constant Matrix: (Units=GPa)
#
#
# Indices 1 2 3 4 5 6 
#
# 1 102.0718 31.1496 34.9249 0.0000 0.0000 0.0000
# 2 31.1496 102.0718 34.9249 0.0000 0.0000 0.0000
# 3 34.9249 34.9249 86.4570 0.0000 0.0000 0.0000
# 4 0.0000 0.0000 0.0000 11.8409 0.0000 0.0000
# 5 0.0000 0.0000 0.0000 0.0000 11.8409 0.0000
# 6 0.0000 0.0000 0.0000 0.0000 0.0000 27.4807
#
#
#
# Elastic Compliance Matrix: (Units=1/GPa)
#
#
# Indices 1 2 3 4 5 6 
#
# 1 0.011812 -0.002288 -0.003847 0.000000 0.000000 0.000000
# 2 -0.002288 0.011812 -0.003847 0.000000 0.000000 0.000000
# 3 -0.003847 -0.003847 0.014675 0.000000 0.000000 0.000000
# 4 0.000000 0.000000 0.000000 0.084453 0.000000 0.000000
# 5 0.000000 0.000000 0.000000 0.000000 0.084453 0.000000
# 6 0.000000 0.000000 0.000000 0.000000 0.000000 0.036389
#
#
# Mechanical properties :
#
#
# Convention : Reuss Voigt Hill
#
# Bulk Modulus (GPa) = 54.54610 54.73326 54.63968
# Shear Modulus (GPa) = 18.54131 22.87260 20.70696
#
# Velocity S-wave (km/s) = 2.96506 3.29322 3.13344
# Velocity P-wave (km/s) = 6.13072 6.35710 6.24493
#
# Compressibility (1/GPa) = 0.01833312
#
# Stress axis : x y z
#
# Youngs Moduli (GPa) = 84.66215 84.66215 68.14536
#
# Poissons Ratio (x) = 0.19373 0.26216
# Poissons Ratio (y) = 0.19373 0.26216
# Poissons Ratio (z) = 0.32570 0.32570
#
# Static dielectric constant tensor:
#      x y z
#    x 4.102590 0.000000 0.000000 
#    y 0.000000 4.102590 0.000000 
#    z 0.000000 0.000000 3.718620 
# 
# 
# High freq. dielectric constant tensor:
#      x y z
#    x 1.837160 0.000000 0.000000 
#    y 0.000000 1.837160 0.000000 
#    z 0.000000 0.000000 1.795870 
# 
# From -- ./inp_files/3088.got.cif
#   From: 2010.03.12/outbox.cif.g09.slc.cpg/sg115_2_cif.got.tgz:3088.got - 2010.04.14 02:11:21.
