data_PCOD8309561
_publ_section_title
;
Structure prediction by ZEFSAII (Michael W. Deem and Ramdas Pophale) SiO2 
 PCOD8309561
Probable space group: P -4 M 2
;
_chemical_formula_sum "Si O2"
_cell_formula_units_Z 48
_cell_length_a 9.208767
_cell_length_b 9.208767
_cell_length_c 31.235010
_cell_angle_alpha 90.000000
_cell_angle_beta 90.000000
_cell_angle_gamma 90.000000
_cell_volume 2648.772254
_symmetry_space_group_name_H-M "P -4 M 2"
_symmetry_group_IT_number 115
_symmetry_cell_setting 'tetragonal'
loop_
_space_group_symop_operation_xyz
x,y,z
y,-x,-z
-x,-y,z
-y,x,-z
y,x,-z
-y,-x,-z
-x,y,z
x,-y,z
loop_
_atom_site_type_symbol
_atom_site_label
_atom_site_fract_x
_atom_site_fract_y
_atom_site_fract_z
Si Si1 0.830133 0.331240 0.294637
Si Si2 0.173152 0.838205 0.046507
Si Si3 0.163689 0.827649 0.622158
Si Si4 0.831073 0.329100 0.462322
Si Si5 0.663896 0.327171 0.211012
Si Si6 0.670605 0.832701 0.871416
O O1 0.797213 0.500000 0.303186
O O2 0.769646 0.241991 0.335147
O O3 0.746815 0.271065 0.253100
O O4 0.000000 0.305094 0.286914
O O5 0.231537 0.738387 0.084955
O O6 0.000000 0.841031 0.045955
O O7 0.234664 0.000000 0.053992
O O8 0.223959 0.776042 0.000000
O O9 0.254056 0.774896 0.581123
O O10 0.000000 0.765339 0.619746
O O11 0.162098 0.000000 0.623361
O O12 0.734330 0.265670 0.500000
O O13 0.805104 0.500000 0.458160
O O14 0.000000 0.293231 0.471096
O O15 0.500000 0.267896 0.211753
O O16 0.668432 0.500000 0.210258
O O17 0.743586 0.266275 0.168796
O O18 0.500000 0.813163 0.875468
O O19 0.714209 0.000000 0.864471
#
# Coordination Sequence:
#
# PCOD8309561 Si02
#       6
#     8   8   8   8   8   8
#     4   9  16  28  48  71  92 117 154 196 231 268
#     4   8  14  26  44  64  86 113 144 178 219 267
#     4   9  17  30  50  75 100 126 158 197 240 284
#     4  10  20  34  53  77 104 134 168 205 245 289
#     4   9  17  29  45  65  90 120 151 183 224 273
#     4   9  16  27  45  67  87 110 146 188 222 257
#
# _framework density 18.121604000000001
#
# number of rings (size 3 to 8) (size 9 to 14) (size 15 to 20)
#    0.000    3.000    0.000    2.000    0.000    5.000 
#    0.000    2.500    0.000   10.000    0.000    0.000 
#    0.000    0.000    0.000    0.000    0.000    0.000 
#
# Total GULP energy -595085.862027 kJ/mol
# GULP energy per Si atom -12397.622126 kJ/mol
# Density = 1.808036 g / cm^3
# Si number density = 18.121604 Si / 1000 Ang^3
#
#
#
# Elastic Constant Matrix: (Units=GPa)
#
#
# Indices 1 2 3 4 5 6 
#
# 1 64.0168 31.7030 64.2090 0.0000 0.0000 0.0000
# 2 31.7030 64.0169 64.2091 0.0000 0.0000 0.0000
# 3 64.2090 64.2091 205.7101 0.0000 0.0000 0.0000
# 4 0.0000 0.0000 0.0000 19.8567 0.0000 0.0000
# 5 0.0000 0.0000 0.0000 0.0000 19.8567 0.0000
# 6 0.0000 0.0000 0.0000 0.0000 0.0000 12.9367
#
#
#
# Elastic Compliance Matrix: (Units=1/GPa)
#
#
# Indices 1 2 3 4 5 6 
#
# 1 0.024460 -0.006486 -0.005610 0.000000 0.000000 0.000000
# 2 -0.006486 0.024460 -0.005610 0.000000 0.000000 0.000000
# 3 -0.005610 -0.005610 0.008364 0.000000 0.000000 0.000000
# 4 0.000000 0.000000 0.000000 0.050361 0.000000 0.000000
# 5 0.000000 0.000000 0.000000 0.000000 0.050361 0.000000
# 6 0.000000 0.000000 0.000000 0.000000 0.000000 0.077300
#
#
# Mechanical properties :
#
#
# Convention : Reuss Voigt Hill
#
# Bulk Modulus (GPa) = 45.72420 72.66511 59.19466
# Shear Modulus (GPa) = 17.98502 22.10484 20.04493
#
# Velocity S-wave (km/s) = 3.15376 3.49636 3.32947
# Velocity P-wave (km/s) = 6.20872 7.51565 6.89323
#
# Compressibility (1/GPa) = 0.02187026
#
# Stress axis : x y z
#
# Youngs Moduli (GPa) = 40.88271 40.88281 119.56701
#
# Poissons Ratio (x) = 0.26518 0.67080
# Poissons Ratio (y) = 0.26518 0.67080
# Poissons Ratio (z) = 0.22936 0.22936
#
# Static dielectric constant tensor:
#      x y z
#    x 3.139750 0.000000 0.000000 
#    y 0.000000 3.139750 0.000000 
#    z 0.000000 0.000000 3.711410 
# 
# 
# High freq. dielectric constant tensor:
#      x y z
#    x 1.670640 0.000000 0.000000 
#    y 0.000000 1.670640 0.000000 
#    z 0.000000 0.000000 1.722170 
# 
# From -- ./inp_files/6094.got.cif
#   From: 2010.03.12/outbox.cif.g09.slc.cpg/sg115_4_cif.got.tgz:6094.got - 2010.04.14 02:11:21.
