data_PCOD8309691
_publ_section_title
;
Structure prediction by ZEFSAII (Michael W. Deem and Ramdas Pophale) SiO2 
 PCOD8309691
Probable space group: P -4 M 2
;
_chemical_formula_sum "Si O2"
_cell_formula_units_Z 48
_cell_length_a 8.230276
_cell_length_b 8.230276
_cell_length_c 33.489697
_cell_angle_alpha 90.000000
_cell_angle_beta 90.000000
_cell_angle_gamma 90.000000
_cell_volume 2268.506443
_symmetry_space_group_name_H-M "P -4 M 2"
_symmetry_group_IT_number 115
_symmetry_cell_setting 'tetragonal'
loop_
_space_group_symop_operation_xyz
x,y,z
y,-x,-z
-x,-y,z
-y,x,-z
y,x,-z
-y,-x,-z
-x,y,z
x,-y,z
loop_
_atom_site_type_symbol
_atom_site_label
_atom_site_fract_x
_atom_site_fract_y
_atom_site_fract_z
Si Si1 0.812623 0.000000 0.140912
Si Si2 0.692738 0.817394 0.261892
Si Si3 0.312764 0.312764 0.000000
Si Si4 0.190325 0.679052 0.182948
Si Si5 0.816793 0.818093 0.422464
Si Si6 0.682004 0.317997 0.500000
Si Si7 0.316005 0.000000 0.055190
Si Si8 0.688222 0.677435 0.343792
O O1 0.731764 0.833010 0.158666
O O2 0.799309 0.000000 0.093323
O O3 0.000000 0.000000 0.153407
O O4 0.500000 0.799723 0.259798
O O5 0.772749 0.698379 0.229764
O O6 0.761690 0.773385 0.305923
O O7 0.748371 0.000000 0.252055
O O8 0.282193 0.168980 0.031809
O O9 0.293931 0.500000 0.016902
O O10 0.259468 0.500000 0.169487
O O11 0.000000 0.677613 0.175229
O O12 0.795164 0.711309 0.461960
O O13 0.706427 0.770089 0.385353
O O14 0.000000 0.800132 0.407428
O O15 0.772336 0.000000 0.435298
O O16 0.500000 0.288840 0.484684
O O17 0.500000 0.000000 0.070345
O O18 0.500000 0.656897 0.335388
O O19 0.771305 0.500000 0.346969
#
# Coordination Sequence:
#
# PCOD8309691 Si02
#       8
#     4   8   4   8   8   4   4   8
#     4  10  22  38  56  86 122 158 202 256 300 361
#     4  10  20  35  58  85 113 150 196 244 296 353
#     4   9  20  39  60  90 130 163 206 267 318 376
#     4  10  21  38  58  82 117 159 201 248 305 363
#     4  11  24  40  58  83 113 144 182 226 274 333
#     4  11  24  41  62  86 110 141 178 219 274 336
#     4  10  22  38  62  92 122 164 210 251 315 380
#     4  10  21  37  57  83 113 145 187 236 285 342
#
# _framework density 21.159296000000001
#
# number of rings (size 3 to 8) (size 9 to 14) (size 15 to 20)
#    0.000    1.833    0.833    2.500    1.167    9.000 
#    0.000    0.000    0.000    0.000    0.000    0.000 
#    0.000    0.000    0.000    0.000    0.000    0.000 
#
# Total GULP energy -594929.189966 kJ/mol
# GULP energy per Si atom -12394.358124 kJ/mol
# Density = 2.111114 g / cm^3
# Si number density = 21.159296 Si / 1000 Ang^3
#
#
#
# Elastic Constant Matrix: (Units=GPa)
#
#
# Indices 1 2 3 4 5 6 
#
# 1 84.4251 40.3443 36.4593 0.0000 0.0000 0.0000
# 2 40.3443 84.4247 36.4591 0.0000 0.0000 0.0000
# 3 36.4593 36.4591 121.3101 0.0000 0.0000 0.0000
# 4 0.0000 0.0000 0.0000 30.9439 0.0000 0.0000
# 5 0.0000 0.0000 0.0000 0.0000 30.9440 0.0000
# 6 0.0000 0.0000 0.0000 0.0000 0.0000 21.6426
#
#
#
# Elastic Compliance Matrix: (Units=1/GPa)
#
#
# Indices 1 2 3 4 5 6 
#
# 1 0.016204 -0.006482 -0.002922 0.000000 0.000000 0.000000
# 2 -0.006482 0.016204 -0.002922 0.000000 0.000000 0.000000
# 3 -0.002922 -0.002922 0.010000 0.000000 0.000000 0.000000
# 4 0.000000 0.000000 0.000000 0.032317 0.000000 0.000000
# 5 0.000000 0.000000 0.000000 0.000000 0.032316 0.000000
# 6 0.000000 0.000000 0.000000 0.000000 0.000000 0.046205
#
#
# Mechanical properties :
#
#
# Convention : Reuss Voigt Hill
#
# Bulk Modulus (GPa) = 56.31717 57.40947 56.86332
# Shear Modulus (GPa) = 27.20106 28.49925 27.85015
#
# Velocity S-wave (km/s) = 3.58933 3.67398 3.63190
# Velocity P-wave (km/s) = 6.62203 6.72224 6.67232
#
# Compressibility (1/GPa) = 0.01775657
#
# Stress axis : x y z
#
# Youngs Moduli (GPa) = 61.71280 61.71257 100.00241
#
# Poissons Ratio (x) = 0.40000 0.29221
# Poissons Ratio (y) = 0.40000 0.29221
# Poissons Ratio (z) = 0.18033 0.18033
#
# Static dielectric constant tensor:
#      x y z
#    x 3.984360 0.000000 0.000000 
#    y 0.000000 3.984350 0.000000 
#    z 0.000000 0.000000 3.539770 
# 
# 
# High freq. dielectric constant tensor:
#      x y z
#    x 1.830190 0.000000 0.000000 
#    y 0.000000 1.830190 0.000000 
#    z 0.000000 0.000000 1.817600 
# 
# From -- ./inp_files/6328.got.cif
#   From: 2010.03.12/outbox.cif.g09.slc.cpg/sg115_4_cif.got.tgz:6328.got - 2010.04.14 02:11:21.
