data_PCOD8309279
_publ_section_title
;
Structure prediction by ZEFSAII (Michael W. Deem and Ramdas Pophale) SiO2 
 PCOD8309279
Probable space group: P -4 M 2
;
_chemical_formula_sum "Si O2"
_cell_formula_units_Z 25
_cell_length_a 8.228568
_cell_length_b 8.228568
_cell_length_c 18.566541
_cell_angle_alpha 90.000000
_cell_angle_beta 90.000000
_cell_angle_gamma 90.000000
_cell_volume 1257.128076
_symmetry_space_group_name_H-M "P -4 M 2"
_symmetry_group_IT_number 115
_symmetry_cell_setting 'tetragonal'
loop_
_space_group_symop_operation_xyz
x,y,z
y,-x,-z
-x,-y,z
-y,x,-z
y,x,-z
-y,-x,-z
-x,y,z
x,-y,z
loop_
_atom_site_type_symbol
_atom_site_label
_atom_site_fract_x
_atom_site_fract_y
_atom_site_fract_z
Si Si1 0.179380 0.693557 0.289434
Si Si2 0.500000 0.319717 0.362233
Si Si3 0.683747 0.684433 0.859382
Si Si4 0.182252 0.182252 0.000000
Si Si5 0.500000 0.500000 0.500000
O O1 0.180086 0.500000 0.296846
O O2 0.330549 0.766781 0.336926
O O3 0.204689 0.746961 0.206377
O O4 0.000000 0.759382 0.314047
O O5 0.500000 0.500000 0.326082
O O6 0.500000 0.338407 0.449558
O O7 0.500000 0.731515 0.879359
O O8 0.697534 0.500000 0.832199
O O9 0.786730 0.703899 0.931687
O O10 0.000000 0.212339 0.027005
#
# Coordination Sequence:
#
# PCOD8309279 Si02
#       5
#     8   4   8   4   1
#     4   9  15  25  45  71 103 135 172 220 269 323
#     4   8  14  26  40  70 103 133 172 209 265 318
#     4  10  19  32  51  74  98 129 169 229 278 326
#     4  11  24  37  46  64  98 139 186 233 280 338
#     4   8  16  24  44  64 108 130 160 216 256 320
#
# _framework density 19.886597999999999
#
# number of rings (size 3 to 8) (size 9 to 14) (size 15 to 20)
#    0.480    2.080    1.600    1.920    0.000    5.120 
#    0.000    0.000    0.000    0.000    0.000    4.480 
#    0.000    0.000    0.000    0.000    0.000    0.000 
#
# Total GULP energy -309719.707968 kJ/mol
# GULP energy per Si atom -12388.788319 kJ/mol
# Density = 1.984133 g / cm^3
# Si number density = 19.886598 Si / 1000 Ang^3
#
#
#
# Elastic Constant Matrix: (Units=GPa)
#
#
# Indices 1 2 3 4 5 6 
#
# 1 81.3060 19.3024 36.3111 0.0000 0.0000 0.0000
# 2 19.3024 81.3060 36.3111 0.0000 0.0000 0.0000
# 3 36.3111 36.3111 115.7915 0.0000 0.0000 0.0000
# 4 0.0000 0.0000 0.0000 9.3625 0.0000 0.0000
# 5 0.0000 0.0000 0.0000 0.0000 9.3625 0.0000
# 6 0.0000 0.0000 0.0000 0.0000 0.0000 10.5211
#
#
#
# Elastic Compliance Matrix: (Units=1/GPa)
#
#
# Indices 1 2 3 4 5 6 
#
# 1 0.014488 -0.001640 -0.004029 0.000000 0.000000 0.000000
# 2 -0.001640 0.014488 -0.004029 0.000000 0.000000 0.000000
# 3 -0.004029 -0.004029 0.011163 0.000000 0.000000 0.000000
# 4 0.000000 0.000000 0.000000 0.106809 0.000000 0.000000
# 5 0.000000 0.000000 0.000000 0.000000 0.106809 0.000000
# 6 0.000000 0.000000 0.000000 0.000000 0.000000 0.095047
#
#
# Mechanical properties :
#
#
# Convention : Reuss Voigt Hill
#
# Bulk Modulus (GPa) = 48.20942 51.36141 49.78541
# Shear Modulus (GPa) = 13.32928 18.28116 15.80522
#
# Velocity S-wave (km/s) = 2.59176 3.03524 2.82222
# Velocity P-wave (km/s) = 5.76637 6.17793 5.97569
#
# Compressibility (1/GPa) = 0.02074284
#
# Stress axis : x y z
#
# Youngs Moduli (GPa) = 69.02307 69.02307 89.58107
#
# Poissons Ratio (x) = 0.11321 0.36091
# Poissons Ratio (y) = 0.11321 0.36091
# Poissons Ratio (z) = 0.27809 0.27809
#
# Static dielectric constant tensor:
#      x y z
#    x 3.461660 0.000000 0.000000 
#    y 0.000000 3.461660 0.000000 
#    z 0.000000 0.000000 3.286620 
# 
# 
# High freq. dielectric constant tensor:
#      x y z
#    x 1.748050 0.000000 0.000000 
#    y 0.000000 1.748050 0.000000 
#    z 0.000000 0.000000 1.754710 
# 
# From -- ./inp_files/4071.got.cif
#   From: 2010.03.12/outbox.cif.g09.slc.cpg/sg115_3_cif.got.tgz:4071.got - 2010.04.14 02:11:21.
