data_PCOD8309388
_publ_section_title
;
Structure prediction by ZEFSAII (Michael W. Deem and Ramdas Pophale) SiO2 
 PCOD8309388
Probable space group: P -4 M 2
;
_chemical_formula_sum "Si O2"
_cell_formula_units_Z 44
_cell_length_a 9.401902
_cell_length_b 9.401902
_cell_length_c 27.873755
_cell_angle_alpha 90.000000
_cell_angle_beta 90.000000
_cell_angle_gamma 90.000000
_cell_volume 2463.921791
_symmetry_space_group_name_H-M "P -4 M 2"
_symmetry_group_IT_number 115
_symmetry_cell_setting 'tetragonal'
loop_
_space_group_symop_operation_xyz
x,y,z
y,-x,-z
-x,-y,z
-y,x,-z
y,x,-z
-y,-x,-z
-x,y,z
x,-y,z
loop_
_atom_site_type_symbol
_atom_site_label
_atom_site_fract_x
_atom_site_fract_y
_atom_site_fract_z
Si Si1 0.162697 0.831615 0.368250
Si Si2 0.335348 0.166293 0.172146
Si Si3 0.664525 0.335476 0.000000
Si Si4 0.663550 0.337088 0.555529
Si Si5 0.831188 0.657232 0.720395
Si Si6 0.666208 0.835021 0.906452
O O1 0.235320 0.764098 0.414380
O O2 0.234122 0.772342 0.319387
O O3 0.000000 0.783854 0.366940
O O4 0.179801 0.000000 0.372281
O O5 0.500000 0.201253 0.160946
O O6 0.296417 0.215884 0.226234
O O7 0.232347 0.252037 0.137820
O O8 0.305820 0.000000 0.165079
O O9 0.714911 0.242266 0.955077
O O10 0.500000 0.307747 0.012677
O O11 0.694064 0.305937 0.500000
O O12 0.500000 0.304650 0.567929
O O13 0.700385 0.500000 0.567825
O O14 0.770931 0.500000 0.708605
O O15 0.000000 0.652349 0.719120
O O16 0.500000 0.811393 0.897585
O O17 0.706117 0.000000 0.910769
#
# Coordination Sequence:
#
# PCOD8309388 Si02
#       6
#     8   8   4   8   8   8
#     4  10  20  32  49  76 106 133 163 202 248 298
#     4   9  18  33  54  78 101 129 169 212 249 291
#     4   9  18  34  54  71  92 130 174 209 244 291
#     4   9  19  36  55  73  95 127 168 210 250 295
#     4   8  15  30  51  73  98 131 171 209 244 288
#     4  10  21  35  51  75 106 135 164 203 251 300
#
# _framework density 17.857707999999999
#
# number of rings (size 3 to 8) (size 9 to 14) (size 15 to 20)
#    0.000    2.818    0.000    2.727    0.000    5.091 
#    0.000    7.273    0.000    1.091    0.000    0.000 
#    0.000    0.000    0.000    0.000    0.000    0.000 
#
# Total GULP energy -545579.882370 kJ/mol
# GULP energy per Si atom -12399.542781 kJ/mol
# Density = 1.781706 g / cm^3
# Si number density = 17.857708 Si / 1000 Ang^3
#
#
#
# Elastic Constant Matrix: (Units=GPa)
#
#
# Indices 1 2 3 4 5 6 
#
# 1 80.3774 48.8811 70.2831 0.0000 0.0000 0.0000
# 2 48.8811 80.3779 70.2831 0.0000 0.0000 0.0000
# 3 70.2831 70.2831 139.7374 0.0000 0.0000 0.0000
# 4 0.0000 0.0000 0.0000 27.9624 0.0000 0.0000
# 5 0.0000 0.0000 0.0000 0.0000 27.9695 0.0000
# 6 0.0000 0.0000 0.0000 0.0000 0.0000 28.4758
#
#
#
# Elastic Compliance Matrix: (Units=1/GPa)
#
#
# Indices 1 2 3 4 5 6 
#
# 1 0.024413 -0.007336 -0.008589 0.000000 0.000000 0.000000
# 2 -0.007336 0.024413 -0.008589 0.000000 0.000000 0.000000
# 3 -0.008589 -0.008589 0.015796 0.000000 0.000000 0.000000
# 4 0.000000 0.000000 0.000000 0.035762 0.000000 0.000000
# 5 0.000000 0.000000 0.000000 0.000000 0.035753 0.000000
# 6 0.000000 0.000000 0.000000 0.000000 0.000000 0.035118
#
#
# Mechanical properties :
#
#
# Convention : Reuss Voigt Hill
#
# Bulk Modulus (GPa) = 64.12839 75.48749 69.80794
# Shear Modulus (GPa) = 22.17466 24.28456 23.22961
#
# Velocity S-wave (km/s) = 3.52766 3.69167 3.61060
# Velocity P-wave (km/s) = 7.25129 7.78040 7.52050
#
# Compressibility (1/GPa) = 0.01559372
#
# Stress axis : x y z
#
# Youngs Moduli (GPa) = 40.96121 40.96170 63.30602
#
# Poissons Ratio (x) = 0.30051 0.54374
# Poissons Ratio (y) = 0.30051 0.54373
# Poissons Ratio (z) = 0.35182 0.35182
#
# Static dielectric constant tensor:
#      x y z
#    x 3.746790 0.000000 0.000000 
#    y 0.000000 3.747480 0.000000 
#    z 0.000000 0.000000 3.431100 
# 
# 
# High freq. dielectric constant tensor:
#      x y z
#    x 1.679000 0.000000 0.000000 
#    y 0.000000 1.679000 0.000000 
#    z 0.000000 0.000000 1.702720 
# 
# From -- ./inp_files/5748.got.cif
#   From: 2010.03.12/outbox.cif.g09.slc.cpg/sg115_3_cif.got.tgz:5748.got - 2010.04.14 02:11:21.
