data_PCOD8309459
_publ_section_title
;
Structure prediction by ZEFSAII (Michael W. Deem and Ramdas Pophale) SiO2 
 PCOD8309459
Probable space group: P -4 M 2
;
_chemical_formula_sum "Si O2"
_cell_formula_units_Z 48
_cell_length_a 9.538898
_cell_length_b 9.538898
_cell_length_c 30.366469
_cell_angle_alpha 90.000000
_cell_angle_beta 90.000000
_cell_angle_gamma 90.000000
_cell_volume 2763.062477
_symmetry_space_group_name_H-M "P -4 M 2"
_symmetry_group_IT_number 115
_symmetry_cell_setting 'tetragonal'
loop_
_space_group_symop_operation_xyz
x,y,z
y,-x,-z
-x,-y,z
-y,x,-z
y,x,-z
-y,-x,-z
-x,y,z
x,-y,z
loop_
_atom_site_type_symbol
_atom_site_label
_atom_site_fract_x
_atom_site_fract_y
_atom_site_fract_z
Si Si1 0.159371 0.164348 0.715628
Si Si2 0.158547 0.164929 0.950429
Si Si3 0.154949 0.165901 0.381974
Si Si4 0.164599 0.335304 0.535945
Si Si5 0.659112 0.664179 0.116642
Si Si6 0.662385 0.661285 0.783396
O O1 0.219538 0.198173 0.666648
O O2 0.251033 0.242463 0.751141
O O3 0.000000 0.217451 0.720037
O O4 0.168697 0.000000 0.724855
O O5 0.258601 0.238257 0.916074
O O6 0.000000 0.215385 0.941961
O O7 0.170443 0.000000 0.943516
O O8 0.204889 0.204889 0.000000
O O9 0.271749 0.212460 0.417121
O O10 0.000000 0.224709 0.395229
O O11 0.144267 0.000000 0.379454
O O12 0.257050 0.257050 0.500000
O O13 0.198403 0.500000 0.535711
O O14 0.000000 0.306921 0.526982
O O15 0.500000 0.705891 0.105248
O O16 0.681707 0.500000 0.110604
O O17 0.694375 0.708378 0.166622
O O18 0.500000 0.696413 0.776932
O O19 0.692749 0.500000 0.772094
#
# Coordination Sequence:
#
# PCOD8309459 Si02
#       6
#     8   8   8   8   8   8
#     4   9  18  32  51  77 104 127 158 202 247 291
#     4   9  19  35  52  72 100 130 159 196 244 295
#     4   8  15  30  51  73  98 128 162 201 243 287
#     4  10  20  33  51  75 100 128 164 203 243 289
#     4   9  19  35  52  71  97 129 166 206 243 283
#     4   9  19  35  51  69  98 134 168 201 240 288
#
# _framework density 17.372028
#
# number of rings (size 3 to 8) (size 9 to 14) (size 15 to 20)
#    0.000    3.000    0.000    3.000    0.000    5.000 
#    0.000   10.000    0.000    1.000    0.000    0.000 
#    0.000    0.000    0.000    0.000    0.000    0.000 
#
# Total GULP energy -595044.491553 kJ/mol
# GULP energy per Si atom -12396.760241 kJ/mol
# Density = 1.733249 g / cm^3
# Si number density = 17.372028 Si / 1000 Ang^3
#
#
#
# Elastic Constant Matrix: (Units=GPa)
#
#
# Indices 1 2 3 4 5 6 
#
# 1 60.8773 39.4986 60.0730 0.0000 0.0000 0.0000
# 2 39.4986 60.8773 60.0730 0.0000 0.0000 0.0000
# 3 60.0730 60.0730 128.9837 0.0000 0.0000 0.0000
# 4 0.0000 0.0000 0.0000 72.9982 0.0000 0.0000
# 5 0.0000 0.0000 0.0000 0.0000 72.9982 0.0000
# 6 0.0000 0.0000 0.0000 0.0000 0.0000 32.1851
#
#
#
# Elastic Compliance Matrix: (Units=1/GPa)
#
#
# Indices 1 2 3 4 5 6 
#
# 1 0.034644 -0.012131 -0.010485 0.000000 0.000000 0.000000
# 2 -0.012131 0.034644 -0.010485 0.000000 0.000000 0.000000
# 3 -0.010485 -0.010485 0.017520 0.000000 0.000000 0.000000
# 4 0.000000 0.000000 0.000000 0.013699 0.000000 0.000000
# 5 0.000000 0.000000 0.000000 0.000000 0.013699 0.000000
# 6 0.000000 0.000000 0.000000 0.000000 0.000000 0.031070
#
#
# Mechanical properties :
#
#
# Convention : Reuss Voigt Hill
#
# Bulk Modulus (GPa) = 48.53251 63.33640 55.93446
# Shear Modulus (GPa) = 22.89923 41.70920 32.30421
#
# Velocity S-wave (km/s) = 3.63460 4.90525 4.31693
# Velocity P-wave (km/s) = 6.75363 8.28372 7.55750
#
# Compressibility (1/GPa) = 0.02060474
#
# Stress axis : x y z
#
# Youngs Moduli (GPa) = 28.86483 28.86483 57.07869
#
# Poissons Ratio (x) = 0.35017 0.59848
# Poissons Ratio (y) = 0.35017 0.59848
# Poissons Ratio (z) = 0.30265 0.30265
#
# Static dielectric constant tensor:
#      x y z
#    x 3.098120 0.000000 0.000000 
#    y 0.000000 3.098120 0.000000 
#    z 0.000000 0.000000 3.392790 
# 
# 
# High freq. dielectric constant tensor:
#      x y z
#    x 1.659610 0.000000 0.000000 
#    y 0.000000 1.659610 0.000000 
#    z 0.000000 0.000000 1.682130 
# 
# From -- ./inp_files/5893.got.cif
#   From: 2010.03.12/outbox.cif.g09.slc.cpg/sg115_3_cif.got.tgz:5893.got - 2010.04.14 02:11:21.
