data_PCOD8309991
_publ_section_title
;
Structure prediction by ZEFSAII (Michael W. Deem and Ramdas Pophale) SiO2 
 PCOD8309991
Probable space group: P -4 M 2
;
_chemical_formula_sum "Si O2"
_cell_formula_units_Z 48
_cell_length_a 17.527025
_cell_length_b 17.527025
_cell_length_c 9.040578
_cell_angle_alpha 90.000000
_cell_angle_beta 90.000000
_cell_angle_gamma 90.000000
_cell_volume 2777.234872
_symmetry_space_group_name_H-M "P -4 M 2"
_symmetry_group_IT_number 115
_symmetry_cell_setting 'tetragonal'
loop_
_space_group_symop_operation_xyz
x,y,z
y,-x,-z
-x,-y,z
-y,x,-z
y,x,-z
-y,-x,-z
-x,y,z
x,-y,z
loop_
_atom_site_type_symbol
_atom_site_label
_atom_site_fract_x
_atom_site_fract_y
_atom_site_fract_z
Si Si1 0.085461 0.410457 0.585708
Si Si2 0.915312 0.854482 0.136092
Si Si3 0.085275 0.829434 0.597377
Si Si4 0.294775 0.186785 0.565629
Si Si5 0.284880 0.823120 0.912533
Si Si6 0.087057 0.588931 0.925270
O O1 0.094442 0.500000 0.570355
O O2 0.154445 0.375598 0.489202
O O3 0.000000 0.386215 0.530868
O O4 0.095044 0.384786 0.755342
O O5 0.846300 0.873832 0.247683
O O6 0.895623 0.771315 0.071884
O O7 0.000000 0.855628 0.207870
O O8 0.914048 0.914048 0.000000
O O9 0.092651 0.907350 0.500000
O O10 0.124663 0.764864 0.497855
O O11 0.000000 0.804644 0.630038
O O12 0.269760 0.269760 0.500000
O O13 0.297018 0.196448 0.740985
O O14 0.364796 0.850538 0.980869
O O15 0.250244 0.749757 0.000000
O O16 0.107098 0.500000 0.943162
O O17 0.000000 0.603816 0.979241
#
# Coordination Sequence:
#
# PCOD8309991 Si02
#       6
#     8   8   8   8   8   8
#     4   9  19  35  56  81 107 136 170 213 266 320
#     4  11  23  36  48  66  90 124 171 220 269 313
#     4  11  22  34  47  66  91 125 169 220 270 311
#     4  11  21  36  51  74 101 131 172 215 261 315
#     4  11  22  36  53  73  99 134 173 213 260 314
#     4   9  19  35  55  79 106 137 172 214 266 321
#
# _framework density 17.283377999999999
#
# number of rings (size 3 to 8) (size 9 to 14) (size 15 to 20)
#    0.000    1.667    3.333    4.000    2.333    4.667 
#    0.000    1.667    0.000    0.000    0.000    0.000 
#    0.000    0.667    0.000    7.000    0.000    3.000 
#
# Total GULP energy -594729.386615 kJ/mol
# GULP energy per Si atom -12390.195554 kJ/mol
# Density = 1.724404 g / cm^3
# Si number density = 17.283378 Si / 1000 Ang^3
#
#
#
# Elastic Constant Matrix: (Units=GPa)
#
#
# Indices 1 2 3 4 5 6 
#
# 1 62.3301 25.8078 36.5126 0.0000 0.0000 0.0000
# 2 25.8078 62.3301 36.5127 0.0000 0.0000 0.0000
# 3 36.5126 36.5127 115.3841 0.0000 0.0000 0.0000
# 4 0.0000 0.0000 0.0000 28.4656 0.0000 0.0000
# 5 0.0000 0.0000 0.0000 0.0000 28.4656 0.0000
# 6 0.0000 0.0000 0.0000 0.0000 0.0000 29.1693
#
#
#
# Elastic Compliance Matrix: (Units=1/GPa)
#
#
# Indices 1 2 3 4 5 6 
#
# 1 0.021379 -0.006001 -0.004866 0.000000 0.000000 0.000000
# 2 -0.006001 0.021379 -0.004866 0.000000 0.000000 0.000000
# 3 -0.004866 -0.004866 0.011746 0.000000 0.000000 0.000000
# 4 0.000000 0.000000 0.000000 0.035130 0.000000 0.000000
# 5 0.000000 0.000000 0.000000 0.000000 0.035130 0.000000
# 6 0.000000 0.000000 0.000000 0.000000 0.000000 0.034283
#
#
# Mechanical properties :
#
#
# Convention : Reuss Voigt Hill
#
# Bulk Modulus (GPa) = 43.40834 48.63452 46.02143
# Shear Modulus (GPa) = 25.22781 26.63419 25.93100
#
# Velocity S-wave (km/s) = 3.82469 3.92985 3.87763
# Velocity P-wave (km/s) = 6.68390 6.98514 6.83618
#
# Compressibility (1/GPa) = 0.02303705
#
# Stress axis : x y z
#
# Youngs Moduli (GPa) = 46.77474 46.77466 85.13205
#
# Poissons Ratio (x) = 0.28072 0.41427
# Poissons Ratio (y) = 0.28072 0.41427
# Poissons Ratio (z) = 0.22761 0.22761
#
# Static dielectric constant tensor:
#      x y z
#    x 3.167540 0.000000 0.000000 
#    y 0.000000 3.167540 0.000000 
#    z 0.000000 0.000000 3.385600 
# 
# 
# High freq. dielectric constant tensor:
#      x y z
#    x 1.641170 0.000000 0.000000 
#    y 0.000000 1.641170 0.000000 
#    z 0.000000 0.000000 1.681770 
# 
# From -- ./inp_files/1825.got.cif
#   From: 2010.03.12/outbox.cif.g09.slc.cpg/sg115_1_cif.got.tgz:1825.got - 2010.04.14 02:11:21.
