data_PCOD8309141
_publ_section_title
;
Structure prediction by ZEFSAII (Michael W. Deem and Ramdas Pophale) SiO2 
 PCOD8309141
Probable space group: P -4 21 C
;
_chemical_formula_sum "Si O2"
_cell_formula_units_Z 32
_cell_length_a 8.744128
_cell_length_b 8.744128
_cell_length_c 18.901179
_cell_angle_alpha 90.000000
_cell_angle_beta 90.000000
_cell_angle_gamma 90.000000
_cell_volume 1445.179884
_symmetry_space_group_name_H-M "P -4 21 C"
_symmetry_group_IT_number 114
_symmetry_cell_setting 'tetragonal'
loop_
_space_group_symop_operation_xyz
x,y,z
y,-x,-z
-x,-y,z
-y,x,-z
1/2+x,1/2-y,1/2-z
1/2-x,1/2+y,1/2-z
1/2-y,1/2-x,1/2+z
1/2+y,1/2+x,1/2+z
loop_
_atom_site_type_symbol
_atom_site_label
_atom_site_fract_x
_atom_site_fract_y
_atom_site_fract_z
Si Si1 0.332608 0.263162 0.332663
Si Si2 0.546948 0.326701 0.806807
Si Si3 0.851121 0.752601 0.092626
Si Si4 0.048709 0.332501 0.942911
O O1 0.302697 0.379994 0.269590
O O2 0.510443 0.271902 0.352565
O O3 0.223269 0.305973 0.398091
O O4 0.290280 0.093678 0.308423
O O5 0.500000 0.500000 0.820244
O O6 0.664654 0.286014 0.869035
O O7 0.792658 0.916794 0.067359
O O8 0.905827 0.656464 0.024956
O O9 0.000000 0.500000 0.916620
#
# Coordination Sequence:
#
# PCOD8309141 Si02
#       4
#     8   8   8   8
#     4  12  25  46  73 106 143 193 247 300 373 446
#     4  12  26  46  72 107 148 192 242 313 370 443
#     4  12  26  47  74 104 144 195 246 301 374 450
#     4  12  25  45  71 105 141 188 241 305 367 444
#
# _framework density 22.142572000000001
#
# number of rings (size 3 to 8) (size 9 to 14) (size 15 to 20)
#    0.000    0.000    2.500    9.000    0.000    2.000 
#    0.000    0.000    0.000    0.000    0.000    0.000 
#    0.000    0.000    0.000    0.000    0.000    0.000 
#
# Total GULP energy -397176.085686 kJ/mol
# GULP energy per Si atom -12411.752678 kJ/mol
# Density = 2.209217 g / cm^3
# Si number density = 22.142572 Si / 1000 Ang^3
#
#
#
# Elastic Constant Matrix: (Units=GPa)
#
#
# Indices 1 2 3 4 5 6 
#
# 1 92.1277 11.3872 44.5945 0.0000 0.0000 0.0000
# 2 11.3872 92.1277 44.5945 0.0000 0.0000 0.0000
# 3 44.5945 44.5945 133.4630 0.0000 0.0000 0.0000
# 4 0.0000 0.0000 0.0000 38.0546 0.0000 0.0000
# 5 0.0000 0.0000 0.0000 0.0000 38.0546 0.0000
# 6 0.0000 0.0000 0.0000 0.0000 0.0000 45.4757
#
#
#
# Elastic Compliance Matrix: (Units=1/GPa)
#
#
# Indices 1 2 3 4 5 6 
#
# 1 0.012976 0.000590 -0.004533 0.000000 0.000000 0.000000
# 2 0.000590 0.012976 -0.004533 0.000000 0.000000 0.000000
# 3 -0.004533 -0.004533 0.010522 0.000000 0.000000 0.000000
# 4 0.000000 0.000000 0.000000 0.026278 0.000000 0.000000
# 5 0.000000 0.000000 0.000000 0.000000 0.026278 0.000000
# 6 0.000000 0.000000 0.000000 0.000000 0.000000 0.021990
#
#
# Mechanical properties :
#
#
# Convention : Reuss Voigt Hill
#
# Bulk Modulus (GPa) = 51.22316 57.65231 54.43774
# Shear Modulus (GPa) = 37.18101 38.79314 37.98707
#
# Velocity S-wave (km/s) = 4.10221 4.19020 4.14643
# Velocity P-wave (km/s) = 6.75433 7.03589 6.89655
#
# Compressibility (1/GPa) = 0.01952242
#
# Stress axis : x y z
#
# Youngs Moduli (GPa) = 77.06731 77.06731 95.04018
#
# Poissons Ratio (x) = -0.04549 0.43080
# Poissons Ratio (y) = -0.04549 0.43080
# Poissons Ratio (z) = 0.34933 0.34933
#
# Static dielectric constant tensor:
#      x y z
#    x 4.060520 0.000000 0.000000 
#    y 0.000000 4.060520 0.000000 
#    z 0.000000 0.000000 4.122120 
# 
# 
# High freq. dielectric constant tensor:
#      x y z
#    x 1.881960 0.000000 0.000000 
#    y 0.000000 1.881960 0.000000 
#    z 0.000000 0.000000 1.885340 
# 
# From -- ./inp_files/2850.got.cif
#   From: 2010.03.12/outbox.cif.g09.slc.cpg/sg114_2_cif.got.tgz:2850.got - 2010.04.14 02:08:34.
