data_PCOD8309293
_publ_section_title
;
Structure prediction by ZEFSAII (Michael W. Deem and Ramdas Pophale) SiO2 
 PCOD8309293
Probable space group: P -4 M 2
;
_chemical_formula_sum "Si O2"
_cell_formula_units_Z 32
_cell_length_a 7.933450
_cell_length_b 7.933450
_cell_length_c 23.790933
_cell_angle_alpha 90.000000
_cell_angle_beta 90.000000
_cell_angle_gamma 90.000000
_cell_volume 1497.392494
_symmetry_space_group_name_H-M "P -4 M 2"
_symmetry_group_IT_number 115
_symmetry_cell_setting 'tetragonal'
loop_
_space_group_symop_operation_xyz
x,y,z
y,-x,-z
-x,-y,z
-y,x,-z
y,x,-z
-y,-x,-z
-x,y,z
x,-y,z
loop_
_atom_site_type_symbol
_atom_site_label
_atom_site_fract_x
_atom_site_fract_y
_atom_site_fract_z
Si Si1 0.683265 0.193331 0.326537
Si Si2 0.809763 0.306627 0.441397
Si Si3 0.199923 0.000000 0.867453
Si Si4 0.202250 0.000000 0.740841
Si Si5 0.310709 0.803761 0.058256
O O1 0.500000 0.277532 0.313176
O O2 0.717530 0.202418 0.392984
O O3 0.834436 0.277343 0.290532
O O4 0.673148 0.000000 0.308915
O O5 0.714616 0.285384 0.500000
O O6 0.804924 0.500000 0.423077
O O7 0.000000 0.240014 0.447851
O O8 0.271597 0.000000 0.804335
O O9 0.265050 0.829948 0.898267
O O10 0.000000 0.000000 0.865435
O O11 0.000000 0.000000 0.737960
O O12 0.500000 0.774239 0.082596
O O13 0.277783 0.000000 0.045897
O O14 0.295401 0.704600 0.000000
#
# Coordination Sequence:
#
# PCOD8309293 Si02
#       5
#     8   8   4   4   8
#     4  10  20  35  57  82 111 151 197 243 296 357
#     4  11  23  37  55  81 111 144 187 238 299 365
#     4   9  18  32  55  85 121 156 195 246 294 348
#     4   9  18  34  55  83 117 155 194 243 296 344
#     4  10  19  32  55  84 116 156 197 242 301 361
#
# _framework density 21.370481000000002
#
# number of rings (size 3 to 8) (size 9 to 14) (size 15 to 20)
#    0.000    2.000    2.500    1.500    0.000    6.250 
#    0.000    5.000    0.000    3.000    0.000    3.500 
#    0.000    0.000    0.000    0.000    0.000    0.000 
#
# Total GULP energy -396741.908283 kJ/mol
# GULP energy per Si atom -12398.184634 kJ/mol
# Density = 2.132184 g / cm^3
# Si number density = 21.370481 Si / 1000 Ang^3
#
#
#
# Elastic Constant Matrix: (Units=GPa)
#
#
# Indices 1 2 3 4 5 6 
#
# 1 103.1472 27.9619 43.3726 0.0000 0.0000 0.0000
# 2 27.9619 103.1465 43.3730 0.0000 0.0000 0.0000
# 3 43.3726 43.3730 159.6718 0.0000 0.0000 0.0000
# 4 0.0000 0.0000 0.0000 8.1573 0.0000 0.0000
# 5 0.0000 0.0000 0.0000 0.0000 8.1573 0.0000
# 6 0.0000 0.0000 0.0000 0.0000 0.0000 12.8884
#
#
#
# Elastic Compliance Matrix: (Units=1/GPa)
#
#
# Indices 1 2 3 4 5 6 
#
# 1 0.011299 -0.002001 -0.002526 0.000000 0.000000 0.000000
# 2 -0.002001 0.011300 -0.002526 0.000000 0.000000 0.000000
# 3 -0.002526 -0.002526 0.007635 0.000000 0.000000 0.000000
# 4 0.000000 0.000000 0.000000 0.122590 0.000000 0.000000
# 5 0.000000 0.000000 0.000000 0.000000 0.122590 0.000000
# 6 0.000000 0.000000 0.000000 0.000000 0.000000 0.077589
#
#
# Mechanical properties :
#
#
# Convention : Reuss Voigt Hill
#
# Bulk Modulus (GPa) = 62.00137 66.15339 64.07738
# Shear Modulus (GPa) = 13.42340 22.59114 18.00727
#
# Velocity S-wave (km/s) = 2.50897 3.25486 2.90595
# Velocity P-wave (km/s) = 6.12118 6.71924 6.42717
#
# Compressibility (1/GPa) = 0.01612868
#
# Stress axis : x y z
#
# Youngs Moduli (GPa) = 88.50024 88.49933 130.97499
#
# Poissons Ratio (x) = 0.17709 0.33081
# Poissons Ratio (y) = 0.17709 0.33082
# Poissons Ratio (z) = 0.22353 0.22353
#
# Static dielectric constant tensor:
#      x y z
#    x 3.866680 0.000000 0.000000 
#    y 0.000000 3.866680 0.000000 
#    z 0.000000 0.000000 3.738270 
# 
# 
# High freq. dielectric constant tensor:
#      x y z
#    x 1.827930 0.000000 0.000000 
#    y 0.000000 1.827930 0.000000 
#    z 0.000000 0.000000 1.823430 
# 
# From -- ./inp_files/5024.got.cif
#   From: 2010.03.12/outbox.cif.g09.slc.cpg/sg115_3_cif.got.tgz:5024.got - 2010.04.14 02:11:21.
