data_PCOD8309169
_publ_section_title
;
Structure prediction by ZEFSAII (Michael W. Deem and Ramdas Pophale) SiO2 
 PCOD8309169
Probable space group: P -4 M 2
;
_chemical_formula_sum "Si O2"
_cell_formula_units_Z 37
_cell_length_a 12.106937
_cell_length_b 12.106937
_cell_length_c 16.458294
_cell_angle_alpha 90.000000
_cell_angle_beta 90.000000
_cell_angle_gamma 90.000000
_cell_volume 2412.422559
_symmetry_space_group_name_H-M "P -4 M 2"
_symmetry_group_IT_number 115
_symmetry_cell_setting 'tetragonal'
loop_
_space_group_symop_operation_xyz
x,y,z
y,-x,-z
-x,-y,z
-y,x,-z
y,x,-z
-y,-x,-z
-x,y,z
x,-y,z
loop_
_atom_site_type_symbol
_atom_site_label
_atom_site_fract_x
_atom_site_fract_y
_atom_site_fract_z
Si Si1 0.789050 0.126121 0.168689
Si Si2 0.244506 0.000000 0.564095
Si Si3 0.124570 0.000000 0.720993
Si Si4 0.130035 0.130035 0.000000
Si Si5 0.000000 0.000000 0.500000
Si Si6 0.871107 0.625793 0.701679
Si Si7 0.199843 0.368933 0.522117
O O1 0.692358 0.182429 0.222680
O O2 0.897266 0.136683 0.221091
O O3 0.756372 0.000000 0.152965
O O4 0.807069 0.179482 0.079401
O O5 0.114900 0.000000 0.546805
O O6 0.308180 0.107420 0.531820
O O7 0.231915 0.000000 0.661708
O O8 0.000000 0.000000 0.680202
O O9 0.000000 0.151330 0.010348
O O10 0.848668 0.500000 0.722224
O O11 0.817249 0.659553 0.616478
O O12 0.000000 0.653692 0.691987
O O13 0.320110 0.320110 0.500000
O O14 0.195354 0.500000 0.505350
#
# Coordination Sequence:
#
# PCOD8309169 Si02
#       7
#     8   4   4   4   1   8   8
#     4   9  16  24  40  61  92 125 151 183 226 277
#     4  12  21  32  47  73 101 132 161 199 254 297
#     4  10  18  27  39  66  98 127 154 185 232 287
#     4   9  14  24  36  60  92 124 148 179 222 282
#     4  12  24  28  48  76 104 122 156 200 240 296
#     4   9  17  30  46  65  90 121 157 197 238 280
#     4  11  22  35  51  69  96 131 170 212 251 289
#
# _framework density 15.337278
#
# number of rings (size 3 to 8) (size 9 to 14) (size 15 to 20)
#    0.000    2.054    3.784    1.622    0.000    0.216 
#    0.000    0.000    0.000    0.000    0.000    7.568 
#    0.000    0.000    0.000    0.000    0.000    0.000 
#
# Total GULP energy -458369.323957 kJ/mol
# GULP energy per Si atom -12388.360107 kJ/mol
# Density = 1.530237 g / cm^3
# Si number density = 15.337278 Si / 1000 Ang^3
#
#
#
# Elastic Constant Matrix: (Units=GPa)
#
#
# Indices 1 2 3 4 5 6 
#
# 1 64.4839 24.3224 56.2254 0.0000 0.0000 0.0000
# 2 24.3224 64.4839 56.2254 0.0000 0.0000 0.0000
# 3 56.2254 56.2254 134.9162 0.0000 0.0000 0.0000
# 4 0.0000 0.0000 0.0000 19.7443 0.0000 0.0000
# 5 0.0000 0.0000 0.0000 0.0000 19.7443 0.0000
# 6 0.0000 0.0000 0.0000 0.0000 0.0000 38.1649
#
#
#
# Elastic Compliance Matrix: (Units=1/GPa)
#
#
# Indices 1 2 3 4 5 6 
#
# 1 0.024371 -0.000529 -0.009936 0.000000 0.000000 0.000000
# 2 -0.000529 0.024371 -0.009936 0.000000 0.000000 0.000000
# 3 -0.009936 -0.009936 0.015693 0.000000 0.000000 0.000000
# 4 0.000000 0.000000 0.000000 0.050648 0.000000 0.000000
# 5 0.000000 0.000000 0.000000 0.000000 0.050648 0.000000
# 6 0.000000 0.000000 0.000000 0.000000 0.000000 0.026202
#
#
# Mechanical properties :
#
#
# Convention : Reuss Voigt Hill
#
# Bulk Modulus (GPa) = 42.31296 59.71451 51.01373
# Shear Modulus (GPa) = 20.78040 24.00472 22.39256
#
# Velocity S-wave (km/s) = 3.68488 3.96045 3.82515
# Velocity P-wave (km/s) = 6.76407 7.74160 7.26929
#
# Compressibility (1/GPa) = 0.02363342
#
# Stress axis : x y z
#
# Youngs Moduli (GPa) = 41.03295 41.03295 63.72078
#
# Poissons Ratio (x) = 0.02170 0.63312
# Poissons Ratio (y) = 0.02170 0.63312
# Poissons Ratio (z) = 0.40770 0.40770
#
# Static dielectric constant tensor:
#      x y z
#    x 2.814870 0.000000 0.000000 
#    y 0.000000 2.814870 0.000000 
#    z 0.000000 0.000000 3.069530 
# 
# 
# High freq. dielectric constant tensor:
#      x y z
#    x 1.559750 0.000000 0.000000 
#    y 0.000000 1.559750 0.000000 
#    z 0.000000 0.000000 1.597390 
# 
# From -- ./inp_files/3667.got.cif
#   From: 2010.03.12/outbox.cif.g09.slc.cpg/sg115_2_cif.got.tgz:3667.got - 2010.04.14 02:11:21.
