data_PCOD8309497
_publ_section_title
;
Structure prediction by ZEFSAII (Michael W. Deem and Ramdas Pophale) SiO2 
 PCOD8309497
Probable space group: P -4 M 2
;
_chemical_formula_sum "Si O2"
_cell_formula_units_Z 48
_cell_length_a 9.083557
_cell_length_b 9.083557
_cell_length_c 30.826467
_cell_angle_alpha 90.000000
_cell_angle_beta 90.000000
_cell_angle_gamma 90.000000
_cell_volume 2543.522858
_symmetry_space_group_name_H-M "P -4 M 2"
_symmetry_group_IT_number 115
_symmetry_cell_setting 'tetragonal'
loop_
_space_group_symop_operation_xyz
x,y,z
y,-x,-z
-x,-y,z
-y,x,-z
y,x,-z
-y,-x,-z
-x,y,z
x,-y,z
loop_
_atom_site_type_symbol
_atom_site_label
_atom_site_fract_x
_atom_site_fract_y
_atom_site_fract_z
Si Si1 0.334053 0.825129 0.130646
Si Si2 0.824620 0.835919 0.952621
Si Si3 0.670293 0.172591 0.382538
Si Si4 0.668669 0.670103 0.705202
Si Si5 0.672515 0.828216 0.539709
Si Si6 0.172546 0.669445 0.207896
O O1 0.500000 0.766736 0.135038
O O2 0.269454 0.764097 0.085224
O O3 0.238691 0.766688 0.170024
O O4 0.327365 0.000000 0.131537
O O5 0.000000 0.842073 0.952310
O O6 0.761264 0.000000 0.944460
O O7 0.774766 0.774766 0.000000
O O8 0.500000 0.209443 0.392919
O O9 0.713880 0.228826 0.334966
O O10 0.774255 0.254863 0.416079
O O11 0.700754 0.000000 0.385355
O O12 0.500000 0.707242 0.693024
O O13 0.687341 0.500000 0.717496
O O14 0.723270 0.763309 0.746234
O O15 0.740179 0.740179 0.500000
O O16 0.500000 0.795661 0.541701
O O17 0.705513 0.000000 0.533205
O O18 0.215222 0.500000 0.199787
O O19 0.000000 0.694873 0.208853
#
# Coordination Sequence:
#
# PCOD8309497 Si02
#       6
#     8   8   8   8   8   8
#     4  10  20  33  51  76 105 137 173 213 259 312
#     4   8  14  27  48  71  96 130 171 213 257 306
#     4  10  21  37  58  85 115 145 179 219 264 317
#     4   9  18  34  55  77 105 143 182 219 262 313
#     4  11  24  40  59  84 113 146 185 227 270 317
#     4  10  21  36  54  77 105 138 177 220 265 313
#
# _framework density 18.871462999999999
#
# number of rings (size 3 to 8) (size 9 to 14) (size 15 to 20)
#    0.000    2.333    0.000    3.000    0.000    7.667 
#    0.000    4.167    0.000    3.000    0.000    0.000 
#    0.000    0.000    0.000    0.000    0.000    0.000 
#
# Total GULP energy -595287.316060 kJ/mol
# GULP energy per Si atom -12401.819085 kJ/mol
# Density = 1.882851 g / cm^3
# Si number density = 18.871463 Si / 1000 Ang^3
#
#
#
# Elastic Constant Matrix: (Units=GPa)
#
#
# Indices 1 2 3 4 5 6 
#
# 1 69.3056 39.2550 57.6874 0.0000 0.0000 0.0000
# 2 39.2550 69.3056 57.6874 0.0000 0.0000 0.0000
# 3 57.6874 57.6874 145.6974 0.0000 0.0000 0.0000
# 4 0.0000 0.0000 0.0000 37.1939 0.0000 0.0000
# 5 0.0000 0.0000 0.0000 0.0000 37.1939 0.0000
# 6 0.0000 0.0000 0.0000 0.0000 0.0000 25.4501
#
#
#
# Elastic Compliance Matrix: (Units=1/GPa)
#
#
# Indices 1 2 3 4 5 6 
#
# 1 0.024590 -0.008687 -0.006297 0.000000 0.000000 0.000000
# 2 -0.008687 0.024590 -0.006297 0.000000 0.000000 0.000000
# 3 -0.006297 -0.006297 0.011850 0.000000 0.000000 0.000000
# 4 0.000000 0.000000 0.000000 0.026886 0.000000 0.000000
# 5 0.000000 0.000000 0.000000 0.000000 0.026886 0.000000
# 6 0.000000 0.000000 0.000000 0.000000 0.000000 0.039293
#
#
# Mechanical properties :
#
#
# Convention : Reuss Voigt Hill
#
# Bulk Modulus (GPa) = 54.14309 65.95202 60.04755
# Shear Modulus (GPa) = 24.65326 28.61284 26.63305
#
# Velocity S-wave (km/s) = 3.61831 3.89806 3.76079
# Velocity P-wave (km/s) = 6.79771 7.43530 7.12365
#
# Compressibility (1/GPa) = 0.01846958
#
# Stress axis : x y z
#
# Youngs Moduli (GPa) = 40.66638 40.66638 84.38897
#
# Poissons Ratio (x) = 0.35326 0.53138
# Poissons Ratio (y) = 0.35326 0.53138
# Poissons Ratio (z) = 0.25607 0.25607
#
# Static dielectric constant tensor:
#      x y z
#    x 3.414270 0.000000 0.000000 
#    y 0.000000 3.414270 0.000000 
#    z 0.000000 0.000000 3.697070 
# 
# 
# High freq. dielectric constant tensor:
#      x y z
#    x 1.724040 0.000000 0.000000 
#    y 0.000000 1.724040 0.000000 
#    z 0.000000 0.000000 1.749500 
# 
# From -- ./inp_files/6028.got.cif
#   From: 2010.03.12/outbox.cif.g09.slc.cpg/sg115_4_cif.got.tgz:6028.got - 2010.04.14 02:11:21.
