data_PCOD8309008
_publ_section_title
;
Structure prediction by ZEFSAII (Michael W. Deem and Ramdas Pophale) SiO2 
 PCOD8309008
Probable space group: P -4 21 C
;
_chemical_formula_sum "Si O2"
_cell_formula_units_Z 48
_cell_length_a 8.563108
_cell_length_b 8.563108
_cell_length_c 27.805683
_cell_angle_alpha 90.000000
_cell_angle_beta 90.000000
_cell_angle_gamma 90.000000
_cell_volume 2038.902274
_symmetry_space_group_name_H-M "P -4 21 C"
_symmetry_group_IT_number 114
_symmetry_cell_setting 'tetragonal'
loop_
_space_group_symop_operation_xyz
x,y,z
y,-x,-z
-x,-y,z
-y,x,-z
1/2+x,1/2-y,1/2-z
1/2-x,1/2+y,1/2-z
1/2-y,1/2-x,1/2+z
1/2+y,1/2+x,1/2+z
loop_
_atom_site_type_symbol
_atom_site_label
_atom_site_fract_x
_atom_site_fract_y
_atom_site_fract_z
Si Si1 0.571566 0.332971 0.348435
Si Si2 0.773008 0.293672 0.598728
Si Si3 0.400771 0.657666 0.189948
Si Si4 0.332871 0.060839 0.764607
Si Si5 0.944048 0.332907 0.910489
Si Si6 0.095079 0.762584 0.502077
O O1 0.500000 0.500000 0.357047
O O2 0.460161 0.208374 0.375250
O O3 0.553438 0.290002 0.292554
O O4 0.747786 0.334243 0.370112
O O5 0.817525 0.149223 0.634404
O O6 0.597347 0.269735 0.579091
O O7 0.890640 0.312972 0.554500
O O8 0.500000 0.500000 0.195354
O O9 0.243730 0.672797 0.222530
O O10 0.521920 0.791440 0.208765
O O11 0.500000 0.000000 0.778908
O O12 0.000000 0.500000 0.890302
O O13 0.851346 0.347018 0.960330
O O14 0.915297 0.798550 0.494316
#
# Coordination Sequence:
#
# PCOD8309008 Si02
#       6
#     8   8   8   8   8   8
#     4   9  22  43  67  97 144 180 234 302 349 439
#     4  10  24  44  66 102 136 188 239 290 369 429
#     4  11  25  45  73 103 149 190 239 300 364 438
#     4  11  24  44  68 108 141 191 241 288 365 428
#     4  11  23  41  67 100 131 183 240 294 362 424
#     4  11  25  43  63  94 140 178 235 293 356 433
#
# _framework density 23.542079000000001
#
# number of rings (size 3 to 8) (size 9 to 14) (size 15 to 20)
#    0.000    1.500    1.667    1.500    4.667    8.667 
#    0.000    0.833    0.000    0.000    0.000    0.000 
#    0.000    0.000    0.000    0.000    0.000    0.000 
#
# Total GULP energy -594827.127078 kJ/mol
# GULP energy per Si atom -12392.231814 kJ/mol
# Density = 2.348850 g / cm^3
# Si number density = 23.542079 Si / 1000 Ang^3
#
#
#
# Elastic Constant Matrix: (Units=GPa)
#
#
# Indices 1 2 3 4 5 6 
#
# 1 74.5579 45.7658 50.5814 0.0000 0.0000 0.0000
# 2 45.7658 74.5579 50.5814 0.0000 0.0000 0.0000
# 3 50.5814 50.5814 115.3202 0.0000 0.0000 0.0000
# 4 0.0000 0.0000 0.0000 37.5528 0.0000 0.0000
# 5 0.0000 0.0000 0.0000 0.0000 37.5528 0.0000
# 6 0.0000 0.0000 0.0000 0.0000 0.0000 36.4770
#
#
#
# Elastic Compliance Matrix: (Units=1/GPa)
#
#
# Indices 1 2 3 4 5 6 
#
# 1 0.023949 -0.010783 -0.005775 0.000000 0.000000 0.000000
# 2 -0.010783 0.023949 -0.005775 0.000000 0.000000 0.000000
# 3 -0.005775 -0.005775 0.013737 0.000000 0.000000 0.000000
# 4 0.000000 0.000000 0.000000 0.026629 0.000000 0.000000
# 5 0.000000 0.000000 0.000000 0.000000 0.026629 0.000000
# 6 0.000000 0.000000 0.000000 0.000000 0.000000 0.027415
#
#
# Mechanical properties :
#
#
# Convention : Reuss Voigt Hill
#
# Bulk Modulus (GPa) = 58.92685 62.03257 60.47971
# Shear Modulus (GPa) = 25.95648 30.15036 28.05342
#
# Velocity S-wave (km/s) = 3.32408 3.58257 3.45574
# Velocity P-wave (km/s) = 6.31011 6.59696 6.45513
#
# Compressibility (1/GPa) = 0.01697019
#
# Stress axis : x y z
#
# Youngs Moduli (GPa) = 41.75547 41.75547 72.79365
#
# Poissons Ratio (x) = 0.45024 0.42038
# Poissons Ratio (y) = 0.45024 0.42038
# Poissons Ratio (z) = 0.24113 0.24113
#
# Static dielectric constant tensor:
#      x y z
#    x 4.417620 0.000000 0.000000 
#    y 0.000000 4.417620 0.000000 
#    z 0.000000 0.000000 4.210010 
# 
# 
# High freq. dielectric constant tensor:
#      x y z
#    x 1.932620 0.000000 0.000000 
#    y 0.000000 1.932620 0.000000 
#    z 0.000000 0.000000 1.936320 
# 
# From -- ./inp_files/3988.got.cif
#   From: 2010.03.12/outbox.cif.g09.slc.cpg/sg114_2_cif.got.tgz:3988.got - 2010.04.14 02:08:34.
