data_PCOD8309084
_publ_section_title
;
Structure prediction by ZEFSAII (Michael W. Deem and Ramdas Pophale) SiO2 
 PCOD8309084
Probable space group: P -4 21 C
;
_chemical_formula_sum "Si O2"
_cell_formula_units_Z 34
_cell_length_a 11.365132
_cell_length_b 11.365132
_cell_length_c 12.073707
_cell_angle_alpha 90.000000
_cell_angle_beta 90.000000
_cell_angle_gamma 90.000000
_cell_volume 1559.515160
_symmetry_space_group_name_H-M "P -4 21 C"
_symmetry_group_IT_number 114
_symmetry_cell_setting 'tetragonal'
loop_
_space_group_symop_operation_xyz
x,y,z
y,-x,-z
-x,-y,z
-y,x,-z
1/2+x,1/2-y,1/2-z
1/2-x,1/2+y,1/2-z
1/2-y,1/2-x,1/2+z
1/2+y,1/2+x,1/2+z
loop_
_atom_site_type_symbol
_atom_site_label
_atom_site_fract_x
_atom_site_fract_y
_atom_site_fract_z
Si Si1 0.500000 0.500000 0.500000
Si Si2 0.201038 0.165376 0.582902
Si Si3 0.380003 0.053915 0.742244
Si Si4 0.595544 0.304153 0.354631
Si Si5 0.559365 0.700929 0.845358
O O1 0.508996 0.380713 0.430019
O O2 0.289010 0.075224 0.642931
O O3 0.270546 0.288172 0.576891
O O4 0.169686 0.118978 0.461871
O O5 0.080318 0.176666 0.652479
O O6 0.413562 0.165943 0.814592
O O7 0.500000 0.000000 0.691667
O O8 0.319721 0.963878 0.826612
O O9 0.618303 0.381582 0.245655
#
# Coordination Sequence:
#
# PCOD8309084 Si02
#       5
#     2   8   8   8   8
#     4  12  24  44  72 102 136 188 240 292 360 430
#     4  11  24  42  68 102 135 189 231 294 357 423
#     4  11  23  44  67  98 138 184 231 293 353 425
#     4  11  24  44  68 101 138 185 234 296 353 427
#     4  11  24  44  67 100 142 175 237 290 353 421
#
# _framework density 21.801649000000001
#
# number of rings (size 3 to 8) (size 9 to 14) (size 15 to 20)
#    0.000    0.941    2.353    4.235    0.000    5.176 
#   12.706    0.000    0.000    0.000    0.000    0.000 
#    0.000    0.000    0.000    0.000    0.000    0.000 
#
# Total GULP energy -421756.263049 kJ/mol
# GULP energy per Si atom -12404.595972 kJ/mol
# Density = 2.175203 g / cm^3
# Si number density = 21.801649 Si / 1000 Ang^3
#
#
#
# Elastic Constant Matrix: (Units=GPa)
#
#
# Indices 1 2 3 4 5 6 
#
# 1 121.6344 39.0104 40.0663 0.0000 0.0000 0.0000
# 2 39.0104 121.6344 40.0663 0.0000 0.0000 0.0000
# 3 40.0663 40.0663 93.9940 0.0000 0.0000 0.0000
# 4 0.0000 0.0000 0.0000 21.0983 0.0000 0.0000
# 5 0.0000 0.0000 0.0000 0.0000 21.0983 0.0000
# 6 0.0000 0.0000 0.0000 0.0000 0.0000 45.1810
#
#
#
# Elastic Compliance Matrix: (Units=1/GPa)
#
#
# Indices 1 2 3 4 5 6 
#
# 1 0.010004 -0.002099 -0.003370 0.000000 0.000000 0.000000
# 2 -0.002099 0.010004 -0.003370 0.000000 0.000000 0.000000
# 3 -0.003370 -0.003370 0.013512 0.000000 0.000000 0.000000
# 4 0.000000 0.000000 0.000000 0.047397 0.000000 0.000000
# 5 0.000000 0.000000 0.000000 0.000000 0.047397 0.000000
# 6 0.000000 0.000000 0.000000 0.000000 0.000000 0.022133
#
#
# Mechanical properties :
#
#
# Convention : Reuss Voigt Hill
#
# Bulk Modulus (GPa) = 63.11610 63.94986 63.53298
# Shear Modulus (GPa) = 28.83387 32.01681 30.42534
#
# Velocity S-wave (km/s) = 3.64064 3.83632 3.73976
# Velocity P-wave (km/s) = 6.83267 7.00139 6.91754
#
# Compressibility (1/GPa) = 0.01584382
#
# Stress axis : x y z
#
# Youngs Moduli (GPa) = 99.95517 99.95517 74.00818
#
# Poissons Ratio (x) = 0.20976 0.24941
# Poissons Ratio (y) = 0.20976 0.24941
# Poissons Ratio (z) = 0.33685 0.33685
#
# Static dielectric constant tensor:
#      x y z
#    x 4.081560 0.000000 0.000000 
#    y 0.000000 4.081560 0.000000 
#    z 0.000000 0.000000 3.753310 
# 
# 
# High freq. dielectric constant tensor:
#      x y z
#    x 1.873740 0.000000 0.000000 
#    y 0.000000 1.873740 0.000000 
#    z 0.000000 0.000000 1.845930 
# 
# From -- ./inp_files/1398.got.cif
#   From: 2010.03.12/outbox.cif.g09.slc.cpg/sg114_1_cif.got.tgz:1398.got - 2010.04.14 02:08:34.
