data_PCOD8309243
_publ_section_title
;
Structure prediction by ZEFSAII (Michael W. Deem and Ramdas Pophale) SiO2 
 PCOD8309243
Probable space group: P -4 M 2
;
_chemical_formula_sum "Si O2"
_cell_formula_units_Z 37
_cell_length_a 7.767732
_cell_length_b 7.767732
_cell_length_c 29.858263
_cell_angle_alpha 90.000000
_cell_angle_beta 90.000000
_cell_angle_gamma 90.000000
_cell_volume 1801.577734
_symmetry_space_group_name_H-M "P -4 M 2"
_symmetry_group_IT_number 115
_symmetry_cell_setting 'tetragonal'
loop_
_space_group_symop_operation_xyz
x,y,z
y,-x,-z
-x,-y,z
-y,x,-z
y,x,-z
-y,-x,-z
-x,y,z
x,-y,z
loop_
_atom_site_type_symbol
_atom_site_label
_atom_site_fract_x
_atom_site_fract_y
_atom_site_fract_z
Si Si1 0.689449 0.000000 0.567986
Si Si2 0.798379 0.696817 0.629663
Si Si3 0.795567 0.000000 0.789944
Si Si4 0.310507 0.204704 0.269309
Si Si5 0.000000 0.000000 0.500000
Si Si6 0.000000 0.299700 0.107580
Si Si7 0.310045 0.704019 0.050138
O O1 0.701660 0.828306 0.597647
O O2 0.500000 0.000000 0.545761
O O3 0.828946 0.000000 0.529213
O O4 0.757572 0.500000 0.615413
O O5 0.732845 0.729628 0.680311
O O6 0.000000 0.735089 0.626006
O O7 0.721184 0.168540 0.764810
O O8 0.729653 0.000000 0.839996
O O9 0.000000 0.000000 0.789002
O O10 0.500000 0.271036 0.254397
O O11 0.308297 0.000000 0.269064
O O12 0.828132 0.217941 0.085286
O O13 0.000000 0.500000 0.096338
O O14 0.500000 0.783083 0.060272
O O15 0.322747 0.500000 0.054381
O O16 0.248279 0.751722 0.000000
#
# Coordination Sequence:
#
# PCOD8309243 Si02
#       7
#     4   8   4   8   1   4   8
#     4  12  25  41  65  91 121 162 201 249 307 356
#     4   9  17  35  65  94 118 149 200 257 302 346
#     4  10  19  31  46  70 112 146 177 216 263 324
#     4   8  15  29  53  81 108 148 190 225 271 328
#     4  12  28  48  60  88 128 168 212 244 292 372
#     4  10  20  33  49  71  98 133 174 213 263 330
#     4   8  15  31  53  71  89 119 163 216 272 327
#
# _framework density 20.537552000000002
#
# number of rings (size 3 to 8) (size 9 to 14) (size 15 to 20)
#    0.000    2.811    1.081    2.595    0.000    3.892 
#    1.946    2.162    0.000    1.297    0.000    0.000 
#    0.000    0.000    0.000    0.000    0.000    0.000 
#
# Total GULP energy -458617.455134 kJ/mol
# GULP energy per Si atom -12395.066355 kJ/mol
# Density = 2.049081 g / cm^3
# Si number density = 20.537552 Si / 1000 Ang^3
#
#
#
# Elastic Constant Matrix: (Units=GPa)
#
#
# Indices 1 2 3 4 5 6 
#
# 1 105.4133 36.7708 63.2715 0.0000 0.0000 0.0000
# 2 36.7708 105.4131 63.2715 0.0000 0.0000 0.0000
# 3 63.2715 63.2715 139.9083 0.0000 0.0000 0.0000
# 4 0.0000 0.0000 0.0000 36.5521 0.0000 0.0000
# 5 0.0000 0.0000 0.0000 0.0000 36.5522 0.0000
# 6 0.0000 0.0000 0.0000 0.0000 0.0000 9.6985
#
#
#
# Elastic Compliance Matrix: (Units=1/GPa)
#
#
# Indices 1 2 3 4 5 6 
#
# 1 0.013169 -0.001399 -0.005323 0.000000 0.000000 0.000000
# 2 -0.001399 0.013169 -0.005323 0.000000 0.000000 0.000000
# 3 -0.005323 -0.005323 0.011962 0.000000 0.000000 0.000000
# 4 0.000000 0.000000 0.000000 0.027358 0.000000 0.000000
# 5 0.000000 0.000000 0.000000 0.000000 0.027358 0.000000
# 6 0.000000 0.000000 0.000000 0.000000 0.000000 0.103109
#
#
# Mechanical properties :
#
#
# Convention : Reuss Voigt Hill
#
# Bulk Modulus (GPa) = 70.36783 75.26247 72.81515
# Shear Modulus (GPa) = 22.22685 29.05528 25.64106
#
# Velocity S-wave (km/s) = 3.29333 3.76538 3.53724
# Velocity P-wave (km/s) = 6.98561 7.45855 7.22595
#
# Compressibility (1/GPa) = 0.01421104
#
# Stress axis : x y z
#
# Youngs Moduli (GPa) = 75.93325 75.93311 83.59698
#
# Poissons Ratio (x) = 0.10621 0.44500
# Poissons Ratio (y) = 0.10621 0.44500
# Poissons Ratio (z) = 0.40420 0.40420
#
# Static dielectric constant tensor:
#      x y z
#    x 3.796100 0.000000 0.000000 
#    y 0.000000 3.796100 0.000000 
#    z 0.000000 0.000000 3.682920 
# 
# 
# High freq. dielectric constant tensor:
#      x y z
#    x 1.793370 0.000000 0.000000 
#    y 0.000000 1.793370 0.000000 
#    z 0.000000 0.000000 1.786950 
# 
# From -- ./inp_files/5229.got.cif
#   From: 2010.03.12/outbox.cif.g09.slc.cpg/sg115_3_cif.got.tgz:5229.got - 2010.04.14 02:11:21.
