data_PCOD8309914
_publ_section_title
;
Structure prediction by ZEFSAII (Michael W. Deem and Ramdas Pophale) SiO2 
 PCOD8309914
Probable space group: P -4 M 2
;
_chemical_formula_sum "Si O2"
_cell_formula_units_Z 40
_cell_length_a 8.945753
_cell_length_b 8.945753
_cell_length_c 25.627251
_cell_angle_alpha 90.000000
_cell_angle_beta 90.000000
_cell_angle_gamma 90.000000
_cell_volume 2050.859119
_symmetry_space_group_name_H-M "P -4 M 2"
_symmetry_group_IT_number 115
_symmetry_cell_setting 'tetragonal'
loop_
_space_group_symop_operation_xyz
x,y,z
y,-x,-z
-x,-y,z
-y,x,-z
y,x,-z
-y,-x,-z
-x,y,z
x,-y,z
loop_
_atom_site_type_symbol
_atom_site_label
_atom_site_fract_x
_atom_site_fract_y
_atom_site_fract_z
Si Si1 0.323763 0.828529 0.355897
Si Si2 0.668709 0.323127 0.153102
Si Si3 0.326758 0.174176 0.548291
Si Si4 0.672323 0.825083 0.952297
Si Si5 0.173435 0.173014 0.751029
O O1 0.500000 0.809814 0.354293
O O2 0.258902 0.721633 0.399831
O O3 0.258777 0.774524 0.300787
O O4 0.277390 0.000000 0.367581
O O5 0.500000 0.260689 0.156570
O O6 0.671170 0.500000 0.155839
O O7 0.740941 0.268317 0.099052
O O8 0.765778 0.263753 0.200413
O O9 0.230905 0.230905 0.500000
O O10 0.500000 0.206947 0.536914
O O11 0.295487 0.000000 0.556157
O O12 0.500000 0.784346 0.964000
O O13 0.693680 0.000000 0.942986
O O14 0.773301 0.773301 0.000000
O O15 0.000000 0.201312 0.762038
O O16 0.210959 0.000000 0.743169
#
# Coordination Sequence:
#
# PCOD8309914 Si02
#       5
#     8   8   8   8   8
#     4  10  21  38  60  85 113 147 188 232 278 330
#     4  10  21  37  58  83 111 146 187 230 278 331
#     4  11  24  40  59  85 115 148 187 230 278 332
#     4  10  21  37  57  81 109 143 183 227 276 330
#     4  10  21  37  58  84 114 149 188 230 278 331
#
# _framework density 19.504021999999999
#
# number of rings (size 3 to 8) (size 9 to 14) (size 15 to 20)
#    0.000    1.800    0.000    3.600    0.000   10.400 
#    0.000    0.000    0.000    0.000    0.000    0.000 
#    0.000    0.000    0.000    0.000    0.000    0.000 
#
# Total GULP energy -496236.722157 kJ/mol
# GULP energy per Si atom -12405.918054 kJ/mol
# Density = 1.945963 g / cm^3
# Si number density = 19.504022 Si / 1000 Ang^3
#
#
#
# Elastic Constant Matrix: (Units=GPa)
#
#
# Indices 1 2 3 4 5 6 
#
# 1 65.1565 32.3652 39.4206 0.0000 0.0000 0.0000
# 2 32.3652 65.1565 39.4206 0.0000 0.0000 0.0000
# 3 39.4206 39.4206 132.6142 0.0000 0.0000 0.0000
# 4 0.0000 0.0000 0.0000 40.0858 0.0000 0.0000
# 5 0.0000 0.0000 0.0000 0.0000 40.0858 0.0000
# 6 0.0000 0.0000 0.0000 0.0000 0.0000 31.6143
#
#
#
# Elastic Compliance Matrix: (Units=1/GPa)
#
#
# Indices 1 2 3 4 5 6 
#
# 1 0.021997 -0.008499 -0.004012 0.000000 0.000000 0.000000
# 2 -0.008499 0.021997 -0.004012 0.000000 0.000000 0.000000
# 3 -0.004012 -0.004012 0.009926 0.000000 0.000000 0.000000
# 4 0.000000 0.000000 0.000000 0.024946 0.000000 0.000000
# 5 0.000000 0.000000 0.000000 0.000000 0.024946 0.000000
# 6 0.000000 0.000000 0.000000 0.000000 0.000000 0.031631
#
#
# Mechanical properties :
#
#
# Convention : Reuss Voigt Hill
#
# Bulk Modulus (GPa) = 47.91003 53.92668 50.91836
# Shear Modulus (GPa) = 28.49831 32.47190 30.48510
#
# Velocity S-wave (km/s) = 3.82665 4.08472 3.95779
# Velocity P-wave (km/s) = 6.64393 7.06793 6.85921
#
# Compressibility (1/GPa) = 0.02087246
#
# Stress axis : x y z
#
# Youngs Moduli (GPa) = 45.46094 45.46094 100.74463
#
# Poissons Ratio (x) = 0.38637 0.40422
# Poissons Ratio (y) = 0.38637 0.40422
# Poissons Ratio (z) = 0.18241 0.18241
#
# Static dielectric constant tensor:
#      x y z
#    x 3.615400 0.000000 0.000000 
#    y 0.000000 3.615400 0.000000 
#    z 0.000000 0.000000 3.931370 
# 
# 
# High freq. dielectric constant tensor:
#      x y z
#    x 1.763930 0.000000 0.000000 
#    y 0.000000 1.763930 0.000000 
#    z 0.000000 0.000000 1.774420 
# 
# From -- ./inp_files/5058.got.cif
#   From: 2010.03.12/outbox.cif.g09.slc.cpg/sg115_3_cif.got.tgz:5058.got - 2010.04.14 02:11:21.
