data_PCOD8309780
_publ_section_title
;
Structure prediction by ZEFSAII (Michael W. Deem and Ramdas Pophale) SiO2 
 PCOD8309780
Probable space group: P -4 M 2
;
_chemical_formula_sum "Si O2"
_cell_formula_units_Z 48
_cell_length_a 9.217615
_cell_length_b 9.217615
_cell_length_c 30.351567
_cell_angle_alpha 90.000000
_cell_angle_beta 90.000000
_cell_angle_gamma 90.000000
_cell_volume 2578.803477
_symmetry_space_group_name_H-M "P -4 M 2"
_symmetry_group_IT_number 115
_symmetry_cell_setting 'tetragonal'
loop_
_space_group_symop_operation_xyz
x,y,z
y,-x,-z
-x,-y,z
-y,x,-z
y,x,-z
-y,-x,-z
-x,y,z
x,-y,z
loop_
_atom_site_type_symbol
_atom_site_label
_atom_site_fract_x
_atom_site_fract_y
_atom_site_fract_z
Si Si1 0.831093 0.830362 0.201806
Si Si2 0.166115 0.832966 0.948826
Si Si3 0.332179 0.670924 0.875829
Si Si4 0.331902 0.668637 0.375822
Si Si5 0.168889 0.332992 0.289362
Si Si6 0.829987 0.163678 0.550149
O O1 0.739927 0.758297 0.163424
O O2 0.780696 0.761720 0.247913
O O3 0.000000 0.798699 0.193068
O O4 0.797377 0.000000 0.203054
O O5 0.274237 0.731086 0.922078
O O6 0.000000 0.794725 0.936820
O O7 0.197089 0.000000 0.936763
O O8 0.195749 0.804252 0.000000
O O9 0.500000 0.713655 0.870576
O O10 0.309202 0.500000 0.875063
O O11 0.500000 0.702452 0.370259
O O12 0.298962 0.500000 0.382369
O O13 0.252940 0.726299 0.331981
O O14 0.275266 0.749372 0.418675
O O15 0.208376 0.500000 0.279372
O O16 0.000000 0.312660 0.299090
O O17 0.793371 0.206630 0.500000
O O18 0.000000 0.175169 0.558788
O O19 0.776481 0.000000 0.559883
#
# Coordination Sequence:
#
# PCOD8309780 Si02
#       6
#     8   8   8   8   8   8
#     4  10  21  37  58  83 108 136 175 222 268 315
#     4   9  19  37  60  84 109 139 178 223 268 315
#     4  11  24  38  53  78 112 147 181 219 264 314
#     4  10  21  35  52  78 111 143 174 212 260 314
#     4   9  18  34  55  77 104 141 181 217 257 310
#     4   9  19  36  56  77 102 135 177 223 267 311
#
# _framework density 18.613285000000001
#
# number of rings (size 3 to 8) (size 9 to 14) (size 15 to 20)
#    0.000    2.333    0.000    3.000    0.000    8.667 
#    0.000    8.333    0.000    0.000    0.000    0.000 
#    0.000    0.000    0.000    0.000    0.000    0.000 
#
# Total GULP energy -595374.223087 kJ/mol
# GULP energy per Si atom -12403.629648 kJ/mol
# Density = 1.857092 g / cm^3
# Si number density = 18.613285 Si / 1000 Ang^3
#
#
#
# Elastic Constant Matrix: (Units=GPa)
#
#
# Indices 1 2 3 4 5 6 
#
# 1 79.5799 51.4834 65.5918 0.0000 0.0000 0.0000
# 2 51.4834 79.5799 65.5918 0.0000 0.0000 0.0000
# 3 65.5918 65.5918 133.7680 0.0000 0.0000 0.0000
# 4 0.0000 0.0000 0.0000 -12.7456 0.0000 0.0000
# 5 0.0000 0.0000 0.0000 0.0000 -12.7467 0.0000
# 6 0.0000 0.0000 0.0000 0.0000 0.0000 30.9005
#
#
#
# Elastic Compliance Matrix: (Units=1/GPa)
#
#
# Indices 1 2 3 4 5 6 
#
# 1 0.025288 -0.010304 -0.007347 0.000000 0.000000 0.000000
# 2 -0.010304 0.025288 -0.007347 0.000000 0.000000 0.000000
# 3 -0.007347 -0.007347 0.014681 0.000000 0.000000 0.000000
# 4 0.000000 0.000000 0.000000 -0.078459 0.000000 0.000000
# 5 0.000000 0.000000 0.000000 0.000000 -0.078452 0.000000
# 6 0.000000 0.000000 0.000000 0.000000 0.000000 0.032362
#
#
# Mechanical properties :
#
#
# Convention : Reuss Voigt Hill
#
# Bulk Modulus (GPa) = 65.53159 73.14019 69.33589
# Shear Modulus (GPa) = -1187.93985 8.43236 -589.75375
#
# Velocity S-wave (km/s) = -25.29045 2.13076 -17.81947
# Velocity P-wave (km/s) = 28.59241 6.74043 19.64806
#
# Compressibility (1/GPa) = 0.01525981
#
# Stress axis : x y z
#
# Youngs Moduli (GPa) = 39.54489 39.54485 68.11596
#
# Poissons Ratio (x) = 0.40747 0.50046
# Poissons Ratio (y) = 0.40747 0.50046
# Poissons Ratio (z) = 0.29054 0.29054
#
# Static dielectric constant tensor:
#      x y z
#    x 3.408230 0.000000 0.000000 
#    y 0.000000 3.408230 0.000000 
#    z 0.000000 0.000000 3.503380 
# 
# 
# High freq. dielectric constant tensor:
#      x y z
#    x 1.719840 0.000000 0.000000 
#    y 0.000000 1.719840 0.000000 
#    z 0.000000 0.000000 1.735260 
# 
# From -- ./inp_files/6001.got.cif
#   From: 2010.03.12/outbox.cif.g09.slc.cpg/sg115_4_cif.got.tgz:6001.got - 2010.04.14 02:11:21.
