data_PCOD8309995
_publ_section_title
;
Structure prediction by ZEFSAII (Michael W. Deem and Ramdas Pophale) SiO2 
 PCOD8309995
Probable space group: P -4 M 2
;
_chemical_formula_sum "Si O2"
_cell_formula_units_Z 29
_cell_length_a 11.887095
_cell_length_b 11.887095
_cell_length_c 11.074050
_cell_angle_alpha 90.000000
_cell_angle_beta 90.000000
_cell_angle_gamma 90.000000
_cell_volume 1564.796792
_symmetry_space_group_name_H-M "P -4 M 2"
_symmetry_group_IT_number 115
_symmetry_cell_setting 'tetragonal'
loop_
_space_group_symop_operation_xyz
x,y,z
y,-x,-z
-x,-y,z
-y,x,-z
y,x,-z
-y,-x,-z
-x,y,z
x,-y,z
loop_
_atom_site_type_symbol
_atom_site_label
_atom_site_fract_x
_atom_site_fract_y
_atom_site_fract_z
Si Si1 0.126005 0.873995 0.500000
Si Si2 0.766406 0.000000 0.127754
Si Si3 0.000000 0.000000 0.000000
Si Si4 0.632281 0.625071 0.634596
Si Si5 0.769824 0.807042 0.744610
Si Si6 0.637927 0.000000 0.885438
O O1 0.142303 0.789662 0.388329
O O2 0.000000 0.856842 0.550476
O O3 0.757636 0.114151 0.203674
O O4 0.892342 0.000000 0.081882
O O5 0.668170 0.000000 0.027182
O O6 0.665629 0.665629 0.500000
O O7 0.500000 0.629762 0.651051
O O8 0.677975 0.500000 0.655514
O O9 0.688575 0.700949 0.735486
O O10 0.700889 0.893145 0.827775
O O11 0.500000 0.000000 0.867016
#
# Coordination Sequence:
#
# PCOD8309995 Si02
#       6
#     4   4   1   8   8   4
#     4  11  22  34  58  95 128 154 186 239 312 384
#     4  12  24  39  65  87 116 160 207 245 297 361
#     4  12  20  44  60  82 104 156 200 236 294 364
#     4   9  19  36  58  84 118 161 200 235 289 360
#     4  12  21  39  62  91 120 157 196 250 308 364
#     4  12  26  41  59  86 121 161 206 253 295 345
#
# _framework density 18.532755999999999
#
# number of rings (size 3 to 8) (size 9 to 14) (size 15 to 20)
#    0.000    0.966    6.897    1.655    0.000    1.103 
#    0.000    0.000    0.000    0.000    0.000    3.862 
#    0.000    0.000    0.000    0.000    0.000    0.000 
#
# Total GULP energy -359433.521701 kJ/mol
# GULP energy per Si atom -12394.259369 kJ/mol
# Density = 1.849057 g / cm^3
# Si number density = 18.532756 Si / 1000 Ang^3
#
#
#
# Elastic Constant Matrix: (Units=GPa)
#
#
# Indices 1 2 3 4 5 6 
#
# 1 36.8192 100.2231 38.6592 0.0000 0.0000 0.0000
# 2 100.2231 36.8192 38.6592 0.0000 0.0000 0.0000
# 3 38.6592 38.6592 80.6466 0.0000 0.0000 0.0000
# 4 0.0000 0.0000 0.0000 27.3951 0.0000 0.0000
# 5 0.0000 0.0000 0.0000 0.0000 27.3951 0.0000
# 6 0.0000 0.0000 0.0000 0.0000 0.0000 31.0684
#
#
#
# Elastic Compliance Matrix: (Units=1/GPa)
#
#
# Indices 1 2 3 4 5 6 
#
# 1 -0.002885 0.012887 -0.004795 0.000000 0.000000 0.000000
# 2 0.012887 -0.002885 -0.004795 0.000000 0.000000 0.000000
# 3 -0.004795 -0.004795 0.016997 0.000000 0.000000 0.000000
# 4 0.000000 0.000000 0.000000 0.036503 0.000000 0.000000
# 5 0.000000 0.000000 0.000000 0.000000 0.036503 0.000000
# 6 0.000000 0.000000 0.000000 0.000000 0.000000 0.032187
#
#
# Mechanical properties :
#
#
# Convention : Reuss Voigt Hill
#
# Bulk Modulus (GPa) = 56.10994 56.59643 56.35318
# Shear Modulus (GPa) = 43.19089 15.62127 29.40608
#
# Velocity S-wave (km/s) = 4.83278 2.90642 3.98767
# Velocity P-wave (km/s) = 7.84110 6.47055 7.18856
#
# Compressibility (1/GPa) = 0.01782215
#
# Stress axis : x y z
#
# Youngs Moduli (GPa) = -346.63564 -346.63564 58.83534
#
# Poissons Ratio (x) = 4.46710 0.28210
# Poissons Ratio (y) = 4.46710 0.28210
# Poissons Ratio (z) = -1.66201 -1.66201
#
# Static dielectric constant tensor:
#      x y z
#    x 3.422200 0.000000 0.000000 
#    y 0.000000 3.422200 0.000000 
#    z 0.000000 0.000000 3.481910 
# 
# 
# High freq. dielectric constant tensor:
#      x y z
#    x 1.722780 0.000000 0.000000 
#    y 0.000000 1.722780 0.000000 
#    z 0.000000 0.000000 1.714680 
# 
# From -- ./inp_files/2473.got.cif
#   From: 2010.03.12/outbox.cif.g09.slc.cpg/sg115_2_cif.got.tgz:2473.got - 2010.04.14 02:11:21.
