data_PCOD8309188
_publ_section_title
;
Structure prediction by ZEFSAII (Michael W. Deem and Ramdas Pophale) SiO2 
 PCOD8309188
Probable space group: P -4 M 2
;
_chemical_formula_sum "Si O2"
_cell_formula_units_Z 48
_cell_length_a 17.802037
_cell_length_b 17.802037
_cell_length_c 10.053664
_cell_angle_alpha 90.000000
_cell_angle_beta 90.000000
_cell_angle_gamma 90.000000
_cell_volume 3186.132007
_symmetry_space_group_name_H-M "P -4 M 2"
_symmetry_group_IT_number 115
_symmetry_cell_setting 'tetragonal'
loop_
_space_group_symop_operation_xyz
x,y,z
y,-x,-z
-x,-y,z
-y,x,-z
y,x,-z
-y,-x,-z
-x,y,z
x,-y,z
loop_
_atom_site_type_symbol
_atom_site_label
_atom_site_fract_x
_atom_site_fract_y
_atom_site_fract_z
Si Si1 0.658060 0.224357 0.015240
Si Si2 0.587059 0.308299 0.778620
Si Si3 0.414268 0.084721 0.904250
Si Si4 0.768370 0.651565 0.476133
Si Si5 0.288122 0.585502 0.739227
Si Si6 0.915850 0.586313 0.409196
O O1 0.634471 0.232523 0.168834
O O2 0.743960 0.256041 0.000000
O O3 0.602470 0.273725 0.923443
O O4 0.647813 0.137255 0.975699
O O5 0.500000 0.319515 0.754173
O O6 0.621848 0.252740 0.669326
O O7 0.626139 0.389374 0.765690
O O8 0.500000 0.109998 0.938370
O O9 0.401742 0.088978 0.747697
O O10 0.400766 0.000000 0.955270
O O11 0.736873 0.736873 0.500000
O O12 0.731556 0.597660 0.585530
O O13 0.858994 0.644066 0.483396
O O14 0.279384 0.500000 0.779170
O O15 0.894848 0.500000 0.444420
O O16 0.000000 0.604576 0.459612
#
# Coordination Sequence:
#
# PCOD8309188 Si02
#       6
#     8   8   8   8   8   8
#     4  10  19  30  44  62  86 115 144 179 220 264
#     4  10  18  29  45  57  75 113 152 188 220 244
#     4   9  16  27  47  70  87 109 146 189 223 255
#     4  10  19  30  44  62  86 115 144 179 220 264
#     4  10  20  29  39  59  83 111 146 182 224 262
#     4   9  16  27  47  70  87 109 146 189 223 255
#
# _framework density 15.065288000000001
#
# number of rings (size 3 to 8) (size 9 to 14) (size 15 to 20)
#    0.000    2.333    1.667    4.000    0.000    0.333 
#    0.000    0.833    0.000    9.000    0.000    0.000 
#    0.000    0.667    0.000    3.667    0.000    0.000 
#
# Total GULP energy -594935.071392 kJ/mol
# GULP energy per Si atom -12394.480654 kJ/mol
# Density = 1.503100 g / cm^3
# Si number density = 15.065288 Si / 1000 Ang^3
#
#
#
# Elastic Constant Matrix: (Units=GPa)
#
#
# Indices 1 2 3 4 5 6 
#
# 1 92.7449 45.0757 10.1933 0.0000 0.0000 0.0000
# 2 45.0757 92.7451 10.1930 0.0000 0.0000 0.0000
# 3 10.1933 10.1930 36.5260 0.0000 0.0000 0.0000
# 4 0.0000 0.0000 0.0000 18.7218 0.0000 0.0000
# 5 0.0000 0.0000 0.0000 0.0000 18.7216 0.0000
# 6 0.0000 0.0000 0.0000 0.0000 0.0000 21.9422
#
#
#
# Elastic Compliance Matrix: (Units=1/GPa)
#
#
# Indices 1 2 3 4 5 6 
#
# 1 0.014273 -0.006705 -0.002112 0.000000 0.000000 0.000000
# 2 -0.006705 0.014273 -0.002112 0.000000 0.000000 0.000000
# 3 -0.002112 -0.002112 0.028557 0.000000 0.000000 0.000000
# 4 0.000000 0.000000 0.000000 0.053414 0.000000 0.000000
# 5 0.000000 0.000000 0.000000 0.000000 0.053414 0.000000
# 6 0.000000 0.000000 0.000000 0.000000 0.000000 0.045574
#
#
# Mechanical properties :
#
#
# Convention : Reuss Voigt Hill
#
# Bulk Modulus (GPa) = 28.37292 39.21556 33.79424
# Shear Modulus (GPa) = 20.56674 22.31404 21.44039
#
# Velocity S-wave (km/s) = 3.69883 3.85275 3.77658
# Velocity P-wave (km/s) = 6.09229 6.77337 6.44184
#
# Compressibility (1/GPa) = 0.03524487
#
# Stress axis : x y z
#
# Youngs Moduli (GPa) = 70.06209 70.06240 35.01821
#
# Poissons Ratio (x) = 0.46975 0.07396
# Poissons Ratio (y) = 0.46975 0.07396
# Poissons Ratio (z) = 0.14798 0.14797
#
# Static dielectric constant tensor:
#      x y z
#    x 2.891430 0.000000 0.000000 
#    y 0.000000 2.891430 0.000000 
#    z 0.000000 0.000000 2.888990 
# 
# 
# High freq. dielectric constant tensor:
#      x y z
#    x 1.551530 0.000000 0.000000 
#    y 0.000000 1.551530 0.000000 
#    z 0.000000 0.000000 1.580480 
# 
# From -- ./inp_files/1822.got.cif
#   From: 2010.03.12/outbox.cif.g09.slc.cpg/sg115_1_cif.got.tgz:1822.got - 2010.04.14 02:11:21.
