data_PCOD8309140
_publ_section_title
;
Structure prediction by ZEFSAII (Michael W. Deem and Ramdas Pophale) SiO2 
 PCOD8309140
Probable space group: P -4 21 C
;
_chemical_formula_sum "Si O2"
_cell_formula_units_Z 22
_cell_length_a 8.284888
_cell_length_b 8.284888
_cell_length_c 12.712834
_cell_angle_alpha 90.000000
_cell_angle_beta 90.000000
_cell_angle_gamma 90.000000
_cell_volume 872.600906
_symmetry_space_group_name_H-M "P -4 21 C"
_symmetry_group_IT_number 114
_symmetry_cell_setting 'tetragonal'
loop_
_space_group_symop_operation_xyz
x,y,z
y,-x,-z
-x,-y,z
-y,x,-z
1/2+x,1/2-y,1/2-z
1/2-x,1/2+y,1/2-z
1/2-y,1/2-x,1/2+z
1/2+y,1/2+x,1/2+z
loop_
_atom_site_type_symbol
_atom_site_label
_atom_site_fract_x
_atom_site_fract_y
_atom_site_fract_z
Si Si1 0.264745 0.381891 0.651372
Si Si2 0.500000 0.500000 0.500000
Si Si3 0.821512 0.971023 0.625787
Si Si4 0.500000 0.000000 0.485609
O O1 0.424146 0.365448 0.578087
O O2 0.175087 0.213966 0.657366
O O3 0.307982 0.426207 0.769083
O O4 0.152765 0.514446 0.593022
O O5 0.667787 0.014563 0.551688
O O6 0.000000 0.000000 0.574634
#
# Coordination Sequence:
#
# PCOD8309140 Si02
#       4
#     8   2   8   4
#     4  12  29  51  78 117 161 208 276 338 417 499
#     4  12  24  52  76 108 162 208 256 344 408 492
#     4  12  31  51  81 118 164 216 275 343 422 499
#     4  12  30  50  82 118 162 216 272 340 414 504
#
# _framework density 25.211981000000002
#
# number of rings (size 3 to 8) (size 9 to 14) (size 15 to 20)
#    0.000    0.000    5.455    1.091   20.364    0.000 
#    0.000    0.000    0.000    0.000    0.000    0.000 
#    0.000    0.000    0.000    0.000    0.000    0.000 
#
# Total GULP energy -272655.039026 kJ/mol
# GULP energy per Si atom -12393.410865 kJ/mol
# Density = 2.515460 g / cm^3
# Si number density = 25.211981 Si / 1000 Ang^3
#
#
#
# Elastic Constant Matrix: (Units=GPa)
#
#
# Indices 1 2 3 4 5 6 
#
# 1 134.5132 21.9462 31.7718 0.0000 0.0000 0.0000
# 2 21.9462 134.5132 31.7718 0.0000 0.0000 0.0000
# 3 31.7718 31.7718 122.7152 0.0000 0.0000 0.0000
# 4 0.0000 0.0000 0.0000 58.3644 0.0000 0.0000
# 5 0.0000 0.0000 0.0000 0.0000 58.3644 0.0000
# 6 0.0000 0.0000 0.0000 0.0000 0.0000 41.2675
#
#
#
# Elastic Compliance Matrix: (Units=1/GPa)
#
#
# Indices 1 2 3 4 5 6 
#
# 1 0.008013 -0.000871 -0.001849 0.000000 0.000000 0.000000
# 2 -0.000871 0.008013 -0.001849 0.000000 0.000000 0.000000
# 3 -0.001849 -0.001849 0.009107 0.000000 0.000000 0.000000
# 4 0.000000 0.000000 0.000000 0.017134 0.000000 0.000000
# 5 0.000000 0.000000 0.000000 0.000000 0.017134 0.000000
# 6 0.000000 0.000000 0.000000 0.000000 0.000000 0.024232
#
#
# Mechanical properties :
#
#
# Convention : Reuss Voigt Hill
#
# Bulk Modulus (GPa) = 62.52142 62.52456 62.52299
# Shear Modulus (GPa) = 50.96748 52.01604 51.49176
#
# Velocity S-wave (km/s) = 4.50105 4.54712 4.52414
# Velocity P-wave (km/s) = 7.20172 7.24029 7.22103
#
# Compressibility (1/GPa) = 0.01599452
#
# Stress axis : x y z
#
# Youngs Moduli (GPa) = 124.79663 124.79663 109.81159
#
# Poissons Ratio (x) = 0.10864 0.20307
# Poissons Ratio (y) = 0.10864 0.20307
# Poissons Ratio (z) = 0.23078 0.23078
#
# Static dielectric constant tensor:
#      x y z
#    x 4.611500 0.000000 0.000000 
#    y 0.000000 4.611500 0.000000 
#    z 0.000000 0.000000 4.635730 
# 
# 
# High freq. dielectric constant tensor:
#      x y z
#    x 2.008430 0.000000 0.000000 
#    y 0.000000 2.008430 0.000000 
#    z 0.000000 0.000000 2.034050 
# 
# From -- ./inp_files/1208.got.cif
#   From: 2010.03.12/outbox.cif.g09.slc.cpg/sg114_1_cif.got.tgz:1208.got - 2010.04.14 02:08:34.
