data_PCOD8309092
_publ_section_title
;
Structure prediction by ZEFSAII (Michael W. Deem and Ramdas Pophale) SiO2 
 PCOD8309092
Probable space group: P -4 21 C
;
_chemical_formula_sum "Si O2"
_cell_formula_units_Z 40
_cell_length_a 9.202961
_cell_length_b 9.202961
_cell_length_c 21.819309
_cell_angle_alpha 90.000000
_cell_angle_beta 90.000000
_cell_angle_gamma 90.000000
_cell_volume 1847.975273
_symmetry_space_group_name_H-M "P -4 21 C"
_symmetry_group_IT_number 114
_symmetry_cell_setting 'tetragonal'
loop_
_space_group_symop_operation_xyz
x,y,z
y,-x,-z
-x,-y,z
-y,x,-z
1/2+x,1/2-y,1/2-z
1/2-x,1/2+y,1/2-z
1/2-y,1/2-x,1/2+z
1/2+y,1/2+x,1/2+z
loop_
_atom_site_type_symbol
_atom_site_label
_atom_site_fract_x
_atom_site_fract_y
_atom_site_fract_z
Si Si1 0.331082 0.533479 0.425683
Si Si2 0.725328 0.243317 0.020789
Si Si3 0.422974 0.850080 0.802879
Si Si4 0.515432 0.327919 0.918736
Si Si5 0.908486 0.143891 0.785750
O O1 0.500000 0.500000 0.441026
O O2 0.221326 0.403435 0.440576
O O3 0.268419 0.657567 0.467909
O O4 0.311403 0.574654 0.355811
O O5 0.579935 0.290384 0.985727
O O6 0.750489 0.359218 0.075173
O O7 0.401236 0.748583 0.862708
O O8 0.263769 0.879103 0.773235
O O9 0.529932 0.773998 0.754809
O O10 0.500000 0.000000 0.822105
O O11 0.500000 0.500000 0.906062
O O12 0.000000 0.000000 0.769561
#
# Coordination Sequence:
#
# PCOD8309092 Si02
#       5
#     8   8   8   8   8
#     4  11  24  43  72 104 144 179 238 289 351 423
#     4  12  22  45  67 104 143 189 223 293 349 429
#     4  12  28  48  78 104 137 194 246 295 366 427
#     4  12  27  47  67 104 149 185 234 291 358 420
#     4  11  26  50  73 105 146 184 240 305 355 430
#
# _framework density 21.645313000000002
#
# number of rings (size 3 to 8) (size 9 to 14) (size 15 to 20)
#    0.000    0.400    6.000    1.800   11.200    0.000 
#    3.600    0.000    0.000    0.000    0.000    0.000 
#    0.000    0.000    0.000    0.000    0.000    0.000 
#
# Total GULP energy -495841.413352 kJ/mol
# GULP energy per Si atom -12396.035334 kJ/mol
# Density = 2.159605 g / cm^3
# Si number density = 21.645313 Si / 1000 Ang^3
#
#
#
# Elastic Constant Matrix: (Units=GPa)
#
#
# Indices 1 2 3 4 5 6 
#
# 1 75.3816 68.5362 36.4256 0.0000 0.0000 0.0000
# 2 68.5362 75.3816 36.4256 0.0000 0.0000 0.0000
# 3 36.4256 36.4256 63.0703 0.0000 0.0000 0.0000
# 4 0.0000 0.0000 0.0000 39.1703 0.0000 0.0000
# 5 0.0000 0.0000 0.0000 0.0000 39.1703 0.0000
# 6 0.0000 0.0000 0.0000 0.0000 0.0000 36.0918
#
#
#
# Elastic Compliance Matrix: (Units=1/GPa)
#
#
# Indices 1 2 3 4 5 6 
#
# 1 0.077952 -0.068133 -0.005671 0.000000 0.000000 0.000000
# 2 -0.068133 0.077952 -0.005671 0.000000 0.000000 0.000000
# 3 -0.005671 -0.005671 0.022406 0.000000 0.000000 0.000000
# 4 0.000000 0.000000 0.000000 0.025530 0.000000 0.000000
# 5 0.000000 0.000000 0.000000 0.000000 0.025530 0.000000
# 6 0.000000 0.000000 0.000000 0.000000 0.000000 0.027707
#
#
# Mechanical properties :
#
#
# Convention : Reuss Voigt Hill
#
# Bulk Modulus (GPa) = 51.65241 55.17867 53.41554
# Shear Modulus (GPa) = 11.83495 27.71621 19.77558
#
# Velocity S-wave (km/s) = 2.34084 3.58225 3.02589
# Velocity P-wave (km/s) = 5.58757 6.53128 6.07777
#
# Compressibility (1/GPa) = 0.01936018
#
# Stress axis : x y z
#
# Youngs Moduli (GPa) = 12.82845 12.82845 44.63164
#
# Poissons Ratio (x) = 0.87404 0.25310
# Poissons Ratio (y) = 0.87404 0.25310
# Poissons Ratio (z) = 0.07275 0.07275
#
# Static dielectric constant tensor:
#      x y z
#    x 4.058720 0.000000 0.000000 
#    y 0.000000 4.058720 0.000000 
#    z 0.000000 0.000000 4.031880 
# 
# 
# High freq. dielectric constant tensor:
#      x y z
#    x 1.855750 0.000000 0.000000 
#    y 0.000000 1.855750 0.000000 
#    z 0.000000 0.000000 1.859620 
# 
# From -- ./inp_files/3341.got.cif
#   From: 2010.03.12/outbox.cif.g09.slc.cpg/sg114_2_cif.got.tgz:3341.got - 2010.04.14 02:08:34.
