data_PCOD8309669
_publ_section_title
;
Structure prediction by ZEFSAII (Michael W. Deem and Ramdas Pophale) SiO2 
 PCOD8309669
Probable space group: P -4 M 2
;
_chemical_formula_sum "Si O2"
_cell_formula_units_Z 33
_cell_length_a 8.346395
_cell_length_b 8.346395
_cell_length_c 23.822684
_cell_angle_alpha 90.000000
_cell_angle_beta 90.000000
_cell_angle_gamma 90.000000
_cell_volume 1659.543186
_symmetry_space_group_name_H-M "P -4 M 2"
_symmetry_group_IT_number 115
_symmetry_cell_setting 'tetragonal'
loop_
_space_group_symop_operation_xyz
x,y,z
y,-x,-z
-x,-y,z
-y,x,-z
y,x,-z
-y,-x,-z
-x,y,z
x,-y,z
loop_
_atom_site_type_symbol
_atom_site_label
_atom_site_fract_x
_atom_site_fract_y
_atom_site_fract_z
Si Si1 0.313513 0.313513 0.500000
Si Si2 0.500000 0.675459 0.107845
Si Si3 0.189639 0.179794 0.838589
Si Si4 0.500000 0.500000 0.000000
Si Si5 0.183002 0.317442 0.723765
Si Si6 0.312300 0.175996 0.614647
O O1 0.276865 0.500000 0.503953
O O2 0.235772 0.236886 0.556118
O O3 0.500000 0.500000 0.136825
O O4 0.330809 0.758579 0.123283
O O5 0.500000 0.657810 0.039859
O O6 0.249926 0.208615 0.774691
O O7 0.000000 0.180779 0.839738
O O8 0.251345 0.000000 0.857692
O O9 0.203558 0.500000 0.743722
O O10 0.278076 0.292022 0.666479
O O11 0.000000 0.274692 0.711038
O O12 0.500000 0.171689 0.605479
O O13 0.243083 0.000000 0.628277
#
# Coordination Sequence:
#
# PCOD8309669 Si02
#       6
#     4   4   8   1   8   8
#     4   9  18  34  52  67  92 140 190 237 294 359
#     4  10  21  41  64  90 129 169 207 257 307 357
#     4  10  20  37  63  93 127 168 213 260 315 378
#     4   8  24  44  64  92 128 176 208 238 304 356
#     4  10  20  35  56  82 114 154 195 243 303 365
#     4  10  21  35  51  75 108 141 184 242 300 363
#
# _framework density 19.884990999999999
#
# number of rings (size 3 to 8) (size 9 to 14) (size 15 to 20)
#    0.364    1.818    1.212    1.818    0.000    5.333 
#    0.000    4.848    0.000    1.455    0.000    0.000 
#    0.000    0.000    0.000    0.000    0.000    0.000 
#
# Total GULP energy -408866.857512 kJ/mol
# GULP energy per Si atom -12389.904773 kJ/mol
# Density = 1.983973 g / cm^3
# Si number density = 19.884991 Si / 1000 Ang^3
#
#
#
# Elastic Constant Matrix: (Units=GPa)
#
#
# Indices 1 2 3 4 5 6 
#
# 1 61.6562 48.0875 41.9634 0.0000 0.0000 0.0000
# 2 48.0875 61.6562 41.9634 0.0000 0.0000 0.0000
# 3 41.9634 41.9634 136.6690 0.0000 0.0000 0.0000
# 4 0.0000 0.0000 0.0000 22.1108 0.0000 0.0000
# 5 0.0000 0.0000 0.0000 0.0000 22.1108 0.0000
# 6 0.0000 0.0000 0.0000 0.0000 0.0000 23.6708
#
#
#
# Elastic Compliance Matrix: (Units=1/GPa)
#
#
# Indices 1 2 3 4 5 6 
#
# 1 0.042804 -0.030895 -0.003656 0.000000 0.000000 0.000000
# 2 -0.030895 0.042804 -0.003656 0.000000 0.000000 0.000000
# 3 -0.003656 -0.003656 0.009562 0.000000 0.000000 0.000000
# 4 0.000000 0.000000 0.000000 0.045227 0.000000 0.000000
# 5 0.000000 0.000000 0.000000 0.000000 0.045227 0.000000
# 6 0.000000 0.000000 0.000000 0.000000 0.000000 0.042246
#
#
# Mechanical properties :
#
#
# Convention : Reuss Voigt Hill
#
# Bulk Modulus (GPa) = 53.32345 58.22331 55.77338
# Shear Modulus (GPa) = 16.10115 22.10964 19.10539
#
# Velocity S-wave (km/s) = 2.84863 3.33810 3.10303
# Velocity P-wave (km/s) = 6.13952 6.64837 6.39901
#
# Compressibility (1/GPa) = 0.01875348
#
# Stress axis : x y z
#
# Youngs Moduli (GPa) = 23.36242 23.36242 104.57742
#
# Poissons Ratio (x) = 0.72179 0.38238
# Poissons Ratio (y) = 0.72179 0.38238
# Poissons Ratio (z) = 0.08542 0.08542
#
# Static dielectric constant tensor:
#      x y z
#    x 3.635380 0.000000 0.000000 
#    y 0.000000 3.635380 0.000000 
#    z 0.000000 0.000000 3.508260 
# 
# 
# High freq. dielectric constant tensor:
#      x y z
#    x 1.768170 0.000000 0.000000 
#    y 0.000000 1.768170 0.000000 
#    z 0.000000 0.000000 1.765610 
# 
# From -- ./inp_files/4690.got.cif
#   From: 2010.03.12/outbox.cif.g09.slc.cpg/sg115_3_cif.got.tgz:4690.got - 2010.04.14 02:11:21.
