data_PCOD8309722
_publ_section_title
;
Structure prediction by ZEFSAII (Michael W. Deem and Ramdas Pophale) SiO2 
 PCOD8309722
Probable space group: P -4 M 2
;
_chemical_formula_sum "Si O2"
_cell_formula_units_Z 34
_cell_length_a 7.714520
_cell_length_b 7.714520
_cell_length_c 27.302797
_cell_angle_alpha 90.000000
_cell_angle_beta 90.000000
_cell_angle_gamma 90.000000
_cell_volume 1624.893714
_symmetry_space_group_name_H-M "P -4 M 2"
_symmetry_group_IT_number 115
_symmetry_cell_setting 'tetragonal'
loop_
_space_group_symop_operation_xyz
x,y,z
y,-x,-z
-x,-y,z
-y,x,-z
y,x,-z
-y,-x,-z
-x,y,z
x,-y,z
loop_
_atom_site_type_symbol
_atom_site_label
_atom_site_fract_x
_atom_site_fract_y
_atom_site_fract_z
Si Si1 0.500000 0.500000 0.500000
Si Si2 0.304400 0.196595 0.859653
Si Si3 0.500000 0.206460 0.421365
Si Si4 0.190469 0.795542 0.755553
Si Si5 0.794111 0.193717 0.649881
Si Si6 0.500000 0.500000 0.000000
Si Si7 0.188454 0.500000 0.925569
O O1 0.500000 0.321189 0.469854
O O2 0.500000 0.203907 0.878681
O O3 0.302999 0.257918 0.802776
O O4 0.196352 0.328057 0.892439
O O5 0.229776 0.000000 0.864846
O O6 0.328875 0.263113 0.391439
O O7 0.500000 0.000000 0.433573
O O8 0.275210 0.739349 0.703279
O O9 0.000000 0.711650 0.762422
O O10 0.172867 0.000000 0.752550
O O11 0.000000 0.187531 0.653992
O O12 0.723353 0.000000 0.636846
O O13 0.329293 0.500000 0.967606
O O14 0.000000 0.500000 0.950986
#
# Coordination Sequence:
#
# PCOD8309722 Si02
#       7
#     1   8   4   8   8   1   4
#     4  12  28  44  56  86 108 128 196 260 304 362
#     4  10  20  37  61  93 135 171 201 244 292 353
#     4  10  22  41  61  79 109 148 187 243 305 354
#     4   8  14  27  51  86 125 160 197 234 270 334
#     4   8  15  31  56  85 117 154 193 232 280 343
#     4  12  28  52  64  94 124 144 204 276 324 366
#     4  12  26  45  71  93 119 162 205 255 317 370
#
# _framework density 20.924443
#
# number of rings (size 3 to 8) (size 9 to 14) (size 15 to 20)
#    0.000    2.588    1.176    2.118    0.000    4.235 
#    2.118    2.353    0.000    0.000    0.000    0.000 
#    0.000    0.000    0.000    0.000    0.000    0.000 
#
# Total GULP energy -421285.157919 kJ/mol
# GULP energy per Si atom -12390.739939 kJ/mol
# Density = 2.087682 g / cm^3
# Si number density = 20.924443 Si / 1000 Ang^3
#
#
#
# Elastic Constant Matrix: (Units=GPa)
#
#
# Indices 1 2 3 4 5 6 
#
# 1 104.1043 33.1478 59.3115 0.0000 0.0000 0.0000
# 2 33.1478 104.1043 59.3115 0.0000 0.0000 0.0000
# 3 59.3115 59.3115 140.9884 0.0000 0.0000 0.0000
# 4 0.0000 0.0000 0.0000 37.6170 0.0000 0.0000
# 5 0.0000 0.0000 0.0000 0.0000 37.6170 0.0000
# 6 0.0000 0.0000 0.0000 0.0000 0.0000 4.8343
#
#
#
# Elastic Compliance Matrix: (Units=1/GPa)
#
#
# Indices 1 2 3 4 5 6 
#
# 1 0.012771 -0.001322 -0.004816 0.000000 0.000000 0.000000
# 2 -0.001322 0.012771 -0.004816 0.000000 0.000000 0.000000
# 3 -0.004816 -0.004816 0.011145 0.000000 0.000000 0.000000
# 4 0.000000 0.000000 0.000000 0.026584 0.000000 0.000000
# 5 0.000000 0.000000 0.000000 0.000000 0.026584 0.000000
# 6 0.000000 0.000000 0.000000 0.000000 0.000000 0.206855
#
#
# Mechanical properties :
#
#
# Convention : Reuss Voigt Hill
#
# Bulk Modulus (GPa) = 67.67252 72.52650 70.09951
# Shear Modulus (GPa) = 15.45387 29.17541 22.31464
#
# Velocity S-wave (km/s) = 2.72059 3.73811 3.26918
# Velocity P-wave (km/s) = 6.50234 7.30532 6.91549
#
# Compressibility (1/GPa) = 0.01477705
#
# Stress axis : x y z
#
# Youngs Moduli (GPa) = 78.30411 78.30411 89.72711
#
# Poissons Ratio (x) = 0.10355 0.43214
# Poissons Ratio (y) = 0.10355 0.43214
# Poissons Ratio (z) = 0.37712 0.37712
#
# Static dielectric constant tensor:
#      x y z
#    x 3.691280 0.000000 0.000000 
#    y 0.000000 3.691280 0.000000 
#    z 0.000000 0.000000 3.838580 
# 
# 
# High freq. dielectric constant tensor:
#      x y z
#    x 1.806690 0.000000 0.000000 
#    y 0.000000 1.806690 0.000000 
#    z 0.000000 0.000000 1.805670 
# 
# From -- ./inp_files/4753.got.cif
#   From: 2010.03.12/outbox.cif.g09.slc.cpg/sg115_3_cif.got.tgz:4753.got - 2010.04.14 02:11:21.
