data_PCOD8309036
_publ_section_title
;
Structure prediction by ZEFSAII (Michael W. Deem and Ramdas Pophale) SiO2 
 PCOD8309036
Probable space group: P -4 21 C
;
_chemical_formula_sum "Si O2"
_cell_formula_units_Z 56
_cell_length_a 26.898358
_cell_length_b 26.898358
_cell_length_c 5.070445
_cell_angle_alpha 90.000000
_cell_angle_beta 90.000000
_cell_angle_gamma 90.000000
_cell_volume 3668.576799
_symmetry_space_group_name_H-M "P -4 21 C"
_symmetry_group_IT_number 114
_symmetry_cell_setting 'tetragonal'
loop_
_space_group_symop_operation_xyz
x,y,z
y,-x,-z
-x,-y,z
-y,x,-z
1/2+x,1/2-y,1/2-z
1/2-x,1/2+y,1/2-z
1/2-y,1/2-x,1/2+z
1/2+y,1/2+x,1/2+z
loop_
_atom_site_type_symbol
_atom_site_label
_atom_site_fract_x
_atom_site_fract_y
_atom_site_fract_z
Si Si1 0.228199 0.688235 0.978678
Si Si2 0.444671 0.337943 0.621978
Si Si3 0.837945 0.055331 0.121985
Si Si4 0.308857 0.388226 0.899824
Si Si5 0.611772 0.691145 0.100169
Si Si6 0.771800 0.688236 0.978663
Si Si7 0.945682 0.945683 0.999999
O O1 0.186395 0.700330 0.758946
O O2 0.254229 0.636253 0.902340
O O3 0.268935 0.731064 0.000007
O O4 0.500001 0.323064 0.530871
O O5 0.406387 0.322350 0.392719
O O6 0.441913 0.397439 0.689101
O O7 0.433228 0.309036 0.891772
O O8 0.822353 0.093616 0.892728
O O9 0.809039 0.066773 0.391782
O O10 0.897441 0.058087 0.189107
O O11 0.348668 0.348666 0.999999
O O12 0.254231 0.363746 0.902335
O O13 0.799670 0.686397 0.258927
O O14 0.999999 0.942900 0.148997
#
# Coordination Sequence:
#
# PCOD8309036 Si02
#       7
#     8   8   8   8   8   8   8
#     4   9  17  28  44  64  82 100 123 157 205 260
#     4  11  21  33  45  61  81 108 140 174 220 262
#     4  11  21  33  45  61  81 108 140 174 220 262
#     4  11  19  32  46  62  82 105 133 169 216 258
#     4  11  19  32  46  62  82 105 133 169 216 258
#     4   9  17  28  44  64  82 100 123 157 205 260
#     4   9  18  32  46  58  74  98 138 188 228 262
#
# _framework density 15.264775999999999
#
# number of rings (size 3 to 8) (size 9 to 14) (size 15 to 20)
#    0.000    1.857    2.857    2.571    0.000    4.571 
#    0.000    1.429    0.000    6.857    0.000    0.000 
#    0.000    0.000    0.000    0.000    0.000    0.000 
#
# Total GULP energy -693765.713101 kJ/mol
# GULP energy per Si atom -12388.673448 kJ/mol
# Density = 1.523003 g / cm^3
# Si number density = 15.264776 Si / 1000 Ang^3
#
#
#
# Elastic Constant Matrix: (Units=GPa)
#
#
# Indices 1 2 3 4 5 6 
#
# 1 53.8795 41.9484 21.8861 0.0000 0.0000 0.0000
# 2 41.9484 53.8795 21.8861 0.0000 0.0000 0.0000
# 3 21.8861 21.8861 80.5399 0.0000 0.0000 0.0000
# 4 0.0000 0.0000 0.0000 18.1082 0.0000 0.0000
# 5 0.0000 0.0000 0.0000 0.0000 18.1082 0.0000
# 6 0.0000 0.0000 0.0000 0.0000 0.0000 23.3678
#
#
#
# Elastic Compliance Matrix: (Units=1/GPa)
#
#
# Indices 1 2 3 4 5 6 
#
# 1 0.047864 -0.035950 -0.003238 0.000000 0.000000 0.000000
# 2 -0.035950 0.047864 -0.003238 0.000000 0.000000 0.000000
# 3 -0.003238 -0.003238 0.014176 0.000000 0.000000 0.000000
# 4 0.000000 0.000000 0.000000 0.055224 0.000000 0.000000
# 5 0.000000 0.000000 0.000000 0.000000 0.055224 0.000000
# 6 0.000000 0.000000 0.000000 0.000000 0.000000 0.042794
#
#
# Mechanical properties :
#
#
# Convention : Reuss Voigt Hill
#
# Bulk Modulus (GPa) = 39.91399 39.97111 39.94255
# Shear Modulus (GPa) = 14.03126 18.75539 16.39333
#
# Velocity S-wave (km/s) = 3.03511 3.50904 3.28064
# Velocity P-wave (km/s) = 6.20379 6.53145 6.36973
#
# Compressibility (1/GPa) = 0.02505387
#
# Stress axis : x y z
#
# Youngs Moduli (GPa) = 20.89243 20.89243 70.54274
#
# Poissons Ratio (x) = 0.75108 0.22839
# Poissons Ratio (y) = 0.75108 0.22839
# Poissons Ratio (z) = 0.06764 0.06764
#
# Static dielectric constant tensor:
#      x y z
#    x 2.892840 0.000000 0.000000 
#    y 0.000000 2.892840 0.000000 
#    z 0.000000 0.000000 2.972840 
# 
# 
# High freq. dielectric constant tensor:
#      x y z
#    x 1.552300 0.000000 0.000000 
#    y 0.000000 1.552300 0.000000 
#    z 0.000000 0.000000 1.585880 
# 
# From -- ./inp_files/278.got.cif
#   From: 2010.03.12/outbox.cif.g09.slc.cpg/sg114_1_cif.got.tgz:278.got - 2010.04.14 02:08:34.
