data_PCOD8309166
_publ_section_title
;
Structure prediction by ZEFSAII (Michael W. Deem and Ramdas Pophale) SiO2 
 PCOD8309166
Probable space group: P -4 M 2
;
_chemical_formula_sum "Si O2"
_cell_formula_units_Z 56
_cell_length_a 20.214215
_cell_length_b 20.214215
_cell_length_c 9.802400
_cell_angle_alpha 90.000000
_cell_angle_beta 90.000000
_cell_angle_gamma 90.000000
_cell_volume 4005.402658
_symmetry_space_group_name_H-M "P -4 M 2"
_symmetry_group_IT_number 115
_symmetry_cell_setting 'tetragonal'
loop_
_space_group_symop_operation_xyz
x,y,z
y,-x,-z
-x,-y,z
-y,x,-z
y,x,-z
-y,-x,-z
-x,y,z
x,-y,z
loop_
_atom_site_type_symbol
_atom_site_label
_atom_site_fract_x
_atom_site_fract_y
_atom_site_fract_z
Si Si1 0.361001 0.743298 0.007730
Si Si2 0.302608 0.424116 0.738595
Si Si3 0.000000 0.578097 0.894186
Si Si4 0.000000 0.420842 0.583577
Si Si5 0.423837 0.349634 0.799794
Si Si6 0.115064 0.422362 0.391719
Si Si7 0.421751 0.122116 0.918872
Si Si8 0.578423 0.258924 0.553759
O O1 0.382187 0.746616 0.165677
O O2 0.284763 0.715238 0.000000
O O3 0.409921 0.689450 0.938810
O O4 0.373562 0.815045 0.942555
O O5 0.282254 0.500000 0.749442
O O6 0.379001 0.415131 0.785462
O O7 0.291491 0.397130 0.586222
O O8 0.000000 0.500000 0.888585
O O9 0.000000 0.606793 0.739367
O O10 0.934444 0.600891 0.975262
O O11 0.937333 0.392647 0.499245
O O12 0.000000 0.500000 0.585928
O O13 0.500000 0.370917 0.789414
O O14 0.397665 0.302903 0.678984
O O15 0.117707 0.500000 0.415658
O O16 0.095733 0.408107 0.234160
O O17 0.186016 0.390578 0.427678
O O18 0.500000 0.141190 0.935708
O O19 0.500000 0.254723 0.559921
#
# Coordination Sequence:
#
# PCOD8309166 Si02
#       8
#     8   8   4   4   8   8   8   8
#     4  10  20  31  44  60  79 105 138 174 207 247
#     4  10  20  29  40  58  75  94 127 173 222 263
#     4   9  19  27  41  67  89 105 125 160 205 252
#     4   9  17  27  37  61  87  99 121 157 195 246
#     4  10  18  31  44  54  71  96 131 172 216 265
#     4   9  16  26  42  56  75 103 127 152 192 245
#     4  10  17  29  45  61  82 110 138 165 205 254
#     4   9  17  28  41  56  70  94 124 156 201 252
#
# _framework density 13.981116
#
# number of rings (size 3 to 8) (size 9 to 14) (size 15 to 20)
#    0.000    2.429    1.429    2.143    2.000    2.000 
#    0.000    0.000    0.000    5.143    0.000    0.000 
#    0.000    0.000    0.000    0.000    0.000    0.357 
#
# Total GULP energy -693998.392598 kJ/mol
# GULP energy per Si atom -12392.828439 kJ/mol
# Density = 1.394929 g / cm^3
# Si number density = 13.981116 Si / 1000 Ang^3
#
#
#
# Elastic Constant Matrix: (Units=GPa)
#
#
# Indices 1 2 3 4 5 6 
#
# 1 48.0809 12.4414 19.5358 0.0000 0.0000 0.0000
# 2 12.4414 48.0802 19.5358 0.0000 0.0000 0.0000
# 3 19.5358 19.5358 83.8566 0.0000 0.0000 0.0000
# 4 0.0000 0.0000 0.0000 18.6520 0.0000 0.0000
# 5 0.0000 0.0000 0.0000 0.0000 18.6521 0.0000
# 6 0.0000 0.0000 0.0000 0.0000 0.0000 8.1072
#
#
#
# Elastic Compliance Matrix: (Units=1/GPa)
#
#
# Indices 1 2 3 4 5 6 
#
# 1 0.023753 -0.004306 -0.004531 0.000000 0.000000 0.000000
# 2 -0.004306 0.023754 -0.004531 0.000000 0.000000 0.000000
# 3 -0.004531 -0.004531 0.014036 0.000000 0.000000 0.000000
# 4 0.000000 0.000000 0.000000 0.053614 0.000000 0.000000
# 5 0.000000 0.000000 0.000000 0.000000 0.053613 0.000000
# 6 0.000000 0.000000 0.000000 0.000000 0.000000 0.123347
#
#
# Mechanical properties :
#
#
# Convention : Reuss Voigt Hill
#
# Bulk Modulus (GPa) = 28.72819 31.44931 30.08875
# Shear Modulus (GPa) = 15.13071 17.64923 16.38997
#
# Velocity S-wave (km/s) = 3.29329 3.55683 3.42759
# Velocity P-wave (km/s) = 5.92059 6.27782 6.10182
#
# Compressibility (1/GPa) = 0.03480901
#
# Stress axis : x y z
#
# Youngs Moduli (GPa) = 42.09945 42.09883 71.24474
#
# Poissons Ratio (x) = 0.18126 0.32279
# Poissons Ratio (y) = 0.18126 0.32279
# Poissons Ratio (z) = 0.19074 0.19074
#
# Static dielectric constant tensor:
#      x y z
#    x 2.549100 0.000000 0.000000 
#    y 0.000000 2.549100 0.000000 
#    z 0.000000 0.000000 3.072560 
# 
# 
# High freq. dielectric constant tensor:
#      x y z
#    x 1.489900 0.000000 0.000000 
#    y 0.000000 1.489900 0.000000 
#    z 0.000000 0.000000 1.561130 
# 
# From -- ./inp_files/2113.got.cif
#   From: 2010.03.12/outbox.cif.g09.slc.cpg/sg115_2_cif.got.tgz:2113.got - 2010.04.14 02:11:21.
