data_PCOD8309923
_publ_section_title
;
Structure prediction by ZEFSAII (Michael W. Deem and Ramdas Pophale) SiO2 
 PCOD8309923
Probable space group: P -4 M 2
;
_chemical_formula_sum "Si O2"
_cell_formula_units_Z 48
_cell_length_a 8.921846
_cell_length_b 8.921846
_cell_length_c 30.597339
_cell_angle_alpha 90.000000
_cell_angle_beta 90.000000
_cell_angle_gamma 90.000000
_cell_volume 2435.527869
_symmetry_space_group_name_H-M "P -4 M 2"
_symmetry_group_IT_number 115
_symmetry_cell_setting 'tetragonal'
loop_
_space_group_symop_operation_xyz
x,y,z
y,-x,-z
-x,-y,z
-y,x,-z
y,x,-z
-y,-x,-z
-x,y,z
x,-y,z
loop_
_atom_site_type_symbol
_atom_site_label
_atom_site_fract_x
_atom_site_fract_y
_atom_site_fract_z
Si Si1 0.170627 0.176035 0.628824
Si Si2 0.175049 0.673306 0.959459
Si Si3 0.828927 0.675634 0.539780
Si Si4 0.827403 0.323939 0.121631
Si Si5 0.823801 0.672487 0.798051
Si Si6 0.672197 0.326392 0.291937
O O1 0.230364 0.248643 0.584114
O O2 0.276531 0.226447 0.667934
O O3 0.000000 0.227880 0.638285
O O4 0.182267 0.000000 0.623437
O O5 0.210970 0.500000 0.968892
O O6 0.258300 0.723150 0.915931
O O7 0.000000 0.700625 0.952505
O O8 0.229554 0.770446 0.000000
O O9 0.726825 0.726825 0.500000
O O10 0.812877 0.500000 0.545831
O O11 0.000000 0.724164 0.530471
O O12 0.801829 0.500000 0.123690
O O13 0.780501 0.254545 0.167560
O O14 0.000000 0.283759 0.111798
O O15 0.780380 0.500000 0.807911
O O16 0.767406 0.720866 0.750406
O O17 0.000000 0.697526 0.800625
O O18 0.500000 0.294029 0.303960
O O19 0.700458 0.500000 0.281817
#
# Coordination Sequence:
#
# PCOD8309923 Si02
#       6
#     8   8   8   8   8   8
#     4  10  21  37  58  83 111 146 187 230 278 332
#     4  11  24  41  62  89 119 152 193 238 285 339
#     4  10  21  37  58  83 111 145 185 229 278 332
#     4  11  24  40  59  86 119 154 193 236 283 337
#     4  10  21  38  61  87 114 148 191 236 283 337
#     4  10  21  37  58  84 114 149 188 231 281 335
#
# _framework density 19.708255000000001
#
# number of rings (size 3 to 8) (size 9 to 14) (size 15 to 20)
#    0.000    1.667    0.000    4.000    0.000   12.000 
#    0.000    0.000    0.000    0.000    0.000    0.000 
#    0.000    0.000    0.000    0.000    0.000    0.000 
#
# Total GULP energy -595528.511306 kJ/mol
# GULP energy per Si atom -12406.843986 kJ/mol
# Density = 1.966340 g / cm^3
# Si number density = 19.708255 Si / 1000 Ang^3
#
#
#
# Elastic Constant Matrix: (Units=GPa)
#
#
# Indices 1 2 3 4 5 6 
#
# 1 70.4260 43.7684 42.3821 0.0000 0.0000 0.0000
# 2 43.7684 70.4260 42.3821 0.0000 0.0000 0.0000
# 3 42.3821 42.3821 120.2422 0.0000 0.0000 0.0000
# 4 0.0000 0.0000 0.0000 38.7948 0.0000 0.0000
# 5 0.0000 0.0000 0.0000 0.0000 38.7948 0.0000
# 6 0.0000 0.0000 0.0000 0.0000 0.0000 31.8530
#
#
#
# Elastic Compliance Matrix: (Units=1/GPa)
#
#
# Indices 1 2 3 4 5 6 
#
# 1 0.024686 -0.012826 -0.004180 0.000000 0.000000 0.000000
# 2 -0.012826 0.024686 -0.004180 0.000000 0.000000 0.000000
# 3 -0.004180 -0.004180 0.011263 0.000000 0.000000 0.000000
# 4 0.000000 0.000000 0.000000 0.025777 0.000000 0.000000
# 5 0.000000 0.000000 0.000000 0.000000 0.025777 0.000000
# 6 0.000000 0.000000 0.000000 0.000000 0.000000 0.031394
#
#
# Mechanical properties :
#
#
# Convention : Reuss Voigt Hill
#
# Bulk Modulus (GPa) = 54.75819 57.57328 56.16574
# Shear Modulus (GPa) = 26.03553 30.72594 28.38073
#
# Velocity S-wave (km/s) = 3.63856 3.95275 3.79891
# Velocity P-wave (km/s) = 6.74514 7.07874 6.91395
#
# Compressibility (1/GPa) = 0.01826211
#
# Stress axis : x y z
#
# Youngs Moduli (GPa) = 40.50818 40.50818 88.78273
#
# Poissons Ratio (x) = 0.51957 0.37114
# Poissons Ratio (y) = 0.51957 0.37114
# Poissons Ratio (z) = 0.16934 0.16934
#
# Static dielectric constant tensor:
#      x y z
#    x 3.641500 0.000000 0.000000 
#    y 0.000000 3.641500 0.000000 
#    z 0.000000 0.000000 6.000840 
# 
# 
# High freq. dielectric constant tensor:
#      x y z
#    x 1.773430 0.000000 0.000000 
#    y 0.000000 1.773430 0.000000 
#    z 0.000000 0.000000 1.781230 
# 
# From -- ./inp_files/5904.got.cif
#   From: 2010.03.12/outbox.cif.g09.slc.cpg/sg115_3_cif.got.tgz:5904.got - 2010.04.14 02:11:21.
