data_PCOD8309041
_publ_section_title
;
Structure prediction by ZEFSAII (Michael W. Deem and Ramdas Pophale) SiO2 
 PCOD8309041
Probable space group: P -4 21 C
;
_chemical_formula_sum "Si O2"
_cell_formula_units_Z 48
_cell_length_a 14.940643
_cell_length_b 14.940643
_cell_length_c 9.164947
_cell_angle_alpha 90.000000
_cell_angle_beta 90.000000
_cell_angle_gamma 90.000000
_cell_volume 2045.825253
_symmetry_space_group_name_H-M "P -4 21 C"
_symmetry_group_IT_number 114
_symmetry_cell_setting 'tetragonal'
loop_
_space_group_symop_operation_xyz
x,y,z
y,-x,-z
-x,-y,z
-y,x,-z
1/2+x,1/2-y,1/2-z
1/2-x,1/2+y,1/2-z
1/2-y,1/2-x,1/2+z
1/2+y,1/2+x,1/2+z
loop_
_atom_site_type_symbol
_atom_site_label
_atom_site_fract_x
_atom_site_fract_y
_atom_site_fract_z
Si Si1 0.436127 0.420889 0.723992
Si Si2 0.153424 0.330489 0.067680
Si Si3 0.200413 0.996227 0.997211
Si Si4 0.519290 0.901278 0.038646
Si Si5 0.323912 0.110042 0.815703
Si Si6 0.214441 0.810170 0.664789
O O1 0.500000 0.500000 0.788805
O O2 0.385055 0.456092 0.582769
O O3 0.485895 0.332337 0.662665
O O4 0.365316 0.384006 0.842699
O O5 0.141903 0.436051 0.047723
O O6 0.248192 0.300770 0.998102
O O7 0.153946 0.296852 0.234891
O O8 0.072692 0.281544 0.984584
O O9 0.233689 0.081914 0.902538
O O10 0.552262 0.835166 0.167518
O O11 0.500000 0.000000 0.104042
O O12 0.593795 0.913147 0.917476
O O13 0.320794 0.215001 0.776632
#
# Coordination Sequence:
#
# PCOD8309041 Si02
#       6
#     8   8   8   8   8   8
#     4  11  21  39  67 102 131 180 236 286 340 411
#     4  11  25  44  67 102 139 181 228 291 353 414
#     4  11  20  40  68 100 136 175 235 288 339 414
#     4  12  25  42  69 101 141 181 224 279 349 423
#     4  12  25  44  70 103 141 184 233 287 353 421
#     4  11  26  44  69 103 137 180 233 291 349 408
#
# _framework density 23.462415
#
# number of rings (size 3 to 8) (size 9 to 14) (size 15 to 20)
#    0.000    0.667    3.333    6.500    2.333    0.000 
#    0.000    0.000    0.000    0.000    4.333    0.000 
#    0.000    0.000    0.000    0.000    0.000    0.000 
#
# Total GULP energy -595186.244147 kJ/mol
# GULP energy per Si atom -12399.713420 kJ/mol
# Density = 2.340901 g / cm^3
# Si number density = 23.462415 Si / 1000 Ang^3
#
#
#
# Elastic Constant Matrix: (Units=GPa)
#
#
# Indices 1 2 3 4 5 6 
#
# 1 96.3713 21.0562 10.4104 0.0000 0.0000 0.0000
# 2 21.0562 96.3713 10.4104 0.0000 0.0000 0.0000
# 3 10.4104 10.4104 39.2220 0.0000 0.0000 0.0000
# 4 0.0000 0.0000 0.0000 29.5557 0.0000 0.0000
# 5 0.0000 0.0000 0.0000 0.0000 29.5557 0.0000
# 6 0.0000 0.0000 0.0000 0.0000 0.0000 43.4187
#
#
#
# Elastic Compliance Matrix: (Units=1/GPa)
#
#
# Indices 1 2 3 4 5 6 
#
# 1 0.011107 -0.002171 -0.002372 0.000000 0.000000 0.000000
# 2 -0.002171 0.011107 -0.002372 0.000000 0.000000 0.000000
# 3 -0.002372 -0.002372 0.026755 0.000000 0.000000 0.000000
# 4 0.000000 0.000000 0.000000 0.033834 0.000000 0.000000
# 5 0.000000 0.000000 0.000000 0.000000 0.033834 0.000000
# 6 0.000000 0.000000 0.000000 0.000000 0.000000 0.023032
#
#
# Mechanical properties :
#
#
# Convention : Reuss Voigt Hill
#
# Bulk Modulus (GPa) = 28.45744 35.07984 31.76864
# Shear Modulus (GPa) = 30.26421 33.17852 31.72137
#
# Velocity S-wave (km/s) = 3.59542 3.76455 3.68095
# Velocity P-wave (km/s) = 5.42137 5.82063 5.62455
#
# Compressibility (1/GPa) = 0.03514020
#
# Stress axis : x y z
#
# Youngs Moduli (GPa) = 90.03328 90.03328 37.37618
#
# Poissons Ratio (x) = 0.19542 0.08865
# Poissons Ratio (y) = 0.19542 0.08865
# Poissons Ratio (z) = 0.21355 0.21355
#
# Static dielectric constant tensor:
#      x y z
#    x 4.435400 0.000000 0.000000 
#    y 0.000000 4.435400 0.000000 
#    z 0.000000 0.000000 3.817010 
# 
# 
# High freq. dielectric constant tensor:
#      x y z
#    x 1.939830 0.000000 0.000000 
#    y 0.000000 1.939830 0.000000 
#    z 0.000000 0.000000 1.896370 
# 
# From -- ./inp_files/1649.got.cif
#   From: 2010.03.12/outbox.cif.g09.slc.cpg/sg114_1_cif.got.tgz:1649.got - 2010.04.14 02:08:34.
