data_PCOD8309074
_publ_section_title
;
Structure prediction by ZEFSAII (Michael W. Deem and Ramdas Pophale) SiO2 
 PCOD8309074
Probable space group: P -4 21 C
;
_chemical_formula_sum "Si O2"
_cell_formula_units_Z 36
_cell_length_a 8.564504
_cell_length_b 8.564504
_cell_length_c 19.806221
_cell_angle_alpha 90.000000
_cell_angle_beta 90.000000
_cell_angle_gamma 90.000000
_cell_volume 1452.800744
_symmetry_space_group_name_H-M "P -4 21 C"
_symmetry_group_IT_number 114
_symmetry_cell_setting 'tetragonal'
loop_
_space_group_symop_operation_xyz
x,y,z
y,-x,-z
-x,-y,z
-y,x,-z
1/2+x,1/2-y,1/2-z
1/2-x,1/2+y,1/2-z
1/2-y,1/2-x,1/2+z
1/2+y,1/2+x,1/2+z
loop_
_atom_site_type_symbol
_atom_site_label
_atom_site_fract_x
_atom_site_fract_y
_atom_site_fract_z
Si Si1 0.243853 0.025515 0.510606
Si Si2 0.704502 0.422211 0.538900
Si Si3 0.559623 0.712763 0.305761
Si Si4 0.571461 0.747458 0.725478
Si Si5 0.500000 0.000000 0.616540
O O1 0.368440 0.115674 0.463684
O O2 0.112730 0.157131 0.530042
O O3 0.340625 0.961686 0.574910
O O4 0.590350 0.305829 0.497640
O O5 0.658446 0.428493 0.616857
O O6 0.650080 0.585105 0.259450
O O7 0.377141 0.712881 0.285778
O O8 0.637974 0.879728 0.287473
O O9 0.541362 0.848086 0.658824
#
# Coordination Sequence:
#
# PCOD8309074 Si02
#       5
#     8   8   8   8   4
#     4  11  24  40  64  99 136 179 237 306 365 421
#     4  11  22  43  73 103 141 189 241 289 347 433
#     4  11  24  43  69 105 141 190 237 287 358 424
#     4  11  24  43  68  97 139 182 235 290 350 438
#     4  12  24  46  70  96 142 196 240 298 376 446
#
# _framework density 24.779726
#
# number of rings (size 3 to 8) (size 9 to 14) (size 15 to 20)
#    0.000    0.889    0.000    9.333    0.000    1.778 
#    0.000   10.000    0.000    0.000    0.000    0.000 
#    0.000    0.000    0.000    0.000    0.000    0.000 
#
# Total GULP energy -446119.016355 kJ/mol
# GULP energy per Si atom -12392.194899 kJ/mol
# Density = 2.472333 g / cm^3
# Si number density = 24.779726 Si / 1000 Ang^3
#
#
#
# Elastic Constant Matrix: (Units=GPa)
#
#
# Indices 1 2 3 4 5 6 
#
# 1 114.2496 53.8696 51.3174 0.0000 0.0000 0.0000
# 2 53.8696 114.2496 51.3174 0.0000 0.0000 0.0000
# 3 51.3174 51.3174 111.6871 0.0000 0.0000 0.0000
# 4 0.0000 0.0000 0.0000 37.0045 0.0000 0.0000
# 5 0.0000 0.0000 0.0000 0.0000 37.0045 0.0000
# 6 0.0000 0.0000 0.0000 0.0000 0.0000 66.1292
#
#
#
# Elastic Compliance Matrix: (Units=1/GPa)
#
#
# Indices 1 2 3 4 5 6 
#
# 1 0.012414 -0.004147 -0.003799 0.000000 0.000000 0.000000
# 2 -0.004147 0.012414 -0.003799 0.000000 0.000000 0.000000
# 3 -0.003799 -0.003799 0.012444 0.000000 0.000000 0.000000
# 4 0.000000 0.000000 0.000000 0.027024 0.000000 0.000000
# 5 0.000000 0.000000 0.000000 0.000000 0.027024 0.000000
# 6 0.000000 0.000000 0.000000 0.000000 0.000000 0.015122
#
#
# Mechanical properties :
#
#
# Convention : Reuss Voigt Hill
#
# Bulk Modulus (GPa) = 72.54603 72.57725 72.56164
# Shear Modulus (GPa) = 37.16752 40.27311 38.72031
#
# Velocity S-wave (km/s) = 3.87708 4.03581 3.95724
# Velocity P-wave (km/s) = 7.02725 7.14629 7.08702
#
# Compressibility (1/GPa) = 0.01378435
#
# Stress axis : x y z
#
# Youngs Moduli (GPa) = 80.55132 80.55132 80.35847
#
# Poissons Ratio (x) = 0.33407 0.30524
# Poissons Ratio (y) = 0.33407 0.30524
# Poissons Ratio (z) = 0.30598 0.30598
#
# Static dielectric constant tensor:
#      x y z
#    x 4.817870 0.000000 0.000000 
#    y 0.000000 4.817870 0.000000 
#    z 0.000000 0.000000 3.966440 
# 
# 
# High freq. dielectric constant tensor:
#      x y z
#    x 2.008500 0.000000 0.000000 
#    y 0.000000 2.008500 0.000000 
#    z 0.000000 0.000000 1.939740 
# 
# From -- ./inp_files/2926.got.cif
#   From: 2010.03.12/outbox.cif.g09.slc.cpg/sg114_2_cif.got.tgz:2926.got - 2010.04.14 02:08:34.
