data_PCOD8309294
_publ_section_title
;
Structure prediction by ZEFSAII (Michael W. Deem and Ramdas Pophale) SiO2 
 PCOD8309294
Probable space group: P -4 M 2
;
_chemical_formula_sum "Si O2"
_cell_formula_units_Z 40
_cell_length_a 8.071387
_cell_length_b 8.071387
_cell_length_c 28.640516
_cell_angle_alpha 90.000000
_cell_angle_beta 90.000000
_cell_angle_gamma 90.000000
_cell_volume 1865.851947
_symmetry_space_group_name_H-M "P -4 M 2"
_symmetry_group_IT_number 115
_symmetry_cell_setting 'tetragonal'
loop_
_space_group_symop_operation_xyz
x,y,z
y,-x,-z
-x,-y,z
-y,x,-z
y,x,-z
-y,-x,-z
-x,y,z
x,-y,z
loop_
_atom_site_type_symbol
_atom_site_label
_atom_site_fract_x
_atom_site_fract_y
_atom_site_fract_z
Si Si1 0.686863 0.812554 0.453131
Si Si2 0.000000 0.196157 0.108140
Si Si3 0.319595 0.808777 0.266819
Si Si4 0.198598 0.000000 0.786594
Si Si5 0.806358 0.687501 0.952127
Si Si6 0.184924 0.310695 0.358800
O O1 0.792483 0.792483 0.500000
O O2 0.500000 0.763727 0.465751
O O3 0.748958 0.697910 0.411383
O O4 0.702990 0.000000 0.435475
O O5 0.000000 0.266064 0.160615
O O6 0.169890 0.258379 0.083325
O O7 0.000000 0.000000 0.109355
O O8 0.500000 0.730590 0.253015
O O9 0.296687 0.790233 0.322471
O O10 0.164916 0.728132 0.238762
O O11 0.325346 0.000000 0.253747
O O12 0.000000 0.000000 0.784034
O O13 0.775361 0.500000 0.932396
O O14 0.000000 0.715542 0.962596
O O15 0.706214 0.706214 0.000000
O O16 0.187403 0.500000 0.342817
O O17 0.000000 0.236940 0.357109
#
# Coordination Sequence:
#
# PCOD8309294 Si02
#       6
#     8   4   8   4   8   8
#     4  11  24  40  58  83 114 147 185 230 286 350
#     4   9  18  32  55  85 123 160 199 251 304 356
#     4  10  20  35  58  85 114 152 198 246 298 358
#     4   9  18  34  55  85 121 157 194 248 304 350
#     4  10  19  32  55  84 116 158 204 250 303 364
#     4  11  23  38  58  84 112 146 192 240 291 354
#
# _framework density 21.437927999999999
#
# number of rings (size 3 to 8) (size 9 to 14) (size 15 to 20)
#    0.000    1.800    2.000    2.400    0.000    9.000 
#    0.000    4.000    0.000    2.400    0.000    2.800 
#    0.000    0.000    0.000    0.000    0.000    0.000 
#
# Total GULP energy -495921.277819 kJ/mol
# GULP energy per Si atom -12398.031945 kJ/mol
# Density = 2.138913 g / cm^3
# Si number density = 21.437928 Si / 1000 Ang^3
#
#
#
# Elastic Constant Matrix: (Units=GPa)
#
#
# Indices 1 2 3 4 5 6 
#
# 1 97.3696 36.2684 39.4873 0.0000 0.0000 0.0000
# 2 36.2684 97.3696 39.4873 0.0000 0.0000 0.0000
# 3 39.4873 39.4873 144.7476 0.0000 0.0000 0.0000
# 4 0.0000 0.0000 0.0000 12.8869 0.0000 0.0000
# 5 0.0000 0.0000 0.0000 0.0000 12.8869 0.0000
# 6 0.0000 0.0000 0.0000 0.0000 0.0000 16.6070
#
#
#
# Elastic Compliance Matrix: (Units=1/GPa)
#
#
# Indices 1 2 3 4 5 6 
#
# 1 0.012644 -0.003723 -0.002434 0.000000 0.000000 0.000000
# 2 -0.003723 0.012644 -0.002434 0.000000 0.000000 0.000000
# 3 -0.002434 -0.002434 0.008236 0.000000 0.000000 0.000000
# 4 0.000000 0.000000 0.000000 0.077598 0.000000 0.000000
# 5 0.000000 0.000000 0.000000 0.000000 0.077598 0.000000
# 6 0.000000 0.000000 0.000000 0.000000 0.000000 0.060216
#
#
# Mechanical properties :
#
#
# Convention : Reuss Voigt Hill
#
# Bulk Modulus (GPa) = 61.18500 63.33029 62.25764
# Shear Modulus (GPa) = 18.41192 23.42575 20.91884
#
# Velocity S-wave (km/s) = 2.93379 3.30922 3.12715
# Velocity P-wave (km/s) = 6.33077 6.64881 6.49174
#
# Compressibility (1/GPa) = 0.01634388
#
# Stress axis : x y z
#
# Youngs Moduli (GPa) = 79.09071 79.09071 121.41226
#
# Poissons Ratio (x) = 0.29442 0.29548
# Poissons Ratio (y) = 0.29442 0.29548
# Poissons Ratio (z) = 0.19248 0.19248
#
# Static dielectric constant tensor:
#      x y z
#    x 3.867660 0.000000 0.000000 
#    y 0.000000 3.867660 0.000000 
#    z 0.000000 0.000000 3.724400 
# 
# 
# High freq. dielectric constant tensor:
#      x y z
#    x 1.833390 0.000000 0.000000 
#    y 0.000000 1.833390 0.000000 
#    z 0.000000 0.000000 1.827960 
# 
# From -- ./inp_files/5523.got.cif
#   From: 2010.03.12/outbox.cif.g09.slc.cpg/sg115_3_cif.got.tgz:5523.got - 2010.04.14 02:11:21.
