data_PCOD8309077
_publ_section_title
;
Structure prediction by ZEFSAII (Michael W. Deem and Ramdas Pophale) SiO2 
 PCOD8309077
Probable space group: P -4 21 C
;
_chemical_formula_sum "Si O2"
_cell_formula_units_Z 60
_cell_length_a 11.419178
_cell_length_b 11.419178
_cell_length_c 22.173061
_cell_angle_alpha 90.000000
_cell_angle_beta 90.000000
_cell_angle_gamma 90.000000
_cell_volume 2891.314520
_symmetry_space_group_name_H-M "P -4 21 C"
_symmetry_group_IT_number 114
_symmetry_cell_setting 'tetragonal'
loop_
_space_group_symop_operation_xyz
x,y,z
y,-x,-z
-x,-y,z
-y,x,-z
1/2+x,1/2-y,1/2-z
1/2-x,1/2+y,1/2-z
1/2-y,1/2-x,1/2+z
1/2+y,1/2+x,1/2+z
loop_
_atom_site_type_symbol
_atom_site_label
_atom_site_fract_x
_atom_site_fract_y
_atom_site_fract_z
Si Si1 0.290040 0.087549 0.790537
Si Si2 0.692458 0.510559 0.502326
Si Si3 0.992600 0.256266 0.346010
Si Si4 0.906169 0.294551 0.887359
Si Si5 0.799213 0.616575 0.618207
Si Si6 0.876060 0.720287 0.810124
Si Si7 0.500000 0.500000 0.838566
Si Si8 0.520784 0.237136 0.810814
O O1 0.260586 0.064524 0.720514
O O2 0.180925 0.153255 0.822060
O O3 0.402545 0.168563 0.798535
O O4 0.310189 0.969472 0.825818
O O5 0.615876 0.394681 0.517616
O O6 0.778236 0.481703 0.447422
O O7 0.783185 0.546271 0.555413
O O8 0.919101 0.339867 0.390411
O O9 0.124871 0.298998 0.344617
O O10 0.992058 0.124013 0.374106
O O11 0.816241 0.191882 0.875362
O O12 0.990972 0.287536 0.830793
O O13 0.916560 0.699406 0.624941
O O14 0.881883 0.698880 0.738411
O O15 0.493498 0.376317 0.802524
#
# Coordination Sequence:
#
# PCOD8309077 Si02
#       8
#     8   8   8   8   8   8   4   8
#     4  12  24  37  59  91 134 173 220 271 321 389
#     4   9  20  42  67  98 130 166 221 281 332 390
#     4  12  24  40  58  94 135 176 221 265 330 391
#     4  11  23  40  66  95 129 172 215 278 332 391
#     4  11  23  40  66  95 129 172 215 278 332 391
#     4  12  24  37  59  91 134 173 220 271 321 389
#     4  12  24  40  64  88 133 185 216 268 328 402
#     4  12  24  40  58  94 135 176 221 265 330 391
#
# _framework density 20.751806999999999
#
# number of rings (size 3 to 8) (size 9 to 14) (size 15 to 20)
#    0.000    0.667    6.667    1.600    1.867    1.600 
#    0.000    2.667    0.000    0.000    0.000    3.733 
#    0.000    0.000    0.000    0.000    0.000    0.000 
#
# Total GULP energy -743485.091362 kJ/mol
# GULP energy per Si atom -12391.418189 kJ/mol
# Density = 2.070457 g / cm^3
# Si number density = 20.751807 Si / 1000 Ang^3
#
#
#
# Elastic Constant Matrix: (Units=GPa)
#
#
# Indices 1 2 3 4 5 6 
#
# 1 92.5508 19.1904 31.1457 0.0000 0.0000 0.0000
# 2 19.1904 92.5508 31.1457 0.0000 0.0000 0.0000
# 3 31.1457 31.1457 72.5996 0.0000 0.0000 0.0000
# 4 0.0000 0.0000 0.0000 24.3064 0.0000 0.0000
# 5 0.0000 0.0000 0.0000 0.0000 24.3064 0.0000
# 6 0.0000 0.0000 0.0000 0.0000 0.0000 39.3452
#
#
#
# Elastic Compliance Matrix: (Units=1/GPa)
#
#
# Indices 1 2 3 4 5 6 
#
# 1 0.012697 -0.000935 -0.005046 0.000000 0.000000 0.000000
# 2 -0.000935 0.012697 -0.005046 0.000000 0.000000 0.000000
# 3 -0.005046 -0.005046 0.018104 0.000000 0.000000 0.000000
# 4 0.000000 0.000000 0.000000 0.041141 0.000000 0.000000
# 5 0.000000 0.000000 0.000000 0.000000 0.041141 0.000000
# 6 0.000000 0.000000 0.000000 0.000000 0.000000 0.025416
#
#
# Mechanical properties :
#
#
# Convention : Reuss Voigt Hill
#
# Bulk Modulus (GPa) = 46.63320 46.74054 46.68687
# Shear Modulus (GPa) = 27.71655 29.33957 28.52806
#
# Velocity S-wave (km/s) = 3.65858 3.76417 3.71175
# Velocity P-wave (km/s) = 6.35355 6.43929 6.39657
#
# Compressibility (1/GPa) = 0.02144395
#
# Stress axis : x y z
#
# Youngs Moduli (GPa) = 78.76002 78.76002 55.23707
#
# Poissons Ratio (x) = 0.07360 0.27873
# Poissons Ratio (y) = 0.07360 0.27873
# Poissons Ratio (z) = 0.39743 0.39743
#
# Static dielectric constant tensor:
#      x y z
#    x 4.011520 0.000000 0.000000 
#    y 0.000000 4.011520 0.000000 
#    z 0.000000 0.000000 3.552090 
# 
# 
# High freq. dielectric constant tensor:
#      x y z
#    x 1.830110 0.000000 0.000000 
#    y 0.000000 1.830110 0.000000 
#    z 0.000000 0.000000 1.762720 
# 
# From -- ./inp_files/3239.got.cif
#   From: 2010.03.12/outbox.cif.g09.slc.cpg/sg114_2_cif.got.tgz:3239.got - 2010.04.14 02:08:34.
