data_PCOD8309344
_publ_section_title
;
Structure prediction by ZEFSAII (Michael W. Deem and Ramdas Pophale) SiO2 
 PCOD8309344
Probable space group: P -4 M 2
;
_chemical_formula_sum "Si O2"
_cell_formula_units_Z 40
_cell_length_a 9.506634
_cell_length_b 9.506634
_cell_length_c 25.831727
_cell_angle_alpha 90.000000
_cell_angle_beta 90.000000
_cell_angle_gamma 90.000000
_cell_volume 2334.570484
_symmetry_space_group_name_H-M "P -4 M 2"
_symmetry_group_IT_number 115
_symmetry_cell_setting 'tetragonal'
loop_
_space_group_symop_operation_xyz
x,y,z
y,-x,-z
-x,-y,z
-y,x,-z
y,x,-z
-y,-x,-z
-x,y,z
x,-y,z
loop_
_atom_site_type_symbol
_atom_site_label
_atom_site_fract_x
_atom_site_fract_y
_atom_site_fract_z
Si Si1 0.666425 0.837122 0.346989
Si Si2 0.666991 0.656735 0.443138
Si Si3 0.166437 0.345251 0.147870
Si Si4 0.843820 0.168148 0.943497
Si Si5 0.163384 0.664536 0.264100
O O1 0.500000 0.818489 0.340571
O O2 0.721624 0.764894 0.399875
O O3 0.740580 0.761052 0.299532
O O4 0.710143 0.000000 0.348395
O O5 0.713131 0.713131 0.500000
O O6 0.500000 0.647662 0.442505
O O7 0.728821 0.500000 0.432130
O O8 0.231227 0.500000 0.140344
O O9 0.232757 0.247848 0.103188
O O10 0.201702 0.290107 0.205394
O O11 0.000000 0.352208 0.141411
O O12 0.000000 0.228179 0.935333
O O13 0.846263 0.000000 0.941978
O O14 0.784639 0.215362 0.000000
O O15 0.197352 0.500000 0.272992
O O16 0.000000 0.694127 0.276011
#
# Coordination Sequence:
#
# PCOD8309344 Si02
#       5
#     8   8   8   8   8
#     4  10  20  32  47  70  99 127 153 184 227 277
#     4   8  14  27  48  69  87 114 155 195 225 259
#     4   8  14  25  41  61  85 112 144 183 223 262
#     4   8  13  21  35  57  82 107 139 177 214 257
#     4   9  18  32  49  69  91 118 157 199 233 269
#
# _framework density 17.133770999999999
#
# number of rings (size 3 to 8) (size 9 to 14) (size 15 to 20)
#    0.000    3.400    0.000    3.000    0.000    2.400 
#    0.000    3.000    0.000    4.800    0.000    2.800 
#    0.000    0.000    0.000    0.000    0.000    0.000 
#
# Total GULP energy -495686.126631 kJ/mol
# GULP energy per Si atom -12392.153166 kJ/mol
# Density = 1.709477 g / cm^3
# Si number density = 17.133771 Si / 1000 Ang^3
#
#
#
# Elastic Constant Matrix: (Units=GPa)
#
#
# Indices 1 2 3 4 5 6 
#
# 1 58.6372 32.3265 62.2510 0.0000 0.0000 0.0000
# 2 32.3265 58.6370 62.2510 0.0000 0.0000 0.0000
# 3 62.2510 62.2510 173.5845 0.0000 0.0000 0.0000
# 4 0.0000 0.0000 0.0000 27.3136 0.0000 0.0000
# 5 0.0000 0.0000 0.0000 0.0000 27.3136 0.0000
# 6 0.0000 0.0000 0.0000 0.0000 0.0000 17.8119
#
#
#
# Elastic Compliance Matrix: (Units=1/GPa)
#
#
# Indices 1 2 3 4 5 6 
#
# 1 0.029799 -0.008208 -0.007743 0.000000 0.000000 0.000000
# 2 -0.008208 0.029800 -0.007743 0.000000 0.000000 0.000000
# 3 -0.007743 -0.007743 0.011315 0.000000 0.000000 0.000000
# 4 0.000000 0.000000 0.000000 0.036612 0.000000 0.000000
# 5 0.000000 0.000000 0.000000 0.000000 0.036612 0.000000
# 6 0.000000 0.000000 0.000000 0.000000 0.000000 0.056142
#
#
# Mechanical properties :
#
#
# Convention : Reuss Voigt Hill
#
# Bulk Modulus (GPa) = 42.50804 67.16841 54.83823
# Shear Modulus (GPa) = 19.56872 23.42316 21.49594
#
# Velocity S-wave (km/s) = 3.38318 3.70141 3.54587
# Velocity P-wave (km/s) = 6.33440 7.58648 6.98854
#
# Compressibility (1/GPa) = 0.02352496
#
# Stress axis : x y z
#
# Youngs Moduli (GPa) = 33.55769 33.55757 88.38129
#
# Poissons Ratio (x) = 0.27544 0.68435
# Poissons Ratio (y) = 0.27544 0.68435
# Poissons Ratio (z) = 0.25984 0.25984
#
# Static dielectric constant tensor:
#      x y z
#    x 3.108420 0.000000 0.000000 
#    y 0.000000 3.108410 0.000000 
#    z 0.000000 0.000000 3.586600 
# 
# 
# High freq. dielectric constant tensor:
#      x y z
#    x 1.625360 0.000000 0.000000 
#    y 0.000000 1.625360 0.000000 
#    z 0.000000 0.000000 1.679870 
# 
# From -- ./inp_files/5451.got.cif
#   From: 2010.03.12/outbox.cif.g09.slc.cpg/sg115_3_cif.got.tgz:5451.got - 2010.04.14 02:11:21.
