data_PCOD8309217
_publ_section_title
;
Structure prediction by ZEFSAII (Michael W. Deem and Ramdas Pophale) SiO2 
 PCOD8309217
Probable space group: P -4 M 2
;
_chemical_formula_sum "Si O2"
_cell_formula_units_Z 36
_cell_length_a 18.096420
_cell_length_b 18.096420
_cell_length_c 7.782768
_cell_angle_alpha 90.000000
_cell_angle_beta 90.000000
_cell_angle_gamma 90.000000
_cell_volume 2548.704109
_symmetry_space_group_name_H-M "P -4 M 2"
_symmetry_group_IT_number 115
_symmetry_cell_setting 'tetragonal'
loop_
_space_group_symop_operation_xyz
x,y,z
y,-x,-z
-x,-y,z
-y,x,-z
y,x,-z
-y,-x,-z
-x,y,z
x,-y,z
loop_
_atom_site_type_symbol
_atom_site_label
_atom_site_fract_x
_atom_site_fract_y
_atom_site_fract_z
Si Si1 0.912538 0.417879 0.661557
Si Si2 0.087317 0.918361 0.312404
Si Si3 0.841841 0.841841 0.000000
Si Si4 0.582315 0.912500 0.719922
Si Si5 0.911521 0.314669 0.971068
O O1 0.881090 0.500000 0.702144
O O2 0.886351 0.392437 0.470851
O O3 0.885826 0.360217 0.803883
O O4 0.000000 0.422089 0.666773
O O5 0.112127 0.887874 0.500000
O O6 0.111357 0.862572 0.166746
O O7 0.000000 0.924707 0.312538
O O8 0.121558 0.000000 0.277276
O O9 0.860538 0.757271 0.963444
O O10 0.500000 0.881486 0.760715
O O11 0.578727 0.000000 0.727476
O O12 0.640453 0.885151 0.861099
O O13 0.000000 0.297532 0.971790
#
# Coordination Sequence:
#
# PCOD8309217 Si02
#       5
#     8   8   4   8   8
#     4   8  14  26  44  62  76  91 117 157 200 237
#     4   9  18  32  46  54  62  88 136 186 219 238
#     4  12  22  29  38  56  82 108 130 159 202 246
#     4   8  14  26  44  62  76  91 117 157 200 237
#     4  10  19  28  39  56  78 104 132 162 197 236
#
# _framework density 14.124825
#
# number of rings (size 3 to 8) (size 9 to 14) (size 15 to 20)
#    0.000    2.889    0.000    4.667    0.000    5.333 
#    0.000    4.444    0.000    0.000    0.000    0.000 
#    0.000    0.000    0.000    0.000    0.000    8.889 
#
# Total GULP energy -446097.484795 kJ/mol
# GULP energy per Si atom -12391.596800 kJ/mol
# Density = 1.409268 g / cm^3
# Si number density = 14.124825 Si / 1000 Ang^3
#
#
#
# Elastic Constant Matrix: (Units=GPa)
#
#
# Indices 1 2 3 4 5 6 
#
# 1 29.5097 33.3040 33.6818 0.0000 0.0000 0.0000
# 2 33.3040 29.5077 33.6811 0.0000 0.0000 0.0000
# 3 33.6818 33.6811 116.4787 0.0000 0.0000 0.0000
# 4 0.0000 0.0000 0.0000 20.1339 0.0000 0.0000
# 5 0.0000 0.0000 0.0000 0.0000 20.1338 0.0000
# 6 0.0000 0.0000 0.0000 0.0000 0.0000 9.4162
#
#
#
# Elastic Compliance Matrix: (Units=1/GPa)
#
#
# Indices 1 2 3 4 5 6 
#
# 1 -0.120201 0.143282 -0.006674 0.000000 0.000000 0.000000
# 2 0.143282 -0.120210 -0.006672 0.000000 0.000000 0.000000
# 3 -0.006674 -0.006672 0.012444 0.000000 0.000000 0.000000
# 4 0.000000 0.000000 0.000000 0.049667 0.000000 0.000000
# 5 0.000000 0.000000 0.000000 0.000000 0.049668 0.000000
# 6 0.000000 0.000000 0.000000 0.000000 0.000000 0.106200
#
#
# Mechanical properties :
#
#
# Convention : Reuss Voigt Hill
#
# Bulk Modulus (GPa) = 31.34206 41.86999 36.60603
# Shear Modulus (GPa) = -18.40479 14.92540 -1.73969
#
# Velocity S-wave (km/s) = -3.61364 3.25419 -1.11100
# Velocity P-wave (km/s) = 2.19689 6.62018 4.93220
#
# Compressibility (1/GPa) = 0.03190601
#
# Stress axis : x y z
#
# Youngs Moduli (GPa) = -8.31942 -8.31876 80.35730
#
# Poissons Ratio (x) = 1.19193 0.53627
# Poissons Ratio (y) = 1.19202 0.53617
# Poissons Ratio (z) = -0.05552 -0.05551
#
# Static dielectric constant tensor:
#      x y z
#    x 2.536750 0.000000 0.000000 
#    y 0.000000 2.536750 0.000000 
#    z 0.000000 0.000000 3.338230 
# 
# 
# High freq. dielectric constant tensor:
#      x y z
#    x 1.495070 0.000000 0.000000 
#    y 0.000000 1.495070 0.000000 
#    z 0.000000 0.000000 1.566210 
# 
# From -- ./inp_files/1472.got.cif
#   From: 2010.03.12/outbox.cif.g09.slc.cpg/sg115_1_cif.got.tgz:1472.got - 2010.04.14 02:11:21.
