data_PCOD8309309
_publ_section_title
;
Structure prediction by ZEFSAII (Michael W. Deem and Ramdas Pophale) SiO2 
 PCOD8309309
Probable space group: P -4 M 2
;
_chemical_formula_sum "Si O2"
_cell_formula_units_Z 60
_cell_length_a 13.117593
_cell_length_b 13.117593
_cell_length_c 19.249345
_cell_angle_alpha 90.000000
_cell_angle_beta 90.000000
_cell_angle_gamma 90.000000
_cell_volume 3312.258781
_symmetry_space_group_name_H-M "P -4 M 2"
_symmetry_group_IT_number 115
_symmetry_cell_setting 'tetragonal'
loop_
_space_group_symop_operation_xyz
x,y,z
y,-x,-z
-x,-y,z
-y,x,-z
y,x,-z
-y,-x,-z
-x,y,z
x,-y,z
loop_
_atom_site_type_symbol
_atom_site_label
_atom_site_fract_x
_atom_site_fract_y
_atom_site_fract_z
Si Si1 0.613135 0.879507 0.071992
Si Si2 0.238081 0.252275 0.825141
Si Si3 0.117477 0.116400 0.283704
Si Si4 0.383961 0.616167 0.253661
Si Si5 0.200839 0.117189 0.570912
Si Si6 0.615051 0.765718 0.619974
Si Si7 0.383656 0.118602 0.916182
Si Si8 0.385775 0.614226 0.500000
O O1 0.500000 0.842033 0.095707
O O2 0.703349 0.845329 0.122563
O O3 0.613769 0.000000 0.070424
O O4 0.634980 0.838917 0.994006
O O5 0.184811 0.195895 0.760261
O O6 0.305145 0.351627 0.805673
O O7 0.309443 0.171498 0.862324
O O8 0.142633 0.122625 0.366448
O O9 0.000000 0.151581 0.270858
O O10 0.132223 0.000000 0.260311
O O11 0.500000 0.640181 0.279488
O O12 0.379996 0.500000 0.226428
O O13 0.295629 0.633739 0.309866
O O14 0.179939 0.179939 0.500000
O O15 0.311077 0.139436 0.605800
O O16 0.195261 0.000000 0.548841
O O17 0.500000 0.807318 0.615190
O O18 0.643377 0.683872 0.562995
O O19 0.500000 0.139489 0.893334
O O20 0.358194 0.000000 0.912989
O O21 0.500000 0.631355 0.473432
#
# Coordination Sequence:
#
# PCOD8309309 Si02
#       8
#     8   8   8   8   8   8   8   4
#     4   9  19  35  53  76 107 144 184 221 262 320
#     4  12  19  32  56  83 106 138 179 227 278 317
#     4  10  22  38  55  79 108 138 178 229 277 322
#     4  10  21  35  51  76 110 143 175 214 264 325
#     4  11  22  39  60  81 105 142 186 222 265 324
#     4  10  19  34  54  78 107 138 171 213 264 314
#     4   9  19  35  53  76 109 145 181 220 264 323
#     4   9  16  28  52  78  99 130 172 208 243 304
#
# _framework density 18.114525
#
# number of rings (size 3 to 8) (size 9 to 14) (size 15 to 20)
#    0.000    1.933    2.000    3.600    0.000    2.533 
#    0.000    0.000    0.000    0.000    0.000   11.200 
#    0.000    0.000    0.000    0.000    0.000    0.000 
#
# Total GULP energy -743620.545603 kJ/mol
# GULP energy per Si atom -12393.675760 kJ/mol
# Density = 1.807330 g / cm^3
# Si number density = 18.114525 Si / 1000 Ang^3
#
#
#
# Elastic Constant Matrix: (Units=GPa)
#
#
# Indices 1 2 3 4 5 6 
#
# 1 85.0095 43.7368 37.6917 0.0000 0.0000 0.0000
# 2 43.7368 85.0184 37.6933 0.0000 0.0000 0.0000
# 3 37.6917 37.6933 79.6797 0.0000 0.0000 0.0000
# 4 0.0000 0.0000 0.0000 37.1510 0.0000 0.0000
# 5 0.0000 0.0000 0.0000 0.0000 37.1490 0.0000
# 6 0.0000 0.0000 0.0000 0.0000 0.0000 30.0278
#
#
#
# Elastic Compliance Matrix: (Units=1/GPa)
#
#
# Indices 1 2 3 4 5 6 
#
# 1 0.017485 -0.006742 -0.005082 0.000000 0.000000 0.000000
# 2 -0.006742 0.017483 -0.005081 0.000000 0.000000 0.000000
# 3 -0.005082 -0.005081 0.017358 0.000000 0.000000 0.000000
# 4 0.000000 0.000000 0.000000 0.026917 0.000000 0.000000
# 5 0.000000 0.000000 0.000000 0.000000 0.026919 0.000000
# 6 0.000000 0.000000 0.000000 0.000000 0.000000 0.033302
#
#
# Mechanical properties :
#
#
# Convention : Reuss Voigt Hill
#
# Bulk Modulus (GPa) = 54.00731 54.21679 54.11205
# Shear Modulus (GPa) = 27.86326 29.57129 28.71727
#
# Velocity S-wave (km/s) = 3.92621 4.04476 3.98592
# Velocity P-wave (km/s) = 7.10159 7.19781 7.14986
#
# Compressibility (1/GPa) = 0.01851601
#
# Stress axis : x y z
#
# Youngs Moduli (GPa) = 57.19066 57.19703 57.61036
#
# Poissons Ratio (x) = 0.38563 0.29277
# Poissons Ratio (y) = 0.38558 0.29274
# Poissons Ratio (z) = 0.29064 0.29064
#
# Static dielectric constant tensor:
#      x y z
#    x 3.015470 0.000000 0.000000 
#    y 0.000000 3.015310 0.000000 
#    z 0.000000 0.000000 3.491700 
# 
# 
# High freq. dielectric constant tensor:
#      x y z
#    x 1.699760 0.000000 0.000000 
#    y 0.000000 1.699760 0.000000 
#    z 0.000000 0.000000 1.703050 
# 
# From -- ./inp_files/4993.got.cif
#   From: 2010.03.12/outbox.cif.g09.slc.cpg/sg115_3_cif.got.tgz:4993.got - 2010.04.14 02:11:21.
