data_PCOD8309101
_publ_section_title
;
Structure prediction by ZEFSAII (Michael W. Deem and Ramdas Pophale) SiO2 
 PCOD8309101
Probable space group: P -4 21 C
;
_chemical_formula_sum "Si O2"
_cell_formula_units_Z 48
_cell_length_a 8.252041
_cell_length_b 8.252041
_cell_length_c 30.625386
_cell_angle_alpha 90.000000
_cell_angle_beta 90.000000
_cell_angle_gamma 90.000000
_cell_volume 2085.471818
_symmetry_space_group_name_H-M "P -4 21 C"
_symmetry_group_IT_number 114
_symmetry_cell_setting 'tetragonal'
loop_
_space_group_symop_operation_xyz
x,y,z
y,-x,-z
-x,-y,z
-y,x,-z
1/2+x,1/2-y,1/2-z
1/2-x,1/2+y,1/2-z
1/2-y,1/2-x,1/2+z
1/2+y,1/2+x,1/2+z
loop_
_atom_site_type_symbol
_atom_site_label
_atom_site_fract_x
_atom_site_fract_y
_atom_site_fract_z
Si Si1 0.563811 0.740170 0.213889
Si Si2 0.581633 0.329232 0.619786
Si Si3 0.505893 0.238703 0.000955
Si Si4 0.064744 0.663407 0.591876
Si Si5 0.937822 0.749452 0.783574
Si Si6 0.000000 0.500000 0.421771
Si Si7 0.500000 0.500000 0.861185
O O1 0.406138 0.833637 0.230759
O O2 0.616310 0.594482 0.246255
O O3 0.518694 0.663322 0.167170
O O4 0.709184 0.871673 0.211599
O O5 0.500000 0.500000 0.607472
O O6 0.743481 0.331109 0.592049
O O7 0.623341 0.324724 0.671035
O O8 0.481733 0.163906 0.607637
O O9 0.522368 0.151565 0.046986
O O10 0.342726 0.336211 0.004293
O O11 0.496728 0.132622 0.957347
O O12 0.000000 0.500000 0.617445
O O13 0.002562 0.836098 0.610344
#
# Coordination Sequence:
#
# PCOD8309101 Si02
#       7
#     8   8   8   8   8   4   4
#     4  11  25  47  73 108 148 198 254 313 389 455
#     4  12  30  49  76 111 155 204 255 319 390 463
#     4  11  24  45  76 107 149 196 247 312 379 454
#     4  12  28  47  75 117 146 203 261 312 383 467
#     4  11  26  46  75 107 149 198 255 317 381 464
#     4  12  26  50  78 110 154 202 256 314 396 468
#     4  12  26  48  77 106 160 200 256 321 386 462
#
# _framework density 23.016372
#
# number of rings (size 3 to 8) (size 9 to 14) (size 15 to 20)
#    0.000    0.500    4.167    3.000    8.167    0.000 
#    0.000    0.000    0.000    0.000    0.000    0.000 
#    0.000    0.000    0.000    0.000    0.000    0.000 
#
# Total GULP energy -594964.928995 kJ/mol
# GULP energy per Si atom -12395.102687 kJ/mol
# Density = 2.296399 g / cm^3
# Si number density = 23.016372 Si / 1000 Ang^3
#
#
#
# Elastic Constant Matrix: (Units=GPa)
#
#
# Indices 1 2 3 4 5 6 
#
# 1 -27.4306 -122.6600 93.5862 0.0000 0.0000 0.0000
# 2 -122.6600 -27.4306 93.5862 0.0000 0.0000 0.0000
# 3 93.5862 93.5862 72.9116 0.0000 0.0000 0.0000
# 4 0.0000 0.0000 0.0000 39.3990 0.0000 0.0000
# 5 0.0000 0.0000 0.0000 0.0000 39.3990 0.0000
# 6 0.0000 0.0000 0.0000 0.0000 0.0000 46.5602
#
#
#
# Elastic Compliance Matrix: (Units=1/GPa)
#
#
# Indices 1 2 3 4 5 6 
#
# 1 0.003970 -0.006531 0.003288 0.000000 0.000000 0.000000
# 2 -0.006531 0.003970 0.003288 0.000000 0.000000 0.000000
# 3 0.003288 0.003288 0.005274 0.000000 0.000000 0.000000
# 4 0.000000 0.000000 0.000000 0.025381 0.000000 0.000000
# 5 0.000000 0.000000 0.000000 0.000000 0.025381 0.000000
# 6 0.000000 0.000000 0.000000 0.000000 0.000000 0.021478
#
#
# Mechanical properties :
#
#
# Convention : Reuss Voigt Hill
#
# Bulk Modulus (GPa) = 75.16953 16.34170 45.75562
# Shear Modulus (GPa) = 55.68109 21.97415 38.82762
#
# Velocity S-wave (km/s) = 4.92387 3.09320 4.11171
# Velocity P-wave (km/s) = 8.06573 4.45788 6.51647
#
# Compressibility (1/GPa) = 0.01330326
#
# Stress axis : x y z
#
# Youngs Moduli (GPa) = 251.91853 251.91853 189.61954
#
# Poissons Ratio (x) = 1.64539 -0.62353
# Poissons Ratio (y) = 1.64539 -0.62353
# Poissons Ratio (z) = -0.82839 -0.82839
#
# Static dielectric constant tensor:
#      x y z
#    x 3.677110 0.000000 0.000000 
#    y 0.000000 3.677110 0.000000 
#    z 0.000000 0.000000 4.043320 
# 
# 
# High freq. dielectric constant tensor:
#      x y z
#    x 1.921580 0.000000 0.000000 
#    y 0.000000 1.921580 0.000000 
#    z 0.000000 0.000000 1.905720 
# 
# From -- ./inp_files/4030.got.cif
#   From: 2010.03.12/outbox.cif.g09.slc.cpg/sg114_3_cif.got.tgz:4030.got - 2010.04.14 02:08:34.
