data_PCOD8309323
_publ_section_title
;
Structure prediction by ZEFSAII (Michael W. Deem and Ramdas Pophale) SiO2 
 PCOD8309323
Probable space group: P -4 M 2
;
_chemical_formula_sum "Si O2"
_cell_formula_units_Z 40
_cell_length_a 14.211526
_cell_length_b 14.211526
_cell_length_c 10.025855
_cell_angle_alpha 90.000000
_cell_angle_beta 90.000000
_cell_angle_gamma 90.000000
_cell_volume 2024.896581
_symmetry_space_group_name_H-M "P -4 M 2"
_symmetry_group_IT_number 115
_symmetry_cell_setting 'tetragonal'
loop_
_space_group_symop_operation_xyz
x,y,z
y,-x,-z
-x,-y,z
-y,x,-z
y,x,-z
-y,-x,-z
-x,y,z
x,-y,z
loop_
_atom_site_type_symbol
_atom_site_label
_atom_site_fract_x
_atom_site_fract_y
_atom_site_fract_z
Si Si1 0.104977 0.740364 0.527513
Si Si2 0.639619 0.398412 0.350893
Si Si3 0.393353 0.145897 0.695941
Si Si4 0.393997 0.199564 0.256040
Si Si5 0.895110 0.388749 0.010054
O O1 0.166255 0.833746 0.500000
O O2 0.087773 0.678635 0.394542
O O3 0.157042 0.676352 0.636298
O O4 0.000000 0.769970 0.576641
O O5 0.600966 0.399035 0.500000
O O6 0.611925 0.500000 0.285605
O O7 0.750629 0.390108 0.362981
O O8 0.599662 0.312950 0.263564
O O9 0.500000 0.104402 0.688424
O O10 0.354361 0.144565 0.847512
O O11 0.500000 0.159339 0.278917
O O12 0.354337 0.171654 0.110208
O O13 0.897214 0.500000 0.010780
O O14 0.000000 0.348004 0.988106
#
# Coordination Sequence:
#
# PCOD8309323 Si02
#       5
#     8   8   8   8   8
#     4  12  24  40  60  86 116 150 195 244 299 358
#     4  11  21  35  56  86 123 161 200 241 290 351
#     4  10  19  36  61  87 115 149 194 242 294 354
#     4  11  21  37  60  89 120 154 197 243 293 351
#     4   9  19  34  54  85 120 151 186 241 305 350
#
# _framework density 19.754095
#
# number of rings (size 3 to 8) (size 9 to 14) (size 15 to 20)
#    0.000    1.400    4.000    2.400    0.000    5.600 
#    0.000    0.000    0.000    1.200    0.000   11.200 
#    0.000    4.800    0.000    0.000    0.000    0.000 
#
# Total GULP energy -495788.367325 kJ/mol
# GULP energy per Si atom -12394.709183 kJ/mol
# Density = 1.970913 g / cm^3
# Si number density = 19.754095 Si / 1000 Ang^3
#
#
#
# Elastic Constant Matrix: (Units=GPa)
#
#
# Indices 1 2 3 4 5 6 
#
# 1 110.0437 30.0143 38.8923 0.0000 0.0000 0.0000
# 2 30.0143 110.0425 38.8919 0.0000 0.0000 0.0000
# 3 38.8923 38.8919 118.9329 0.0000 0.0000 0.0000
# 4 0.0000 0.0000 0.0000 -349.0514 0.0000 0.0000
# 5 0.0000 0.0000 0.0000 0.0000 -382.4670 0.0000
# 6 0.0000 0.0000 0.0000 0.0000 0.0000 9.6573
#
#
#
# Elastic Compliance Matrix: (Units=1/GPa)
#
#
# Indices 1 2 3 4 5 6 
#
# 1 0.010610 -0.001886 -0.002853 0.000000 0.000000 0.000000
# 2 -0.001886 0.010610 -0.002853 0.000000 0.000000 0.000000
# 3 -0.002853 -0.002853 0.010274 0.000000 0.000000 0.000000
# 4 0.000000 0.000000 0.000000 -0.002865 0.000000 0.000000
# 5 0.000000 0.000000 0.000000 0.000000 -0.002615 0.000000
# 6 0.000000 0.000000 0.000000 0.000000 0.000000 0.103548
#
#
# Mechanical properties :
#
#
# Convention : Reuss Voigt Hill
#
# Bulk Modulus (GPa) = 61.30849 61.62399 61.46624
# Shear Modulus (GPa) = 33.29279 -128.95752 -47.83236
#
# Velocity S-wave (km/s) = 4.10977 -8.08846 -4.92610
# Velocity P-wave (km/s) = 7.32281 7.48115 1.08261
#
# Compressibility (1/GPa) = 0.01631095
#
# Stress axis : x y z
#
# Youngs Moduli (GPa) = 94.25169 94.25076 97.33325
#
# Poissons Ratio (x) = 0.17772 0.27769
# Poissons Ratio (y) = 0.17772 0.27769
# Poissons Ratio (z) = 0.26890 0.26889
#
# Static dielectric constant tensor:
#      x y z
#    x 18.035140 0.000000 0.000000 
#    y 0.000000 16.840430 0.000000 
#    z 0.000000 0.000000 3.742500 
# 
# 
# High freq. dielectric constant tensor:
#      x y z
#    x 1.757780 0.000000 0.000000 
#    y 0.000000 1.757780 0.000000 
#    z 0.000000 0.000000 1.764410 
# 
# From -- ./inp_files/1585.got.cif
#   From: 2010.03.12/outbox.cif.g09.slc.cpg/sg115_1_cif.got.tgz:1585.got - 2010.04.14 02:11:21.
