data_PCOD8309164
_publ_section_title
;
Structure prediction by ZEFSAII (Michael W. Deem and Ramdas Pophale) SiO2 
 PCOD8309164
Probable space group: P -4 M 2
;
_chemical_formula_sum "Si O2"
_cell_formula_units_Z 56
_cell_length_a 14.719478
_cell_length_b 14.719478
_cell_length_c 14.828275
_cell_angle_alpha 90.000000
_cell_angle_beta 90.000000
_cell_angle_gamma 90.000000
_cell_volume 3212.739030
_symmetry_space_group_name_H-M "P -4 M 2"
_symmetry_group_IT_number 115
_symmetry_cell_setting 'tetragonal'
loop_
_space_group_symop_operation_xyz
x,y,z
y,-x,-z
-x,-y,z
-y,x,-z
y,x,-z
-y,-x,-z
-x,y,z
x,-y,z
loop_
_atom_site_type_symbol
_atom_site_label
_atom_site_fract_x
_atom_site_fract_y
_atom_site_fract_z
Si Si1 0.283379 0.707906 0.248052
Si Si2 0.102739 0.327700 0.335977
Si Si3 0.395677 0.394002 0.603312
Si Si4 0.395515 0.603750 0.894760
Si Si5 0.872970 0.903110 0.603641
Si Si6 0.107130 0.401587 0.518948
Si Si7 0.100347 0.281121 0.682605
O O1 0.176975 0.676544 0.255096
O O2 0.337083 0.670489 0.333831
O O3 0.325853 0.668995 0.156692
O O4 0.291646 0.818643 0.244072
O O5 0.100233 0.234259 0.388986
O O6 0.141453 0.392673 0.415445
O O7 0.000000 0.353509 0.300238
O O8 0.370858 0.370858 0.500000
O O9 0.500000 0.368662 0.624052
O O10 0.379918 0.500000 0.622446
O O11 0.500000 0.622522 0.868282
O O12 0.370371 0.500000 0.868891
O O13 0.379984 0.620017 0.000000
O O14 0.897611 0.897611 0.500000
O O15 0.918088 0.824231 0.662068
O O16 0.909103 0.000000 0.641115
O O17 0.139605 0.500000 0.554484
O O18 0.140032 0.328181 0.591916
O O19 0.000000 0.393524 0.512843
O O20 0.000000 0.320269 0.713671
#
# Coordination Sequence:
#
# PCOD8309164 Si02
#       7
#     8   8   8   8   8   8   8
#     4  11  21  30  54  76  95 132 173 204 250 308
#     4   9  19  32  43  63  98 133 173 218 248 285
#     4   9  19  33  46  67 100 129 158 203 251 295
#     4   9  19  38  63  88 108 122 148 202 265 315
#     4  10  17  27  45  63  84 123 176 232 274 292
#     4   9  17  29  41  53  83 135 178 204 235 277
#     4  10  21  33  42  63 101 135 173 217 247 289
#
# _framework density 17.430610000000001
#
# number of rings (size 3 to 8) (size 9 to 14) (size 15 to 20)
#    0.000    2.429    1.429    2.143    2.000    4.429 
#    0.000    0.000    0.000    0.857    0.000    2.000 
#    0.000    0.000    0.000    4.000    0.000    0.000 
#
# Total GULP energy -693770.758473 kJ/mol
# GULP energy per Si atom -12388.763544 kJ/mol
# Density = 1.739094 g / cm^3
# Si number density = 17.430610 Si / 1000 Ang^3
#
#
#
# Elastic Constant Matrix: (Units=GPa)
#
#
# Indices 1 2 3 4 5 6 
#
# 1 84.3090 39.9686 36.0016 0.0000 0.0000 0.0000
# 2 39.9686 84.3091 36.0016 0.0000 0.0000 0.0000
# 3 36.0016 36.0016 59.1046 0.0000 0.0000 0.0000
# 4 0.0000 0.0000 0.0000 35.8813 0.0000 0.0000
# 5 0.0000 0.0000 0.0000 0.0000 35.8815 0.0000
# 6 0.0000 0.0000 0.0000 0.0000 0.0000 17.4299
#
#
#
# Elastic Compliance Matrix: (Units=1/GPa)
#
#
# Indices 1 2 3 4 5 6 
#
# 1 0.017494 -0.005059 -0.007574 0.000000 0.000000 0.000000
# 2 -0.005059 0.017494 -0.007574 0.000000 0.000000 0.000000
# 3 -0.007574 -0.007574 0.026146 0.000000 0.000000 0.000000
# 4 0.000000 0.000000 0.000000 0.027870 0.000000 0.000000
# 5 0.000000 0.000000 0.000000 0.000000 0.027869 0.000000
# 6 0.000000 0.000000 0.000000 0.000000 0.000000 0.057373
#
#
# Mechanical properties :
#
#
# Convention : Reuss Voigt Hill
#
# Bulk Modulus (GPa) = 48.26490 50.18512 49.22501
# Shear Modulus (GPa) = 22.56654 25.55529 24.06092
#
# Velocity S-wave (km/s) = 3.60203 3.83314 3.71938
# Velocity P-wave (km/s) = 6.71188 6.96021 6.83717
#
# Compressibility (1/GPa) = 0.02071899
#
# Stress axis : x y z
#
# Youngs Moduli (GPa) = 57.16309 57.16317 38.24628
#
# Poissons Ratio (x) = 0.28919 0.28969
# Poissons Ratio (y) = 0.28919 0.28969
# Poissons Ratio (z) = 0.43297 0.43297
#
# Static dielectric constant tensor:
#      x y z
#    x 3.497060 0.000000 0.000000 
#    y 0.000000 3.497060 0.000000 
#    z 0.000000 0.000000 2.724120 
# 
# 
# High freq. dielectric constant tensor:
#      x y z
#    x 1.684510 0.000000 0.000000 
#    y 0.000000 1.684510 0.000000 
#    z 0.000000 0.000000 1.600690 
# 
# From -- ./inp_files/3886.got.cif
#   From: 2010.03.12/outbox.cif.g09.slc.cpg/sg115_2_cif.got.tgz:3886.got - 2010.04.14 02:11:21.
