data_PCOD8309911
_publ_section_title
;
Structure prediction by ZEFSAII (Michael W. Deem and Ramdas Pophale) SiO2 
 PCOD8309911
Probable space group: P -4 M 2
;
_chemical_formula_sum "Si O2"
_cell_formula_units_Z 24
_cell_length_a 9.128982
_cell_length_b 9.128982
_cell_length_c 15.415821
_cell_angle_alpha 90.000000
_cell_angle_beta 90.000000
_cell_angle_gamma 90.000000
_cell_volume 1284.728506
_symmetry_space_group_name_H-M "P -4 M 2"
_symmetry_group_IT_number 115
_symmetry_cell_setting 'tetragonal'
loop_
_space_group_symop_operation_xyz
x,y,z
y,-x,-z
-x,-y,z
-y,x,-z
y,x,-z
-y,-x,-z
-x,y,z
x,-y,z
loop_
_atom_site_type_symbol
_atom_site_label
_atom_site_fract_x
_atom_site_fract_y
_atom_site_fract_z
Si Si1 0.828805 0.828805 0.500000
Si Si2 0.669818 0.327937 0.655391
Si Si3 0.832669 0.328873 0.170747
Si Si4 0.829956 0.170045 0.000000
O O1 0.747242 0.769525 0.415956
O O2 0.000000 0.795947 0.490209
O O3 0.500000 0.290717 0.636526
O O4 0.698301 0.500000 0.653821
O O5 0.719197 0.265901 0.748263
O O6 0.821476 0.500000 0.153630
O O7 0.769250 0.250360 0.085388
O O8 0.000000 0.280478 0.189322
O O9 0.000000 0.203984 0.987806
#
# Coordination Sequence:
#
# PCOD8309911 Si02
#       4
#     4   8   8   4
#     4  11  24  39  56  80 108 139 176 217 262 314
#     4  10  21  37  57  81 108 139 176 218 265 316
#     4   9  18  33  52  74 103 139 175 213 261 314
#     4   9  18  32  50  73 102 136 174 217 262 307
#
# _framework density 18.680990000000001
#
# number of rings (size 3 to 8) (size 9 to 14) (size 15 to 20)
#    0.000    2.333    0.000    2.000    0.000    8.000 
#    0.000    3.333    0.000    0.000    0.000    0.000 
#    0.000    0.000    0.000    0.000    0.000    0.000 
#
# Total GULP energy -297682.409453 kJ/mol
# GULP energy per Si atom -12403.433727 kJ/mol
# Density = 1.863847 g / cm^3
# Si number density = 18.680990 Si / 1000 Ang^3
#
#
#
# Elastic Constant Matrix: (Units=GPa)
#
#
# Indices 1 2 3 4 5 6 
#
# 1 74.6264 47.8014 71.7464 0.0000 0.0000 0.0000
# 2 47.8014 74.6255 71.7465 0.0000 0.0000 0.0000
# 3 71.7464 71.7465 174.9497 0.0000 0.0000 0.0000
# 4 0.0000 0.0000 0.0000 42.1369 0.0000 0.0000
# 5 0.0000 0.0000 0.0000 0.0000 42.1366 0.0000
# 6 0.0000 0.0000 0.0000 0.0000 0.0000 25.8250
#
#
#
# Elastic Compliance Matrix: (Units=1/GPa)
#
#
# Indices 1 2 3 4 5 6 
#
# 1 0.026503 -0.010776 -0.006450 0.000000 0.000000 0.000000
# 2 -0.010776 0.026504 -0.006450 0.000000 0.000000 0.000000
# 3 -0.006450 -0.006450 0.011006 0.000000 0.000000 0.000000
# 4 0.000000 0.000000 0.000000 0.023732 0.000000 0.000000
# 5 0.000000 0.000000 0.000000 0.000000 0.023732 0.000000
# 6 0.000000 0.000000 0.000000 0.000000 0.000000 0.038722
#
#
# Mechanical properties :
#
#
# Convention : Reuss Voigt Hill
#
# Bulk Modulus (GPa) = 60.01655 78.53224 69.27439
# Shear Modulus (GPa) = 24.61775 30.88018 27.74896
#
# Velocity S-wave (km/s) = 3.63409 4.07015 3.85829
# Velocity P-wave (km/s) = 7.05731 8.01362 7.55062
#
# Compressibility (1/GPa) = 0.01666207
#
# Stress axis : x y z
#
# Youngs Moduli (GPa) = 37.73104 37.73031 90.85814
#
# Poissons Ratio (x) = 0.40657 0.58602
# Poissons Ratio (y) = 0.40658 0.58604
# Poissons Ratio (z) = 0.24336 0.24336
#
# Static dielectric constant tensor:
#      x y z
#    x 3.411080 0.000000 0.000000 
#    y 0.000000 3.411100 0.000000 
#    z 0.000000 0.000000 3.681700 
# 
# 
# High freq. dielectric constant tensor:
#      x y z
#    x 1.721940 0.000000 0.000000 
#    y 0.000000 1.721940 0.000000 
#    z 0.000000 0.000000 1.740000 
# 
# From -- ./inp_files/3395.got.cif
#   From: 2010.03.12/outbox.cif.g09.slc.cpg/sg115_2_cif.got.tgz:3395.got - 2010.04.14 02:11:21.
