data_PCOD8309595
_publ_section_title
;
Structure prediction by ZEFSAII (Michael W. Deem and Ramdas Pophale) SiO2 
 PCOD8309595
Probable space group: P -4 M 2
;
_chemical_formula_sum "Si O2"
_cell_formula_units_Z 44
_cell_length_a 9.172134
_cell_length_b 9.172134
_cell_length_c 28.578180
_cell_angle_alpha 90.000000
_cell_angle_beta 90.000000
_cell_angle_gamma 90.000000
_cell_volume 2404.226331
_symmetry_space_group_name_H-M "P -4 M 2"
_symmetry_group_IT_number 115
_symmetry_cell_setting 'tetragonal'
loop_
_space_group_symop_operation_xyz
x,y,z
y,-x,-z
-x,-y,z
-y,x,-z
y,x,-z
-y,-x,-z
-x,y,z
x,-y,z
loop_
_atom_site_type_symbol
_atom_site_label
_atom_site_fract_x
_atom_site_fract_y
_atom_site_fract_z
Si Si1 0.326152 0.662330 0.050734
Si Si2 0.673302 0.164600 0.591704
Si Si3 0.668396 0.327567 0.316756
Si Si4 0.828422 0.831231 0.766837
Si Si5 0.333628 0.171072 0.140792
Si Si6 0.669967 0.330034 0.500000
O O1 0.500000 0.659628 0.049849
O O2 0.264226 0.500000 0.058739
O O3 0.268462 0.760829 0.093240
O O4 0.274617 0.725384 0.000000
O O5 0.500000 0.165134 0.591721
O O6 0.731196 0.253981 0.636313
O O7 0.729793 0.242323 0.544709
O O8 0.734576 0.000000 0.593888
O O9 0.500000 0.280995 0.318681
O O10 0.685968 0.500000 0.311847
O O11 0.744740 0.253583 0.273172
O O12 0.776151 0.765337 0.816205
O O13 0.000000 0.809010 0.759925
O O14 0.783728 0.000000 0.764959
O O15 0.500000 0.222294 0.149968
O O16 0.325265 0.000000 0.134373
O O17 0.500000 0.300714 0.490735
#
# Coordination Sequence:
#
# PCOD8309595 Si02
#       6
#     8   8   8   8   8   4
#     4   8  14  26  45  68  93 121 154 194 240 288
#     4   9  17  30  49  73 101 131 162 200 247 294
#     4  10  20  34  54  79 103 129 166 210 253 298
#     4  10  21  36  52  71  99 134 168 204 250 301
#     4   9  17  30  48  68  91 122 160 199 239 288
#     4   9  16  28  48  71  94 124 164 203 236 280
#
# _framework density 18.301103999999999
#
# number of rings (size 3 to 8) (size 9 to 14) (size 15 to 20)
#    0.000    2.818    0.000    2.182    0.000    5.091 
#    0.000    3.636    0.000    4.636    0.000    0.000 
#    0.000    0.000    0.000    0.000    0.000    0.000 
#
# Total GULP energy -545530.376949 kJ/mol
# GULP energy per Si atom -12398.417658 kJ/mol
# Density = 1.825945 g / cm^3
# Si number density = 18.301104 Si / 1000 Ang^3
#
#
#
# Elastic Constant Matrix: (Units=GPa)
#
#
# Indices 1 2 3 4 5 6 
#
# 1 73.1457 36.0422 70.6094 0.0000 0.0000 0.0000
# 2 36.0422 73.1461 70.6094 0.0000 0.0000 0.0000
# 3 70.6094 70.6094 205.0772 0.0000 0.0000 0.0000
# 4 0.0000 0.0000 0.0000 1.0477 0.0000 0.0000
# 5 0.0000 0.0000 0.0000 0.0000 1.0486 0.0000
# 6 0.0000 0.0000 0.0000 0.0000 0.0000 18.6981
#
#
#
# Elastic Compliance Matrix: (Units=1/GPa)
#
#
# Indices 1 2 3 4 5 6 
#
# 1 0.021731 -0.005220 -0.005685 0.000000 0.000000 0.000000
# 2 -0.005220 0.021731 -0.005685 0.000000 0.000000 0.000000
# 3 -0.005685 -0.005685 0.008791 0.000000 0.000000 0.000000
# 4 0.000000 0.000000 0.000000 0.954442 0.000000 0.000000
# 5 0.000000 0.000000 0.000000 0.000000 0.953650 0.000000
# 6 0.000000 0.000000 0.000000 0.000000 0.000000 0.053481
#
#
# Mechanical properties :
#
#
# Convention : Reuss Voigt Hill
#
# Bulk Modulus (GPa) = 52.42870 78.43232 65.43051
# Shear Modulus (GPa) = 2.43503 15.76611 9.10057
#
# Velocity S-wave (km/s) = 1.15474 2.93829 2.23237
# Velocity P-wave (km/s) = 5.52159 7.37977 6.51724
#
# Compressibility (1/GPa) = 0.01907352
#
# Stress axis : x y z
#
# Youngs Moduli (GPa) = 46.01649 46.01691 113.75442
#
# Poissons Ratio (x) = 0.24022 0.64668
# Poissons Ratio (y) = 0.24022 0.64667
# Poissons Ratio (z) = 0.26160 0.26160
#
# Static dielectric constant tensor:
#      x y z
#    x 3.251280 0.000000 0.000000 
#    y 0.000000 3.251280 0.000000 
#    z 0.000000 0.000000 3.698300 
# 
# 
# High freq. dielectric constant tensor:
#      x y z
#    x 1.686770 0.000000 0.000000 
#    y 0.000000 1.686770 0.000000 
#    z 0.000000 0.000000 1.729090 
# 
# From -- ./inp_files/5786.got.cif
#   From: 2010.03.12/outbox.cif.g09.slc.cpg/sg115_3_cif.got.tgz:5786.got - 2010.04.14 02:11:21.
