data_PCOD8309964
_publ_section_title
;
Structure prediction by ZEFSAII (Michael W. Deem and Ramdas Pophale) SiO2 
 PCOD8309964
Probable space group: P -4 M 2
;
_chemical_formula_sum "Si O2"
_cell_formula_units_Z 56
_cell_length_a 14.436212
_cell_length_b 14.436212
_cell_length_c 12.247244
_cell_angle_alpha 90.000000
_cell_angle_beta 90.000000
_cell_angle_gamma 90.000000
_cell_volume 2552.377295
_symmetry_space_group_name_H-M "P -4 M 2"
_symmetry_group_IT_number 115
_symmetry_cell_setting 'tetragonal'
loop_
_space_group_symop_operation_xyz
x,y,z
y,-x,-z
-x,-y,z
-y,x,-z
y,x,-z
-y,-x,-z
-x,y,z
x,-y,z
loop_
_atom_site_type_symbol
_atom_site_label
_atom_site_fract_x
_atom_site_fract_y
_atom_site_fract_z
Si Si1 0.705798 0.601290 0.086041
Si Si2 0.604339 0.894772 0.401555
Si Si3 0.276318 0.106589 0.205431
Si Si4 0.337538 0.896473 0.966704
Si Si5 0.103347 0.213871 0.234357
Si Si6 0.215636 0.312496 0.416994
Si Si7 0.391356 0.392547 0.688515
O O1 0.669421 0.500000 0.051851
O O2 0.818479 0.597375 0.089553
O O3 0.656376 0.630883 0.196965
O O4 0.677932 0.677932 0.000000
O O5 0.500000 0.892669 0.358613
O O6 0.664908 0.846148 0.304177
O O7 0.609528 0.840120 0.515833
O O8 0.637995 0.000000 0.422726
O O9 0.167549 0.123206 0.227756
O O10 0.298649 0.000000 0.210087
O O11 0.307899 0.141772 0.086196
O O12 0.248857 0.905138 0.889209
O O13 0.384380 0.000000 0.973494
O O14 0.155395 0.289125 0.310290
O O15 0.000000 0.190867 0.279767
O O16 0.224255 0.224255 0.500000
O O17 0.322400 0.343900 0.396317
O O18 0.500000 0.394477 0.664265
O O19 0.353593 0.500000 0.682749
#
# Coordination Sequence:
#
# PCOD8309964 Si02
#       7
#     8   8   8   8   8   8   8
#     4  11  22  38  62  91 131 173 217 266 322 394
#     4  10  22  41  65  92 127 172 220 273 334 397
#     4  10  21  40  64  95 131 164 211 272 327 396
#     4  10  22  40  65  94 128 170 216 267 326 387
#     4  11  22  40  64  92 127 170 216 267 330 394
#     4  12  23  40  63  92 125 168 220 271 321 393
#     4  10  23  42  62  91 129 168 216 271 326 388
#
# _framework density 21.940329999999999
#
# number of rings (size 3 to 8) (size 9 to 14) (size 15 to 20)
#    0.000    1.429    2.857    2.571    0.000    3.000 
#    0.000    2.143    0.000    2.571    0.000    0.000 
#    0.000    0.000    0.000    0.000    0.000    0.000 
#
# Total GULP energy -693843.162440 kJ/mol
# GULP energy per Si atom -12390.056472 kJ/mol
# Density = 2.189039 g / cm^3
# Si number density = 21.940330 Si / 1000 Ang^3
#
#
#
# Elastic Constant Matrix: (Units=GPa)
#
#
# Indices 1 2 3 4 5 6 
#
# 1 99.5780 24.1284 45.5573 0.0000 0.0000 0.0000
# 2 24.1284 99.5780 45.5573 0.0000 0.0000 0.0000
# 3 45.5573 45.5573 119.4161 0.0000 0.0000 0.0000
# 4 0.0000 0.0000 0.0000 30.9656 0.0000 0.0000
# 5 0.0000 0.0000 0.0000 0.0000 30.9656 0.0000
# 6 0.0000 0.0000 0.0000 0.0000 0.0000 32.7490
#
#
#
# Elastic Compliance Matrix: (Units=1/GPa)
#
#
# Indices 1 2 3 4 5 6 
#
# 1 0.012248 -0.001006 -0.004289 0.000000 0.000000 0.000000
# 2 -0.001006 0.012248 -0.004289 0.000000 0.000000 0.000000
# 3 -0.004289 -0.004289 0.011647 0.000000 0.000000 0.000000
# 4 0.000000 0.000000 0.000000 0.032294 0.000000 0.000000
# 5 0.000000 0.000000 0.000000 0.000000 0.032294 0.000000
# 6 0.000000 0.000000 0.000000 0.000000 0.000000 0.030535
#
#
# Mechanical properties :
#
#
# Convention : Reuss Voigt Hill
#
# Bulk Modulus (GPa) = 58.90766 61.00647 59.95706
# Shear Modulus (GPa) = 32.03229 32.49133 32.26181
#
# Velocity S-wave (km/s) = 3.82510 3.85241 3.83878
# Velocity P-wave (km/s) = 6.81292 6.90320 6.85821
#
# Compressibility (1/GPa) = 0.01697572
#
# Stress axis : x y z
#
# Youngs Moduli (GPa) = 81.64386 81.64386 85.86132
#
# Poissons Ratio (x) = 0.08210 0.36827
# Poissons Ratio (y) = 0.08210 0.36827
# Poissons Ratio (z) = 0.35018 0.35018
#
# Static dielectric constant tensor:
#      x y z
#    x 3.926290 0.000000 0.000000 
#    y 0.000000 3.926290 0.000000 
#    z 0.000000 0.000000 4.259920 
# 
# 
# High freq. dielectric constant tensor:
#      x y z
#    x 1.855880 0.000000 0.000000 
#    y 0.000000 1.855880 0.000000 
#    z 0.000000 0.000000 1.873430 
# 
# From -- ./inp_files/3091.got.cif
#   From: 2010.03.12/outbox.cif.g09.slc.cpg/sg115_2_cif.got.tgz:3091.got - 2010.04.14 02:11:21.
