data_PCOD8309723
_publ_section_title
;
Structure prediction by ZEFSAII (Michael W. Deem and Ramdas Pophale) SiO2 
 PCOD8309723
Probable space group: P -4 M 2
;
_chemical_formula_sum "Si O2"
_cell_formula_units_Z 40
_cell_length_a 8.122900
_cell_length_b 8.122900
_cell_length_c 28.680082
_cell_angle_alpha 90.000000
_cell_angle_beta 90.000000
_cell_angle_gamma 90.000000
_cell_volume 1892.354957
_symmetry_space_group_name_H-M "P -4 M 2"
_symmetry_group_IT_number 115
_symmetry_cell_setting 'tetragonal'
loop_
_space_group_symop_operation_xyz
x,y,z
y,-x,-z
-x,-y,z
-y,x,-z
y,x,-z
-y,-x,-z
-x,y,z
x,-y,z
loop_
_atom_site_type_symbol
_atom_site_label
_atom_site_fract_x
_atom_site_fract_y
_atom_site_fract_z
Si Si1 0.187102 0.311713 0.452684
Si Si2 0.315675 0.814427 0.045756
Si Si3 0.809968 0.000000 0.799934
Si Si4 0.313041 0.688101 0.143758
Si Si5 0.318388 0.193938 0.358371
Si Si6 0.000000 0.802546 0.303743
O O1 0.211426 0.211426 0.500000
O O2 0.231791 0.500000 0.462758
O O3 0.303248 0.243552 0.412218
O O4 0.000000 0.288882 0.435881
O O5 0.500000 0.769002 0.030225
O O6 0.261456 0.702989 0.089394
O O7 0.300206 0.000000 0.063919
O O8 0.205071 0.794930 0.000000
O O9 0.770028 0.169744 0.826223
O O10 0.728743 0.000000 0.748670
O O11 0.000000 0.000000 0.791154
O O12 0.500000 0.763100 0.151442
O O13 0.317116 0.500000 0.158291
O O14 0.500000 0.255757 0.340774
O O15 0.166553 0.268273 0.328266
O O16 0.311162 0.000000 0.354169
O O17 0.000000 0.000000 0.305656
#
# Coordination Sequence:
#
# PCOD8309723 Si02
#       6
#     8   8   4   8   8   4
#     4  11  23  37  55  83 118 158 201 245 301 365
#     4  10  21  36  56  84 118 157 200 247 300 362
#     4  11  23  39  65  95 123 159 205 263 321 372
#     4  10  22  41  63  87 121 164 207 254 309 374
#     4  10  20  37  62  88 116 154 200 249 304 367
#     4   9  20  39  61  89 121 155 199 253 311 368
#
# _framework density 21.137682000000002
#
# number of rings (size 3 to 8) (size 9 to 14) (size 15 to 20)
#    0.000    1.800    1.000    2.700    1.400    7.200 
#    0.000    4.000    0.000    0.000    0.000    0.000 
#    0.000    0.000    0.000    0.000    0.000    0.000 
#
# Total GULP energy -495824.709809 kJ/mol
# GULP energy per Si atom -12395.617745 kJ/mol
# Density = 2.108957 g / cm^3
# Si number density = 21.137682 Si / 1000 Ang^3
#
#
#
# Elastic Constant Matrix: (Units=GPa)
#
#
# Indices 1 2 3 4 5 6 
#
# 1 93.8239 21.9786 43.1168 0.0000 0.0000 0.0000
# 2 21.9786 93.8237 43.1165 0.0000 0.0000 0.0000
# 3 43.1168 43.1165 133.6587 0.0000 0.0000 0.0000
# 4 0.0000 0.0000 0.0000 13.2780 0.0000 0.0000
# 5 0.0000 0.0000 0.0000 0.0000 13.2779 0.0000
# 6 0.0000 0.0000 0.0000 0.0000 0.0000 23.6366
#
#
#
# Elastic Compliance Matrix: (Units=1/GPa)
#
#
# Indices 1 2 3 4 5 6 
#
# 1 0.012642 -0.001277 -0.003666 0.000000 0.000000 0.000000
# 2 -0.001277 0.012642 -0.003666 0.000000 0.000000 0.000000
# 3 -0.003666 -0.003666 0.009847 0.000000 0.000000 0.000000
# 4 0.000000 0.000000 0.000000 0.075313 0.000000 0.000000
# 5 0.000000 0.000000 0.000000 0.000000 0.075313 0.000000
# 6 0.000000 0.000000 0.000000 0.000000 0.000000 0.042307
#
#
# Mechanical properties :
#
#
# Convention : Reuss Voigt Hill
#
# Bulk Modulus (GPa) = 55.82590 59.74778 57.78684
# Shear Modulus (GPa) = 19.90012 24.24478 22.07245
#
# Velocity S-wave (km/s) = 3.07164 3.39040 3.23495
# Velocity P-wave (km/s) = 6.24883 6.60710 6.43046
#
# Compressibility (1/GPa) = 0.01791283
#
# Stress axis : x y z
#
# Youngs Moduli (GPa) = 79.10008 79.09999 101.55151
#
# Poissons Ratio (x) = 0.10098 0.37233
# Poissons Ratio (y) = 0.10098 0.37233
# Poissons Ratio (z) = 0.29001 0.29001
#
# Static dielectric constant tensor:
#      x y z
#    x 4.117030 0.000000 0.000000 
#    y 0.000000 4.117030 0.000000 
#    z 0.000000 0.000000 3.707650 
# 
# 
# High freq. dielectric constant tensor:
#      x y z
#    x 1.826880 0.000000 0.000000 
#    y 0.000000 1.826880 0.000000 
#    z 0.000000 0.000000 1.820490 
# 
# From -- ./inp_files/5564.got.cif
#   From: 2010.03.12/outbox.cif.g09.slc.cpg/sg115_3_cif.got.tgz:5564.got - 2010.04.14 02:11:21.
