data_PCOD8309102
_publ_section_title
;
Structure prediction by ZEFSAII (Michael W. Deem and Ramdas Pophale) SiO2 
 PCOD8309102
Probable space group: P -4 21 C
;
_chemical_formula_sum "Si O2"
_cell_formula_units_Z 26
_cell_length_a 9.014285
_cell_length_b 9.014285
_cell_length_c 13.446356
_cell_angle_alpha 90.000000
_cell_angle_beta 90.000000
_cell_angle_gamma 90.000000
_cell_volume 1092.615041
_symmetry_space_group_name_H-M "P -4 21 C"
_symmetry_group_IT_number 114
_symmetry_cell_setting 'tetragonal'
loop_
_space_group_symop_operation_xyz
x,y,z
y,-x,-z
-x,-y,z
-y,x,-z
1/2+x,1/2-y,1/2-z
1/2-x,1/2+y,1/2-z
1/2-y,1/2-x,1/2+z
1/2+y,1/2+x,1/2+z
loop_
_atom_site_type_symbol
_atom_site_label
_atom_site_fract_x
_atom_site_fract_y
_atom_site_fract_z
Si Si1 0.000000 0.000000 0.000000
Si Si2 0.333556 0.667453 0.655672
Si Si3 0.140095 0.603063 0.324754
Si Si4 0.649200 0.681119 0.996591
O O1 0.958104 0.137876 0.071955
O O2 0.491570 0.722949 0.700415
O O3 0.223225 0.604574 0.739273
O O4 0.250400 0.802707 0.601043
O O5 0.183909 0.691259 0.423870
O O6 0.000000 0.500000 0.342473
O O7 0.687838 0.520524 0.041501
#
# Coordination Sequence:
#
# PCOD8309102 Si02
#       4
#     2   8   8   8
#     4  12  28  44  76 104 158 192 252 312 376 448
#     4  12  27  47  73 111 151 195 252 311 379 449
#     4  12  27  46  74 109 147 201 248 311 380 449
#     4  11  24  47  75 107 148 197 254 315 378 446
#
# _framework density 23.796119999999998
#
# number of rings (size 3 to 8) (size 9 to 14) (size 15 to 20)
#    0.000    0.308    6.154    1.846    4.308    6.154 
#    0.000    0.000    0.000    0.000    0.000    0.000 
#    0.000    0.000    0.000    0.000    0.000    0.000 
#
# Total GULP energy -322383.348562 kJ/mol
# GULP energy per Si atom -12399.359560 kJ/mol
# Density = 2.374196 g / cm^3
# Si number density = 23.796120 Si / 1000 Ang^3
#
#
#
# Elastic Constant Matrix: (Units=GPa)
#
#
# Indices 1 2 3 4 5 6 
#
# 1 103.8354 29.9192 41.9081 0.0000 0.0000 0.0000
# 2 29.9192 103.8354 41.9081 0.0000 0.0000 0.0000
# 3 41.9081 41.9081 107.9518 0.0000 0.0000 0.0000
# 4 0.0000 0.0000 0.0000 38.4143 0.0000 0.0000
# 5 0.0000 0.0000 0.0000 0.0000 38.4143 0.0000
# 6 0.0000 0.0000 0.0000 0.0000 0.0000 43.5221
#
#
#
# Elastic Compliance Matrix: (Units=1/GPa)
#
#
# Indices 1 2 3 4 5 6 
#
# 1 0.011704 -0.001824 -0.003835 0.000000 0.000000 0.000000
# 2 -0.001824 0.011704 -0.003835 0.000000 0.000000 0.000000
# 3 -0.003835 -0.003835 0.012241 0.000000 0.000000 0.000000
# 4 0.000000 0.000000 0.000000 0.026032 0.000000 0.000000
# 5 0.000000 0.000000 0.000000 0.000000 0.026032 0.000000
# 6 0.000000 0.000000 0.000000 0.000000 0.000000 0.022977
#
#
# Mechanical properties :
#
#
# Convention : Reuss Voigt Hill
#
# Bulk Modulus (GPa) = 60.02702 60.34368 60.18535
# Shear Modulus (GPa) = 36.97276 37.52928 37.25102
#
# Velocity S-wave (km/s) = 3.94601 3.97560 3.96084
# Velocity P-wave (km/s) = 6.78540 6.81818 6.80181
#
# Compressibility (1/GPa) = 0.01665916
#
# Stress axis : x y z
#
# Youngs Moduli (GPa) = 85.43841 85.43841 81.69049
#
# Poissons Ratio (x) = 0.15588 0.31332
# Poissons Ratio (y) = 0.15588 0.31332
# Poissons Ratio (z) = 0.32770 0.32770
#
# Static dielectric constant tensor:
#      x y z
#    x 4.390190 0.000000 0.000000 
#    y 0.000000 4.390190 0.000000 
#    z 0.000000 0.000000 4.021940 
# 
# 
# High freq. dielectric constant tensor:
#      x y z
#    x 1.952360 0.000000 0.000000 
#    y 0.000000 1.952360 0.000000 
#    z 0.000000 0.000000 1.929680 
# 
# From -- ./inp_files/2370.got.cif
#   From: 2010.03.12/outbox.cif.g09.slc.cpg/sg114_2_cif.got.tgz:2370.got - 2010.04.14 02:08:34.
