data_PCOD8309810
_publ_section_title
;
Structure prediction by ZEFSAII (Michael W. Deem and Ramdas Pophale) SiO2 
 PCOD8309810
Probable space group: P -4 M 2
;
_chemical_formula_sum "Si O2"
_cell_formula_units_Z 40
_cell_length_a 9.146890
_cell_length_b 9.146890
_cell_length_c 25.822939
_cell_angle_alpha 90.000000
_cell_angle_beta 90.000000
_cell_angle_gamma 90.000000
_cell_volume 2160.491599
_symmetry_space_group_name_H-M "P -4 M 2"
_symmetry_group_IT_number 115
_symmetry_cell_setting 'tetragonal'
loop_
_space_group_symop_operation_xyz
x,y,z
y,-x,-z
-x,-y,z
-y,x,-z
y,x,-z
-y,-x,-z
-x,y,z
x,-y,z
loop_
_atom_site_type_symbol
_atom_site_label
_atom_site_fract_x
_atom_site_fract_y
_atom_site_fract_z
Si Si1 0.674323 0.337166 0.443847
Si Si2 0.173340 0.833179 0.757597
Si Si3 0.330008 0.669838 0.849528
Si Si4 0.667081 0.171963 0.343855
Si Si5 0.171235 0.331629 0.045236
O O1 0.726000 0.274001 0.500000
O O2 0.500000 0.339901 0.444858
O O3 0.736311 0.500000 0.434922
O O4 0.732269 0.237923 0.396907
O O5 0.238621 0.740327 0.803885
O O6 0.229319 0.764172 0.703763
O O7 0.000000 0.823102 0.761431
O O8 0.228128 0.000000 0.760836
O O9 0.500000 0.694145 0.837691
O O10 0.289749 0.500000 0.854182
O O11 0.283958 0.747819 0.902532
O O12 0.500000 0.222778 0.334429
O O13 0.677402 0.000000 0.349340
O O14 0.206198 0.500000 0.031474
O O15 0.000000 0.305342 0.053048
O O16 0.228819 0.228819 0.000000
#
# Coordination Sequence:
#
# PCOD8309810 Si02
#       5
#     8   8   8   8   8
#     4   8  14  26  45  68  93 122 158 201 248 298
#     4  10  21  36  53  74 103 138 173 211 257 308
#     4  10  21  37  58  82 106 135 173 216 260 305
#     4   9  17  30  48  69  94 126 164 205 249 300
#     4  10  21  37  57  81 109 141 175 211 253 301
#
# _framework density 18.514306000000001
#
# number of rings (size 3 to 8) (size 9 to 14) (size 15 to 20)
#    0.000    2.600    0.000    2.400    0.000    5.200 
#    0.000    3.000    0.000    1.200    0.000    0.000 
#    0.000    0.000    0.000    0.000    0.000    0.000 
#
# Total GULP energy -495997.856988 kJ/mol
# GULP energy per Si atom -12399.946425 kJ/mol
# Density = 1.847217 g / cm^3
# Si number density = 18.514306 Si / 1000 Ang^3
#
#
#
# Elastic Constant Matrix: (Units=GPa)
#
#
# Indices 1 2 3 4 5 6 
#
# 1 66.0027 31.9751 59.4056 0.0000 0.0000 0.0000
# 2 31.9751 66.0028 59.4056 0.0000 0.0000 0.0000
# 3 59.4056 59.4056 170.2974 0.0000 0.0000 0.0000
# 4 0.0000 0.0000 0.0000 -26.0861 0.0000 0.0000
# 5 0.0000 0.0000 0.0000 0.0000 -26.0845 0.0000
# 6 0.0000 0.0000 0.0000 0.0000 0.0000 23.2111
#
#
#
# Elastic Compliance Matrix: (Units=1/GPa)
#
#
# Indices 1 2 3 4 5 6 
#
# 1 0.023538 -0.005849 -0.006171 0.000000 0.000000 0.000000
# 2 -0.005849 0.023538 -0.006170 0.000000 0.000000 0.000000
# 3 -0.006171 -0.006170 0.010177 0.000000 0.000000 0.000000
# 4 0.000000 0.000000 0.000000 -0.038335 0.000000 0.000000
# 5 0.000000 0.000000 0.000000 0.000000 -0.038337 0.000000
# 6 0.000000 0.000000 0.000000 0.000000 0.000000 0.043083
#
#
# Mechanical properties :
#
#
# Convention : Reuss Voigt Hill
#
# Bulk Modulus (GPa) = 47.90901 67.09727 57.50314
# Shear Modulus (GPa) = 74.62262 4.30921 39.46591
#
# Velocity S-wave (km/s) = 6.35554 1.52727 4.62198
# Velocity P-wave (km/s) = 8.93253 6.27929 7.72074
#
# Compressibility (1/GPa) = 0.02087290
#
# Stress axis : x y z
#
# Youngs Moduli (GPa) = 42.48368 42.48380 98.26030
#
# Poissons Ratio (x) = 0.24851 0.60632
# Poissons Ratio (y) = 0.24851 0.60632
# Poissons Ratio (z) = 0.26215 0.26215
#
# Static dielectric constant tensor:
#      x y z
#    x 3.340060 0.000000 0.000000 
#    y 0.000000 3.340060 0.000000 
#    z 0.000000 0.000000 3.691360 
# 
# 
# High freq. dielectric constant tensor:
#      x y z
#    x 1.704350 0.000000 0.000000 
#    y 0.000000 1.704350 0.000000 
#    z 0.000000 0.000000 1.735470 
# 
# From -- ./inp_files/5081.got.cif
#   From: 2010.03.12/outbox.cif.g09.slc.cpg/sg115_3_cif.got.tgz:5081.got - 2010.04.14 02:11:21.
