data_PCOD8309150
_publ_section_title
;
Structure prediction by ZEFSAII (Michael W. Deem and Ramdas Pophale) SiO2 
 PCOD8309150
Probable space group: P -4 21 C
;
_chemical_formula_sum "Si O2"
_cell_formula_units_Z 48
_cell_length_a 16.245010
_cell_length_b 16.245010
_cell_length_c 9.358285
_cell_angle_alpha 90.000000
_cell_angle_beta 90.000000
_cell_angle_gamma 90.000000
_cell_volume 2469.654686
_symmetry_space_group_name_H-M "P -4 21 C"
_symmetry_group_IT_number 114
_symmetry_cell_setting 'tetragonal'
loop_
_space_group_symop_operation_xyz
x,y,z
y,-x,-z
-x,-y,z
-y,x,-z
1/2+x,1/2-y,1/2-z
1/2-x,1/2+y,1/2-z
1/2-y,1/2-x,1/2+z
1/2+y,1/2+x,1/2+z
loop_
_atom_site_type_symbol
_atom_site_label
_atom_site_fract_x
_atom_site_fract_y
_atom_site_fract_z
Si Si1 0.164865 0.297813 0.508337
Si Si2 0.746295 0.606928 0.722185
Si Si3 0.246295 0.106928 0.222185
Si Si4 0.676853 0.454033 0.852458
Si Si5 0.335134 0.202187 0.008337
Si Si6 0.823147 0.045967 0.352458
O O1 0.197218 0.383133 0.580058
O O2 0.115361 0.307713 0.359967
O O3 0.244782 0.244782 0.472986
O O4 0.108207 0.252331 0.625128
O O5 0.675986 0.675986 0.729350
O O6 0.702461 0.517956 0.727878
O O7 0.302782 0.116867 0.080058
O O8 0.307713 0.115362 0.359966
O O9 0.202461 0.017956 0.227879
O O10 0.752331 0.391793 0.874873
O O11 0.596179 0.403821 0.801507
O O12 0.655057 0.500000 1.000000
#
# Coordination Sequence:
#
# PCOD8309150 Si02
#       6
#     8   8   8   8   8   8
#     4   8  15  27  42  62  88 118 152 186 224 273
#     4   9  16  27  44  65  89 118 152 190 229 272
#     4   9  16  27  44  65  89 118 152 190 229 272
#     4   9  16  26  43  68  95 119 147 190 237 275
#     4   8  15  27  42  62  88 118 152 186 224 273
#     4   9  16  26  43  68  95 119 147 190 237 275
#
# _framework density 19.435915000000001
#
# number of rings (size 3 to 8) (size 9 to 14) (size 15 to 20)
#    0.000    3.333    0.000    3.000    0.000    2.333 
#    0.000    1.667    0.000    1.000    0.000   16.333 
#    0.000   66.667    0.000    0.000    0.000    0.000 
#
# Total GULP energy -594654.979347 kJ/mol
# GULP energy per Si atom -12388.645403 kJ/mol
# Density = 1.939168 g / cm^3
# Si number density = 19.435915 Si / 1000 Ang^3
#
#
#
# Elastic Constant Matrix: (Units=GPa)
#
#
# Indices 1 2 3 4 5 6 
#
# 1 55.4109 38.4986 16.1066 0.0000 0.0000 0.0000
# 2 38.4986 55.4109 16.1066 0.0000 0.0000 0.0000
# 3 16.1066 16.1066 26.6588 0.0000 0.0000 0.0000
# 4 0.0000 0.0000 0.0000 24.9605 0.0000 0.0000
# 5 0.0000 0.0000 0.0000 0.0000 24.9605 0.0000
# 6 0.0000 0.0000 0.0000 0.0000 0.0000 38.8788
#
#
#
# Elastic Compliance Matrix: (Units=1/GPa)
#
#
# Indices 1 2 3 4 5 6 
#
# 1 0.036281 -0.022848 -0.008116 0.000000 0.000000 0.000000
# 2 -0.022848 0.036281 -0.008116 0.000000 0.000000 0.000000
# 3 -0.008116 -0.008116 0.047317 0.000000 0.000000 0.000000
# 4 0.000000 0.000000 0.000000 0.040063 0.000000 0.000000
# 5 0.000000 0.000000 0.000000 0.000000 0.040063 0.000000
# 6 0.000000 0.000000 0.000000 0.000000 0.000000 0.025721
#
#
# Mechanical properties :
#
#
# Convention : Reuss Voigt Hill
#
# Bulk Modulus (GPa) = 23.96925 30.98936 27.47931
# Shear Modulus (GPa) = 15.73360 22.21121 18.97241
#
# Velocity S-wave (km/s) = 2.84828 3.38419 3.12773
# Velocity P-wave (km/s) = 4.81416 5.59011 5.21658
#
# Compressibility (1/GPa) = 0.04172012
#
# Stress axis : x y z
#
# Youngs Moduli (GPa) = 27.56300 27.56300 21.13383
#
# Poissons Ratio (x) = 0.62976 0.17151
# Poissons Ratio (y) = 0.62976 0.17151
# Poissons Ratio (z) = 0.22369 0.22369
#
# Static dielectric constant tensor:
#      x y z
#    x 3.457580 0.000000 0.000000 
#    y 0.000000 3.457580 0.000000 
#    z 0.000000 0.000000 3.457600 
# 
# 
# High freq. dielectric constant tensor:
#      x y z
#    x 1.730760 0.000000 0.000000 
#    y 0.000000 1.730760 0.000000 
#    z 0.000000 0.000000 1.730620 
# 
# From -- ./inp_files/1666.got.cif
#   From: 2010.03.12/outbox.cif.g09.slc.cpg/sg114_1_cif.got.tgz:1666.got - 2010.04.14 02:08:34.
