data_PCOD8309740
_publ_section_title
;
Structure prediction by ZEFSAII (Michael W. Deem and Ramdas Pophale) SiO2 
 PCOD8309740
Probable space group: P -4 M 2
;
_chemical_formula_sum "Si O2"
_cell_formula_units_Z 48
_cell_length_a 9.464512
_cell_length_b 9.464512
_cell_length_c 30.666414
_cell_angle_alpha 90.000000
_cell_angle_beta 90.000000
_cell_angle_gamma 90.000000
_cell_volume 2747.004980
_symmetry_space_group_name_H-M "P -4 M 2"
_symmetry_group_IT_number 115
_symmetry_cell_setting 'tetragonal'
loop_
_space_group_symop_operation_xyz
x,y,z
y,-x,-z
-x,-y,z
-y,x,-z
y,x,-z
-y,-x,-z
-x,y,z
x,-y,z
loop_
_atom_site_type_symbol
_atom_site_label
_atom_site_fract_x
_atom_site_fract_y
_atom_site_fract_z
Si Si1 0.336673 0.663328 0.000000
Si Si2 0.667688 0.655950 0.336348
Si Si3 0.834618 0.164345 0.168250
Si Si4 0.664080 0.665288 0.761260
Si Si5 0.835669 0.663818 0.583474
Si Si6 0.164279 0.662613 0.083916
Si Si7 0.835900 0.835900 0.500000
O O1 0.285236 0.751180 0.958335
O O2 0.500000 0.692668 0.010213
O O3 0.500000 0.652434 0.337548
O O4 0.727904 0.500000 0.346350
O O5 0.713698 0.703687 0.287930
O O6 0.725850 0.760911 0.373334
O O7 0.752393 0.233596 0.207970
O O8 0.786196 0.240803 0.123953
O O9 0.000000 0.187540 0.176377
O O10 0.795171 0.000000 0.164813
O O11 0.500000 0.699670 0.771091
O O12 0.693362 0.500000 0.768169
O O13 0.799213 0.500000 0.575800
O O14 0.780798 0.749425 0.541662
O O15 0.000000 0.689109 0.590870
O O16 0.200153 0.500000 0.095278
O O17 0.000000 0.682970 0.073733
O O18 0.000000 0.806103 0.490969
#
# Coordination Sequence:
#
# PCOD8309740 Si02
#       7
#     4   8   8   8   8   8   4
#     4   9  18  32  50  73  98 122 154 199 244 285
#     4   8  15  29  48  70  95 120 149 189 235 281
#     4  10  21  35  50  72 102 133 166 204 244 287
#     4   9  18  33  53  75  98 127 163 201 243 292
#     4   9  17  29  46  67  89 116 151 188 226 271
#     4   9  18  33  51  69  93 128 163 194 237 291
#     4   9  18  32  46  61  88 124 154 183 226 276
#
# _framework density 17.473576000000001
#
# number of rings (size 3 to 8) (size 9 to 14) (size 15 to 20)
#    0.000    3.000    0.000    1.500    0.000    4.000 
#    0.000    4.167    0.000    3.000    0.000    0.000 
#    0.000    0.000    0.000    0.000    0.000    0.000 
#
# Total GULP energy -595162.866909 kJ/mol
# GULP energy per Si atom -12399.226394 kJ/mol
# Density = 1.743381 g / cm^3
# Si number density = 17.473576 Si / 1000 Ang^3
#
#
#
# Elastic Constant Matrix: (Units=GPa)
#
#
# Indices 1 2 3 4 5 6 
#
# 1 67.0097 43.2702 77.7678 0.0000 0.0000 0.0000
# 2 43.2702 67.0093 77.7679 0.0000 0.0000 0.0000
# 3 77.7678 77.7679 183.5747 0.0000 0.0000 0.0000
# 4 0.0000 0.0000 0.0000 12.0052 0.0000 0.0000
# 5 0.0000 0.0000 0.0000 0.0000 12.0032 0.0000
# 6 0.0000 0.0000 0.0000 0.0000 0.0000 22.4861
#
#
#
# Elastic Compliance Matrix: (Units=1/GPa)
#
#
# Indices 1 2 3 4 5 6 
#
# 1 0.032326 -0.009798 -0.009543 0.000000 0.000000 0.000000
# 2 -0.009798 0.032326 -0.009543 0.000000 0.000000 0.000000
# 3 -0.009543 -0.009543 0.013533 0.000000 0.000000 0.000000
# 4 0.000000 0.000000 0.000000 0.083298 0.000000 0.000000
# 5 0.000000 0.000000 0.000000 0.000000 0.083311 0.000000
# 6 0.000000 0.000000 0.000000 0.000000 0.000000 0.044472
#
#
# Mechanical properties :
#
#
# Convention : Reuss Voigt Hill
#
# Bulk Modulus (GPa) = 48.98410 79.46728 64.22569
# Shear Modulus (GPa) = 14.13067 17.21809 15.67438
#
# Velocity S-wave (km/s) = 2.84683 3.14248 2.99830
# Velocity P-wave (km/s) = 6.23699 7.66448 6.98728
#
# Compressibility (1/GPa) = 0.02041479
#
# Stress axis : x y z
#
# Youngs Moduli (GPa) = 30.93512 30.93473 73.89279
#
# Poissons Ratio (x) = 0.30311 0.70518
# Poissons Ratio (y) = 0.30311 0.70519
# Poissons Ratio (z) = 0.29522 0.29523
#
# Static dielectric constant tensor:
#      x y z
#    x 3.174850 0.000000 0.000000 
#    y 0.000000 3.174850 0.000000 
#    z 0.000000 0.000000 3.457560 
# 
# 
# High freq. dielectric constant tensor:
#      x y z
#    x 1.662330 0.000000 0.000000 
#    y 0.000000 1.662330 0.000000 
#    z 0.000000 0.000000 1.685690 
# 
# From -- ./inp_files/6219.got.cif
#   From: 2010.03.12/outbox.cif.g09.slc.cpg/sg115_4_cif.got.tgz:6219.got - 2010.04.14 02:11:21.
