data_PCOD8309308
_publ_section_title
;
Structure prediction by ZEFSAII (Michael W. Deem and Ramdas Pophale) SiO2 
 PCOD8309308
Probable space group: P -4 M 2
;
_chemical_formula_sum "Si O2"
_cell_formula_units_Z 64
_cell_length_a 14.401426
_cell_length_b 14.401426
_cell_length_c 17.531591
_cell_angle_alpha 90.000000
_cell_angle_beta 90.000000
_cell_angle_gamma 90.000000
_cell_volume 3636.070747
_symmetry_space_group_name_H-M "P -4 M 2"
_symmetry_group_IT_number 115
_symmetry_cell_setting 'tetragonal'
loop_
_space_group_symop_operation_xyz
x,y,z
y,-x,-z
-x,-y,z
-y,x,-z
y,x,-z
-y,-x,-z
-x,y,z
x,-y,z
loop_
_atom_site_type_symbol
_atom_site_label
_atom_site_fract_x
_atom_site_fract_y
_atom_site_fract_z
Si Si1 0.892796 0.393792 0.212568
Si Si2 0.892910 0.255623 0.910471
Si Si3 0.850614 0.395070 0.613460
Si Si4 0.894851 0.740638 0.488665
Si Si5 0.395977 0.109763 0.217661
Si Si6 0.600478 0.360103 0.415394
Si Si7 0.604700 0.800010 0.632274
Si Si8 0.106294 0.256566 0.082415
O O1 0.874916 0.500000 0.191397
O O2 0.831697 0.362419 0.284422
O O3 0.859748 0.336748 0.139040
O O4 0.000000 0.375239 0.232911
O O5 0.854391 0.331318 0.850858
O O6 0.837345 0.160886 0.899486
O O7 0.000000 0.232683 0.894323
O O8 0.878021 0.293788 0.996321
O O9 0.893303 0.500000 0.607557
O O10 0.908013 0.318741 0.566365
O O11 0.846347 0.363931 0.701913
O O12 0.749782 0.392846 0.576571
O O13 0.834625 0.834625 0.500000
O O14 0.843142 0.676089 0.427429
O O15 0.000000 0.767400 0.462221
O O16 0.500000 0.142257 0.197594
O O17 0.390331 0.000000 0.226290
O O18 0.599796 0.400204 0.500000
O O19 0.500000 0.387527 0.377693
O O20 0.687651 0.397719 0.367675
O O21 0.500000 0.836832 0.615122
O O22 0.000000 0.230516 0.096501
#
# Coordination Sequence:
#
# PCOD8309308 Si02
#       8
#     8   8   8   8   8   8   8   8
#     4   9  19  34  52  75 101 131 170 217 260 300
#     4   9  18  31  49  75 102 131 167 204 248 306
#     4  10  19  34  54  77 102 131 169 209 256 309
#     4  12  24  38  55  75 102 137 176 218 261 306
#     4   9  18  31  48  73 101 127 160 206 254 299
#     4  11  21  34  53  78 108 139 171 209 259 316
#     4  11  21  36  56  80 105 134 175 217 261 311
#     4   9  18  32  50  72 100 134 168 205 252 302
#
# _framework density 17.601417999999999
#
# number of rings (size 3 to 8) (size 9 to 14) (size 15 to 20)
#    0.000    2.000    2.500    1.500    1.750    3.750 
#    0.000    3.750    0.000    0.000    0.000    3.500 
#    0.000    0.000    0.000    2.750    0.000    0.250 
#
# Total GULP energy -793387.475049 kJ/mol
# GULP energy per Si atom -12396.679298 kJ/mol
# Density = 1.756136 g / cm^3
# Si number density = 17.601418 Si / 1000 Ang^3
#
#
#
# Elastic Constant Matrix: (Units=GPa)
#
#
# Indices 1 2 3 4 5 6 
#
# 1 89.6550 37.5167 55.4918 0.0000 0.0000 0.0000
# 2 37.5167 89.6547 55.4917 0.0000 0.0000 0.0000
# 3 55.4918 55.4917 114.9266 0.0000 0.0000 0.0000
# 4 0.0000 0.0000 0.0000 24.7030 0.0000 0.0000
# 5 0.0000 0.0000 0.0000 0.0000 24.7030 0.0000
# 6 0.0000 0.0000 0.0000 0.0000 0.0000 18.9101
#
#
#
# Elastic Compliance Matrix: (Units=1/GPa)
#
#
# Indices 1 2 3 4 5 6 
#
# 1 0.016385 -0.002795 -0.006562 0.000000 0.000000 0.000000
# 2 -0.002795 0.016385 -0.006562 0.000000 0.000000 0.000000
# 3 -0.006562 -0.006562 0.015038 0.000000 0.000000 0.000000
# 4 0.000000 0.000000 0.000000 0.040481 0.000000 0.000000
# 5 0.000000 0.000000 0.000000 0.000000 0.040481 0.000000
# 6 0.000000 0.000000 0.000000 0.000000 0.000000 0.052882
#
#
# Mechanical properties :
#
#
# Convention : Reuss Voigt Hill
#
# Bulk Modulus (GPa) = 62.61563 65.69296 64.15430
# Shear Modulus (GPa) = 22.85066 23.37896 23.11481
#
# Velocity S-wave (km/s) = 3.60700 3.64846 3.62779
# Velocity P-wave (km/s) = 7.28002 7.42643 7.35359
#
# Compressibility (1/GPa) = 0.01597045
#
# Stress axis : x y z
#
# Youngs Moduli (GPa) = 61.03188 61.03171 66.49855
#
# Poissons Ratio (x) = 0.17058 0.43635
# Poissons Ratio (y) = 0.17058 0.43635
# Poissons Ratio (z) = 0.40048 0.40048
#
# Static dielectric constant tensor:
#      x y z
#    x 3.308120 0.000000 0.000000 
#    y 0.000000 3.308120 0.000000 
#    z 0.000000 0.000000 3.350110 
# 
# 
# High freq. dielectric constant tensor:
#      x y z
#    x 1.674820 0.000000 0.000000 
#    y 0.000000 1.674820 0.000000 
#    z 0.000000 0.000000 1.674220 
# 
# From -- ./inp_files/4434.got.cif
#   From: 2010.03.12/outbox.cif.g09.slc.cpg/sg115_3_cif.got.tgz:4434.got - 2010.04.14 02:11:21.
