data_PCOD8309584
_publ_section_title
;
Structure prediction by ZEFSAII (Michael W. Deem and Ramdas Pophale) SiO2 
 PCOD8309584
Probable space group: P -4 M 2
;
_chemical_formula_sum "Si O2"
_cell_formula_units_Z 48
_cell_length_a 9.003217
_cell_length_b 9.003217
_cell_length_c 31.062856
_cell_angle_alpha 90.000000
_cell_angle_beta 90.000000
_cell_angle_gamma 90.000000
_cell_volume 2517.890383
_symmetry_space_group_name_H-M "P -4 M 2"
_symmetry_group_IT_number 115
_symmetry_cell_setting 'tetragonal'
loop_
_space_group_symop_operation_xyz
x,y,z
y,-x,-z
-x,-y,z
-y,x,-z
y,x,-z
-y,-x,-z
-x,y,z
x,-y,z
loop_
_atom_site_type_symbol
_atom_site_label
_atom_site_fract_x
_atom_site_fract_y
_atom_site_fract_z
Si Si1 0.674090 0.172376 0.289340
Si Si2 0.325467 0.828840 0.460850
Si Si3 0.665155 0.676341 0.953249
Si Si4 0.823502 0.832647 0.625004
Si Si5 0.674831 0.829105 0.789710
Si Si6 0.327062 0.826570 0.131570
O O1 0.500000 0.197319 0.294071
O O2 0.750274 0.235894 0.332506
O O3 0.732992 0.263690 0.249289
O O4 0.713126 0.000000 0.282001
O O5 0.269582 0.730419 0.500000
O O6 0.500000 0.810576 0.455576
O O7 0.250636 0.765614 0.417487
O O8 0.280649 0.000000 0.469065
O O9 0.500000 0.741723 0.944473
O O10 0.655538 0.500000 0.954833
O O11 0.774994 0.728682 0.915498
O O12 0.728542 0.728542 0.000000
O O13 0.000000 0.829411 0.625295
O O14 0.761383 0.000000 0.624757
O O15 0.500000 0.808142 0.791925
O O16 0.742307 0.771085 0.833881
O O17 0.720422 0.000000 0.782939
O O18 0.500000 0.786988 0.138749
O O19 0.298353 0.000000 0.136270
#
# Coordination Sequence:
#
# PCOD8309584 Si02
#       6
#     8   8   8   8   8   8
#     4  10  20  35  57  84 111 139 173 214 262 317
#     4  10  20  34  53  78 108 142 181 224 267 312
#     4   8  14  27  49  75 103 138 178 217 258 306
#     4   9  17  31  54  82 110 141 176 215 261 313
#     4  11  24  39  54  75 104 139 179 221 265 313
#     4  10  20  34  54  80 107 137 175 217 262 313
#
# _framework density 19.063579000000001
#
# number of rings (size 3 to 8) (size 9 to 14) (size 15 to 20)
#    0.000    2.333    0.000    3.500    0.000    8.333 
#    0.000    1.667    0.000    8.000    0.000    0.000 
#    0.000    0.000    0.000    0.000    0.000    0.000 
#
# Total GULP energy -595243.166944 kJ/mol
# GULP energy per Si atom -12400.899311 kJ/mol
# Density = 1.902019 g / cm^3
# Si number density = 19.063579 Si / 1000 Ang^3
#
#
#
# Elastic Constant Matrix: (Units=GPa)
#
#
# Indices 1 2 3 4 5 6 
#
# 1 66.0873 36.8831 44.9291 0.0000 0.0000 0.0000
# 2 36.8831 66.0885 44.9302 0.0000 0.0000 0.0000
# 3 44.9291 44.9302 158.4826 0.0000 0.0000 0.0000
# 4 0.0000 0.0000 0.0000 35.5489 0.0000 0.0000
# 5 0.0000 0.0000 0.0000 0.0000 35.5487 0.0000
# 6 0.0000 0.0000 0.0000 0.0000 0.0000 22.9012
#
#
#
# Elastic Compliance Matrix: (Units=1/GPa)
#
#
# Indices 1 2 3 4 5 6 
#
# 1 0.023573 -0.010669 -0.003658 0.000000 0.000000 0.000000
# 2 -0.010669 0.023572 -0.003658 0.000000 0.000000 0.000000
# 3 -0.003658 -0.003658 0.008384 0.000000 0.000000 0.000000
# 4 0.000000 0.000000 0.000000 0.028130 0.000000 0.000000
# 5 0.000000 0.000000 0.000000 0.000000 0.028130 0.000000
# 6 0.000000 0.000000 0.000000 0.000000 0.000000 0.043666
#
#
# Mechanical properties :
#
#
# Convention : Reuss Voigt Hill
#
# Bulk Modulus (GPa) = 51.12765 60.46036 55.79400
# Shear Modulus (GPa) = 25.25953 29.72748 27.49351
#
# Velocity S-wave (km/s) = 3.64402 3.95319 3.80175
# Velocity P-wave (km/s) = 6.67705 7.25403 6.97151
#
# Compressibility (1/GPa) = 0.01955889
#
# Stress axis : x y z
#
# Youngs Moduli (GPa) = 42.42226 42.42268 119.27395
#
# Poissons Ratio (x) = 0.45259 0.43632
# Poissons Ratio (y) = 0.45258 0.43634
# Poissons Ratio (z) = 0.15519 0.15520
#
# Static dielectric constant tensor:
#      x y z
#    x 3.359690 0.000000 0.000000 
#    y 0.000000 3.359690 0.000000 
#    z 0.000000 0.000000 3.838530 
# 
# 
# High freq. dielectric constant tensor:
#      x y z
#    x 1.724270 0.000000 0.000000 
#    y 0.000000 1.724270 0.000000 
#    z 0.000000 0.000000 1.762000 
# 
# From -- ./inp_files/6046.got.cif
#   From: 2010.03.12/outbox.cif.g09.slc.cpg/sg115_4_cif.got.tgz:6046.got - 2010.04.14 02:11:21.
