data_PCOD8309396
_publ_section_title
;
Structure prediction by ZEFSAII (Michael W. Deem and Ramdas Pophale) SiO2 
 PCOD8309396
Probable space group: P -4 M 2
;
_chemical_formula_sum "Si O2"
_cell_formula_units_Z 45
_cell_length_a 12.341971
_cell_length_b 12.341971
_cell_length_c 16.485656
_cell_angle_alpha 90.000000
_cell_angle_beta 90.000000
_cell_angle_gamma 90.000000
_cell_volume 2511.165156
_symmetry_space_group_name_H-M "P -4 M 2"
_symmetry_group_IT_number 115
_symmetry_cell_setting 'tetragonal'
loop_
_space_group_symop_operation_xyz
x,y,z
y,-x,-z
-x,-y,z
-y,x,-z
y,x,-z
-y,-x,-z
-x,y,z
x,-y,z
loop_
_atom_site_type_symbol
_atom_site_label
_atom_site_fract_x
_atom_site_fract_y
_atom_site_fract_z
Si Si1 0.000000 0.000000 0.500000
Si Si2 0.376734 0.376734 0.500000
Si Si3 0.377179 0.126141 0.871099
Si Si4 0.000000 0.779460 0.597485
Si Si5 0.128852 0.000000 0.224900
Si Si6 0.372466 0.806772 0.372779
Si Si7 0.372619 0.879812 0.050080
Si Si8 0.794968 0.263571 0.801128
O O1 0.000000 0.883193 0.541000
O O2 0.357475 0.500000 0.471408
O O3 0.303441 0.349698 0.578138
O O4 0.500000 0.165747 0.865681
O O5 0.314258 0.193772 0.802695
O O6 0.367191 0.000000 0.850312
O O7 0.326465 0.150417 0.960709
O O8 0.000000 0.836135 0.683056
O O9 0.897463 0.700762 0.583793
O O10 0.179188 0.892661 0.186197
O O11 0.000000 0.000000 0.213485
O O12 0.500000 0.838242 0.374560
O O13 0.335829 0.796640 0.279531
O O14 0.500000 0.881043 0.039251
O O15 0.341347 0.795926 0.120365
O O16 0.332484 0.000000 0.075513
#
# Coordination Sequence:
#
# PCOD8309396 Si02
#       8
#     1   4   8   4   4   8   8   8
#     4  12  20  36  60  80 108 148 190 208 272 336
#     4   9  19  38  59  77 104 138 174 223 277 326
#     4   9  19  34  51  71 103 147 186 222 266 323
#     4  10  21  34  55  80 110 144 173 217 260 327
#     4  10  20  33  45  72 109 139 166 213 269 311
#     4  10  21  36  56  83 110 141 180 225 276 324
#     4   9  17  31  50  74 104 138 179 222 269 323
#     4  11  19  31  53  79 104 138 179 227 269 319
#
# _framework density 17.919968999999998
#
# number of rings (size 3 to 8) (size 9 to 14) (size 15 to 20)
#    0.000    2.222    1.333    3.467    0.000    0.711 
#    0.000    0.000    0.000    1.600    0.000    4.978 
#    0.000    0.000    0.000    0.000    0.000    0.000 
#
# Total GULP energy -557702.420640 kJ/mol
# GULP energy per Si atom -12393.387125 kJ/mol
# Density = 1.787918 g / cm^3
# Si number density = 17.919969 Si / 1000 Ang^3
#
#
#
# Elastic Constant Matrix: (Units=GPa)
#
#
# Indices 1 2 3 4 5 6 
#
# 1 99.1148 50.0656 43.3753 0.0000 0.0000 0.0000
# 2 50.0656 99.1148 43.3753 0.0000 0.0000 0.0000
# 3 43.3753 43.3753 47.4171 0.0000 0.0000 0.0000
# 4 0.0000 0.0000 0.0000 29.6981 0.0000 0.0000
# 5 0.0000 0.0000 0.0000 0.0000 29.6981 0.0000
# 6 0.0000 0.0000 0.0000 0.0000 0.0000 28.2733
#
#
#
# Elastic Compliance Matrix: (Units=1/GPa)
#
#
# Indices 1 2 3 4 5 6 
#
# 1 0.017355 -0.003033 -0.013101 0.000000 0.000000 0.000000
# 2 -0.003033 0.017355 -0.013101 0.000000 0.000000 0.000000
# 3 -0.013101 -0.013101 0.045058 0.000000 0.000000 0.000000
# 4 0.000000 0.000000 0.000000 0.033672 0.000000 0.000000
# 5 0.000000 0.000000 0.000000 0.000000 0.033672 0.000000
# 6 0.000000 0.000000 0.000000 0.000000 0.000000 0.035369
#
#
# Mechanical properties :
#
#
# Convention : Reuss Voigt Hill
#
# Bulk Modulus (GPa) = 46.95376 57.69767 52.32571
# Shear Modulus (GPa) = 20.15730 24.78929 22.47329
#
# Velocity S-wave (km/s) = 3.35752 3.72335 3.54516
# Velocity P-wave (km/s) = 6.42568 7.12403 6.78385
#
# Compressibility (1/GPa) = 0.02129755
#
# Stress axis : x y z
#
# Youngs Moduli (GPa) = 57.62143 57.62143 22.19375
#
# Poissons Ratio (x) = 0.17477 0.29076
# Poissons Ratio (y) = 0.17477 0.29076
# Poissons Ratio (z) = 0.75489 0.75489
#
# Static dielectric constant tensor:
#      x y z
#    x 3.241070 0.000000 0.000000 
#    y 0.000000 3.241070 0.000000 
#    z 0.000000 0.000000 3.196550 
# 
# 
# High freq. dielectric constant tensor:
#      x y z
#    x 1.694130 0.000000 0.000000 
#    y 0.000000 1.694130 0.000000 
#    z 0.000000 0.000000 1.685950 
# 
# From -- ./inp_files/4338.got.cif
#   From: 2010.03.12/outbox.cif.g09.slc.cpg/sg115_3_cif.got.tgz:4338.got - 2010.04.14 02:11:21.
