data_PCOD8309795
_publ_section_title
;
Structure prediction by ZEFSAII (Michael W. Deem and Ramdas Pophale) SiO2 
 PCOD8309795
Probable space group: P -4 M 2
;
_chemical_formula_sum "Si O2"
_cell_formula_units_Z 36
_cell_length_a 9.411622
_cell_length_b 9.411622
_cell_length_c 23.303481
_cell_angle_alpha 90.000000
_cell_angle_beta 90.000000
_cell_angle_gamma 90.000000
_cell_volume 2064.190390
_symmetry_space_group_name_H-M "P -4 M 2"
_symmetry_group_IT_number 115
_symmetry_cell_setting 'tetragonal'
loop_
_space_group_symop_operation_xyz
x,y,z
y,-x,-z
-x,-y,z
-y,x,-z
y,x,-z
-y,-x,-z
-x,y,z
x,-y,z
loop_
_atom_site_type_symbol
_atom_site_label
_atom_site_fract_x
_atom_site_fract_y
_atom_site_fract_z
Si Si1 0.657979 0.169186 0.767931
Si Si2 0.330577 0.158430 0.892966
Si Si3 0.162749 0.165267 0.339469
Si Si4 0.164866 0.667275 0.547708
Si Si5 0.334682 0.334682 0.000000
O O1 0.500000 0.230465 0.757384
O O2 0.717961 0.218285 0.830383
O O3 0.757241 0.224598 0.716769
O O4 0.653417 0.000000 0.768554
O O5 0.500000 0.155401 0.893007
O O6 0.270485 0.000000 0.903399
O O7 0.271990 0.258493 0.943509
O O8 0.261593 0.209042 0.392373
O O9 0.000000 0.210667 0.352999
O O10 0.172323 0.000000 0.326368
O O11 0.264116 0.735885 0.500000
O O12 0.194326 0.500000 0.551234
O O13 0.000000 0.699371 0.533378
O O14 0.302648 0.500000 0.992324
#
# Coordination Sequence:
#
# PCOD8309795 Si02
#       5
#     8   8   8   8   4
#     4   8  14  26  45  66  86 113 150 185 217 262
#     4   8  14  26  43  61  84 115 147 179 219 267
#     4   9  17  30  49  71  93 118 150 188 228 270
#     4  10  21  36  53  73  98 128 160 194 233 277
#     4   9  16  26  42  63  84 108 144 187 222 256
#
# _framework density 17.440249999999999
#
# number of rings (size 3 to 8) (size 9 to 14) (size 15 to 20)
#    0.000    3.222    0.000    2.000    0.000    2.222 
#    0.000    4.444    0.000    3.000    0.000    0.000 
#    0.000    0.000    0.000    0.000    0.000    0.000 
#
# Total GULP energy -446217.094094 kJ/mol
# GULP energy per Si atom -12394.919280 kJ/mol
# Density = 1.740056 g / cm^3
# Si number density = 17.440250 Si / 1000 Ang^3
#
#
#
# Elastic Constant Matrix: (Units=GPa)
#
#
# Indices 1 2 3 4 5 6 
#
# 1 57.6243 34.2569 69.4840 0.0000 0.0000 0.0000
# 2 34.2569 57.6243 69.4855 0.0000 0.0000 0.0000
# 3 69.4840 69.4855 195.2116 0.0000 0.0000 0.0000
# 4 0.0000 0.0000 0.0000 21.5345 0.0000 0.0000
# 5 0.0000 0.0000 0.0000 0.0000 21.5339 0.0000
# 6 0.0000 0.0000 0.0000 0.0000 0.0000 15.2005
#
#
#
# Elastic Compliance Matrix: (Units=1/GPa)
#
#
# Indices 1 2 3 4 5 6 
#
# 1 0.033185 -0.009609 -0.008392 0.000000 0.000000 0.000000
# 2 -0.009609 0.033186 -0.008392 0.000000 0.000000 0.000000
# 3 -0.008392 -0.008392 0.011097 0.000000 0.000000 0.000000
# 4 0.000000 0.000000 0.000000 0.046437 0.000000 0.000000
# 5 0.000000 0.000000 0.000000 0.000000 0.046438 0.000000
# 6 0.000000 0.000000 0.000000 0.000000 0.000000 0.065787
#
#
# Mechanical properties :
#
#
# Convention : Reuss Voigt Hill
#
# Bulk Modulus (GPa) = 40.51574 72.99034 56.75304
# Shear Modulus (GPa) = 16.82690 20.80273 18.81481
#
# Velocity S-wave (km/s) = 3.10954 3.45744 3.28810
# Velocity P-wave (km/s) = 6.01448 7.60796 6.85766
#
# Compressibility (1/GPa) = 0.02468177
#
# Stress axis : x y z
#
# Youngs Moduli (GPa) = 30.13420 30.13318 90.11657
#
# Poissons Ratio (x) = 0.28956 0.75621
# Poissons Ratio (y) = 0.28957 0.75628
# Poissons Ratio (z) = 0.25287 0.25288
#
# Static dielectric constant tensor:
#      x y z
#    x 3.084290 0.000000 0.000000 
#    y 0.000000 3.084280 0.000000 
#    z 0.000000 0.000000 3.669080 
# 
# 
# High freq. dielectric constant tensor:
#      x y z
#    x 1.644910 0.000000 0.000000 
#    y 0.000000 1.644910 0.000000 
#    z 0.000000 0.000000 1.691240 
# 
# From -- ./inp_files/5131.got.cif
#   From: 2010.03.12/outbox.cif.g09.slc.cpg/sg115_3_cif.got.tgz:5131.got - 2010.04.14 02:11:21.
