data_PCOD8309893
_publ_section_title
;
Structure prediction by ZEFSAII (Michael W. Deem and Ramdas Pophale) SiO2 
 PCOD8309893
Probable space group: P -4 M 2
;
_chemical_formula_sum "Si O2"
_cell_formula_units_Z 48
_cell_length_a 9.085386
_cell_length_b 9.085386
_cell_length_c 30.766453
_cell_angle_alpha 90.000000
_cell_angle_beta 90.000000
_cell_angle_gamma 90.000000
_cell_volume 2539.593443
_symmetry_space_group_name_H-M "P -4 M 2"
_symmetry_group_IT_number 115
_symmetry_cell_setting 'tetragonal'
loop_
_space_group_symop_operation_xyz
x,y,z
y,-x,-z
-x,-y,z
-y,x,-z
y,x,-z
-y,-x,-z
-x,y,z
x,-y,z
loop_
_atom_site_type_symbol
_atom_site_label
_atom_site_fract_x
_atom_site_fract_y
_atom_site_fract_z
Si Si1 0.669567 0.330977 0.949671
Si Si2 0.329243 0.673033 0.203351
Si Si3 0.827319 0.829339 0.875560
Si Si4 0.170892 0.827269 0.717831
Si Si5 0.335965 0.675667 0.547065
Si Si6 0.172754 0.332500 0.631239
O O1 0.500000 0.298000 0.938251
O O2 0.706686 0.500000 0.938289
O O3 0.773947 0.223103 0.922736
O O4 0.700768 0.299233 0.000000
O O5 0.500000 0.714044 0.207445
O O6 0.303906 0.500000 0.200245
O O7 0.265940 0.745402 0.160262
O O8 0.245583 0.733476 0.244978
O O9 0.000000 0.802124 0.871212
O O10 0.787789 0.000000 0.869132
O O11 0.226362 0.764104 0.671837
O O12 0.000000 0.788586 0.725769
O O13 0.198558 0.000000 0.718317
O O14 0.271895 0.728106 0.500000
O O15 0.500000 0.737427 0.554123
O O16 0.337034 0.500000 0.546267
O O17 0.238927 0.735259 0.586947
O O18 0.226485 0.500000 0.638781
O O19 0.000000 0.324526 0.625967
#
# Coordination Sequence:
#
# PCOD8309893 Si02
#       6
#     8   8   8   8   8   8
#     4   9  19  37  60  85 113 146 186 230 272 315
#     4  11  24  40  59  83 108 136 175 221 266 315
#     4  11  24  39  56  82 115 148 182 221 266 317
#     4  10  21  37  56  78 106 139 174 213 260 315
#     4   8  14  26  45  68  94 126 165 209 255 302
#     4   9  17  30  49  72  98 130 168 209 254 306
#
# _framework density 18.900663999999999
#
# number of rings (size 3 to 8) (size 9 to 14) (size 15 to 20)
#    0.000    2.333    0.000    3.500    0.000    9.333 
#    0.000    5.000    0.000    1.000    0.000    0.000 
#    0.000    0.000    0.000    0.000    0.000    0.000 
#
# Total GULP energy -595235.679913 kJ/mol
# GULP energy per Si atom -12400.743332 kJ/mol
# Density = 1.885764 g / cm^3
# Si number density = 18.900664 Si / 1000 Ang^3
#
#
#
# Elastic Constant Matrix: (Units=GPa)
#
#
# Indices 1 2 3 4 5 6 
#
# 1 66.9824 45.0349 50.8886 0.0000 0.0000 0.0000
# 2 45.0349 66.9823 50.8885 0.0000 0.0000 0.0000
# 3 50.8886 50.8885 137.4454 0.0000 0.0000 0.0000
# 4 0.0000 0.0000 0.0000 -81.2620 0.0000 0.0000
# 5 0.0000 0.0000 0.0000 0.0000 -81.2668 0.0000
# 6 0.0000 0.0000 0.0000 0.0000 0.0000 26.7951
#
#
#
# Elastic Compliance Matrix: (Units=1/GPa)
#
#
# Indices 1 2 3 4 5 6 
#
# 1 0.029508 -0.016055 -0.004981 0.000000 0.000000 0.000000
# 2 -0.016055 0.029508 -0.004981 0.000000 0.000000 0.000000
# 3 -0.004981 -0.004981 0.010964 0.000000 0.000000 0.000000
# 4 0.000000 0.000000 0.000000 -0.012306 0.000000 0.000000
# 5 0.000000 0.000000 0.000000 0.000000 -0.012305 0.000000
# 6 0.000000 0.000000 0.000000 0.000000 0.000000 0.037320
#
#
# Mechanical properties :
#
#
# Convention : Reuss Voigt Hill
#
# Bulk Modulus (GPa) = 55.72269 62.78157 59.25213
# Shear Modulus (GPa) = 35.53533 -18.84020 8.34757
#
# Velocity S-wave (km/s) = 4.34073 -3.16064 2.10384
# Velocity P-wave (km/s) = 7.39381 4.46869 6.10891
#
# Compressibility (1/GPa) = 0.01794601
#
# Stress axis : x y z
#
# Youngs Moduli (GPa) = 33.88907 33.88907 91.20894
#
# Poissons Ratio (x) = 0.54410 0.45429
# Poissons Ratio (y) = 0.54410 0.45429
# Poissons Ratio (z) = 0.16879 0.16879
#
# Static dielectric constant tensor:
#      x y z
#    x 3.454140 0.000000 0.000000 
#    y 0.000000 3.454140 0.000000 
#    z 0.000000 0.000000 3.756330 
# 
# 
# High freq. dielectric constant tensor:
#      x y z
#    x 1.723980 0.000000 0.000000 
#    y 0.000000 1.723980 0.000000 
#    z 0.000000 0.000000 1.753520 
# 
# From -- ./inp_files/6006.got.cif
#   From: 2010.03.12/outbox.cif.g09.slc.cpg/sg115_4_cif.got.tgz:6006.got - 2010.04.14 02:11:21.
