data_PCOD8309635
_publ_section_title
;
Structure prediction by ZEFSAII (Michael W. Deem and Ramdas Pophale) SiO2 
 PCOD8309635
Probable space group: P -4 M 2
;
_chemical_formula_sum "Si O2"
_cell_formula_units_Z 48
_cell_length_a 8.121972
_cell_length_b 8.121972
_cell_length_c 33.890424
_cell_angle_alpha 90.000000
_cell_angle_beta 90.000000
_cell_angle_gamma 90.000000
_cell_volume 2235.630254
_symmetry_space_group_name_H-M "P -4 M 2"
_symmetry_group_IT_number 115
_symmetry_cell_setting 'tetragonal'
loop_
_space_group_symop_operation_xyz
x,y,z
y,-x,-z
-x,-y,z
-y,x,-z
y,x,-z
-y,-x,-z
-x,y,z
x,-y,z
loop_
_atom_site_type_symbol
_atom_site_label
_atom_site_fract_x
_atom_site_fract_y
_atom_site_fract_z
Si Si1 0.304487 0.814737 0.660894
Si Si2 0.309020 0.309020 0.000000
Si Si3 0.680292 0.689882 0.420480
Si Si4 0.810525 0.500000 0.709775
Si Si5 0.810528 0.688164 0.917067
Si Si6 0.813493 0.813493 0.500000
Si Si7 0.690377 0.500000 0.796187
Si Si8 0.690307 0.180088 0.838708
O O1 0.500000 0.802286 0.664378
O O2 0.240763 0.788430 0.615821
O O3 0.227705 0.668395 0.686578
O O4 0.247479 0.000000 0.673993
O O5 0.240965 0.217232 0.038908
O O6 0.271352 0.500000 0.006155
O O7 0.500000 0.776404 0.421574
O O8 0.653864 0.500000 0.412062
O O9 0.770250 0.706332 0.462121
O O10 0.705073 0.500000 0.749365
O O11 0.000000 0.500000 0.721465
O O12 0.746707 0.500000 0.915553
O O13 0.709312 0.793248 0.885488
O O14 0.000000 0.700974 0.905505
O O15 0.000000 0.780008 0.512351
O O16 0.500000 0.500000 0.808420
O O17 0.772910 0.333260 0.814608
O O18 0.500000 0.172926 0.827582
O O19 0.768027 0.000000 0.827454
#
# Coordination Sequence:
#
# PCOD8309635 Si02
#       8
#     8   4   8   4   8   4   4   8
#     4  10  21  41  69  95 123 164 214 263 311 373
#     4   9  18  32  52  77 110 156 206 251 293 342
#     4  10  20  37  62  88 115 152 205 261 312 366
#     4  12  26  42  64  96 134 168 202 252 320 388
#     4  10  20  34  54  81 116 156 197 244 302 363
#     4  11  24  37  50  78 122 165 204 251 308 372
#     4  10  22  42  66  90 122 158 204 258 302 366
#     4  10  21  38  63  91 116 151 199 250 304 363
#
# _framework density 21.470454
#
# number of rings (size 3 to 8) (size 9 to 14) (size 15 to 20)
#    0.000    1.833    1.667    2.250    0.000    6.667 
#    0.000    3.333    0.000    0.000    0.000    0.000 
#    0.000    0.000    0.000    0.000    0.000    0.000 
#
# Total GULP energy -594979.584933 kJ/mol
# GULP energy per Si atom -12395.408019 kJ/mol
# Density = 2.142159 g / cm^3
# Si number density = 21.470454 Si / 1000 Ang^3
#
#
#
# Elastic Constant Matrix: (Units=GPa)
#
#
# Indices 1 2 3 4 5 6 
#
# 1 83.0562 33.2235 32.0082 0.0000 0.0000 0.0000
# 2 33.2235 83.0562 32.0082 0.0000 0.0000 0.0000
# 3 32.0082 32.0082 130.2006 0.0000 0.0000 0.0000
# 4 0.0000 0.0000 0.0000 9.6448 0.0000 0.0000
# 5 0.0000 0.0000 0.0000 0.0000 9.6448 0.0000
# 6 0.0000 0.0000 0.0000 0.0000 0.0000 17.6316
#
#
#
# Elastic Compliance Matrix: (Units=1/GPa)
#
#
# Indices 1 2 3 4 5 6 
#
# 1 0.015007 -0.005061 -0.002445 0.000000 0.000000 0.000000
# 2 -0.005061 0.015007 -0.002445 0.000000 0.000000 0.000000
# 3 -0.002445 -0.002445 0.008883 0.000000 0.000000 0.000000
# 4 0.000000 0.000000 0.000000 0.103682 0.000000 0.000000
# 5 0.000000 0.000000 0.000000 0.000000 0.103682 0.000000
# 6 0.000000 0.000000 0.000000 0.000000 0.000000 0.056717
#
#
# Mechanical properties :
#
#
# Convention : Reuss Voigt Hill
#
# Bulk Modulus (GPa) = 52.64722 54.53251 53.58986
# Shear Modulus (GPa) = 15.18787 20.65579 17.92183
#
# Velocity S-wave (km/s) = 2.66256 3.10507 2.89229
# Velocity P-wave (km/s) = 5.83320 6.18945 6.01396
#
# Compressibility (1/GPa) = 0.01899436
#
# Stress axis : x y z
#
# Youngs Moduli (GPa) = 66.63725 66.63725 112.57888
#
# Poissons Ratio (x) = 0.33722 0.27527
# Poissons Ratio (y) = 0.33722 0.27527
# Poissons Ratio (z) = 0.16294 0.16294
#
# Static dielectric constant tensor:
#      x y z
#    x 3.921520 0.000000 0.000000 
#    y 0.000000 3.921520 0.000000 
#    z 0.000000 0.000000 3.759250 
# 
# 
# High freq. dielectric constant tensor:
#      x y z
#    x 1.832780 0.000000 0.000000 
#    y 0.000000 1.832780 0.000000 
#    z 0.000000 0.000000 1.840080 
# 
# From -- ./inp_files/6295.got.cif
#   From: 2010.03.12/outbox.cif.g09.slc.cpg/sg115_4_cif.got.tgz:6295.got - 2010.04.14 02:11:21.
