data_PCOD8309700
_publ_section_title
;
Structure prediction by ZEFSAII (Michael W. Deem and Ramdas Pophale) SiO2 
 PCOD8309700
Probable space group: P -4 M 2
;
_chemical_formula_sum "Si O2"
_cell_formula_units_Z 64
_cell_length_a 13.155109
_cell_length_b 13.155109
_cell_length_c 21.455049
_cell_angle_alpha 90.000000
_cell_angle_beta 90.000000
_cell_angle_gamma 90.000000
_cell_volume 3712.944115
_symmetry_space_group_name_H-M "P -4 M 2"
_symmetry_group_IT_number 115
_symmetry_cell_setting 'tetragonal'
loop_
_space_group_symop_operation_xyz
x,y,z
y,-x,-z
-x,-y,z
-y,x,-z
y,x,-z
-y,-x,-z
-x,y,z
x,-y,z
loop_
_atom_site_type_symbol
_atom_site_label
_atom_site_fract_x
_atom_site_fract_y
_atom_site_fract_z
Si Si1 0.885482 0.119620 0.570301
Si Si2 0.715462 0.117517 0.001751
Si Si3 0.781909 0.617366 0.113921
Si Si4 0.748846 0.752728 0.660893
Si Si5 0.381315 0.214554 0.118308
Si Si6 0.381649 0.882895 0.755835
Si Si7 0.619187 0.384180 0.570487
Si Si8 0.117282 0.618293 0.749584
O O1 0.852364 0.147637 0.500000
O O2 0.810430 0.171047 0.618121
O O3 0.000000 0.158358 0.582633
O O4 0.879583 0.000000 0.580457
O O5 0.653650 0.137135 0.064967
O O6 0.744564 0.000000 0.997189
O O7 0.820250 0.179751 0.000000
O O8 0.643321 0.147970 0.944704
O O9 0.750863 0.500000 0.112031
O O10 0.676778 0.678875 0.112070
O O11 0.846366 0.644756 0.174876
O O12 0.681711 0.817143 0.707845
O O13 0.675575 0.686013 0.618979
O O14 0.826157 0.680424 0.696586
O O15 0.500000 0.238257 0.111826
O O16 0.354029 0.163071 0.183569
O O17 0.500000 0.867883 0.740787
O O18 0.349346 0.000000 0.749709
O O19 0.647785 0.352216 0.500000
O O20 0.500000 0.371588 0.581380
O O21 0.652541 0.500000 0.582509
O O22 0.131228 0.500000 0.734572
O O23 0.000000 0.650341 0.749440
#
# Coordination Sequence:
#
# PCOD8309700 Si02
#       8
#     8   8   8   8   8   8   8   8
#     4   9  19  35  53  75 102 132 170 215 260 306
#     4  10  21  36  58  82 106 142 187 230 268 314
#     4  10  20  36  55  80 108 140 178 219 264 313
#     4  12  19  32  54  79 102 134 176 212 256 313
#     4  10  20  36  55  80 108 140 178 219 264 313
#     4  10  21  35  51  74 107 140 171 214 264 312
#     4   9  19  35  53  75 104 136 170 211 258 308
#     4  10  21  35  51  74 107 140 171 214 264 312
#
# _framework density 17.236995
#
# number of rings (size 3 to 8) (size 9 to 14) (size 15 to 20)
#    0.000    2.000    1.250    3.750    0.000    2.375 
#    0.000    0.000    0.000    2.250    0.000   10.500 
#    0.000    0.000    0.000    0.000    0.000    0.000 
#
# Total GULP energy -793771.716501 kJ/mol
# GULP energy per Si atom -12402.683070 kJ/mol
# Density = 1.719776 g / cm^3
# Si number density = 17.236995 Si / 1000 Ang^3
#
#
#
# Elastic Constant Matrix: (Units=GPa)
#
#
# Indices 1 2 3 4 5 6 
#
# 1 71.2810 37.9309 36.2450 0.0000 0.0000 0.0000
# 2 37.9309 71.2813 36.2450 0.0000 0.0000 0.0000
# 3 36.2450 36.2450 93.2235 0.0000 0.0000 0.0000
# 4 0.0000 0.0000 0.0000 31.3642 0.0000 0.0000
# 5 0.0000 0.0000 0.0000 0.0000 31.3640 0.0000
# 6 0.0000 0.0000 0.0000 0.0000 0.0000 25.7936
#
#
#
# Elastic Compliance Matrix: (Units=1/GPa)
#
#
# Indices 1 2 3 4 5 6 
#
# 1 0.021163 -0.008822 -0.004798 0.000000 0.000000 0.000000
# 2 -0.008822 0.021163 -0.004798 0.000000 0.000000 0.000000
# 3 -0.004798 -0.004798 0.014458 0.000000 0.000000 0.000000
# 4 0.000000 0.000000 0.000000 0.031884 0.000000 0.000000
# 5 0.000000 0.000000 0.000000 0.000000 0.031884 0.000000
# 6 0.000000 0.000000 0.000000 0.000000 0.000000 0.038769
#
#
# Mechanical properties :
#
#
# Convention : Reuss Voigt Hill
#
# Bulk Modulus (GPa) = 50.13123 50.73638 50.43380
# Shear Modulus (GPa) = 24.65404 26.06201 25.35803
#
# Velocity S-wave (km/s) = 3.78603 3.89264 3.83971
# Velocity P-wave (km/s) = 6.94685 7.04996 6.99860
#
# Compressibility (1/GPa) = 0.01994765
#
# Stress axis : x y z
#
# Youngs Moduli (GPa) = 47.25196 47.25220 69.16565
#
# Poissons Ratio (x) = 0.41684 0.33188
# Poissons Ratio (y) = 0.41684 0.33188
# Poissons Ratio (z) = 0.22673 0.22673
#
# Static dielectric constant tensor:
#      x y z
#    x 3.199950 0.000000 0.000000 
#    y 0.000000 3.199950 0.000000 
#    z 0.000000 0.000000 3.377500 
# 
# 
# High freq. dielectric constant tensor:
#      x y z
#    x 1.667940 0.000000 0.000000 
#    y 0.000000 1.667940 0.000000 
#    z 0.000000 0.000000 1.681010 
# 
# From -- ./inp_files/5381.got.cif
#   From: 2010.03.12/outbox.cif.g09.slc.cpg/sg115_3_cif.got.tgz:5381.got - 2010.04.14 02:11:21.
