data_PCOD8309503
_publ_section_title
;
Structure prediction by ZEFSAII (Michael W. Deem and Ramdas Pophale) SiO2 
 PCOD8309503
Probable space group: P -4 M 2
;
_chemical_formula_sum "Si O2"
_cell_formula_units_Z 64
_cell_length_a 13.190900
_cell_length_b 13.190900
_cell_length_c 21.442272
_cell_angle_alpha 90.000000
_cell_angle_beta 90.000000
_cell_angle_gamma 90.000000
_cell_volume 3730.951957
_symmetry_space_group_name_H-M "P -4 M 2"
_symmetry_group_IT_number 115
_symmetry_cell_setting 'tetragonal'
loop_
_space_group_symop_operation_xyz
x,y,z
y,-x,-z
-x,-y,z
-y,x,-z
y,x,-z
-y,-x,-z
-x,y,z
x,-y,z
loop_
_atom_site_type_symbol
_atom_site_label
_atom_site_fract_x
_atom_site_fract_y
_atom_site_fract_z
Si Si1 0.384065 0.720391 0.809314
Si Si2 0.378340 0.121660 0.496929
Si Si3 0.115936 0.220387 0.190686
Si Si4 0.113522 0.118661 0.685736
Si Si5 0.613523 0.618661 0.314262
Si Si6 0.779323 0.114682 0.948010
Si Si7 0.720682 0.614682 0.051989
Si Si8 0.247589 0.252412 0.403420
O O1 0.500000 0.753025 0.801761
O O2 0.322062 0.822065 0.797248
O O3 0.354130 0.637121 0.757862
O O4 0.362557 0.676007 0.878723
O O5 0.500000 0.142314 0.496690
O O6 0.324212 0.175788 0.438353
O O7 0.324624 0.175378 0.555534
O O8 0.357685 0.000000 0.496690
O O9 0.145872 0.137119 0.242139
O O10 0.137447 0.176002 0.121278
O O11 0.000000 0.253017 0.198238
O O12 0.186956 0.174335 0.638915
O O13 0.000000 0.155558 0.672217
O O14 0.125536 0.000000 0.673428
O O15 0.500000 0.655558 0.327780
O O16 0.625535 0.500000 0.326572
O O17 0.686954 0.674335 0.361084
O O18 0.680792 0.180789 0.962436
O O19 0.742949 0.000000 0.953229
O O20 0.864568 0.135433 0.000000
O O21 0.757057 0.500000 0.046767
O O22 0.635435 0.635435 0.000000
#
# Coordination Sequence:
#
# PCOD8309503 Si02
#       8
#     8   8   8   8   8   8   8   8
#     4   9  17  31  49  72 102 132 164 208 257 302
#     4  10  22  38  56  80 106 132 168 210 250 294
#     4   9  17  31  49  72 102 132 164 208 257 302
#     4  10  20  33  51  77 105 134 170 207 248 299
#     4  10  20  33  51  77 105 134 170 207 248 299
#     4   9  18  31  48  71  99 132 172 212 254 303
#     4   9  18  31  48  71  99 132 172 212 254 303
#     4  11  20  36  58  76 103 140 168 202 251 298
#
# _framework density 17.153798999999999
#
# number of rings (size 3 to 8) (size 9 to 14) (size 15 to 20)
#    0.000    2.375    1.250    1.500    0.000    1.750 
#    0.000    5.000    0.000    6.000    0.000    0.000 
#    0.000    0.000    0.000    0.000    0.000    0.000 
#
# Total GULP energy -793249.693742 kJ/mol
# GULP energy per Si atom -12394.526465 kJ/mol
# Density = 1.711476 g / cm^3
# Si number density = 17.153799 Si / 1000 Ang^3
#
#
#
# Elastic Constant Matrix: (Units=GPa)
#
#
# Indices 1 2 3 4 5 6 
#
# 1 68.7099 55.7595 56.8604 0.0000 0.0000 0.0000
# 2 55.7595 68.7102 56.8609 0.0000 0.0000 0.0000
# 3 56.8604 56.8609 121.0231 0.0000 0.0000 0.0000
# 4 0.0000 0.0000 0.0000 22.5566 0.0000 0.0000
# 5 0.0000 0.0000 0.0000 0.0000 22.5565 0.0000
# 6 0.0000 0.0000 0.0000 0.0000 0.0000 25.7361
#
#
#
# Elastic Compliance Matrix: (Units=1/GPa)
#
#
# Indices 1 2 3 4 5 6 
#
# 1 0.045647 -0.031570 -0.006613 0.000000 0.000000 0.000000
# 2 -0.031570 0.045647 -0.006614 0.000000 0.000000 0.000000
# 3 -0.006613 -0.006614 0.014478 0.000000 0.000000 0.000000
# 4 0.000000 0.000000 0.000000 0.044333 0.000000 0.000000
# 5 0.000000 0.000000 0.000000 0.000000 0.044333 0.000000
# 6 0.000000 0.000000 0.000000 0.000000 0.000000 0.038856
#
#
# Mechanical properties :
#
#
# Convention : Reuss Voigt Hill
#
# Bulk Modulus (GPa) = 61.81944 66.37830 64.09887
# Shear Modulus (GPa) = 15.23088 20.10064 17.66576
#
# Velocity S-wave (km/s) = 2.98300 3.42685 3.21260
# Velocity P-wave (km/s) = 6.92683 7.37820 7.15607
#
# Compressibility (1/GPa) = 0.01617614
#
# Stress axis : x y z
#
# Youngs Moduli (GPa) = 21.90739 21.90727 69.07253
#
# Poissons Ratio (x) = 0.69162 0.45681
# Poissons Ratio (y) = 0.69162 0.45684
# Poissons Ratio (z) = 0.14488 0.14489
#
# Static dielectric constant tensor:
#      x y z
#    x 3.170050 0.000000 0.000000 
#    y 0.000000 3.170050 0.000000 
#    z 0.000000 0.000000 3.497440 
# 
# 
# High freq. dielectric constant tensor:
#      x y z
#    x 1.657210 0.000000 0.000000 
#    y 0.000000 1.657210 0.000000 
#    z 0.000000 0.000000 1.677920 
# 
# From -- ./inp_files/5400.got.cif
#   From: 2010.03.12/outbox.cif.g09.slc.cpg/sg115_3_cif.got.tgz:5400.got - 2010.04.14 02:11:21.
