data_PCOD8309529
_publ_section_title
;
Structure prediction by ZEFSAII (Michael W. Deem and Ramdas Pophale) SiO2 
 PCOD8309529
Probable space group: P -4 M 2
;
_chemical_formula_sum "Si O2"
_cell_formula_units_Z 44
_cell_length_a 9.316590
_cell_length_b 9.316590
_cell_length_c 28.240493
_cell_angle_alpha 90.000000
_cell_angle_beta 90.000000
_cell_angle_gamma 90.000000
_cell_volume 2451.242294
_symmetry_space_group_name_H-M "P -4 M 2"
_symmetry_group_IT_number 115
_symmetry_cell_setting 'tetragonal'
loop_
_space_group_symop_operation_xyz
x,y,z
y,-x,-z
-x,-y,z
-y,x,-z
y,x,-z
-y,-x,-z
-x,y,z
x,-y,z
loop_
_atom_site_type_symbol
_atom_site_label
_atom_site_fract_x
_atom_site_fract_y
_atom_site_fract_z
Si Si1 0.332855 0.835343 0.407952
Si Si2 0.330296 0.161684 0.038931
Si Si3 0.333223 0.331750 0.314610
Si Si4 0.831859 0.167358 0.233525
Si Si5 0.829739 0.658983 0.856700
Si Si6 0.833703 0.833703 0.500000
O O1 0.500000 0.819516 0.418581
O O2 0.285013 0.737580 0.364131
O O3 0.250462 0.777983 0.454055
O O4 0.291124 0.000000 0.396485
O O5 0.500000 0.165015 0.033289
O O6 0.288275 0.221202 0.091314
O O7 0.272243 0.000000 0.031848
O O8 0.262966 0.262966 0.000000
O O9 0.500000 0.299305 0.304459
O O10 0.301125 0.500000 0.316625
O O11 0.239675 0.260502 0.274075
O O12 0.769701 0.222019 0.183307
O O13 0.000000 0.196581 0.233403
O O14 0.795999 0.000000 0.242002
O O15 0.767565 0.500000 0.845193
O O16 0.000000 0.649419 0.858169
O O17 0.000000 0.802157 0.490922
#
# Coordination Sequence:
#
# PCOD8309529 Si02
#       6
#     8   8   8   8   8   4
#     4   9  18  33  52  73  98 130 167 204 244 293
#     4   9  18  32  50  74 102 131 166 206 247 294
#     4  10  21  36  53  74 101 134 171 208 248 296
#     4  10  20  33  52  78 103 128 163 207 253 301
#     4   8  15  30  51  72  96 129 168 207 245 290
#     4   9  18  32  50  73 100 128 160 201 246 291
#
# _framework density 17.950081000000001
#
# number of rings (size 3 to 8) (size 9 to 14) (size 15 to 20)
#    0.000    2.818    0.000    2.182    0.000    4.727 
#    0.000    4.545    0.000    1.091    0.000    0.000 
#    0.000    0.000    0.000    0.000    0.000    0.000 
#
# Total GULP energy -545563.848227 kJ/mol
# GULP energy per Si atom -12399.178369 kJ/mol
# Density = 1.790923 g / cm^3
# Si number density = 17.950081 Si / 1000 Ang^3
#
#
#
# Elastic Constant Matrix: (Units=GPa)
#
#
# Indices 1 2 3 4 5 6 
#
# 1 67.2491 43.8417 75.9445 0.0000 0.0000 0.0000
# 2 43.8417 67.2491 75.9445 0.0000 0.0000 0.0000
# 3 75.9445 75.9445 187.1881 0.0000 0.0000 0.0000
# 4 0.0000 0.0000 0.0000 57.5440 0.0000 0.0000
# 5 0.0000 0.0000 0.0000 0.0000 57.5440 0.0000
# 6 0.0000 0.0000 0.0000 0.0000 0.0000 23.9627
#
#
#
# Elastic Compliance Matrix: (Units=1/GPa)
#
#
# Indices 1 2 3 4 5 6 
#
# 1 0.031468 -0.011253 -0.008202 0.000000 0.000000 0.000000
# 2 -0.011253 0.031468 -0.008202 0.000000 0.000000 0.000000
# 3 -0.008202 -0.008202 0.011997 0.000000 0.000000 0.000000
# 4 0.000000 0.000000 0.000000 0.017378 0.000000 0.000000
# 5 0.000000 0.000000 0.000000 0.000000 0.017378 0.000000
# 6 0.000000 0.000000 0.000000 0.000000 0.000000 0.041732
#
#
# Mechanical properties :
#
#
# Convention : Reuss Voigt Hill
#
# Bulk Modulus (GPa) = 50.96478 79.23866 65.10172
# Shear Modulus (GPa) = 23.44397 36.20716 29.82556
#
# Velocity S-wave (km/s) = 3.61787 4.49609 4.08068
# Velocity P-wave (km/s) = 6.77541 8.43758 7.65176
#
# Compressibility (1/GPa) = 0.01962140
#
# Stress axis : x y z
#
# Youngs Moduli (GPa) = 31.77796 31.77796 83.35286
#
# Poissons Ratio (x) = 0.35760 0.68363
# Poissons Ratio (y) = 0.35760 0.68363
# Poissons Ratio (z) = 0.26063 0.26063
#
# Static dielectric constant tensor:
#      x y z
#    x 3.103060 0.000000 0.000000 
#    y 0.000000 3.103060 0.000000 
#    z 0.000000 0.000000 3.595310 
# 
# 
# High freq. dielectric constant tensor:
#      x y z
#    x 1.679790 0.000000 0.000000 
#    y 0.000000 1.679790 0.000000 
#    z 0.000000 0.000000 1.709120 
# 
# From -- ./inp_files/5825.got.cif
#   From: 2010.03.12/outbox.cif.g09.slc.cpg/sg115_3_cif.got.tgz:5825.got - 2010.04.14 02:11:21.
