data_PCOD8309513
_publ_section_title
;
Structure prediction by ZEFSAII (Michael W. Deem and Ramdas Pophale) SiO2 
 PCOD8309513
Probable space group: P -4 M 2
;
_chemical_formula_sum "Si O2"
_cell_formula_units_Z 48
_cell_length_a 9.058626
_cell_length_b 9.058626
_cell_length_c 30.918277
_cell_angle_alpha 90.000000
_cell_angle_beta 90.000000
_cell_angle_gamma 90.000000
_cell_volume 2537.113772
_symmetry_space_group_name_H-M "P -4 M 2"
_symmetry_group_IT_number 115
_symmetry_cell_setting 'tetragonal'
loop_
_space_group_symop_operation_xyz
x,y,z
y,-x,-z
-x,-y,z
-y,x,-z
y,x,-z
-y,-x,-z
-x,y,z
x,-y,z
loop_
_atom_site_type_symbol
_atom_site_label
_atom_site_fract_x
_atom_site_fract_y
_atom_site_fract_z
Si Si1 0.831701 0.174519 0.204915
Si Si2 0.335492 0.324344 0.452729
Si Si3 0.327564 0.329238 0.873624
Si Si4 0.671791 0.828263 0.291615
Si Si5 0.827021 0.669783 0.038530
Si Si6 0.166995 0.675343 0.369251
O O1 0.744696 0.241922 0.165253
O O2 0.756884 0.228710 0.249219
O O3 0.000000 0.230565 0.204459
O O4 0.821968 0.000000 0.200849
O O5 0.274511 0.274511 0.500000
O O6 0.500000 0.260236 0.444239
O O7 0.343362 0.500000 0.452539
O O8 0.226647 0.266004 0.415426
O O9 0.500000 0.305704 0.865598
O O10 0.283998 0.500000 0.876259
O O11 0.277139 0.253063 0.917990
O O12 0.500000 0.795087 0.284911
O O13 0.729645 0.738486 0.332231
O O14 0.702734 0.000000 0.299831
O O15 0.787458 0.500000 0.028018
O O16 0.000000 0.692624 0.045087
O O17 0.771881 0.771881 0.000000
O O18 0.174721 0.500000 0.367141
O O19 0.000000 0.732514 0.363308
#
# Coordination Sequence:
#
# PCOD8309513 Si02
#       6
#     8   8   8   8   8   8
#     4  10  21  37  57  80 107 140 176 216 265 318
#     4   8  14  27  48  71  96 130 171 213 256 302
#     4  10  21  37  58  83 110 142 180 221 265 313
#     4  10  21  37  56  77 102 136 178 220 263 313
#     4  10  21  37  57  81 109 142 179 219 264 313
#     4  10  20  33  51  77 107 138 172 212 260 312
#
# _framework density 18.919135000000001
#
# number of rings (size 3 to 8) (size 9 to 14) (size 15 to 20)
#    0.000    2.333    0.000    3.000    0.000    6.333 
#    0.000    0.833    0.000    3.000    0.000    0.000 
#    0.000    0.000    0.000    0.000    0.000    0.000 
#
# Total GULP energy -595298.649377 kJ/mol
# GULP energy per Si atom -12402.055195 kJ/mol
# Density = 1.887607 g / cm^3
# Si number density = 18.919135 Si / 1000 Ang^3
#
#
#
# Elastic Constant Matrix: (Units=GPa)
#
#
# Indices 1 2 3 4 5 6 
#
# 1 67.1499 29.5273 49.3812 0.0000 0.0000 0.0000
# 2 29.5273 67.1499 49.3812 0.0000 0.0000 0.0000
# 3 49.3812 49.3812 156.2970 0.0000 0.0000 0.0000
# 4 0.0000 0.0000 0.0000 121.1887 0.0000 0.0000
# 5 0.0000 0.0000 0.0000 0.0000 121.1887 0.0000
# 6 0.0000 0.0000 0.0000 0.0000 0.0000 26.9611
#
#
#
# Elastic Compliance Matrix: (Units=1/GPa)
#
#
# Indices 1 2 3 4 5 6 
#
# 1 0.020927 -0.005653 -0.004826 0.000000 0.000000 0.000000
# 2 -0.005653 0.020927 -0.004826 0.000000 0.000000 0.000000
# 3 -0.004826 -0.004826 0.009447 0.000000 0.000000 0.000000
# 4 0.000000 0.000000 0.000000 0.008252 0.000000 0.000000
# 5 0.000000 0.000000 0.000000 0.000000 0.008252 0.000000
# 6 0.000000 0.000000 0.000000 0.000000 0.000000 0.037091
#
#
# Mechanical properties :
#
#
# Convention : Reuss Voigt Hill
#
# Bulk Modulus (GPa) = 48.32833 60.79737 54.56285
# Shear Modulus (GPa) = 35.11239 64.68816 49.90027
#
# Velocity S-wave (km/s) = 4.31271 5.85373 5.14129
# Velocity P-wave (km/s) = 7.09926 8.82572 8.00914
#
# Compressibility (1/GPa) = 0.02069180
#
# Stress axis : x y z
#
# Youngs Moduli (GPa) = 47.78622 47.78622 105.85061
#
# Poissons Ratio (x) = 0.27015 0.51078
# Poissons Ratio (y) = 0.27015 0.51078
# Poissons Ratio (z) = 0.23059 0.23059
#
# Static dielectric constant tensor:
#      x y z
#    x 3.260490 0.000000 0.000000 
#    y 0.000000 3.260490 0.000000 
#    z 0.000000 0.000000 3.737360 
# 
# 
# High freq. dielectric constant tensor:
#      x y z
#    x 1.726500 0.000000 0.000000 
#    y 0.000000 1.726500 0.000000 
#    z 0.000000 0.000000 1.752030 
# 
# From -- ./inp_files/5942.got.cif
#   From: 2010.03.12/outbox.cif.g09.slc.cpg/sg115_3_cif.got.tgz:5942.got - 2010.04.14 02:11:21.
