data_PCOD8309821
_publ_section_title
;
Structure prediction by ZEFSAII (Michael W. Deem and Ramdas Pophale) SiO2 
 PCOD8309821
Probable space group: P -4 M 2
;
_chemical_formula_sum "Si O2"
_cell_formula_units_Z 48
_cell_length_a 9.386609
_cell_length_b 9.386609
_cell_length_c 30.782035
_cell_angle_alpha 90.000000
_cell_angle_beta 90.000000
_cell_angle_gamma 90.000000
_cell_volume 2712.156730
_symmetry_space_group_name_H-M "P -4 M 2"
_symmetry_group_IT_number 115
_symmetry_cell_setting 'tetragonal'
loop_
_space_group_symop_operation_xyz
x,y,z
y,-x,-z
-x,-y,z
-y,x,-z
y,x,-z
-y,-x,-z
-x,y,z
x,-y,z
loop_
_atom_site_type_symbol
_atom_site_label
_atom_site_fract_x
_atom_site_fract_y
_atom_site_fract_z
Si Si1 0.668561 0.839254 0.534976
Si Si2 0.169826 0.160257 0.288874
Si Si3 0.664965 0.336794 0.121682
Si Si4 0.834098 0.664558 0.206251
Si Si5 0.832510 0.664964 0.963783
Si Si6 0.341545 0.169484 0.631331
O O1 0.736706 0.736706 0.500000
O O2 0.500000 0.832441 0.530252
O O3 0.712811 0.786311 0.583321
O O4 0.723173 0.000000 0.527120
O O5 0.224580 0.244133 0.246568
O O6 0.231366 0.235453 0.332192
O O7 0.000000 0.162047 0.290047
O O8 0.229396 0.000000 0.287238
O O9 0.500000 0.320060 0.133302
O O10 0.702522 0.500000 0.109523
O O11 0.753081 0.284666 0.163231
O O12 0.709047 0.236562 0.081908
O O13 0.802672 0.500000 0.216758
O O14 0.000000 0.692191 0.198264
O O15 0.799214 0.500000 0.974557
O O16 0.000000 0.694305 0.961432
O O17 0.764066 0.764066 0.000000
O O18 0.500000 0.230783 0.640037
O O19 0.348363 0.000000 0.633806
#
# Coordination Sequence:
#
# PCOD8309821 Si02
#       6
#     8   8   8   8   8   8
#     4   9  18  31  47  69  95 123 157 197 241 289
#     4   9  16  25  40  65  94 121 151 189 233 279
#     4   9  18  33  52  72  95 126 163 200 237 280
#     4   9  17  29  46  68  93 122 156 193 233 277
#     4  10  21  36  54  76 101 130 164 201 243 291
#     4   8  14  26  43  62  87 119 153 189 229 275
#
# _framework density 17.698091000000002
#
# number of rings (size 3 to 8) (size 9 to 14) (size 15 to 20)
#    0.000    3.000    0.000    2.000    0.000    5.333 
#    0.000    3.333    0.000    1.000    0.000    2.333 
#    0.000    0.000    0.000    0.000    0.000    0.000 
#
# Total GULP energy -595136.079591 kJ/mol
# GULP energy per Si atom -12398.668325 kJ/mol
# Density = 1.765781 g / cm^3
# Si number density = 17.698091 Si / 1000 Ang^3
#
#
#
# Elastic Constant Matrix: (Units=GPa)
#
#
# Indices 1 2 3 4 5 6 
#
# 1 64.9498 34.5462 71.0907 0.0000 0.0000 0.0000
# 2 34.5462 64.9498 71.0907 0.0000 0.0000 0.0000
# 3 71.0907 71.0907 179.4078 0.0000 0.0000 0.0000
# 4 0.0000 0.0000 0.0000 22.5555 0.0000 0.0000
# 5 0.0000 0.0000 0.0000 0.0000 22.5555 0.0000
# 6 0.0000 0.0000 0.0000 0.0000 0.0000 18.6238
#
#
#
# Elastic Compliance Matrix: (Units=1/GPa)
#
#
# Indices 1 2 3 4 5 6 
#
# 1 0.028031 -0.004860 -0.009182 0.000000 0.000000 0.000000
# 2 -0.004860 0.028031 -0.009182 0.000000 0.000000 0.000000
# 3 -0.009182 -0.009182 0.012850 0.000000 0.000000 0.000000
# 4 0.000000 0.000000 0.000000 0.044335 0.000000 0.000000
# 5 0.000000 0.000000 0.000000 0.000000 0.044335 0.000000
# 6 0.000000 0.000000 0.000000 0.000000 0.000000 0.053695
#
#
# Mechanical properties :
#
#
# Convention : Reuss Voigt Hill
#
# Bulk Modulus (GPa) = 44.51069 73.64027 59.07548
# Shear Modulus (GPa) = 18.85276 21.58561 20.21918
#
# Velocity S-wave (km/s) = 3.26735 3.49615 3.38368
# Velocity P-wave (km/s) = 6.28002 7.61557 6.97981
#
# Compressibility (1/GPa) = 0.02246651
#
# Stress axis : x y z
#
# Youngs Moduli (GPa) = 35.67449 35.67449 77.81809
#
# Poissons Ratio (x) = 0.17337 0.71451
# Poissons Ratio (y) = 0.17337 0.71451
# Poissons Ratio (z) = 0.32756 0.32756
#
# Static dielectric constant tensor:
#      x y z
#    x 3.223970 0.000000 0.000000 
#    y 0.000000 3.223970 0.000000 
#    z 0.000000 0.000000 3.491930 
# 
# 
# High freq. dielectric constant tensor:
#      x y z
#    x 1.661810 0.000000 0.000000 
#    y 0.000000 1.661810 0.000000 
#    z 0.000000 0.000000 1.697960 
# 
# From -- ./inp_files/6087.got.cif
#   From: 2010.03.12/outbox.cif.g09.slc.cpg/sg115_4_cif.got.tgz:6087.got - 2010.04.14 02:11:21.
