data_PCOD8309374
_publ_section_title
;
Structure prediction by ZEFSAII (Michael W. Deem and Ramdas Pophale) SiO2 
 PCOD8309374
Probable space group: P -4 M 2
;
_chemical_formula_sum "Si O2"
_cell_formula_units_Z 48
_cell_length_a 9.378401
_cell_length_b 9.378401
_cell_length_c 30.754638
_cell_angle_alpha 90.000000
_cell_angle_beta 90.000000
_cell_angle_gamma 90.000000
_cell_volume 2705.005896
_symmetry_space_group_name_H-M "P -4 M 2"
_symmetry_group_IT_number 115
_symmetry_cell_setting 'tetragonal'
loop_
_space_group_symop_operation_xyz
x,y,z
y,-x,-z
-x,-y,z
-y,x,-z
y,x,-z
-y,-x,-z
-x,y,z
x,-y,z
loop_
_atom_site_type_symbol
_atom_site_label
_atom_site_fract_x
_atom_site_fract_y
_atom_site_fract_z
Si Si1 0.665529 0.835074 0.632703
Si Si2 0.669489 0.658840 0.214732
Si Si3 0.330793 0.341390 0.880429
Si Si4 0.833266 0.667259 0.036973
Si Si5 0.658947 0.167265 0.534045
Si Si6 0.163557 0.331140 0.703894
O O1 0.500000 0.801732 0.641658
O O2 0.705807 0.796328 0.583161
O O3 0.762608 0.736940 0.662372
O O4 0.698391 0.000000 0.642437
O O5 0.500000 0.651225 0.215992
O O6 0.732601 0.500000 0.222595
O O7 0.714502 0.719793 0.167141
O O8 0.727981 0.762746 0.252157
O O9 0.500000 0.351153 0.879103
O O10 0.268812 0.500000 0.890498
O O11 0.279802 0.231046 0.917101
O O12 0.803469 0.500000 0.029373
O O13 0.000000 0.701934 0.036791
O O14 0.756219 0.756219 0.000000
O O15 0.765005 0.234996 0.500000
O O16 0.500000 0.226107 0.525657
O O17 0.662230 0.000000 0.526796
O O18 0.180227 0.500000 0.700182
O O19 0.000000 0.283578 0.705248
#
# Coordination Sequence:
#
# PCOD8309374 Si02
#       6
#     8   8   8   8   8   8
#     4   9  19  36  54  71  95 130 169 205 242 286
#     4   8  14  27  48  71  95 126 163 201 242 287
#     4   8  14  27  49  73  94 121 161 206 245 282
#     4  10  20  33  50  73 100 130 164 201 243 291
#     4   9  19  35  53  74 100 128 161 202 245 291
#     4  10  20  32  48  74 105 133 162 199 243 289
#
# _framework density 17.744878
#
# number of rings (size 3 to 8) (size 9 to 14) (size 15 to 20)
#    0.000    3.000    0.000    3.000    0.000    4.000 
#    0.000    6.667    0.000    6.000    0.000    0.000 
#    0.000    0.000    0.000    0.000    0.000    0.000 
#
# Total GULP energy -595030.301619 kJ/mol
# GULP energy per Si atom -12396.464617 kJ/mol
# Density = 1.770449 g / cm^3
# Si number density = 17.744878 Si / 1000 Ang^3
#
#
#
# Elastic Constant Matrix: (Units=GPa)
#
#
# Indices 1 2 3 4 5 6 
#
# 1 66.0708 38.1525 64.5493 0.0000 0.0000 0.0000
# 2 38.1525 66.0726 64.5502 0.0000 0.0000 0.0000
# 3 64.5493 64.5502 159.3615 0.0000 0.0000 0.0000
# 4 0.0000 0.0000 0.0000 -4.3048 0.0000 0.0000
# 5 0.0000 0.0000 0.0000 0.0000 -4.3054 0.0000
# 6 0.0000 0.0000 0.0000 0.0000 0.0000 23.5191
#
#
#
# Elastic Compliance Matrix: (Units=1/GPa)
#
#
# Indices 1 2 3 4 5 6 
#
# 1 0.027537 -0.008281 -0.007800 0.000000 0.000000 0.000000
# 2 -0.008281 0.027536 -0.007800 0.000000 0.000000 0.000000
# 3 -0.007800 -0.007800 0.012594 0.000000 0.000000 0.000000
# 4 0.000000 0.000000 0.000000 -0.232300 0.000000 0.000000
# 5 0.000000 0.000000 0.000000 0.000000 -0.232264 0.000000
# 6 0.000000 0.000000 0.000000 0.000000 0.000000 0.042519
#
#
# Mechanical properties :
#
#
# Convention : Reuss Voigt Hill
#
# Bulk Modulus (GPa) = 50.23410 69.55653 59.89532
# Shear Modulus (GPa) = -16.66766 11.26531 -2.70118
#
# Velocity S-wave (km/s) = -3.06812 2.52235 -1.23512
# Velocity P-wave (km/s) = 3.97736 6.91131 5.63851
#
# Compressibility (1/GPa) = 0.01990680
#
# Stress axis : x y z
#
# Youngs Moduli (GPa) = 36.31462 36.31556 79.40557
#
# Poissons Ratio (x) = 0.30072 0.61934
# Poissons Ratio (y) = 0.30072 0.61933
# Poissons Ratio (z) = 0.28324 0.28325
#
# Static dielectric constant tensor:
#      x y z
#    x 3.142680 0.000000 0.000000 
#    y 0.000000 3.142680 0.000000 
#    z 0.000000 0.000000 3.616550 
# 
# 
# High freq. dielectric constant tensor:
#      x y z
#    x 1.663910 0.000000 0.000000 
#    y 0.000000 1.663910 0.000000 
#    z 0.000000 0.000000 1.702680 
# 
# From -- ./inp_files/6088.got.cif
#   From: 2010.03.12/outbox.cif.g09.slc.cpg/sg115_4_cif.got.tgz:6088.got - 2010.04.14 02:11:21.
