data_PCOD8309121
_publ_section_title
;
Structure prediction by ZEFSAII (Michael W. Deem and Ramdas Pophale) SiO2 
 PCOD8309121
Probable space group: P -4 21 C
;
_chemical_formula_sum "Si O2"
_cell_formula_units_Z 34
_cell_length_a 7.881535
_cell_length_b 7.881535
_cell_length_c 23.509603
_cell_angle_alpha 90.000000
_cell_angle_beta 90.000000
_cell_angle_gamma 90.000000
_cell_volume 1460.383483
_symmetry_space_group_name_H-M "P -4 21 C"
_symmetry_group_IT_number 114
_symmetry_cell_setting 'tetragonal'
loop_
_space_group_symop_operation_xyz
x,y,z
y,-x,-z
-x,-y,z
-y,x,-z
1/2+x,1/2-y,1/2-z
1/2-x,1/2+y,1/2-z
1/2-y,1/2-x,1/2+z
1/2+y,1/2+x,1/2+z
loop_
_atom_site_type_symbol
_atom_site_label
_atom_site_fract_x
_atom_site_fract_y
_atom_site_fract_z
Si Si1 0.500000 0.500000 0.253087
Si Si2 0.738451 0.247856 0.183160
Si Si3 0.500000 0.000000 0.619684
Si Si4 0.500000 0.500000 0.500000
Si Si5 0.179632 0.568183 0.071240
Si Si6 0.722105 0.765981 0.543917
O O1 0.645087 0.394053 0.219780
O O2 0.388813 0.360868 0.287560
O O3 0.831743 0.335275 0.130321
O O4 0.587818 0.130583 0.161639
O O5 0.418544 0.134089 0.577733
O O6 0.653345 0.570962 0.539492
O O7 0.288804 0.395529 0.079019
O O8 0.000000 0.500000 0.049839
O O9 0.260376 0.679357 0.021065
#
# Coordination Sequence:
#
# PCOD8309121 Si02
#       6
#     4   8   4   2   8   8
#     4  12  30  55  78 108 148 200 272 343 388 452
#     4  12  29  50  80 107 147 202 261 329 394 457
#     4  12  26  46  74 114 146 196 242 310 386 478
#     4  12  20  38  64  96 152 204 236 278 344 440
#     4  12  26  42  74 108 150 198 241 303 381 461
#     4  12  24  44  68 111 157 193 238 299 371 478
#
# _framework density 23.281556999999999
#
# number of rings (size 3 to 8) (size 9 to 14) (size 15 to 20)
#    0.000    0.000    3.529    5.647    6.588    3.294 
#    0.000    0.000    0.000    0.000    0.000    0.000 
#    0.000    0.000    0.000    0.000    0.000    0.000 
#
# Total GULP energy -421451.338389 kJ/mol
# GULP energy per Si atom -12395.627600 kJ/mol
# Density = 2.322857 g / cm^3
# Si number density = 23.281557 Si / 1000 Ang^3
#
#
#
# Elastic Constant Matrix: (Units=GPa)
#
#
# Indices 1 2 3 4 5 6 
#
# 1 113.9096 34.9106 41.9381 0.0000 0.0000 0.0000
# 2 34.9106 113.9096 41.9381 0.0000 0.0000 0.0000
# 3 41.9381 41.9381 110.8387 0.0000 0.0000 0.0000
# 4 0.0000 0.0000 0.0000 38.6756 0.0000 0.0000
# 5 0.0000 0.0000 0.0000 0.0000 38.6756 0.0000
# 6 0.0000 0.0000 0.0000 0.0000 0.0000 52.3532
#
#
#
# Elastic Compliance Matrix: (Units=1/GPa)
#
#
# Indices 1 2 3 4 5 6 
#
# 1 0.010600 -0.002059 -0.003232 0.000000 0.000000 0.000000
# 2 -0.002059 0.010600 -0.003232 0.000000 0.000000 0.000000
# 3 -0.003232 -0.003232 0.011468 0.000000 0.000000 0.000000
# 4 0.000000 0.000000 0.000000 0.025856 0.000000 0.000000
# 5 0.000000 0.000000 0.000000 0.000000 0.025856 0.000000
# 6 0.000000 0.000000 0.000000 0.000000 0.000000 0.019101
#
#
# Mechanical properties :
#
#
# Convention : Reuss Voigt Hill
#
# Bulk Modulus (GPa) = 64.00857 64.02573 64.01715
# Shear Modulus (GPa) = 39.76720 40.59894 40.18307
#
# Velocity S-wave (km/s) = 4.13740 4.18044 4.15898
# Velocity P-wave (km/s) = 7.09768 7.13175 7.11473
#
# Compressibility (1/GPa) = 0.01562291
#
# Stress axis : x y z
#
# Youngs Moduli (GPa) = 94.34289 94.34289 87.20207
#
# Poissons Ratio (x) = 0.19423 0.28180
# Poissons Ratio (y) = 0.19423 0.28180
# Poissons Ratio (z) = 0.30488 0.30488
#
# Static dielectric constant tensor:
#      x y z
#    x 4.839270 0.000000 0.000000 
#    y 0.000000 4.839270 0.000000 
#    z 0.000000 0.000000 4.124970 
# 
# 
# High freq. dielectric constant tensor:
#      x y z
#    x 1.944250 0.000000 0.000000 
#    y 0.000000 1.944250 0.000000 
#    z 0.000000 0.000000 1.910530 
# 
# From -- ./inp_files/3001.got.cif
#   From: 2010.03.12/outbox.cif.g09.slc.cpg/sg114_2_cif.got.tgz:3001.got - 2010.04.14 02:08:34.
