data_PCOD8309641
_publ_section_title
;
Structure prediction by ZEFSAII (Michael W. Deem and Ramdas Pophale) SiO2 
 PCOD8309641
Probable space group: P -4 M 2
;
_chemical_formula_sum "Si O2"
_cell_formula_units_Z 48
_cell_length_a 8.176406
_cell_length_b 8.176406
_cell_length_c 33.872009
_cell_angle_alpha 90.000000
_cell_angle_beta 90.000000
_cell_angle_gamma 90.000000
_cell_volume 2264.466252
_symmetry_space_group_name_H-M "P -4 M 2"
_symmetry_group_IT_number 115
_symmetry_cell_setting 'tetragonal'
loop_
_space_group_symop_operation_xyz
x,y,z
y,-x,-z
-x,-y,z
-y,x,-z
y,x,-z
-y,-x,-z
-x,y,z
x,-y,z
loop_
_atom_site_type_symbol
_atom_site_label
_atom_site_fract_x
_atom_site_fract_y
_atom_site_fract_z
Si Si1 0.808866 0.814176 0.879076
Si Si2 0.684004 0.311809 0.378516
Si Si3 0.683146 0.815437 0.461513
Si Si4 0.694926 0.000000 0.757274
Si Si5 0.694798 0.000000 0.666925
Si Si6 0.309889 0.320321 0.800930
Si Si7 0.183112 0.687483 0.960863
O O1 0.717560 0.700884 0.847639
O O2 0.741090 0.782919 0.923318
O O3 0.000000 0.771049 0.878179
O O4 0.772841 0.000000 0.867219
O O5 0.500000 0.233475 0.371270
O O6 0.671368 0.500000 0.367106
O O7 0.735453 0.295330 0.424426
O O8 0.832232 0.233210 0.352729
O O9 0.794099 0.794099 0.500000
O O10 0.500000 0.770926 0.474809
O O11 0.698708 0.000000 0.446414
O O12 0.769004 0.834040 0.777299
O O13 0.500000 0.000000 0.761801
O O14 0.751174 0.000000 0.712103
O O15 0.500000 0.000000 0.662093
O O16 0.500000 0.322699 0.791467
O O17 0.237387 0.500000 0.788383
O O18 0.183028 0.500000 0.948694
O O19 0.000000 0.751185 0.969831
O O20 0.289258 0.710742 0.000000
#
# Coordination Sequence:
#
# PCOD8309641 Si02
#       7
#     8   8   8   4   4   8   8
#     4  10  20  35  57  81 106 141 183 227 277 333
#     4   9  18  33  53  77 105 140 184 231 278 330
#     4  10  21  35  52  76 107 142 180 225 274 325
#     4   9  18  34  53  81 115 141 179 235 285 337
#     4   9  18  32  55  81 107 143 185 231 281 337
#     4  10  20  34  55  82 112 146 181 224 282 342
#     4  10  21  36  53  75 103 137 178 222 268 319
#
# _framework density 21.197050000000001
#
# number of rings (size 3 to 8) (size 9 to 14) (size 15 to 20)
#    0.000    2.333    0.833    1.500    1.167    4.333 
#    0.000    3.333    0.000    2.000    0.000    2.333 
#    0.000    0.000    0.000    0.000    0.000    0.000 
#
# Total GULP energy -594920.322279 kJ/mol
# GULP energy per Si atom -12394.173381 kJ/mol
# Density = 2.114880 g / cm^3
# Si number density = 21.197050 Si / 1000 Ang^3
#
#
#
# Elastic Constant Matrix: (Units=GPa)
#
#
# Indices 1 2 3 4 5 6 
#
# 1 80.5209 24.1874 41.2283 0.0000 0.0000 0.0000
# 2 24.1874 80.5213 41.2285 0.0000 0.0000 0.0000
# 3 41.2283 41.2285 136.3795 0.0000 0.0000 0.0000
# 4 0.0000 0.0000 0.0000 21.7181 0.0000 0.0000
# 5 0.0000 0.0000 0.0000 0.0000 21.7181 0.0000
# 6 0.0000 0.0000 0.0000 0.0000 0.0000 15.7741
#
#
#
# Elastic Compliance Matrix: (Units=1/GPa)
#
#
# Indices 1 2 3 4 5 6 
#
# 1 0.015143 -0.002609 -0.003789 0.000000 0.000000 0.000000
# 2 -0.002609 0.015143 -0.003789 0.000000 0.000000 0.000000
# 3 -0.003789 -0.003789 0.009623 0.000000 0.000000 0.000000
# 4 0.000000 0.000000 0.000000 0.046044 0.000000 0.000000
# 5 0.000000 0.000000 0.000000 0.000000 0.046044 0.000000
# 6 0.000000 0.000000 0.000000 0.000000 0.000000 0.063395
#
#
# Mechanical properties :
#
#
# Convention : Reuss Voigt Hill
#
# Bulk Modulus (GPa) = 51.18950 56.74557 53.96753
# Shear Modulus (GPa) = 22.49430 24.56058 23.52744
#
# Velocity S-wave (km/s) = 3.26114 3.40763 3.33519
# Velocity P-wave (km/s) = 6.19531 6.50471 6.35189
#
# Compressibility (1/GPa) = 0.01953526
#
# Stress axis : x y z
#
# Youngs Moduli (GPa) = 66.03783 66.03802 103.91257
#
# Poissons Ratio (x) = 0.17226 0.39374
# Poissons Ratio (y) = 0.17226 0.39375
# Poissons Ratio (z) = 0.25023 0.25023
#
# Static dielectric constant tensor:
#      x y z
#    x 3.816250 0.000000 0.000000 
#    y 0.000000 3.816250 0.000000 
#    z 0.000000 0.000000 3.681030 
# 
# 
# High freq. dielectric constant tensor:
#      x y z
#    x 1.815210 0.000000 0.000000 
#    y 0.000000 1.815210 0.000000 
#    z 0.000000 0.000000 1.824550 
# 
# From -- ./inp_files/6176.got.cif
#   From: 2010.03.12/outbox.cif.g09.slc.cpg/sg115_4_cif.got.tgz:6176.got - 2010.04.14 02:11:21.
