data_PCOD8309224
_publ_section_title
;
Structure prediction by ZEFSAII (Michael W. Deem and Ramdas Pophale) SiO2 
 PCOD8309224
Probable space group: P -4 M 2
;
_chemical_formula_sum "Si O2"
_cell_formula_units_Z 56
_cell_length_a 14.509818
_cell_length_b 14.509818
_cell_length_c 16.463602
_cell_angle_alpha 90.000000
_cell_angle_beta 90.000000
_cell_angle_gamma 90.000000
_cell_volume 3466.161457
_symmetry_space_group_name_H-M "P -4 M 2"
_symmetry_group_IT_number 115
_symmetry_cell_setting 'tetragonal'
loop_
_space_group_symop_operation_xyz
x,y,z
y,-x,-z
-x,-y,z
-y,x,-z
y,x,-z
-y,-x,-z
-x,y,z
x,-y,z
loop_
_atom_site_type_symbol
_atom_site_label
_atom_site_fract_x
_atom_site_fract_y
_atom_site_fract_z
Si Si1 0.779444 0.109361 0.434634
Si Si2 0.750153 0.895353 0.821857
Si Si3 0.892054 0.232245 0.749764
Si Si4 0.603838 0.108076 0.140383
Si Si5 0.894945 0.742596 0.997099
Si Si6 0.890391 0.398570 0.300339
Si Si7 0.890562 0.399679 0.481233
O O1 0.851695 0.148306 0.500000
O O2 0.792736 0.141907 0.341574
O O3 0.677559 0.145516 0.457467
O O4 0.787244 0.000000 0.441114
O O5 0.843134 0.835603 0.813830
O O6 0.704784 0.892272 0.910906
O O7 0.675624 0.849311 0.761631
O O8 0.774962 0.000000 0.797139
O O9 0.870116 0.338237 0.776880
O O10 0.000000 0.213567 0.757570
O O11 0.500000 0.152326 0.144139
O O12 0.591536 0.000000 0.129490
O O13 0.663307 0.145154 0.062948
O O14 0.000000 0.768040 0.971475
O O15 0.835244 0.835244 0.000000
O O16 0.853766 0.500000 0.276544
O O17 0.856602 0.373583 0.390890
O O18 0.000000 0.397323 0.295161
O O19 0.851484 0.500000 0.507413
O O20 0.000000 0.403729 0.481614
#
# Coordination Sequence:
#
# PCOD8309224 Si02
#       7
#     8   8   8   8   8   8   8
#     4  10  20  31  44  63  90 125 163 198 231 272
#     4  10  19  29  45  66  91 123 153 188 227 268
#     4  10  20  32  45  64  91 125 164 198 228 270
#     4   9  18  33  50  67  91 122 156 196 237 274
#     4  10  19  31  47  67  93 123 154 189 227 270
#     4   8  14  25  41  62  87 112 141 181 230 279
#     4   8  14  26  43  60  80 109 146 189 233 272
#
# _framework density 16.156199999999998
#
# number of rings (size 3 to 8) (size 9 to 14) (size 15 to 20)
#    0.000    2.714    1.429    1.714    0.000    3.429 
#    0.000    8.571    0.000    0.000    0.000    0.000 
#    0.000    2.286    0.000    6.000    0.000    1.857 
#
# Total GULP energy -693830.583068 kJ/mol
# GULP energy per Si atom -12389.831841 kJ/mol
# Density = 1.611943 g / cm^3
# Si number density = 16.156200 Si / 1000 Ang^3
#
#
#
# Elastic Constant Matrix: (Units=GPa)
#
#
# Indices 1 2 3 4 5 6 
#
# 1 54.4304 22.5948 27.9769 0.0000 0.0000 0.0000
# 2 22.5948 54.4316 27.9774 0.0000 0.0000 0.0000
# 3 27.9769 27.9774 92.1284 0.0000 0.0000 0.0000
# 4 0.0000 0.0000 0.0000 21.1567 0.0000 0.0000
# 5 0.0000 0.0000 0.0000 0.0000 21.1567 0.0000
# 6 0.0000 0.0000 0.0000 0.0000 0.0000 1.8025
#
#
#
# Elastic Compliance Matrix: (Units=1/GPa)
#
#
# Indices 1 2 3 4 5 6 
#
# 1 0.024034 -0.007377 -0.005058 0.000000 0.000000 0.000000
# 2 -0.007377 0.024034 -0.005058 0.000000 0.000000 0.000000
# 3 -0.005058 -0.005058 0.013927 0.000000 0.000000 0.000000
# 4 0.000000 0.000000 0.000000 0.047266 0.000000 0.000000
# 5 0.000000 0.000000 0.000000 0.000000 0.047266 0.000000
# 6 0.000000 0.000000 0.000000 0.000000 0.000000 0.554772
#
#
# Mechanical properties :
#
#
# Convention : Reuss Voigt Hill
#
# Bulk Modulus (GPa) = 37.02666 39.78761 38.40714
# Shear Modulus (GPa) = 6.61998 16.98594 11.80296
#
# Velocity S-wave (km/s) = 2.02642 3.24598 2.70581
# Velocity P-wave (km/s) = 5.33318 6.22325 5.79533
#
# Compressibility (1/GPa) = 0.02700757
#
# Stress axis : x y z
#
# Youngs Moduli (GPa) = 41.60732 41.60808 71.80486
#
# Poissons Ratio (x) = 0.30693 0.36322
# Poissons Ratio (y) = 0.30693 0.36322
# Poissons Ratio (z) = 0.21047 0.21047
#
# Static dielectric constant tensor:
#      x y z
#    x 2.986090 0.000000 0.000000 
#    y 0.000000 2.986090 0.000000 
#    z 0.000000 0.000000 3.334210 
# 
# 
# High freq. dielectric constant tensor:
#      x y z
#    x 1.588350 0.000000 0.000000 
#    y 0.000000 1.588350 0.000000 
#    z 0.000000 0.000000 1.637590 
# 
# From -- ./inp_files/3846.got.cif
#   From: 2010.03.12/outbox.cif.g09.slc.cpg/sg115_2_cif.got.tgz:3846.got - 2010.04.14 02:11:21.
