data_PCOD8309834
_publ_section_title
;
Structure prediction by ZEFSAII (Michael W. Deem and Ramdas Pophale) SiO2 
 PCOD8309834
Probable space group: P -4 M 2
;
_chemical_formula_sum "Si O2"
_cell_formula_units_Z 48
_cell_length_a 9.455749
_cell_length_b 9.455749
_cell_length_c 30.684932
_cell_angle_alpha 90.000000
_cell_angle_beta 90.000000
_cell_angle_gamma 90.000000
_cell_volume 2743.576259
_symmetry_space_group_name_H-M "P -4 M 2"
_symmetry_group_IT_number 115
_symmetry_cell_setting 'tetragonal'
loop_
_space_group_symop_operation_xyz
x,y,z
y,-x,-z
-x,-y,z
-y,x,-z
y,x,-z
-y,-x,-z
-x,y,z
x,-y,z
loop_
_atom_site_type_symbol
_atom_site_label
_atom_site_fract_x
_atom_site_fract_y
_atom_site_fract_z
Si Si1 0.333586 0.163787 0.535637
Si Si2 0.664054 0.836427 0.294858
Si Si3 0.161866 0.836526 0.621137
Si Si4 0.331880 0.843333 0.868849
Si Si5 0.664280 0.664424 0.211741
Si Si6 0.339435 0.832643 0.965297
O O1 0.264066 0.264066 0.500000
O O2 0.500000 0.194244 0.538151
O O3 0.263780 0.204260 0.581548
O O4 0.302706 0.000000 0.523995
O O5 0.500000 0.805587 0.303568
O O6 0.747593 0.786337 0.337485
O O7 0.720823 0.747306 0.253912
O O8 0.693062 0.000000 0.284698
O O9 0.000000 0.798678 0.608446
O O10 0.176195 0.000000 0.633556
O O11 0.500000 0.848755 0.867935
O O12 0.274084 0.740870 0.831153
O O13 0.286101 0.788804 0.916791
O O14 0.270469 0.000000 0.860204
O O15 0.500000 0.693270 0.204502
O O16 0.697952 0.500000 0.218997
O O17 0.500000 0.781119 0.972901
O O18 0.329422 0.000000 0.970598
O O19 0.239054 0.760946 0.000000
#
# Coordination Sequence:
#
# PCOD8309834 Si02
#       6
#     8   8   8   8   8   8
#     4  10  21  36  54  77 104 133 166 204 246 292
#     4   9  18  32  48  67  94 126 156 189 234 284
#     4   9  18  33  52  72  95 126 163 200 237 280
#     4   8  15  29  47  66  90 120 153 190 232 278
#     4   9  17  29  46  68  92 119 153 191 231 277
#     4   9  18  32  49  70  96 125 159 199 242 290
#
# _framework density 17.495412999999999
#
# number of rings (size 3 to 8) (size 9 to 14) (size 15 to 20)
#    0.000    3.000    0.000    1.500    0.000    4.000 
#    0.000    4.167    0.000    3.000    0.000    0.000 
#    0.000    0.000    0.000    0.000    0.000    0.000 
#
# Total GULP energy -595150.161024 kJ/mol
# GULP energy per Si atom -12398.961688 kJ/mol
# Density = 1.745559 g / cm^3
# Si number density = 17.495413 Si / 1000 Ang^3
#
#
#
# Elastic Constant Matrix: (Units=GPa)
#
#
# Indices 1 2 3 4 5 6 
#
# 1 61.5577 38.7865 73.7433 0.0000 0.0000 0.0000
# 2 38.7865 61.5577 73.7433 0.0000 0.0000 0.0000
# 3 73.7433 73.7433 179.0560 0.0000 0.0000 0.0000
# 4 0.0000 0.0000 0.0000 19.6994 0.0000 0.0000
# 5 0.0000 0.0000 0.0000 0.0000 19.6994 0.0000
# 6 0.0000 0.0000 0.0000 0.0000 0.0000 21.8667
#
#
#
# Elastic Compliance Matrix: (Units=1/GPa)
#
#
# Indices 1 2 3 4 5 6 
#
# 1 0.034583 -0.009332 -0.010399 0.000000 0.000000 0.000000
# 2 -0.009332 0.034583 -0.010399 0.000000 0.000000 0.000000
# 3 -0.010399 -0.010399 0.014151 0.000000 0.000000 0.000000
# 4 0.000000 0.000000 0.000000 0.050763 0.000000 0.000000
# 5 0.000000 0.000000 0.000000 0.000000 0.050763 0.000000
# 6 0.000000 0.000000 0.000000 0.000000 0.000000 0.045732
#
#
# Mechanical properties :
#
#
# Convention : Reuss Voigt Hill
#
# Bulk Modulus (GPa) = 43.37505 74.96861 59.17183
# Shear Modulus (GPa) = 16.74922 19.97965 18.36443
#
# Velocity S-wave (km/s) = 3.09746 3.38301 3.24338
# Velocity P-wave (km/s) = 6.13502 7.62910 6.92248
#
# Compressibility (1/GPa) = 0.02305473
#
# Stress axis : x y z
#
# Youngs Moduli (GPa) = 28.91594 28.91594 70.66766
#
# Poissons Ratio (x) = 0.26985 0.73490
# Poissons Ratio (y) = 0.26985 0.73490
# Poissons Ratio (z) = 0.30071 0.30071
#
# Static dielectric constant tensor:
#      x y z
#    x 3.458060 0.000000 0.000000 
#    y 0.000000 3.458060 0.000000 
#    z 0.000000 0.000000 3.465030 
# 
# 
# High freq. dielectric constant tensor:
#      x y z
#    x 1.662760 0.000000 0.000000 
#    y 0.000000 1.662760 0.000000 
#    z 0.000000 0.000000 1.686360 
# 
# From -- ./inp_files/5894.got.cif
#   From: 2010.03.12/outbox.cif.g09.slc.cpg/sg115_3_cif.got.tgz:5894.got - 2010.04.14 02:11:21.
