data_PCOD8309929
_publ_section_title
;
Structure prediction by ZEFSAII (Michael W. Deem and Ramdas Pophale) SiO2 
 PCOD8309929
Probable space group: P -4 M 2
;
_chemical_formula_sum "Si O2"
_cell_formula_units_Z 48
_cell_length_a 8.927918
_cell_length_b 8.927918
_cell_length_c 30.594228
_cell_angle_alpha 90.000000
_cell_angle_beta 90.000000
_cell_angle_gamma 90.000000
_cell_volume 2438.596153
_symmetry_space_group_name_H-M "P -4 M 2"
_symmetry_group_IT_number 115
_symmetry_cell_setting 'tetragonal'
loop_
_space_group_symop_operation_xyz
x,y,z
y,-x,-z
-x,-y,z
-y,x,-z
y,x,-z
-y,-x,-z
-x,y,z
x,-y,z
loop_
_atom_site_type_symbol
_atom_site_label
_atom_site_fract_x
_atom_site_fract_y
_atom_site_fract_z
Si Si1 0.826049 0.327602 0.751317
Si Si2 0.172795 0.172795 0.000000
Si Si3 0.825021 0.328403 0.168888
Si Si4 0.674014 0.674014 0.500000
Si Si5 0.328294 0.676408 0.338813
Si Si6 0.827260 0.175252 0.419019
Si Si7 0.829023 0.323516 0.911156
O O1 0.793681 0.500000 0.763249
O O2 0.773603 0.226710 0.791167
O O3 0.736255 0.278670 0.708326
O O4 0.000000 0.299170 0.742376
O O5 0.225696 0.268883 0.958543
O O6 0.000000 0.202947 0.011188
O O7 0.782810 0.500000 0.178892
O O8 0.745176 0.278939 0.124762
O O9 0.000000 0.306056 0.162174
O O10 0.705559 0.500000 0.491524
O O11 0.764418 0.725681 0.542105
O O12 0.500000 0.722076 0.348982
O O13 0.307092 0.500000 0.339637
O O14 0.219216 0.747741 0.374128
O O15 0.000000 0.212206 0.429190
O O16 0.799422 0.000000 0.414360
O O17 0.815556 0.500000 0.908892
O O18 0.000000 0.270740 0.902633
#
# Coordination Sequence:
#
# PCOD8309929 Si02
#       7
#     8   4   8   4   8   8   8
#     4  10  21  38  61  87 114 147 188 233 283 338
#     4   9  18  34  56  81 112 150 188 227 274 329
#     4  11  24  39  56  81 113 149 189 233 281 333
#     4  11  24  41  62  88 116 149 192 239 288 342
#     4  10  21  38  61  88 117 151 191 233 280 336
#     4  11  24  40  59  86 119 154 193 236 283 336
#     4  10  21  37  58  84 113 146 185 229 278 333
#
# _framework density 19.683457000000001
#
# number of rings (size 3 to 8) (size 9 to 14) (size 15 to 20)
#    0.000    1.667    0.000    4.000    0.000   12.667 
#    0.000    1.667    0.000    0.000    0.000    0.000 
#    0.000    0.000    0.000    0.000    0.000    0.000 
#
# Total GULP energy -595515.411457 kJ/mol
# GULP energy per Si atom -12406.571072 kJ/mol
# Density = 1.963866 g / cm^3
# Si number density = 19.683457 Si / 1000 Ang^3
#
#
#
# Elastic Constant Matrix: (Units=GPa)
#
#
# Indices 1 2 3 4 5 6 
#
# 1 68.9386 36.8811 41.8888 0.0000 0.0000 0.0000
# 2 36.8811 68.9386 41.8888 0.0000 0.0000 0.0000
# 3 41.8888 41.8888 115.2767 0.0000 0.0000 0.0000
# 4 0.0000 0.0000 0.0000 42.8857 0.0000 0.0000
# 5 0.0000 0.0000 0.0000 0.0000 42.8857 0.0000
# 6 0.0000 0.0000 0.0000 0.0000 0.0000 31.0078
#
#
#
# Elastic Compliance Matrix: (Units=1/GPa)
#
#
# Indices 1 2 3 4 5 6 
#
# 1 0.022230 -0.008964 -0.004821 0.000000 0.000000 0.000000
# 2 -0.008964 0.022230 -0.004821 0.000000 0.000000 0.000000
# 3 -0.004821 -0.004821 0.012178 0.000000 0.000000 0.000000
# 4 0.000000 0.000000 0.000000 0.023318 0.000000 0.000000
# 5 0.000000 0.000000 0.000000 0.000000 0.023318 0.000000
# 6 0.000000 0.000000 0.000000 0.000000 0.000000 0.032250
#
#
# Mechanical properties :
#
#
# Convention : Reuss Voigt Hill
#
# Bulk Modulus (GPa) = 51.47089 54.94126 53.20608
# Shear Modulus (GPa) = 27.90008 32.18887 30.04447
#
# Velocity S-wave (km/s) = 3.76897 4.04830 3.91113
# Velocity P-wave (km/s) = 6.71910 7.05866 6.89097
#
# Compressibility (1/GPa) = 0.01942846
#
# Stress axis : x y z
#
# Youngs Moduli (GPa) = 44.98366 44.98366 82.11331
#
# Poissons Ratio (x) = 0.40322 0.39585
# Poissons Ratio (y) = 0.40322 0.39585
# Poissons Ratio (z) = 0.21686 0.21686
#
# Static dielectric constant tensor:
#      x y z
#    x 3.665710 0.000000 0.000000 
#    y 0.000000 3.665710 0.000000 
#    z 0.000000 0.000000 4.449780 
# 
# 
# High freq. dielectric constant tensor:
#      x y z
#    x 1.772710 0.000000 0.000000 
#    y 0.000000 1.772710 0.000000 
#    z 0.000000 0.000000 1.780840 
# 
# From -- ./inp_files/6247.got.cif
#   From: 2010.03.12/outbox.cif.g09.slc.cpg/sg115_4_cif.got.tgz:6247.got - 2010.04.14 02:11:21.
