data_PCOD8309039
_publ_section_title
;
Structure prediction by ZEFSAII (Michael W. Deem and Ramdas Pophale) SiO2 
 PCOD8309039
Probable space group: P -4 21 C
;
_chemical_formula_sum "Si O2"
_cell_formula_units_Z 40
_cell_length_a 8.472422
_cell_length_b 8.472422
_cell_length_c 23.896795
_cell_angle_alpha 90.000000
_cell_angle_beta 90.000000
_cell_angle_gamma 90.000000
_cell_volume 1715.358175
_symmetry_space_group_name_H-M "P -4 21 C"
_symmetry_group_IT_number 114
_symmetry_cell_setting 'tetragonal'
loop_
_space_group_symop_operation_xyz
x,y,z
y,-x,-z
-x,-y,z
-y,x,-z
1/2+x,1/2-y,1/2-z
1/2-x,1/2+y,1/2-z
1/2-y,1/2-x,1/2+z
1/2+y,1/2+x,1/2+z
loop_
_atom_site_type_symbol
_atom_site_label
_atom_site_fract_x
_atom_site_fract_y
_atom_site_fract_z
Si Si1 0.334979 0.078907 0.720088
Si Si2 0.842237 0.415249 0.588356
Si Si3 0.560088 0.329772 0.122315
Si Si4 0.560933 0.329800 0.319070
Si Si5 0.739361 0.423649 0.985243
O O1 0.320478 0.258934 0.700637
O O2 0.500000 0.000000 0.704099
O O3 0.203795 0.983096 0.685768
O O4 0.295504 0.048226 0.785006
O O5 0.819375 0.246684 0.617167
O O6 0.706166 0.530862 0.614362
O O7 0.844991 0.385492 0.520559
O O8 0.000000 0.500000 0.608512
O O9 0.500000 0.500000 0.103599
O O10 0.467372 0.211987 0.078682
O O11 0.500000 0.500000 0.303435
O O12 0.590144 0.305029 0.984952
#
# Coordination Sequence:
#
# PCOD8309039 Si02
#       5
#     8   8   8   8   8
#     4  12  26  45  71 101 135 184 227 284 355 424
#     4  11  22  38  66  99 136 181 228 286 342 400
#     4  11  20  39  69  99 135 179 235 282 338 413
#     4  12  26  46  67 100 142 175 231 287 351 423
#     4   9  17  36  64  95 129 175 232 277 326 407
#
# _framework density 23.318743000000001
#
# number of rings (size 3 to 8) (size 9 to 14) (size 15 to 20)
#    0.000    1.000    4.000    6.000    0.000    0.800 
#    0.000    0.000    0.000    0.000    0.000    0.000 
#    0.000    0.000    0.000    0.000    0.000    0.000 
#
# Total GULP energy -495593.194440 kJ/mol
# GULP energy per Si atom -12389.829861 kJ/mol
# Density = 2.326567 g / cm^3
# Si number density = 23.318743 Si / 1000 Ang^3
#
#
#
# Elastic Constant Matrix: (Units=GPa)
#
#
# Indices 1 2 3 4 5 6 
#
# 1 89.1638 35.0787 30.7849 0.0000 0.0000 0.0000
# 2 35.0787 89.1638 30.7849 0.0000 0.0000 0.0000
# 3 30.7849 30.7849 108.6931 0.0000 0.0000 0.0000
# 4 0.0000 0.0000 0.0000 39.0699 0.0000 0.0000
# 5 0.0000 0.0000 0.0000 0.0000 39.0699 0.0000
# 6 0.0000 0.0000 0.0000 0.0000 0.0000 32.8951
#
#
#
# Elastic Compliance Matrix: (Units=1/GPa)
#
#
# Indices 1 2 3 4 5 6 
#
# 1 0.013926 -0.004563 -0.002652 0.000000 0.000000 0.000000
# 2 -0.004563 0.013926 -0.002652 0.000000 0.000000 0.000000
# 3 -0.002652 -0.002652 0.010702 0.000000 0.000000 0.000000
# 4 0.000000 0.000000 0.000000 0.025595 0.000000 0.000000
# 5 0.000000 0.000000 0.000000 0.000000 0.025595 0.000000
# 6 0.000000 0.000000 0.000000 0.000000 0.000000 0.030400
#
#
# Mechanical properties :
#
#
# Convention : Reuss Voigt Hill
#
# Bulk Modulus (GPa) = 53.13256 53.36865 53.25061
# Shear Modulus (GPa) = 34.21094 34.89846 34.55470
#
# Velocity S-wave (km/s) = 3.83443 3.87277 3.85365
# Velocity P-wave (km/s) = 6.51449 6.55241 6.53348
#
# Compressibility (1/GPa) = 0.01882085
#
# Stress axis : x y z
#
# Youngs Moduli (GPa) = 71.80733 71.80733 93.43728
#
# Poissons Ratio (x) = 0.32767 0.24778
# Poissons Ratio (y) = 0.32767 0.24778
# Poissons Ratio (z) = 0.19042 0.19042
#
# Static dielectric constant tensor:
#      x y z
#    x 3.695340 0.000000 0.000000 
#    y 0.000000 3.695340 0.000000 
#    z 0.000000 0.000000 4.276640 
# 
# 
# High freq. dielectric constant tensor:
#      x y z
#    x 1.908900 0.000000 0.000000 
#    y 0.000000 1.908900 0.000000 
#    z 0.000000 0.000000 1.932520 
# 
# From -- ./inp_files/3640.got.cif
#   From: 2010.03.12/outbox.cif.g09.slc.cpg/sg114_2_cif.got.tgz:3640.got - 2010.04.14 02:08:34.
