data_PCOD8309296
_publ_section_title
;
Structure prediction by ZEFSAII (Michael W. Deem and Ramdas Pophale) SiO2 
 PCOD8309296
Probable space group: P -4 M 2
;
_chemical_formula_sum "Si O2"
_cell_formula_units_Z 60
_cell_length_a 13.235014
_cell_length_b 13.235014
_cell_length_c 19.283867
_cell_angle_alpha 90.000000
_cell_angle_beta 90.000000
_cell_angle_gamma 90.000000
_cell_volume 3377.870048
_symmetry_space_group_name_H-M "P -4 M 2"
_symmetry_group_IT_number 115
_symmetry_cell_setting 'tetragonal'
loop_
_space_group_symop_operation_xyz
x,y,z
y,-x,-z
-x,-y,z
-y,x,-z
y,x,-z
-y,-x,-z
-x,y,z
x,-y,z
loop_
_atom_site_type_symbol
_atom_site_label
_atom_site_fract_x
_atom_site_fract_y
_atom_site_fract_z
Si Si1 0.767259 0.232742 0.875629
Si Si2 0.880196 0.119805 0.000000
Si Si3 0.387284 0.117559 0.779705
Si Si4 0.387530 0.880052 0.500001
Si Si5 0.882498 0.719998 0.639163
Si Si6 0.117502 0.280002 0.360834
Si Si7 0.391034 0.391033 0.920316
Si Si8 0.612716 0.117559 0.220297
O O1 0.699087 0.160694 0.828905
O O2 0.692854 0.307149 0.914199
O O3 0.839304 0.300912 0.828901
O O4 0.831708 0.168299 0.930843
O O5 0.000000 0.141690 0.000003
O O6 0.500000 0.162700 0.793641
O O7 0.359797 0.139626 0.699969
O O8 0.389584 0.000000 0.795147
O O9 0.500000 0.833357 0.500001
O O10 0.329239 0.842589 0.431856
O O11 0.329240 0.842592 0.568146
O O12 0.394746 0.000000 0.499999
O O13 0.823491 0.823490 0.653414
O O14 0.860378 0.640201 0.699966
O O15 0.000000 0.748828 0.635249
O O16 0.000000 0.251173 0.364747
O O17 0.500000 0.357965 0.887388
O O18 0.357968 0.500000 0.887388
O O19 0.408668 0.408668 0.000000
O O20 0.500000 0.162700 0.206361
O O21 0.610417 0.000000 0.204853
#
# Coordination Sequence:
#
# PCOD8309296 Si02
#       8
#     8   4   8   8   8   8   8   8
#     4  12  20  38  60  81 107 139 183 221 269 330
#     4  11  26  44  60  81 110 144 180 223 272 330
#     4  10  21  36  55  81 112 143 179 227 275 320
#     4   9  17  30  51  75 101 139 183 227 273 321
#     4  10  19  33  51  77 111 145 185 227 271 326
#     4  10  19  33  51  77 111 145 185 227 271 326
#     4   9  18  33  54  81 109 135 167 210 262 317
#     4  10  21  36  55  81 112 143 179 227 275 320
#
# _framework density 17.762671999999998
#
# number of rings (size 3 to 8) (size 9 to 14) (size 15 to 20)
#    0.000    1.933    2.000    3.200    0.000    3.467 
#    0.000    0.000    0.000    5.600    0.000    0.000 
#    0.000    2.133    0.000    0.000    0.000    0.000 
#
# Total GULP energy -743650.675942 kJ/mol
# GULP energy per Si atom -12394.177932 kJ/mol
# Density = 1.772224 g / cm^3
# Si number density = 17.762672 Si / 1000 Ang^3
#
#
#
# Elastic Constant Matrix: (Units=GPa)
#
#
# Indices 1 2 3 4 5 6 
#
# 1 97.5625 67.8586 52.8340 0.0000 0.0000 0.0000
# 2 67.8586 97.5619 52.8338 0.0000 0.0000 0.0000
# 3 52.8340 52.8338 112.6390 0.0000 0.0000 0.0000
# 4 0.0000 0.0000 0.0000 18.5276 0.0000 0.0000
# 5 0.0000 0.0000 0.0000 0.0000 18.5287 0.0000
# 6 0.0000 0.0000 0.0000 0.0000 0.0000 21.1373
#
#
#
# Elastic Compliance Matrix: (Units=1/GPa)
#
#
# Indices 1 2 3 4 5 6 
#
# 1 0.021149 -0.012517 -0.004049 0.000000 0.000000 0.000000
# 2 -0.012517 0.021149 -0.004049 0.000000 0.000000 0.000000
# 3 -0.004049 -0.004049 0.012676 0.000000 0.000000 0.000000
# 4 0.000000 0.000000 0.000000 0.053973 0.000000 0.000000
# 5 0.000000 0.000000 0.000000 0.000000 0.053970 0.000000
# 6 0.000000 0.000000 0.000000 0.000000 0.000000 0.047310
#
#
# Mechanical properties :
#
#
# Convention : Reuss Voigt Hill
#
# Bulk Modulus (GPa) = 72.75735 72.75736 72.75735
# Shear Modulus (GPa) = 19.52844 20.58788 20.05816
#
# Velocity S-wave (km/s) = 3.31933 3.40818 3.36405
# Velocity P-wave (km/s) = 7.46595 7.51913 7.49259
#
# Compressibility (1/GPa) = 0.01374432
#
# Stress axis : x y z
#
# Youngs Moduli (GPa) = 47.28457 47.28427 78.88974
#
# Poissons Ratio (x) = 0.59187 0.31939
# Poissons Ratio (y) = 0.59187 0.31939
# Poissons Ratio (z) = 0.19143 0.19143
#
# Static dielectric constant tensor:
#      x y z
#    x 3.310200 0.000000 0.000000 
#    y 0.000000 3.310210 0.000000 
#    z 0.000000 0.000000 3.338400 
# 
# 
# High freq. dielectric constant tensor:
#      x y z
#    x 1.684920 0.000000 0.000000 
#    y 0.000000 1.684920 0.000000 
#    z 0.000000 0.000000 1.691190 
# 
# From -- ./inp_files/5011.got.cif
#   From: 2010.03.12/outbox.cif.g09.slc.cpg/sg115_3_cif.got.tgz:5011.got - 2010.04.14 02:11:21.
