data_PCOD8309535
_publ_section_title
;
Structure prediction by ZEFSAII (Michael W. Deem and Ramdas Pophale) SiO2 
 PCOD8309535
Probable space group: P -4 M 2
;
_chemical_formula_sum "Si O2"
_cell_formula_units_Z 48
_cell_length_a 9.057946
_cell_length_b 9.057946
_cell_length_c 30.850799
_cell_angle_alpha 90.000000
_cell_angle_beta 90.000000
_cell_angle_gamma 90.000000
_cell_volume 2531.196555
_symmetry_space_group_name_H-M "P -4 M 2"
_symmetry_group_IT_number 115
_symmetry_cell_setting 'tetragonal'
loop_
_space_group_symop_operation_xyz
x,y,z
y,-x,-z
-x,-y,z
-y,x,-z
y,x,-z
-y,-x,-z
-x,y,z
x,-y,z
loop_
_atom_site_type_symbol
_atom_site_label
_atom_site_fract_x
_atom_site_fract_y
_atom_site_fract_z
Si Si1 0.670391 0.826509 0.617935
Si Si2 0.175475 0.833792 0.783812
Si Si3 0.172220 0.327187 0.539768
Si Si4 0.175485 0.334480 0.866987
Si Si5 0.670749 0.670539 0.293111
Si Si6 0.825747 0.665342 0.962459
O O1 0.500000 0.790795 0.606589
O O2 0.776406 0.751379 0.583377
O O3 0.714251 0.762136 0.664421
O O4 0.700163 0.000000 0.618208
O O5 0.236736 0.774484 0.829948
O O6 0.232831 0.728593 0.746265
O O7 0.000000 0.829659 0.782908
O O8 0.234810 0.000000 0.777298
O O9 0.263276 0.263276 0.500000
O O10 0.205093 0.500000 0.543692
O O11 0.000000 0.295630 0.532045
O O12 0.234731 0.500000 0.857972
O O13 0.228753 0.280653 0.914735
O O14 0.000000 0.336368 0.865845
O O15 0.500000 0.707294 0.301603
O O16 0.694697 0.500000 0.281377
O O17 0.767211 0.500000 0.970650
O O18 0.000000 0.668739 0.963758
O O19 0.769847 0.769847 0.000000
#
# Coordination Sequence:
#
# PCOD8309535 Si02
#       6
#     8   8   8   8   8   8
#     4  10  21  38  60  84 110 142 180 222 269 318
#     4  10  20  33  52  79 107 135 171 216 265 315
#     4  11  24  40  59  85 115 147 184 224 267 316
#     4   8  15  30  50  70  96 132 171 211 255 305
#     4  10  21  37  57  80 107 142 182 220 262 315
#     4   9  18  32  50  73 100 130 167 210 256 308
#
# _framework density 18.963363000000001
#
# number of rings (size 3 to 8) (size 9 to 14) (size 15 to 20)
#    0.000    2.333    0.000    3.500    0.000    8.000 
#    0.000    2.500    0.000    1.000    0.000    0.000 
#    0.000    0.000    0.000    0.000    0.000    0.000 
#
# Total GULP energy -595189.797286 kJ/mol
# GULP energy per Si atom -12399.787443 kJ/mol
# Density = 1.892020 g / cm^3
# Si number density = 18.963363 Si / 1000 Ang^3
#
#
#
# Elastic Constant Matrix: (Units=GPa)
#
#
# Indices 1 2 3 4 5 6 
#
# 1 65.8768 36.2016 47.7953 0.0000 0.0000 0.0000
# 2 36.2016 65.8768 47.7953 0.0000 0.0000 0.0000
# 3 47.7953 47.7953 135.1939 0.0000 0.0000 0.0000
# 4 0.0000 0.0000 0.0000 35.4191 0.0000 0.0000
# 5 0.0000 0.0000 0.0000 0.0000 35.4191 0.0000
# 6 0.0000 0.0000 0.0000 0.0000 0.0000 26.6167
#
#
#
# Elastic Compliance Matrix: (Units=1/GPa)
#
#
# Indices 1 2 3 4 5 6 
#
# 1 0.024171 -0.009527 -0.005177 0.000000 0.000000 0.000000
# 2 -0.009527 0.024171 -0.005177 0.000000 0.000000 0.000000
# 3 -0.005177 -0.005177 0.011057 0.000000 0.000000 0.000000
# 4 0.000000 0.000000 0.000000 0.028233 0.000000 0.000000
# 5 0.000000 0.000000 0.000000 0.000000 0.028233 0.000000
# 6 0.000000 0.000000 0.000000 0.000000 0.000000 0.037570
#
#
# Mechanical properties :
#
#
# Convention : Reuss Voigt Hill
#
# Bulk Modulus (GPa) = 50.92313 58.94799 54.93556
# Shear Modulus (GPa) = 25.03175 28.50131 26.76653
#
# Velocity S-wave (km/s) = 3.63713 3.88102 3.76105
# Velocity P-wave (km/s) = 6.67458 7.15791 6.92047
#
# Compressibility (1/GPa) = 0.01963744
#
# Stress axis : x y z
#
# Youngs Moduli (GPa) = 41.37116 41.37116 90.43637
#
# Poissons Ratio (x) = 0.39413 0.46822
# Poissons Ratio (y) = 0.39413 0.46822
# Poissons Ratio (z) = 0.21419 0.21419
#
# Static dielectric constant tensor:
#      x y z
#    x 3.453320 0.000000 0.000000 
#    y 0.000000 3.453320 0.000000 
#    z 0.000000 0.000000 3.815480 
# 
# 
# High freq. dielectric constant tensor:
#      x y z
#    x 1.728090 0.000000 0.000000 
#    y 0.000000 1.728090 0.000000 
#    z 0.000000 0.000000 1.753950 
# 
# From -- ./inp_files/5934.got.cif
#   From: 2010.03.12/outbox.cif.g09.slc.cpg/sg115_3_cif.got.tgz:5934.got - 2010.04.14 02:11:21.
