data_PCOD8309517
_publ_section_title
;
Structure prediction by ZEFSAII (Michael W. Deem and Ramdas Pophale) SiO2 
 PCOD8309517
Probable space group: P -4 M 2
;
_chemical_formula_sum "Si O2"
_cell_formula_units_Z 48
_cell_length_a 9.104190
_cell_length_b 9.104190
_cell_length_c 30.796077
_cell_angle_alpha 90.000000
_cell_angle_beta 90.000000
_cell_angle_gamma 90.000000
_cell_volume 2552.572124
_symmetry_space_group_name_H-M "P -4 M 2"
_symmetry_group_IT_number 115
_symmetry_cell_setting 'tetragonal'
loop_
_space_group_symop_operation_xyz
x,y,z
y,-x,-z
-x,-y,z
-y,x,-z
y,x,-z
-y,-x,-z
-x,y,z
x,-y,z
loop_
_atom_site_type_symbol
_atom_site_label
_atom_site_fract_x
_atom_site_fract_y
_atom_site_fract_z
Si Si1 0.827255 0.668663 0.131745
Si Si2 0.325277 0.663427 0.952873
Si Si3 0.831184 0.172102 0.626587
Si Si4 0.330405 0.171499 0.208851
Si Si5 0.672229 0.331072 0.703189
Si Si6 0.327973 0.168796 0.461769
O O1 0.777966 0.500000 0.139141
O O2 0.767745 0.729796 0.085799
O O3 0.764751 0.768457 0.169607
O O4 0.000000 0.684437 0.131188
O O5 0.500000 0.656879 0.954268
O O6 0.261483 0.500000 0.944521
O O7 0.273543 0.726458 0.000000
O O8 0.728751 0.229823 0.664672
O O9 0.781253 0.249585 0.582337
O O10 0.000000 0.210434 0.637508
O O11 0.806531 0.000000 0.620842
O O12 0.500000 0.206467 0.199108
O O13 0.278548 0.250550 0.252729
O O14 0.300749 0.000000 0.214520
O O15 0.500000 0.307791 0.708939
O O16 0.712045 0.500000 0.692860
O O17 0.271188 0.271188 0.500000
O O18 0.500000 0.193334 0.455699
O O19 0.289815 0.000000 0.472761
#
# Coordination Sequence:
#
# PCOD8309517 Si02
#       6
#     8   8   8   8   8   8
#     4  10  20  33  51  77 108 140 173 212 261 314
#     4   8  14  27  49  74  99 132 175 219 260 304
#     4  10  21  37  58  83 111 145 182 219 263 316
#     4  10  21  37  57  79 103 136 178 220 263 313
#     4  10  21  37  58  83 109 138 174 218 267 316
#     4  10  21  37  58  83 111 145 184 225 269 316
#
# _framework density 18.804561
#
# number of rings (size 3 to 8) (size 9 to 14) (size 15 to 20)
#    0.000    2.333    0.000    3.000    0.000    6.333 
#    0.000    0.833    0.000    3.000    0.000    0.000 
#    0.000    0.000    0.000    0.000    0.000    0.000 
#
# Total GULP energy -595321.332855 kJ/mol
# GULP energy per Si atom -12402.527768 kJ/mol
# Density = 1.876176 g / cm^3
# Si number density = 18.804561 Si / 1000 Ang^3
#
#
#
# Elastic Constant Matrix: (Units=GPa)
#
#
# Indices 1 2 3 4 5 6 
#
# 1 76.4976 40.7158 64.4482 0.0000 0.0000 0.0000
# 2 40.7158 76.4974 64.4482 0.0000 0.0000 0.0000
# 3 64.4482 64.4482 164.3186 0.0000 0.0000 0.0000
# 4 0.0000 0.0000 0.0000 -95.1528 0.0000 0.0000
# 5 0.0000 0.0000 0.0000 0.0000 -95.1616 0.0000
# 6 0.0000 0.0000 0.0000 0.0000 0.0000 27.0634
#
#
#
# Elastic Compliance Matrix: (Units=1/GPa)
#
#
# Indices 1 2 3 4 5 6 
#
# 1 0.021475 -0.006473 -0.005884 0.000000 0.000000 0.000000
# 2 -0.006473 0.021475 -0.005884 0.000000 0.000000 0.000000
# 3 -0.005884 -0.005884 0.010701 0.000000 0.000000 0.000000
# 4 0.000000 0.000000 0.000000 -0.010509 0.000000 0.000000
# 5 0.000000 0.000000 0.000000 0.000000 -0.010508 0.000000
# 6 0.000000 0.000000 0.000000 0.000000 0.000000 0.036950
#
#
# Mechanical properties :
#
#
# Convention : Reuss Voigt Hill
#
# Bulk Modulus (GPa) = 58.24373 72.94865 65.59619
# Shear Modulus (GPa) = 44.72785 -22.80345 10.96220
#
# Velocity S-wave (km/s) = 4.88234 -3.48610 2.41706
# Velocity P-wave (km/s) = 7.92613 4.76166 6.53823
#
# Compressibility (1/GPa) = 0.01716923
#
# Stress axis : x y z
#
# Youngs Moduli (GPa) = 46.56677 46.56667 93.44662
#
# Poissons Ratio (x) = 0.30141 0.54984
# Poissons Ratio (y) = 0.30141 0.54984
# Poissons Ratio (z) = 0.27400 0.27400
#
# Static dielectric constant tensor:
#      x y z
#    x 3.450400 0.000000 0.000000 
#    y 0.000000 3.450390 0.000000 
#    z 0.000000 0.000000 3.685800 
# 
# 
# High freq. dielectric constant tensor:
#      x y z
#    x 1.720100 0.000000 0.000000 
#    y 0.000000 1.720100 0.000000 
#    z 0.000000 0.000000 1.745750 
# 
# From -- ./inp_files/5957.got.cif
#   From: 2010.03.12/outbox.cif.g09.slc.cpg/sg115_3_cif.got.tgz:5957.got - 2010.04.14 02:11:21.
