data_PCOD8309076
_publ_section_title
;
Structure prediction by ZEFSAII (Michael W. Deem and Ramdas Pophale) SiO2 
 PCOD8309076
Probable space group: P -4 21 C
;
_chemical_formula_sum "Si O2"
_cell_formula_units_Z 56
_cell_length_a 14.081651
_cell_length_b 14.081651
_cell_length_c 12.650293
_cell_angle_alpha 90.000000
_cell_angle_beta 90.000000
_cell_angle_gamma 90.000000
_cell_volume 2508.463220
_symmetry_space_group_name_H-M "P -4 21 C"
_symmetry_group_IT_number 114
_symmetry_cell_setting 'tetragonal'
loop_
_space_group_symop_operation_xyz
x,y,z
y,-x,-z
-x,-y,z
-y,x,-z
1/2+x,1/2-y,1/2-z
1/2-x,1/2+y,1/2-z
1/2-y,1/2-x,1/2+z
1/2+y,1/2+x,1/2+z
loop_
_atom_site_type_symbol
_atom_site_label
_atom_site_fract_x
_atom_site_fract_y
_atom_site_fract_z
Si Si1 0.663467 0.212329 0.304237
Si Si2 0.223574 0.493962 0.168784
Si Si3 0.649779 0.513026 0.976575
Si Si4 0.823099 0.295876 0.175593
Si Si5 0.836591 0.173666 0.986022
Si Si6 0.866049 0.022546 0.145912
Si Si7 0.514789 0.679451 0.257661
O O1 0.716910 0.258094 0.202675
O O2 0.711119 0.250798 0.412650
O O3 0.557567 0.253064 0.320074
O O4 0.660335 0.097858 0.302358
O O5 0.254704 0.491546 0.046133
O O6 0.165516 0.590880 0.189538
O O7 0.316295 0.494860 0.242302
O O8 0.597800 0.412326 0.977609
O O9 0.665792 0.535516 0.854370
O O10 0.859269 0.266290 0.057990
O O11 0.888911 0.239435 0.259192
O O12 0.805906 0.091990 0.069515
O O13 0.922630 0.129000 0.915744
O O14 0.920253 0.965230 0.822599
#
# Coordination Sequence:
#
# PCOD8309076 Si02
#       7
#     8   8   8   8   8   8   8
#     4  12  25  44  73 102 145 190 244 302 370 438
#     4  12  25  43  69 103 144 187 235 297 356 443
#     4  11  23  39  69 105 140 181 233 296 366 421
#     4  11  25  46  69 101 147 188 243 296 368 439
#     4  11  24  42  73 102 136 193 239 306 373 431
#     4  11  23  46  67 102 142 180 249 300 359 429
#     4  11  25  45  69 105 142 188 240 301 365 437
#
# _framework density 22.324424
#
# number of rings (size 3 to 8) (size 9 to 14) (size 15 to 20)
#    0.000    0.714    5.714    2.571    6.000    2.571 
#    0.000    0.000    0.000    1.714    0.000    0.000 
#    0.000    0.000    0.000    0.000    0.000    0.000 
#
# Total GULP energy -693962.410694 kJ/mol
# GULP energy per Si atom -12392.185905 kJ/mol
# Density = 2.227361 g / cm^3
# Si number density = 22.324424 Si / 1000 Ang^3
#
#
#
# Elastic Constant Matrix: (Units=GPa)
#
#
# Indices 1 2 3 4 5 6 
#
# 1 122.9852 32.8452 22.1748 0.0000 0.0000 0.0000
# 2 32.8452 122.9852 22.1748 0.0000 0.0000 0.0000
# 3 22.1748 22.1748 102.2445 0.0000 0.0000 0.0000
# 4 0.0000 0.0000 0.0000 31.5640 0.0000 0.0000
# 5 0.0000 0.0000 0.0000 0.0000 31.5640 0.0000
# 6 0.0000 0.0000 0.0000 0.0000 0.0000 21.3765
#
#
#
# Elastic Compliance Matrix: (Units=1/GPa)
#
#
# Indices 1 2 3 4 5 6 
#
# 1 0.008967 -0.002127 -0.001483 0.000000 0.000000 0.000000
# 2 -0.002127 0.008967 -0.001483 0.000000 0.000000 0.000000
# 3 -0.001483 -0.001483 0.010424 0.000000 0.000000 0.000000
# 4 0.000000 0.000000 0.000000 0.031682 0.000000 0.000000
# 5 0.000000 0.000000 0.000000 0.000000 0.031682 0.000000
# 6 0.000000 0.000000 0.000000 0.000000 0.000000 0.046780
#
#
# Mechanical properties :
#
#
# Convention : Reuss Voigt Hill
#
# Bulk Modulus (GPa) = 55.03771 55.84493 55.44132
# Shear Modulus (GPa) = 32.31124 34.96893 33.64008
#
# Velocity S-wave (km/s) = 3.80853 3.96207 3.88606
# Velocity P-wave (km/s) = 6.63679 6.78234 6.70996
#
# Compressibility (1/GPa) = 0.01816936
#
# Stress axis : x y z
#
# Youngs Moduli (GPa) = 111.52475 111.52475 95.93352
#
# Poissons Ratio (x) = 0.23724 0.14230
# Poissons Ratio (y) = 0.23724 0.14230
# Poissons Ratio (z) = 0.16543 0.16543
#
# Static dielectric constant tensor:
#      x y z
#    x 3.941060 0.000000 0.000000 
#    y 0.000000 3.941060 0.000000 
#    z 0.000000 0.000000 4.145340 
# 
# 
# High freq. dielectric constant tensor:
#      x y z
#    x 1.865260 0.000000 0.000000 
#    y 0.000000 1.865260 0.000000 
#    z 0.000000 0.000000 1.891440 
# 
# From -- ./inp_files/1765.got.cif
#   From: 2010.03.12/outbox.cif.g09.slc.cpg/sg114_1_cif.got.tgz:1765.got - 2010.04.14 02:08:34.
