data_PCOD8309532
_publ_section_title
;
Structure prediction by ZEFSAII (Michael W. Deem and Ramdas Pophale) SiO2 
 PCOD8309532
Probable space group: P -4 M 2
;
_chemical_formula_sum "Si O2"
_cell_formula_units_Z 44
_cell_length_a 9.182051
_cell_length_b 9.182051
_cell_length_c 28.555903
_cell_angle_alpha 90.000000
_cell_angle_beta 90.000000
_cell_angle_gamma 90.000000
_cell_volume 2407.549911
_symmetry_space_group_name_H-M "P -4 M 2"
_symmetry_group_IT_number 115
_symmetry_cell_setting 'tetragonal'
loop_
_space_group_symop_operation_xyz
x,y,z
y,-x,-z
-x,-y,z
-y,x,-z
y,x,-z
-y,-x,-z
-x,y,z
x,-y,z
loop_
_atom_site_type_symbol
_atom_site_label
_atom_site_fract_x
_atom_site_fract_y
_atom_site_fract_z
Si Si1 0.171758 0.168801 0.916379
Si Si2 0.328847 0.831606 0.541154
Si Si3 0.329163 0.329163 0.000000
Si Si4 0.334808 0.172264 0.276691
Si Si5 0.827042 0.663133 0.825940
Si Si6 0.829326 0.166662 0.366061
O O1 0.225664 0.224818 0.865613
O O2 0.000000 0.194208 0.923552
O O3 0.212452 0.000000 0.921059
O O4 0.257435 0.259940 0.954519
O O5 0.264965 0.735036 0.500000
O O6 0.500000 0.807359 0.544022
O O7 0.259315 0.776073 0.589622
O O8 0.288335 0.000000 0.531994
O O9 0.295868 0.500000 0.000320
O O10 0.500000 0.219646 0.285734
O O11 0.284911 0.230911 0.225305
O O12 0.239121 0.236845 0.318987
O O13 0.317292 0.000000 0.277021
O O14 0.768874 0.500000 0.837147
O O15 0.000000 0.658574 0.824434
O O16 0.000000 0.177638 0.359526
O O17 0.778634 0.000000 0.373853
#
# Coordination Sequence:
#
# PCOD8309532 Si02
#       6
#     8   8   4   8   8   8
#     4  10  20  33  52  79 106 131 163 205 252 299
#     4  10  21  36  53  73  98 129 165 206 252 301
#     4  11  24  39  54  72  96 131 172 209 248 298
#     4   8  14  25  43  69  99 130 165 202 239 283
#     4   8  14  26  45  70 101 134 165 201 246 291
#     4   9  17  29  47  71  97 125 159 202 249 294
#
# _framework density 18.275842000000001
#
# number of rings (size 3 to 8) (size 9 to 14) (size 15 to 20)
#    0.000    2.818    0.000    2.727    0.000    5.455 
#    0.000    5.455    0.000    1.091    0.000    5.091 
#    0.000    0.000    0.000    0.000    0.000    0.000 
#
# Total GULP energy -545427.406670 kJ/mol
# GULP energy per Si atom -12396.077424 kJ/mol
# Density = 1.823425 g / cm^3
# Si number density = 18.275842 Si / 1000 Ang^3
#
#
#
# Elastic Constant Matrix: (Units=GPa)
#
#
# Indices 1 2 3 4 5 6 
#
# 1 61.5762 40.3950 64.1844 0.0000 0.0000 0.0000
# 2 40.3950 61.5771 64.1859 0.0000 0.0000 0.0000
# 3 64.1844 64.1859 185.0206 0.0000 0.0000 0.0000
# 4 0.0000 0.0000 0.0000 -6.4316 0.0000 0.0000
# 5 0.0000 0.0000 0.0000 0.0000 -6.4328 0.0000
# 6 0.0000 0.0000 0.0000 0.0000 0.0000 18.1541
#
#
#
# Elastic Compliance Matrix: (Units=1/GPa)
#
#
# Indices 1 2 3 4 5 6 
#
# 1 0.032310 -0.014901 -0.006039 0.000000 0.000000 0.000000
# 2 -0.014901 0.032310 -0.006040 0.000000 0.000000 0.000000
# 3 -0.006039 -0.006040 0.009595 0.000000 0.000000 0.000000
# 4 0.000000 0.000000 0.000000 -0.155483 0.000000 0.000000
# 5 0.000000 0.000000 0.000000 0.000000 -0.155454 0.000000
# 6 0.000000 0.000000 0.000000 0.000000 0.000000 0.055084
#
#
# Mechanical properties :
#
#
# Convention : Reuss Voigt Hill
#
# Bulk Modulus (GPa) = 49.36723 71.74493 60.55608
# Shear Modulus (GPa) = -41.34788 10.35186 -15.49801
#
# Velocity S-wave (km/s) = -4.76166 2.38255 -2.91521
# Velocity P-wave (km/s) = 1.77773 6.84913 4.67709
#
# Compressibility (1/GPa) = 0.02025635
#
# Stress axis : x y z
#
# Youngs Moduli (GPa) = 30.94997 30.94984 104.21916
#
# Poissons Ratio (x) = 0.46117 0.62942
# Poissons Ratio (y) = 0.46117 0.62946
# Poissons Ratio (z) = 0.18692 0.18693
#
# Static dielectric constant tensor:
#      x y z
#    x 3.193940 0.000000 0.000000 
#    y 0.000000 3.193940 0.000000 
#    z 0.000000 0.000000 4.094310 
# 
# 
# High freq. dielectric constant tensor:
#      x y z
#    x 1.682920 0.000000 0.000000 
#    y 0.000000 1.682920 0.000000 
#    z 0.000000 0.000000 1.730210 
# 
# From -- ./inp_files/5770.got.cif
#   From: 2010.03.12/outbox.cif.g09.slc.cpg/sg115_3_cif.got.tgz:5770.got - 2010.04.14 02:11:21.
