data_PCOD8309139
_publ_section_title
;
Structure prediction by ZEFSAII (Michael W. Deem and Ramdas Pophale) SiO2 
 PCOD8309139
Probable space group: P -4 21 C
;
_chemical_formula_sum "Si O2"
_cell_formula_units_Z 42
_cell_length_a 14.698132
_cell_length_b 14.698132
_cell_length_c 8.425677
_cell_angle_alpha 90.000000
_cell_angle_beta 90.000000
_cell_angle_gamma 90.000000
_cell_volume 1820.241841
_symmetry_space_group_name_H-M "P -4 21 C"
_symmetry_group_IT_number 114
_symmetry_cell_setting 'tetragonal'
loop_
_space_group_symop_operation_xyz
x,y,z
y,-x,-z
-x,-y,z
-y,x,-z
1/2+x,1/2-y,1/2-z
1/2-x,1/2+y,1/2-z
1/2-y,1/2-x,1/2+z
1/2+y,1/2+x,1/2+z
loop_
_atom_site_type_symbol
_atom_site_label
_atom_site_fract_x
_atom_site_fract_y
_atom_site_fract_z
Si Si1 0.000000 0.000000 0.000000
Si Si2 0.396554 0.988093 0.581704
Si Si3 0.083685 0.310017 0.114223
Si Si4 0.028029 0.187020 0.840988
Si Si5 0.616333 0.780838 0.884025
Si Si6 0.286319 0.280830 0.177833
O O1 0.996902 0.085866 0.883115
O O2 0.331313 0.977593 0.732977
O O3 0.385383 0.900508 0.473680
O O4 0.500000 0.000000 0.640856
O O5 0.366711 0.073927 0.476659
O O6 0.178233 0.262832 0.163903
O O7 0.023359 0.246181 0.001489
O O8 0.130253 0.189132 0.776781
O O9 0.961007 0.226166 0.708935
O O10 0.691345 0.823875 0.767609
O O11 0.665050 0.712151 0.007293
#
# Coordination Sequence:
#
# PCOD8309139 Si02
#       6
#     2   8   8   8   8   8
#     4  12  32  48  82 108 160 208 270 316 372 476
#     4  12  27  43  76 120 154 196 254 330 389 476
#     4  12  24  51  76 105 160 204 248 320 409 456
#     4  12  28  53  74 114 152 212 259 325 384 461
#     4  12  29  46  79 114 152 203 263 315 396 471
#     4  12  26  50  78 111 152 207 261 322 390 471
#
# _framework density 23.073857
#
# number of rings (size 3 to 8) (size 9 to 14) (size 15 to 20)
#    0.000    0.000    5.714    1.714   10.667    1.524 
#    0.000    0.000    0.000    0.000    0.000    0.000 
#    0.000    0.000    0.000    0.000    0.000    0.000 
#
# Total GULP energy -521154.973587 kJ/mol
# GULP energy per Si atom -12408.451752 kJ/mol
# Density = 2.302134 g / cm^3
# Si number density = 23.073857 Si / 1000 Ang^3
#
#
#
# Elastic Constant Matrix: (Units=GPa)
#
#
# Indices 1 2 3 4 5 6 
#
# 1 126.5605 34.8456 58.4225 0.0000 0.0000 0.0000
# 2 34.8456 126.5605 58.4225 0.0000 0.0000 0.0000
# 3 58.4225 58.4225 142.6578 0.0000 0.0000 0.0000
# 4 0.0000 0.0000 0.0000 37.2817 0.0000 0.0000
# 5 0.0000 0.0000 0.0000 0.0000 37.2817 0.0000
# 6 0.0000 0.0000 0.0000 0.0000 0.0000 32.6254
#
#
#
# Elastic Compliance Matrix: (Units=1/GPa)
#
#
# Indices 1 2 3 4 5 6 
#
# 1 0.009855 -0.001049 -0.003606 0.000000 0.000000 0.000000
# 2 -0.001049 0.009855 -0.003606 0.000000 0.000000 0.000000
# 3 -0.003606 -0.003606 0.009964 0.000000 0.000000 0.000000
# 4 0.000000 0.000000 0.000000 0.026823 0.000000 0.000000
# 5 0.000000 0.000000 0.000000 0.000000 0.026823 0.000000
# 6 0.000000 0.000000 0.000000 0.000000 0.000000 0.030651
#
#
# Mechanical properties :
#
#
# Convention : Reuss Voigt Hill
#
# Bulk Modulus (GPa) = 76.04247 77.68442 76.86345
# Shear Modulus (GPa) = 37.07103 37.71031 37.39067
#
# Velocity S-wave (km/s) = 4.01262 4.04707 4.02988
# Velocity P-wave (km/s) = 7.38213 7.45515 7.41873
#
# Compressibility (1/GPa) = 0.01315055
#
# Stress axis : x y z
#
# Youngs Moduli (GPa) = 101.47295 101.47295 100.36470
#
# Poissons Ratio (x) = 0.10640 0.36196
# Poissons Ratio (y) = 0.10640 0.36196
# Poissons Ratio (z) = 0.36596 0.36596
#
# Static dielectric constant tensor:
#      x y z
#    x 4.201780 0.000000 0.000000 
#    y 0.000000 4.201780 0.000000 
#    z 0.000000 0.000000 4.478920 
# 
# 
# High freq. dielectric constant tensor:
#      x y z
#    x 1.915310 0.000000 0.000000 
#    y 0.000000 1.915310 0.000000 
#    z 0.000000 0.000000 1.932120 
# 
# From -- ./inp_files/825.got.cif
#   From: 2010.03.12/outbox.cif.g09.slc.cpg/sg114_1_cif.got.tgz:825.got - 2010.04.14 02:08:34.
