data_PCOD8309851
_publ_section_title
;
Structure prediction by ZEFSAII (Michael W. Deem and Ramdas Pophale) SiO2 
 PCOD8309851
Probable space group: P -4 M 2
;
_chemical_formula_sum "Si O2"
_cell_formula_units_Z 48
_cell_length_a 9.243336
_cell_length_b 9.243336
_cell_length_c 30.126605
_cell_angle_alpha 90.000000
_cell_angle_beta 90.000000
_cell_angle_gamma 90.000000
_cell_volume 2573.994850
_symmetry_space_group_name_H-M "P -4 M 2"
_symmetry_group_IT_number 115
_symmetry_cell_setting 'tetragonal'
loop_
_space_group_symop_operation_xyz
x,y,z
y,-x,-z
-x,-y,z
-y,x,-z
y,x,-z
-y,-x,-z
-x,y,z
x,-y,z
loop_
_atom_site_type_symbol
_atom_site_label
_atom_site_fract_x
_atom_site_fract_y
_atom_site_fract_z
Si Si1 0.166134 0.330140 0.711081
Si Si2 0.169512 0.669576 0.960546
Si Si3 0.336311 0.832642 0.784226
Si Si4 0.833662 0.333070 0.113103
Si Si5 0.168681 0.836126 0.449117
Si Si6 0.669493 0.666800 0.375219
O O1 0.188618 0.500000 0.716169
O O2 0.225443 0.258635 0.755492
O O3 0.250513 0.270875 0.668066
O O4 0.000000 0.286937 0.705122
O O5 0.201803 0.500000 0.964017
O O6 0.229305 0.728194 0.914023
O O7 0.000000 0.702593 0.963630
O O8 0.249784 0.750217 0.000000
O O9 0.500000 0.782575 0.773904
O O10 0.299850 0.804904 0.835495
O O11 0.317374 0.000000 0.772334
O O12 0.798842 0.500000 0.102037
O O13 0.000000 0.299794 0.100642
O O14 0.202673 0.797328 0.500000
O O15 0.255744 0.725335 0.419175
O O16 0.000000 0.818865 0.439165
O O17 0.218481 0.000000 0.438759
O O18 0.500000 0.692623 0.380797
O O19 0.709433 0.500000 0.369290
#
# Coordination Sequence:
#
# PCOD8309851 Si02
#       6
#     8   8   8   8   8   8
#     4  10  21  36  54  77 106 141 180 221 265 313
#     4  11  24  39  56  81 111 142 179 222 266 315
#     4   9  19  36  57  81 109 141 177 218 264 314
#     4   9  19  37  59  82 109 141 178 219 263 314
#     4   9  19  36  56  78 105 137 173 213 259 313
#     4  10  21  36  54  77 105 138 177 219 263 313
#
# _framework density 18.648057000000001
#
# number of rings (size 3 to 8) (size 9 to 14) (size 15 to 20)
#    0.000    2.333    0.000    3.500    0.000    9.000 
#    0.000    7.500    0.000    0.000    0.000    0.000 
#    0.000    0.000    0.000    0.000    0.000    0.000 
#
# Total GULP energy -595360.577346 kJ/mol
# GULP energy per Si atom -12403.345361 kJ/mol
# Density = 1.860561 g / cm^3
# Si number density = 18.648057 Si / 1000 Ang^3
#
#
#
# Elastic Constant Matrix: (Units=GPa)
#
#
# Indices 1 2 3 4 5 6 
#
# 1 99.8178 74.8839 72.7211 0.0000 0.0000 0.0000
# 2 74.8839 99.8179 72.7212 0.0000 0.0000 0.0000
# 3 72.7211 72.7212 118.3136 0.0000 0.0000 0.0000
# 4 0.0000 0.0000 0.0000 38.4758 0.0000 0.0000
# 5 0.0000 0.0000 0.0000 0.0000 38.4755 0.0000
# 6 0.0000 0.0000 0.0000 0.0000 0.0000 35.2531
#
#
#
# Elastic Compliance Matrix: (Units=1/GPa)
#
#
# Indices 1 2 3 4 5 6 
#
# 1 0.025914 -0.014192 -0.007205 0.000000 0.000000 0.000000
# 2 -0.014192 0.025914 -0.007205 0.000000 0.000000 0.000000
# 3 -0.007205 -0.007205 0.017309 0.000000 0.000000 0.000000
# 4 0.000000 0.000000 0.000000 0.025990 0.000000 0.000000
# 5 0.000000 0.000000 0.000000 0.000000 0.025991 0.000000
# 6 0.000000 0.000000 0.000000 0.000000 0.000000 0.028366
#
#
# Mechanical properties :
#
#
# Convention : Reuss Voigt Hill
#
# Bulk Modulus (GPa) = 83.79690 84.28908 84.04299
# Shear Modulus (GPa) = 23.73410 28.94909 26.34160
#
# Velocity S-wave (km/s) = 3.57142 3.94431 3.76249
# Velocity P-wave (km/s) = 7.87656 8.12659 8.00256
#
# Compressibility (1/GPa) = 0.01193362
#
# Stress axis : x y z
#
# Youngs Moduli (GPa) = 38.58878 38.58886 57.77197
#
# Poissons Ratio (x) = 0.54764 0.41626
# Poissons Ratio (y) = 0.54764 0.41626
# Poissons Ratio (z) = 0.27804 0.27804
#
# Static dielectric constant tensor:
#      x y z
#    x 3.449160 0.000000 0.000000 
#    y 0.000000 3.449170 0.000000 
#    z 0.000000 0.000000 3.445530 
# 
# 
# High freq. dielectric constant tensor:
#      x y z
#    x 1.723240 0.000000 0.000000 
#    y 0.000000 1.723240 0.000000 
#    z 0.000000 0.000000 1.734940 
# 
# From -- ./inp_files/5990.got.cif
#   From: 2010.03.12/outbox.cif.g09.slc.cpg/sg115_3_cif.got.tgz:5990.got - 2010.04.14 02:11:21.
