data_PCOD8309080
_publ_section_title
;
Structure prediction by ZEFSAII (Michael W. Deem and Ramdas Pophale) SiO2 
 PCOD8309080
Probable space group: P -4 21 C
;
_chemical_formula_sum "Si O2"
_cell_formula_units_Z 28
_cell_length_a 7.216949
_cell_length_b 7.216949
_cell_length_c 25.309871
_cell_angle_alpha 90.000000
_cell_angle_beta 90.000000
_cell_angle_gamma 90.000000
_cell_volume 1318.248252
_symmetry_space_group_name_H-M "P -4 21 C"
_symmetry_group_IT_number 114
_symmetry_cell_setting 'tetragonal'
loop_
_space_group_symop_operation_xyz
x,y,z
y,-x,-z
-x,-y,z
-y,x,-z
1/2+x,1/2-y,1/2-z
1/2-x,1/2+y,1/2-z
1/2-y,1/2-x,1/2+z
1/2+y,1/2+x,1/2+z
loop_
_atom_site_type_symbol
_atom_site_label
_atom_site_fract_x
_atom_site_fract_y
_atom_site_fract_z
Si Si1 0.844313 0.360166 0.306212
Si Si2 0.500000 0.500000 0.241865
Si Si3 0.959479 0.202682 0.916269
Si Si4 0.179144 0.240507 0.494822
O O1 0.650630 0.400096 0.278144
O O2 0.828989 0.384598 0.369141
O O3 0.000000 0.500000 0.284062
O O4 0.903743 0.149908 0.295774
O O5 0.802662 0.167538 0.960006
O O6 0.141397 0.301038 0.941088
O O7 0.000000 0.000000 0.892912
O O8 0.968437 0.247009 0.515165
#
# Coordination Sequence:
#
# PCOD8309080 Si02
#       4
#     8   4   8   8
#     4  12  26  47  75 106 145 190 244 307 372 437
#     4  12  26  48  74 105 147 192 244 310 366 428
#     4  12  24  42  71 103 141 190 234 289 363 434
#     4  11  23  42  66  99 142 184 230 290 351 433
#
# _framework density 21.240311999999999
#
# number of rings (size 3 to 8) (size 9 to 14) (size 15 to 20)
#    0.000    0.286    7.143    2.571    0.000    4.571 
#    0.000    2.857    0.000    0.000    0.000    0.000 
#    0.000    0.000    0.000    0.000    0.000    0.000 
#
# Total GULP energy -347381.144593 kJ/mol
# GULP energy per Si atom -12406.469450 kJ/mol
# Density = 2.119197 g / cm^3
# Si number density = 21.240312 Si / 1000 Ang^3
#
#
#
# Elastic Constant Matrix: (Units=GPa)
#
#
# Indices 1 2 3 4 5 6 
#
# 1 136.5794 52.9009 62.5207 0.0000 0.0000 0.0000
# 2 52.9009 136.5794 62.5207 0.0000 0.0000 0.0000
# 3 62.5207 62.5207 118.8941 0.0000 0.0000 0.0000
# 4 0.0000 0.0000 0.0000 28.4147 0.0000 0.0000
# 5 0.0000 0.0000 0.0000 0.0000 28.4147 0.0000
# 6 0.0000 0.0000 0.0000 0.0000 0.0000 43.4018
#
#
#
# Elastic Compliance Matrix: (Units=1/GPa)
#
#
# Indices 1 2 3 4 5 6 
#
# 1 0.010016 -0.001934 -0.004250 0.000000 0.000000 0.000000
# 2 -0.001934 0.010016 -0.004250 0.000000 0.000000 0.000000
# 3 -0.004250 -0.004250 0.012881 0.000000 0.000000 0.000000
# 4 0.000000 0.000000 0.000000 0.035193 0.000000 0.000000
# 5 0.000000 0.000000 0.000000 0.000000 0.035193 0.000000
# 6 0.000000 0.000000 0.000000 0.000000 0.000000 0.023041
#
#
# Mechanical properties :
#
#
# Convention : Reuss Voigt Hill
#
# Bulk Modulus (GPa) = 83.02257 83.10416 83.06336
# Shear Modulus (GPa) = 33.06360 34.32028 33.69194
#
# Velocity S-wave (km/s) = 3.94971 4.02407 3.98707
# Velocity P-wave (km/s) = 7.74419 7.79753 7.77090
#
# Compressibility (1/GPa) = 0.01204492
#
# Stress axis : x y z
#
# Youngs Moduli (GPa) = 99.83630 99.83630 77.63566
#
# Poissons Ratio (x) = 0.19309 0.32996
# Poissons Ratio (y) = 0.19309 0.32996
# Poissons Ratio (z) = 0.42431 0.42431
#
# Static dielectric constant tensor:
#      x y z
#    x 4.010290 0.000000 0.000000 
#    y 0.000000 4.010290 0.000000 
#    z 0.000000 0.000000 3.579120 
# 
# 
# High freq. dielectric constant tensor:
#      x y z
#    x 1.850350 0.000000 0.000000 
#    y 0.000000 1.850350 0.000000 
#    z 0.000000 0.000000 1.818280 
# 
# From -- ./inp_files/2765.got.cif
#   From: 2010.03.12/outbox.cif.g09.slc.cpg/sg114_2_cif.got.tgz:2765.got - 2010.04.14 02:08:34.
