data_PCOD8309791
_publ_section_title
;
Structure prediction by ZEFSAII (Michael W. Deem and Ramdas Pophale) SiO2 
 PCOD8309791
Probable space group: P -4 M 2
;
_chemical_formula_sum "Si O2"
_cell_formula_units_Z 40
_cell_length_a 8.995213
_cell_length_b 8.995213
_cell_length_c 26.103849
_cell_angle_alpha 90.000000
_cell_angle_beta 90.000000
_cell_angle_gamma 90.000000
_cell_volume 2112.163103
_symmetry_space_group_name_H-M "P -4 M 2"
_symmetry_group_IT_number 115
_symmetry_cell_setting 'tetragonal'
loop_
_space_group_symop_operation_xyz
x,y,z
y,-x,-z
-x,-y,z
-y,x,-z
y,x,-z
-y,-x,-z
-x,y,z
x,-y,z
loop_
_atom_site_type_symbol
_atom_site_label
_atom_site_fract_x
_atom_site_fract_y
_atom_site_fract_z
Si Si1 0.677245 0.332347 0.835677
Si Si2 0.173786 0.327497 0.452767
Si Si3 0.828487 0.171272 0.255197
Si Si4 0.324956 0.828809 0.359293
Si Si5 0.664402 0.322609 0.946153
O O1 0.500000 0.327725 0.837442
O O2 0.730783 0.500000 0.822505
O O3 0.734649 0.218378 0.793773
O O4 0.743504 0.282703 0.891854
O O5 0.234215 0.234215 0.500000
O O6 0.208214 0.500000 0.462588
O O7 0.252573 0.276533 0.401149
O O8 0.000000 0.296830 0.447278
O O9 0.734282 0.223274 0.304185
O O10 0.000000 0.201660 0.267421
O O11 0.796930 0.000000 0.242810
O O12 0.500000 0.806473 0.360739
O O13 0.280517 0.000000 0.370174
O O14 0.500000 0.253972 0.943054
O O15 0.655586 0.500000 0.950463
O O16 0.738462 0.261539 0.000000
#
# Coordination Sequence:
#
# PCOD8309791 Si02
#       5
#     8   8   8   8   8
#     4   9  17  29  48  75 102 128 163 209 260 310
#     4  11  24  40  59  85 115 146 179 213 252 300
#     4  10  21  36  53  73 100 137 177 213 254 307
#     4  10  21  38  60  83 105 133 173 219 264 308
#     4   7  10  19  38  65  95 124 156 199 251 304
#
# _framework density 18.937930000000001
#
# number of rings (size 3 to 8) (size 9 to 14) (size 15 to 20)
#    0.000    2.600    0.000    4.200    0.000    7.600 
#    0.000    0.000    0.000    1.200    0.000    7.000 
#    0.000    0.000    0.000    0.000    0.000    0.000 
#
# Total GULP energy -495693.698105 kJ/mol
# GULP energy per Si atom -12392.342453 kJ/mol
# Density = 1.889483 g / cm^3
# Si number density = 18.937930 Si / 1000 Ang^3
#
#
#
# Elastic Constant Matrix: (Units=GPa)
#
#
# Indices 1 2 3 4 5 6 
#
# 1 51.5618 28.0609 40.3485 0.0000 0.0000 0.0000
# 2 28.0609 51.5619 40.3485 0.0000 0.0000 0.0000
# 3 40.3485 40.3485 150.1887 0.0000 0.0000 0.0000
# 4 0.0000 0.0000 0.0000 90.9201 0.0000 0.0000
# 5 0.0000 0.0000 0.0000 0.0000 90.9226 0.0000
# 6 0.0000 0.0000 0.0000 0.0000 0.0000 25.2918
#
#
#
# Elastic Compliance Matrix: (Units=1/GPa)
#
#
# Indices 1 2 3 4 5 6 
#
# 1 0.029905 -0.012647 -0.004636 0.000000 0.000000 0.000000
# 2 -0.012647 0.029905 -0.004636 0.000000 0.000000 0.000000
# 3 -0.004636 -0.004636 0.009149 0.000000 0.000000 0.000000
# 4 0.000000 0.000000 0.000000 0.010999 0.000000 0.000000
# 5 0.000000 0.000000 0.000000 0.000000 0.010998 0.000000
# 6 0.000000 0.000000 0.000000 0.000000 0.000000 0.039539
#
#
# Mechanical properties :
#
#
# Convention : Reuss Voigt Hill
#
# Bulk Modulus (GPa) = 39.80872 52.31422 46.06147
# Shear Modulus (GPa) = 27.36622 51.06389 39.21505
#
# Velocity S-wave (km/s) = 3.80550 5.19830 4.55545
# Velocity P-wave (km/s) = 6.35416 7.98209 7.21419
#
# Compressibility (1/GPa) = 0.02512013
#
# Stress axis : x y z
#
# Youngs Moduli (GPa) = 33.43939 33.43947 109.29593
#
# Poissons Ratio (x) = 0.42289 0.50675
# Poissons Ratio (y) = 0.42289 0.50674
# Poissons Ratio (z) = 0.15504 0.15504
#
# Static dielectric constant tensor:
#      x y z
#    x 3.235580 0.000000 0.000000 
#    y 0.000000 3.235580 0.000000 
#    z 0.000000 0.000000 4.070220 
# 
# 
# High freq. dielectric constant tensor:
#      x y z
#    x 1.709480 0.000000 0.000000 
#    y 0.000000 1.709480 0.000000 
#    z 0.000000 0.000000 1.764240 
# 
# From -- ./inp_files/5135.got.cif
#   From: 2010.03.12/outbox.cif.g09.slc.cpg/sg115_3_cif.got.tgz:5135.got - 2010.04.14 02:11:21.
