data_PCOD8309050
_publ_section_title
;
Structure prediction by ZEFSAII (Michael W. Deem and Ramdas Pophale) SiO2 
 PCOD8309050
Probable space group: P -4 21 C
;
_chemical_formula_sum "Si O2"
_cell_formula_units_Z 48
_cell_length_a 9.188262
_cell_length_b 9.188262
_cell_length_c 28.252474
_cell_angle_alpha 90.000000
_cell_angle_beta 90.000000
_cell_angle_gamma 90.000000
_cell_volume 2385.191345
_symmetry_space_group_name_H-M "P -4 21 C"
_symmetry_group_IT_number 114
_symmetry_cell_setting 'tetragonal'
loop_
_space_group_symop_operation_xyz
x,y,z
y,-x,-z
-x,-y,z
-y,x,-z
1/2+x,1/2-y,1/2-z
1/2-x,1/2+y,1/2-z
1/2-y,1/2-x,1/2+z
1/2+y,1/2+x,1/2+z
loop_
_atom_site_type_symbol
_atom_site_label
_atom_site_fract_x
_atom_site_fract_y
_atom_site_fract_z
Si Si1 0.595995 0.371079 0.788498
Si Si2 0.498753 0.831375 0.372814
Si Si3 0.881846 0.391533 0.727985
Si Si4 0.162931 0.502555 0.961951
Si Si5 0.766508 0.352421 0.057805
Si Si6 0.819681 0.140017 0.391984
O O1 0.500000 0.500000 0.765685
O O2 0.748744 0.344055 0.761374
O O3 0.485632 0.237493 0.788591
O O4 0.638319 0.406711 0.842479
O O5 0.538978 0.804246 0.318090
O O6 0.616761 0.764164 0.409418
O O7 0.335366 0.779239 0.383091
O O8 0.500000 0.000000 0.385084
O O9 0.000000 0.500000 0.752669
O O10 0.232238 0.342330 0.962976
O O11 0.260774 0.600352 0.928970
O O12 0.000000 0.500000 0.941329
O O13 0.154873 0.567363 0.014501
O O14 0.684539 0.474451 0.089051
#
# Coordination Sequence:
#
# PCOD8309050 Si02
#       6
#     8   8   8   8   8   8
#     4  12  24  39  67  97 129 166 218 273 327 382
#     4   9  19  41  67  84 120 171 210 245 317 393
#     4  11  22  44  64  92 126 172 218 262 325 400
#     4  12  25  39  63 101 128 160 215 271 313 371
#     4  11  21  41  68  90 125 168 211 255 313 384
#     4  11  22  42  67  92 124 171 214 258 315 385
#
# _framework density 20.124169999999999
#
# number of rings (size 3 to 8) (size 9 to 14) (size 15 to 20)
#    0.000    1.000    6.667    4.000    0.000    0.667 
#    3.000    0.833    0.000    0.000    0.000    0.000 
#    0.000    0.000    0.000    0.000    0.000    0.000 
#
# Total GULP energy -594985.527628 kJ/mol
# GULP energy per Si atom -12395.531826 kJ/mol
# Density = 2.007837 g / cm^3
# Si number density = 20.124170 Si / 1000 Ang^3
#
#
#
# Elastic Constant Matrix: (Units=GPa)
#
#
# Indices 1 2 3 4 5 6 
#
# 1 68.2617 16.6043 12.3261 0.0000 0.0000 0.0000
# 2 16.6043 68.2617 12.3261 0.0000 0.0000 0.0000
# 3 12.3261 12.3261 86.9553 0.0000 0.0000 0.0000
# 4 0.0000 0.0000 0.0000 22.4620 0.0000 0.0000
# 5 0.0000 0.0000 0.0000 0.0000 22.4620 0.0000
# 6 0.0000 0.0000 0.0000 0.0000 0.0000 13.4809
#
#
#
# Elastic Compliance Matrix: (Units=1/GPa)
#
#
# Indices 1 2 3 4 5 6 
#
# 1 0.015824 -0.003534 -0.001742 0.000000 0.000000 0.000000
# 2 -0.003534 0.015824 -0.001742 0.000000 0.000000 0.000000
# 3 -0.001742 -0.001742 0.011994 0.000000 0.000000 0.000000
# 4 0.000000 0.000000 0.000000 0.044520 0.000000 0.000000
# 5 0.000000 0.000000 0.000000 0.000000 0.044520 0.000000
# 6 0.000000 0.000000 0.000000 0.000000 0.000000 0.074179
#
#
# Mechanical properties :
#
#
# Convention : Reuss Voigt Hill
#
# Bulk Modulus (GPa) = 33.77863 33.99909 33.88886
# Shear Modulus (GPa) = 21.66705 23.82913 22.74809
#
# Velocity S-wave (km/s) = 3.28482 3.44482 3.36577
# Velocity P-wave (km/s) = 5.58644 5.72308 5.65517
#
# Compressibility (1/GPa) = 0.02960451
#
# Stress axis : x y z
#
# Youngs Moduli (GPa) = 63.19588 63.19588 83.37469
#
# Poissons Ratio (x) = 0.22337 0.14524
# Poissons Ratio (y) = 0.22337 0.14524
# Poissons Ratio (z) = 0.11009 0.11009
#
# Static dielectric constant tensor:
#      x y z
#    x 4.125620 0.000000 0.000000 
#    y 0.000000 4.125620 0.000000 
#    z 0.000000 0.000000 3.696350 
# 
# 
# High freq. dielectric constant tensor:
#      x y z
#    x 1.775320 0.000000 0.000000 
#    y 0.000000 1.775320 0.000000 
#    z 0.000000 0.000000 1.791740 
# 
# From -- ./inp_files/3918.got.cif
#   From: 2010.03.12/outbox.cif.g09.slc.cpg/sg114_2_cif.got.tgz:3918.got - 2010.04.14 02:08:34.
