data_PCOD8309382
_publ_section_title
;
Structure prediction by ZEFSAII (Michael W. Deem and Ramdas Pophale) SiO2 
 PCOD8309382
Probable space group: P -4 M 2
;
_chemical_formula_sum "Si O2"
_cell_formula_units_Z 32
_cell_length_a 14.534902
_cell_length_b 14.534902
_cell_length_c 8.552066
_cell_angle_alpha 90.000000
_cell_angle_beta 90.000000
_cell_angle_gamma 90.000000
_cell_volume 1806.738336
_symmetry_space_group_name_H-M "P -4 M 2"
_symmetry_group_IT_number 115
_symmetry_cell_setting 'tetragonal'
loop_
_space_group_symop_operation_xyz
x,y,z
y,-x,-z
-x,-y,z
-y,x,-z
y,x,-z
-y,-x,-z
-x,y,z
x,-y,z
loop_
_atom_site_type_symbol
_atom_site_label
_atom_site_fract_x
_atom_site_fract_y
_atom_site_fract_z
Si Si1 0.395177 0.604824 0.500000
Si Si2 0.392539 0.246369 0.748736
Si Si3 0.805444 0.106161 0.266482
Si Si4 0.900011 0.723430 0.408682
Si Si5 0.239485 0.239485 0.000000
O O1 0.500000 0.624060 0.453749
O O2 0.339293 0.631805 0.344717
O O3 0.500000 0.238005 0.789261
O O4 0.360043 0.165229 0.636188
O O5 0.334794 0.239714 0.906831
O O6 0.730288 0.106001 0.403860
O O7 0.883687 0.177638 0.323838
O O8 0.761230 0.148211 0.108868
O O9 0.840921 0.000000 0.238291
O O10 0.000000 0.692022 0.354802
#
# Coordination Sequence:
#
# PCOD8309382 Si02
#       5
#     4   8   8   8   4
#     4   9  18  34  56  78  96 121 166 216 252 287
#     4  10  20  34  53  75 101 133 164 200 248 296
#     4   9  18  33  52  72  98 132 167 208 253 287
#     4   9  18  34  54  74  97 128 171 213 242 284
#     4  10  20  32  48  76 108 132 160 198 244 304
#
# _framework density 17.711473999999999
#
# number of rings (size 3 to 8) (size 9 to 14) (size 15 to 20)
#    0.000    2.625    0.000    3.000    0.000    6.000 
#    0.000    3.750    0.000    1.500    0.000    0.000 
#    0.000    0.000    0.000    0.000    0.000    0.000 
#
# Total GULP energy -396522.872796 kJ/mol
# GULP energy per Si atom -12391.339775 kJ/mol
# Density = 1.767116 g / cm^3
# Si number density = 17.711474 Si / 1000 Ang^3
#
#
#
# Elastic Constant Matrix: (Units=GPa)
#
#
# Indices 1 2 3 4 5 6 
#
# 1 85.3551 53.0596 48.9962 0.0000 0.0000 0.0000
# 2 53.0596 85.3564 48.9962 0.0000 0.0000 0.0000
# 3 48.9962 48.9962 112.5272 0.0000 0.0000 0.0000
# 4 0.0000 0.0000 0.0000 17.6888 0.0000 0.0000
# 5 0.0000 0.0000 0.0000 0.0000 17.6883 0.0000
# 6 0.0000 0.0000 0.0000 0.0000 0.0000 21.9764
#
#
#
# Elastic Compliance Matrix: (Units=1/GPa)
#
#
# Indices 1 2 3 4 5 6 
#
# 1 0.020704 -0.010260 -0.004548 0.000000 0.000000 0.000000
# 2 -0.010260 0.020704 -0.004547 0.000000 0.000000 0.000000
# 3 -0.004548 -0.004547 0.012847 0.000000 0.000000 0.000000
# 4 0.000000 0.000000 0.000000 0.056533 0.000000 0.000000
# 5 0.000000 0.000000 0.000000 0.000000 0.056534 0.000000
# 6 0.000000 0.000000 0.000000 0.000000 0.000000 0.045503
#
#
# Mechanical properties :
#
#
# Convention : Reuss Voigt Hill
#
# Bulk Modulus (GPa) = 64.32959 65.03809 64.68384
# Shear Modulus (GPa) = 19.47675 20.28315 19.87995
#
# Velocity S-wave (km/s) = 3.31972 3.38775 3.35391
# Velocity P-wave (km/s) = 7.14799 7.21824 7.18320
#
# Compressibility (1/GPa) = 0.01554495
#
# Stress axis : x y z
#
# Youngs Moduli (GPa) = 48.29994 48.30093 77.83990
#
# Poissons Ratio (x) = 0.49555 0.35399
# Poissons Ratio (y) = 0.49554 0.35397
# Poissons Ratio (z) = 0.21965 0.21965
#
# Static dielectric constant tensor:
#      x y z
#    x 3.287140 0.000000 0.000000 
#    y 0.000000 3.287160 0.000000 
#    z 0.000000 0.000000 3.411410 
# 
# 
# High freq. dielectric constant tensor:
#      x y z
#    x 1.678750 0.000000 0.000000 
#    y 0.000000 1.678750 0.000000 
#    z 0.000000 0.000000 1.687710 
# 
# From -- ./inp_files/1371.got.cif
#   From: 2010.03.12/outbox.cif.g09.slc.cpg/sg115_1_cif.got.tgz:1371.got - 2010.04.14 02:11:21.
