data_PCOD8309871
_publ_section_title
;
Structure prediction by ZEFSAII (Michael W. Deem and Ramdas Pophale) SiO2 
 PCOD8309871
Probable space group: P -4 M 2
;
_chemical_formula_sum "Si O2"
_cell_formula_units_Z 48
_cell_length_a 9.266964
_cell_length_b 9.266964
_cell_length_c 30.156629
_cell_angle_alpha 90.000000
_cell_angle_beta 90.000000
_cell_angle_gamma 90.000000
_cell_volume 2589.749423
_symmetry_space_group_name_H-M "P -4 M 2"
_symmetry_group_IT_number 115
_symmetry_cell_setting 'tetragonal'
loop_
_space_group_symop_operation_xyz
x,y,z
y,-x,-z
-x,-y,z
-y,x,-z
y,x,-z
-y,-x,-z
-x,y,z
x,-y,z
loop_
_atom_site_type_symbol
_atom_site_label
_atom_site_fract_x
_atom_site_fract_y
_atom_site_fract_z
Si Si1 0.666782 0.334456 0.300978
Si Si2 0.834324 0.831607 0.126338
Si Si3 0.337115 0.668685 0.199154
Si Si4 0.665836 0.666532 0.449001
Si Si5 0.330335 0.167085 0.038170
Si Si6 0.167987 0.831845 0.375020
O O1 0.500000 0.307413 0.312473
O O2 0.707232 0.500000 0.310713
O O3 0.698554 0.295602 0.250044
O O4 0.763672 0.232788 0.330829
O O5 0.777715 0.751426 0.169570
O O6 0.741860 0.782879 0.083976
O O7 0.000000 0.788771 0.117816
O O8 0.816364 0.000000 0.135210
O O9 0.500000 0.719362 0.187803
O O10 0.321711 0.500000 0.189961
O O11 0.700964 0.700964 0.500000
O O12 0.500000 0.702669 0.438286
O O13 0.697431 0.500000 0.438232
O O14 0.767029 0.764491 0.419318
O O15 0.500000 0.194379 0.041744
O O16 0.294467 0.000000 0.027993
O O17 0.265837 0.265837 0.000000
O O18 0.000000 0.797138 0.374285
O O19 0.201503 0.000000 0.375660
#
# Coordination Sequence:
#
# PCOD8309871 Si02
#       6
#     8   8   8   8   8   8
#     4   9  19  37  59  80 103 136 180 225 266 312
#     4  10  21  36  55  80 110 144 179 216 261 314
#     4   9  19  36  57  81 108 138 175 221 269 314
#     4   9  19  37  60  83 105 133 174 221 265 313
#     4  10  21  37  57  80 106 139 179 220 264 315
#     4  11  24  37  50  76 113 146 176 215 263 314
#
# _framework density 18.534613
#
# number of rings (size 3 to 8) (size 9 to 14) (size 15 to 20)
#    0.000    2.333    0.000    3.500    0.000    9.000 
#    0.000    7.500    0.000    0.000    0.000    0.000 
#    0.000    0.000    0.000    0.000    0.000    0.000 
#
# Total GULP energy -595359.776946 kJ/mol
# GULP energy per Si atom -12403.328686 kJ/mol
# Density = 1.849243 g / cm^3
# Si number density = 18.534613 Si / 1000 Ang^3
#
#
#
# Elastic Constant Matrix: (Units=GPa)
#
#
# Indices 1 2 3 4 5 6 
#
# 1 97.3475 79.1827 79.1200 0.0000 0.0000 0.0000
# 2 79.1827 97.3475 79.1200 0.0000 0.0000 0.0000
# 3 79.1200 79.1200 133.9212 0.0000 0.0000 0.0000
# 4 0.0000 0.0000 0.0000 237.6005 0.0000 0.0000
# 5 0.0000 0.0000 0.0000 0.0000 237.6005 0.0000
# 6 0.0000 0.0000 0.0000 0.0000 0.0000 34.9549
#
#
#
# Elastic Compliance Matrix: (Units=1/GPa)
#
#
# Indices 1 2 3 4 5 6 
#
# 1 0.033547 -0.021505 -0.007114 0.000000 0.000000 0.000000
# 2 -0.021505 0.033547 -0.007114 0.000000 0.000000 0.000000
# 3 -0.007114 -0.007114 0.015873 0.000000 0.000000 0.000000
# 4 0.000000 0.000000 0.000000 0.004209 0.000000 0.000000
# 5 0.000000 0.000000 0.000000 0.000000 0.004209 0.000000
# 6 0.000000 0.000000 0.000000 0.000000 0.000000 0.028608
#
#
# Mechanical properties :
#
#
# Convention : Reuss Voigt Hill
#
# Bulk Modulus (GPa) = 86.95723 89.27349 88.11536
# Shear Modulus (GPa) = 25.60263 108.11077 66.85670
#
# Velocity S-wave (km/s) = 3.72067 7.64564 6.01245
# Velocity P-wave (km/s) = 8.09171 11.23438 9.78998
#
# Compressibility (1/GPa) = 0.01149991
#
# Stress axis : x y z
#
# Youngs Moduli (GPa) = 29.80923 29.80923 62.99880
#
# Poissons Ratio (x) = 0.64104 0.44820
# Poissons Ratio (y) = 0.64104 0.44820
# Poissons Ratio (z) = 0.21207 0.21207
#
# Static dielectric constant tensor:
#      x y z
#    x 3.360230 0.000000 0.000000 
#    y 0.000000 3.360230 0.000000 
#    z 0.000000 0.000000 3.432410 
# 
# 
# High freq. dielectric constant tensor:
#      x y z
#    x 1.718200 0.000000 0.000000 
#    y 0.000000 1.718200 0.000000 
#    z 0.000000 0.000000 1.731600 
# 
# From -- ./inp_files/5922.got.cif
#   From: 2010.03.12/outbox.cif.g09.slc.cpg/sg115_3_cif.got.tgz:5922.got - 2010.04.14 02:11:21.
