data_PCOD8309831
_publ_section_title
;
Structure prediction by ZEFSAII (Michael W. Deem and Ramdas Pophale) SiO2 
 PCOD8309831
Probable space group: P -4 M 2
;
_chemical_formula_sum "Si O2"
_cell_formula_units_Z 44
_cell_length_a 9.306678
_cell_length_b 9.306678
_cell_length_c 28.285825
_cell_angle_alpha 90.000000
_cell_angle_beta 90.000000
_cell_angle_gamma 90.000000
_cell_volume 2449.955671
_symmetry_space_group_name_H-M "P -4 M 2"
_symmetry_group_IT_number 115
_symmetry_cell_setting 'tetragonal'
loop_
_space_group_symop_operation_xyz
x,y,z
y,-x,-z
-x,-y,z
-y,x,-z
y,x,-z
-y,-x,-z
-x,y,z
x,-y,z
loop_
_atom_site_type_symbol
_atom_site_label
_atom_site_fract_x
_atom_site_fract_y
_atom_site_fract_z
Si Si1 0.333715 0.832270 0.906377
Si Si2 0.834146 0.669235 0.825364
Si Si3 0.828589 0.839910 0.448589
Si Si4 0.665374 0.332323 0.732658
Si Si5 0.835141 0.835141 0.000000
Si Si6 0.833695 0.667252 0.359350
O O1 0.500000 0.786198 0.905839
O O2 0.247850 0.745408 0.867477
O O3 0.267997 0.792515 0.957081
O O4 0.314761 0.000000 0.895613
O O5 0.817440 0.500000 0.832600
O O6 0.762009 0.718526 0.776403
O O7 0.000000 0.716853 0.825006
O O8 0.778682 0.778682 0.500000
O O9 0.769420 0.742170 0.406115
O O10 0.000000 0.841994 0.448881
O O11 0.767936 0.000000 0.440431
O O12 0.500000 0.291980 0.743725
O O13 0.683056 0.500000 0.722729
O O14 0.723325 0.249890 0.686631
O O15 0.000000 0.810614 0.984290
O O16 0.807844 0.500000 0.366568
O O17 0.000000 0.705819 0.352117
#
# Coordination Sequence:
#
# PCOD8309831 Si02
#       6
#     8   8   8   8   4   8
#     4  10  21  36  55  80 108 137 170 208 249 295
#     4  10  21  36  54  76 102 133 169 209 252 298
#     4   8  14  26  44  64  87 117 151 186 228 280
#     4   9  18  33  50  67  93 129 162 194 240 295
#     4   9  18  34  54  75 104 140 172 205 248 293
#     4   9  17  29  46  68  92 118 152 195 238 280
#
# _framework density 17.959510000000002
#
# number of rings (size 3 to 8) (size 9 to 14) (size 15 to 20)
#    0.000    2.818    0.000    1.636    0.000    4.364 
#    0.000    4.545    0.000    1.091    0.000    0.000 
#    0.000    0.000    0.000    0.000    0.000    0.000 
#
# Total GULP energy -545587.473182 kJ/mol
# GULP energy per Si atom -12399.715300 kJ/mol
# Density = 1.791863 g / cm^3
# Si number density = 17.959510 Si / 1000 Ang^3
#
#
#
# Elastic Constant Matrix: (Units=GPa)
#
#
# Indices 1 2 3 4 5 6 
#
# 1 72.8781 40.0910 76.2620 0.0000 0.0000 0.0000
# 2 40.0910 72.8781 76.2620 0.0000 0.0000 0.0000
# 3 76.2620 76.2620 179.0605 0.0000 0.0000 0.0000
# 4 0.0000 0.0000 0.0000 303.8531 0.0000 0.0000
# 5 0.0000 0.0000 0.0000 0.0000 303.8531 0.0000
# 6 0.0000 0.0000 0.0000 0.0000 0.0000 21.7096
#
#
#
# Elastic Compliance Matrix: (Units=1/GPa)
#
#
# Indices 1 2 3 4 5 6 
#
# 1 0.025665 -0.004835 -0.008871 0.000000 0.000000 0.000000
# 2 -0.004835 0.025665 -0.008871 0.000000 0.000000 0.000000
# 3 -0.008871 -0.008871 0.013141 0.000000 0.000000 0.000000
# 4 0.000000 0.000000 0.000000 0.003291 0.000000 0.000000
# 5 0.000000 0.000000 0.000000 0.000000 0.003291 0.000000
# 6 0.000000 0.000000 0.000000 0.000000 0.000000 0.046063
#
#
# Mechanical properties :
#
#
# Convention : Reuss Voigt Hill
#
# Bulk Modulus (GPa) = 51.77317 78.89409 65.33363
# Shear Modulus (GPa) = 29.63683 134.69658 82.16671
#
# Velocity S-wave (km/s) = 4.06668 8.66966 6.77129
# Velocity P-wave (km/s) = 7.13728 12.01006 9.87882
#
# Compressibility (1/GPa) = 0.01931502
#
# Stress axis : x y z
#
# Youngs Moduli (GPa) = 38.96416 38.96416 76.09627
#
# Poissons Ratio (x) = 0.18840 0.67507
# Poissons Ratio (y) = 0.18840 0.67507
# Poissons Ratio (z) = 0.34566 0.34566
#
# Static dielectric constant tensor:
#      x y z
#    x 2.476130 0.000000 0.000000 
#    y 0.000000 2.476130 0.000000 
#    z 0.000000 0.000000 3.580640 
# 
# 
# High freq. dielectric constant tensor:
#      x y z
#    x 1.681960 0.000000 0.000000 
#    y 0.000000 1.681960 0.000000 
#    z 0.000000 0.000000 1.709200 
# 
# From -- ./inp_files/5733.got.cif
#   From: 2010.03.12/outbox.cif.g09.slc.cpg/sg115_3_cif.got.tgz:5733.got - 2010.04.14 02:11:21.
