data_PCOD8309262
_publ_section_title
;
Structure prediction by ZEFSAII (Michael W. Deem and Ramdas Pophale) SiO2 
 PCOD8309262
Probable space group: P -4 M 2
;
_chemical_formula_sum "Si O2"
_cell_formula_units_Z 33
_cell_length_a 8.063708
_cell_length_b 8.063708
_cell_length_c 23.807989
_cell_angle_alpha 90.000000
_cell_angle_beta 90.000000
_cell_angle_gamma 90.000000
_cell_volume 1548.076076
_symmetry_space_group_name_H-M "P -4 M 2"
_symmetry_group_IT_number 115
_symmetry_cell_setting 'tetragonal'
loop_
_space_group_symop_operation_xyz
x,y,z
y,-x,-z
-x,-y,z
-y,x,-z
y,x,-z
-y,-x,-z
-x,y,z
x,-y,z
loop_
_atom_site_type_symbol
_atom_site_label
_atom_site_fract_x
_atom_site_fract_y
_atom_site_fract_z
Si Si1 0.810420 0.809976 0.732596
Si Si2 0.807327 0.192674 0.500000
Si Si3 0.680556 0.690372 0.845084
Si Si4 0.691147 0.189214 0.383517
Si Si5 0.000000 0.298006 0.914546
Si Si6 0.000000 0.000000 0.000000
O O1 0.708335 0.708942 0.778550
O O2 0.731405 0.784360 0.670318
O O3 0.000000 0.744692 0.732200
O O4 0.800398 0.000000 0.750116
O O5 0.731660 0.275922 0.443370
O O6 0.000000 0.234061 0.498084
O O7 0.500000 0.772153 0.860925
O O8 0.668134 0.500000 0.860262
O O9 0.836903 0.760391 0.879785
O O10 0.500000 0.204473 0.369899
O O11 0.752575 0.000000 0.389353
O O12 0.000000 0.500000 0.927795
O O13 0.000000 0.176989 0.967877
#
# Coordination Sequence:
#
# PCOD8309262 Si02
#       6
#     8   4   8   8   4   1
#     4  10  19  31  53  84 117 150 194 248 306 367
#     4   9  16  28  46  67  94 130 184 241 294 358
#     4  10  21  38  62  91 126 168 207 249 309 369
#     4   9  17  29  47  71 100 140 186 236 300 367
#     4  10  24  46  68  98 138 174 211 265 310 353
#     4  12  28  44  76 104 132 172 232 250 300 372
#
# _framework density 21.316780000000001
#
# number of rings (size 3 to 8) (size 9 to 14) (size 15 to 20)
#    0.000    2.303    1.212    1.455    1.697    5.333 
#    0.000    1.212    0.000    4.727    0.000    0.000 
#    0.000    0.000    0.000    0.000    0.000    0.000 
#
# Total GULP energy -408836.936085 kJ/mol
# GULP energy per Si atom -12388.998063 kJ/mol
# Density = 2.126826 g / cm^3
# Si number density = 21.316780 Si / 1000 Ang^3
#
#
#
# Elastic Constant Matrix: (Units=GPa)
#
#
# Indices 1 2 3 4 5 6 
#
# 1 76.5983 23.0988 45.4559 0.0000 0.0000 0.0000
# 2 23.0988 76.5977 45.4559 0.0000 0.0000 0.0000
# 3 45.4559 45.4559 140.9684 0.0000 0.0000 0.0000
# 4 0.0000 0.0000 0.0000 19.3926 0.0000 0.0000
# 5 0.0000 0.0000 0.0000 0.0000 19.3927 0.0000
# 6 0.0000 0.0000 0.0000 0.0000 0.0000 9.7118
#
#
#
# Elastic Compliance Matrix: (Units=1/GPa)
#
#
# Indices 1 2 3 4 5 6 
#
# 1 0.016450 -0.002242 -0.004581 0.000000 0.000000 0.000000
# 2 -0.002242 0.016450 -0.004582 0.000000 0.000000 0.000000
# 3 -0.004581 -0.004582 0.010048 0.000000 0.000000 0.000000
# 4 0.000000 0.000000 0.000000 0.051566 0.000000 0.000000
# 5 0.000000 0.000000 0.000000 0.000000 0.051566 0.000000
# 6 0.000000 0.000000 0.000000 0.000000 0.000000 0.102967
#
#
# Mechanical properties :
#
#
# Convention : Reuss Voigt Hill
#
# Bulk Modulus (GPa) = 49.65528 58.02064 53.83796
# Shear Modulus (GPa) = 17.94879 21.70967 19.82923
#
# Velocity S-wave (km/s) = 2.90488 3.19475 3.05325
# Velocity P-wave (km/s) = 5.88181 6.39421 6.14335
#
# Compressibility (1/GPa) = 0.02013884
#
# Stress axis : x y z
#
# Youngs Moduli (GPa) = 60.79037 60.78981 99.51788
#
# Poissons Ratio (x) = 0.13628 0.45594
# Poissons Ratio (y) = 0.13628 0.45594
# Poissons Ratio (z) = 0.27851 0.27851
#
# Static dielectric constant tensor:
#      x y z
#    x 3.792030 0.000000 0.000000 
#    y 0.000000 3.792040 0.000000 
#    z 0.000000 0.000000 3.940700 
# 
# 
# High freq. dielectric constant tensor:
#      x y z
#    x 1.815060 0.000000 0.000000 
#    y 0.000000 1.815060 0.000000 
#    z 0.000000 0.000000 1.837110 
# 
# From -- ./inp_files/4699.got.cif
#   From: 2010.03.12/outbox.cif.g09.slc.cpg/sg115_3_cif.got.tgz:4699.got - 2010.04.14 02:11:21.
