data_PCOD8309849
_publ_section_title
;
Structure prediction by ZEFSAII (Michael W. Deem and Ramdas Pophale) SiO2 
 PCOD8309849
Probable space group: P -4 M 2
;
_chemical_formula_sum "Si O2"
_cell_formula_units_Z 48
_cell_length_a 9.142078
_cell_length_b 9.142078
_cell_length_c 30.764900
_cell_angle_alpha 90.000000
_cell_angle_beta 90.000000
_cell_angle_gamma 90.000000
_cell_volume 2571.256203
_symmetry_space_group_name_H-M "P -4 M 2"
_symmetry_group_IT_number 115
_symmetry_cell_setting 'tetragonal'
loop_
_space_group_symop_operation_xyz
x,y,z
y,-x,-z
-x,-y,z
-y,x,-z
y,x,-z
-y,-x,-z
-x,y,z
x,-y,z
loop_
_atom_site_type_symbol
_atom_site_label
_atom_site_fract_x
_atom_site_fract_y
_atom_site_fract_z
Si Si1 0.166912 0.173223 0.296522
Si Si2 0.828017 0.331645 0.038352
Si Si3 0.171429 0.331507 0.461937
Si Si4 0.668339 0.670420 0.124789
Si Si5 0.329744 0.669733 0.626251
Si Si6 0.332379 0.828387 0.211021
O O1 0.260633 0.240107 0.334940
O O2 0.234408 0.227360 0.250991
O O3 0.000000 0.227818 0.299446
O O4 0.177766 0.000000 0.300323
O O5 0.783694 0.500000 0.030091
O O6 0.760769 0.275202 0.083600
O O7 0.000000 0.310471 0.040702
O O8 0.765860 0.234141 0.000000
O O9 0.229188 0.229188 0.500000
O O10 0.207444 0.500000 0.473152
O O11 0.251254 0.282563 0.418005
O O12 0.000000 0.305809 0.455676
O O13 0.500000 0.710271 0.115669
O O14 0.691184 0.500000 0.133131
O O15 0.726876 0.752638 0.167421
O O16 0.500000 0.693641 0.635790
O O17 0.288987 0.500000 0.622093
O O18 0.500000 0.782990 0.220342
O O19 0.316704 0.000000 0.204265
#
# Coordination Sequence:
#
# PCOD8309849 Si02
#       6
#     8   8   8   8   8   8
#     4  10  21  36  54  78 109 144 180 218 263 315
#     4  10  21  36  54  77 105 137 174 215 260 312
#     4  10  21  37  57  81 109 141 177 217 263 315
#     4   9  18  33  53  76 102 134 173 216 260 308
#     4  10  21  37  58  82 107 139 180 224 268 314
#     4   9  18  33  52  74 102 137 176 216 258 308
#
# _framework density 18.667919000000001
#
# number of rings (size 3 to 8) (size 9 to 14) (size 15 to 20)
#    0.000    2.333    0.000    2.000    0.000    6.667 
#    0.000    3.333    0.000    0.000    0.000    0.000 
#    0.000    0.000    0.000    0.000    0.000    0.000 
#
# Total GULP energy -595399.981824 kJ/mol
# GULP energy per Si atom -12404.166288 kJ/mol
# Density = 1.862543 g / cm^3
# Si number density = 18.667919 Si / 1000 Ang^3
#
#
#
# Elastic Constant Matrix: (Units=GPa)
#
#
# Indices 1 2 3 4 5 6 
#
# 1 73.8527 38.4949 66.8466 0.0000 0.0000 0.0000
# 2 38.4949 73.8541 66.8480 0.0000 0.0000 0.0000
# 3 66.8466 66.8480 168.8773 0.0000 0.0000 0.0000
# 4 0.0000 0.0000 0.0000 501.1444 0.0000 0.0000
# 5 0.0000 0.0000 0.0000 0.0000 500.7728 0.0000
# 6 0.0000 0.0000 0.0000 0.0000 0.0000 26.3291
#
#
#
# Elastic Compliance Matrix: (Units=1/GPa)
#
#
# Indices 1 2 3 4 5 6 
#
# 1 0.022555 -0.005727 -0.006661 0.000000 0.000000 0.000000
# 2 -0.005727 0.022554 -0.006661 0.000000 0.000000 0.000000
# 3 -0.006661 -0.006661 0.011195 0.000000 0.000000 0.000000
# 4 0.000000 0.000000 0.000000 0.001995 0.000000 0.000000
# 5 0.000000 0.000000 0.000000 0.000000 0.001997 0.000000
# 6 0.000000 0.000000 0.000000 0.000000 0.000000 0.037981
#
#
# Mechanical properties :
#
#
# Convention : Reuss Voigt Hill
#
# Bulk Modulus (GPa) = 54.92722 73.44034 64.18378
# Shear Modulus (GPa) = 35.10175 215.27556 125.18866
#
# Velocity S-wave (km/s) = 4.34098 10.75029 8.19795
# Velocity P-wave (km/s) = 7.39003 13.91106 11.13845
#
# Compressibility (1/GPa) = 0.01820591
#
# Stress axis : x y z
#
# Youngs Moduli (GPa) = 44.33697 44.33715 89.32900
#
# Poissons Ratio (x) = 0.25393 0.59499
# Poissons Ratio (y) = 0.25393 0.59501
# Poissons Ratio (z) = 0.29531 0.29532
#
# Static dielectric constant tensor:
#      x y z
#    x 3.417350 0.000000 0.000000 
#    y 0.000000 3.417350 0.000000 
#    z 0.000000 0.000000 3.578550 
# 
# 
# High freq. dielectric constant tensor:
#      x y z
#    x 1.721830 0.000000 0.000000 
#    y 0.000000 1.721830 0.000000 
#    z 0.000000 0.000000 1.737690 
# 
# From -- ./inp_files/5925.got.cif
#   From: 2010.03.12/outbox.cif.g09.slc.cpg/sg115_3_cif.got.tgz:5925.got - 2010.04.14 02:11:21.
