data_PCOD8309400
_publ_section_title
;
Structure prediction by ZEFSAII (Michael W. Deem and Ramdas Pophale) SiO2 
 PCOD8309400
Probable space group: P -4 M 2
;
_chemical_formula_sum "Si O2"
_cell_formula_units_Z 32
_cell_length_a 9.144339
_cell_length_b 9.144339
_cell_length_c 20.839075
_cell_angle_alpha 90.000000
_cell_angle_beta 90.000000
_cell_angle_gamma 90.000000
_cell_volume 1742.541273
_symmetry_space_group_name_H-M "P -4 M 2"
_symmetry_group_IT_number 115
_symmetry_cell_setting 'tetragonal'
loop_
_space_group_symop_operation_xyz
x,y,z
y,-x,-z
-x,-y,z
-y,x,-z
y,x,-z
-y,-x,-z
-x,y,z
x,-y,z
loop_
_atom_site_type_symbol
_atom_site_label
_atom_site_fract_x
_atom_site_fract_y
_atom_site_fract_z
Si Si1 0.330729 0.828028 0.556881
Si Si2 0.335456 0.326244 0.315641
Si Si3 0.674332 0.663115 0.929799
Si Si4 0.835614 0.674608 0.192261
O O1 0.232403 0.767597 0.500000
O O2 0.500000 0.789098 0.543370
O O3 0.274218 0.753261 0.622085
O O4 0.307420 0.000000 0.563905
O O5 0.500000 0.263489 0.318934
O O6 0.337884 0.500000 0.312444
O O7 0.256789 0.263665 0.252205
O O8 0.500000 0.657828 0.928385
O O9 0.736320 0.500000 0.917910
O O10 0.735784 0.767254 0.873889
O O11 0.723320 0.723320 0.000000
O O12 0.833556 0.500000 0.192461
O O13 0.000000 0.734318 0.198031
#
# Coordination Sequence:
#
# PCOD8309400 Si02
#       4
#     8   8   8   8
#     4  10  20  33  49  70  96 126 161 200 241 287
#     4   9  16  26  42  64  91 123 156 191 234 283
#     4   8  13  21  33  50  75 109 147 184 224 274
#     4   9  15  22  34  56  87 118 147 185 234 281
#
# _framework density 18.363983000000001
#
# number of rings (size 3 to 8) (size 9 to 14) (size 15 to 20)
#    0.000    3.000    0.000    3.000    0.000    7.500 
#    0.000    0.000    0.000    0.000    0.000    1.750 
#    0.000   10.500    0.000    0.000    0.000    0.000 
#
# Total GULP energy -396695.668287 kJ/mol
# GULP energy per Si atom -12396.739634 kJ/mol
# Density = 1.832219 g / cm^3
# Si number density = 18.363983 Si / 1000 Ang^3
#
#
#
# Elastic Constant Matrix: (Units=GPa)
#
#
# Indices 1 2 3 4 5 6 
#
# 1 74.8665 26.0909 59.6482 0.0000 0.0000 0.0000
# 2 26.0909 74.8665 59.6482 0.0000 0.0000 0.0000
# 3 59.6482 59.6482 193.4302 0.0000 0.0000 0.0000
# 4 0.0000 0.0000 0.0000 4.1558 0.0000 0.0000
# 5 0.0000 0.0000 0.0000 0.0000 4.1558 0.0000
# 6 0.0000 0.0000 0.0000 0.0000 0.0000 10.2153
#
#
#
# Elastic Compliance Matrix: (Units=1/GPa)
#
#
# Indices 1 2 3 4 5 6 
#
# 1 0.018043 -0.002459 -0.004806 0.000000 0.000000 0.000000
# 2 -0.002459 0.018043 -0.004806 0.000000 0.000000 0.000000
# 3 -0.004806 -0.004806 0.008134 0.000000 0.000000 0.000000
# 4 0.000000 0.000000 0.000000 0.240628 0.000000 0.000000
# 5 0.000000 0.000000 0.000000 0.000000 0.240628 0.000000
# 6 0.000000 0.000000 0.000000 0.000000 0.000000 0.097892
#
#
# Mechanical properties :
#
#
# Convention : Reuss Voigt Hill
#
# Bulk Modulus (GPa) = 49.80400 70.43755 60.12077
# Shear Modulus (GPa) = 7.64291 16.89043 12.26667
#
# Velocity S-wave (km/s) = 2.04229 3.03604 2.58732
# Velocity P-wave (km/s) = 5.72194 7.12248 6.46027
#
# Compressibility (1/GPa) = 0.02007871
#
# Stress axis : x y z
#
# Youngs Moduli (GPa) = 55.42362 55.42362 122.94689
#
# Poissons Ratio (x) = 0.13630 0.59083
# Poissons Ratio (y) = 0.13630 0.59083
# Poissons Ratio (z) = 0.26634 0.26634
#
# Static dielectric constant tensor:
#      x y z
#    x 3.061040 0.000000 0.000000 
#    y 0.000000 3.061040 0.000000 
#    z 0.000000 0.000000 3.730350 
# 
# 
# High freq. dielectric constant tensor:
#      x y z
#    x 1.668930 0.000000 0.000000 
#    y 0.000000 1.668930 0.000000 
#    z 0.000000 0.000000 1.734360 
# 
# From -- ./inp_files/4575.got.cif
#   From: 2010.03.12/outbox.cif.g09.slc.cpg/sg115_3_cif.got.tgz:4575.got - 2010.04.14 02:11:21.
