data_PCOD8309310
_publ_section_title
;
Structure prediction by ZEFSAII (Michael W. Deem and Ramdas Pophale) SiO2 
 PCOD8309310
Probable space group: P -4 M 2
;
_chemical_formula_sum "Si O2"
_cell_formula_units_Z 60
_cell_length_a 13.307121
_cell_length_b 13.307121
_cell_length_c 18.949156
_cell_angle_alpha 90.000000
_cell_angle_beta 90.000000
_cell_angle_gamma 90.000000
_cell_volume 3355.506488
_symmetry_space_group_name_H-M "P -4 M 2"
_symmetry_group_IT_number 115
_symmetry_cell_setting 'tetragonal'
loop_
_space_group_symop_operation_xyz
x,y,z
y,-x,-z
-x,-y,z
-y,x,-z
y,x,-z
-y,-x,-z
-x,y,z
x,-y,z
loop_
_atom_site_type_symbol
_atom_site_label
_atom_site_fract_x
_atom_site_fract_y
_atom_site_fract_z
Si Si1 0.744964 0.883589 0.040075
Si Si2 0.242558 0.244163 0.823467
Si Si3 0.115352 0.114985 0.283854
Si Si4 0.383539 0.616366 0.252867
Si Si5 0.205551 0.115627 0.570097
Si Si6 0.611202 0.765081 0.620111
Si Si7 0.388949 0.117340 0.911630
Si Si8 0.392315 0.607685 0.500000
O O1 0.725074 0.834403 0.115544
O O2 0.761624 0.000000 0.053061
O O3 0.843964 0.843964 0.000000
O O4 0.650455 0.858536 0.990173
O O5 0.184183 0.194520 0.757783
O O6 0.304886 0.345474 0.805859
O O7 0.321191 0.162395 0.850404
O O8 0.132700 0.123608 0.368328
O O9 0.000000 0.145785 0.265345
O O10 0.134991 0.000000 0.262055
O O11 0.500000 0.639332 0.271141
O O12 0.372205 0.500000 0.228667
O O13 0.310280 0.641093 0.317693
O O14 0.179730 0.179730 0.500000
O O15 0.310984 0.145260 0.607125
O O16 0.210963 0.000000 0.546581
O O17 0.500000 0.811312 0.633215
O O18 0.613215 0.700083 0.550759
O O19 0.500000 0.163715 0.905881
O O20 0.389744 0.000000 0.897788
O O21 0.500000 0.612880 0.459041
#
# Coordination Sequence:
#
# PCOD8309310 Si02
#       8
#     8   8   8   8   8   8   8   4
#     4   9  19  33  51  77 107 141 181 220 265 323
#     4  11  19  33  55  81 108 139 179 227 279 322
#     4  10  21  36  55  80 109 142 182 228 275 326
#     4  10  21  36  54  78 108 142 181 225 275 331
#     4  11  22  38  58  81 109 146 188 224 267 328
#     4  10  19  34  55  79 107 139 175 222 275 322
#     4   9  18  33  52  75 106 141 175 214 265 327
#     4   9  16  28  52  80 101 128 172 218 261 316
#
# _framework density 17.881056999999998
#
# number of rings (size 3 to 8) (size 9 to 14) (size 15 to 20)
#    0.000    2.067    2.000    2.000    0.000    3.733 
#    0.000    0.000    0.000    1.200    0.000    6.533 
#    0.000    0.000    0.000    0.000    0.000    0.000 
#
# Total GULP energy -743660.489603 kJ/mol
# GULP energy per Si atom -12394.341493 kJ/mol
# Density = 1.784036 g / cm^3
# Si number density = 17.881057 Si / 1000 Ang^3
#
#
#
# Elastic Constant Matrix: (Units=GPa)
#
#
# Indices 1 2 3 4 5 6 
#
# 1 89.9823 43.1817 38.4121 0.0000 0.0000 0.0000
# 2 43.1817 89.9823 38.4121 0.0000 0.0000 0.0000
# 3 38.4121 38.4121 84.6969 0.0000 0.0000 0.0000
# 4 0.0000 0.0000 0.0000 68.1503 0.0000 0.0000
# 5 0.0000 0.0000 0.0000 0.0000 68.1503 0.0000
# 6 0.0000 0.0000 0.0000 0.0000 0.0000 28.4391
#
#
#
# Elastic Compliance Matrix: (Units=1/GPa)
#
#
# Indices 1 2 3 4 5 6 
#
# 1 0.015769 -0.005598 -0.004613 0.000000 0.000000 0.000000
# 2 -0.005598 0.015769 -0.004613 0.000000 0.000000 0.000000
# 3 -0.004613 -0.004613 0.015991 0.000000 0.000000 0.000000
# 4 0.000000 0.000000 0.000000 0.014673 0.000000 0.000000
# 5 0.000000 0.000000 0.000000 0.000000 0.014673 0.000000
# 6 0.000000 0.000000 0.000000 0.000000 0.000000 0.035163
#
#
# Mechanical properties :
#
#
# Convention : Reuss Voigt Hill
#
# Bulk Modulus (GPa) = 55.92396 56.07484 55.99940
# Shear Modulus (GPa) = 33.86479 42.59164 38.22822
#
# Velocity S-wave (km/s) = 4.35661 4.88581 4.62878
# Velocity P-wave (km/s) = 7.52663 7.95337 7.74294
#
# Compressibility (1/GPa) = 0.01788142
#
# Stress axis : x y z
#
# Youngs Moduli (GPa) = 63.41584 63.41584 62.53638
#
# Poissons Ratio (x) = 0.35502 0.28846
# Poissons Ratio (y) = 0.35502 0.28846
# Poissons Ratio (z) = 0.29251 0.29251
#
# Static dielectric constant tensor:
#      x y z
#    x 3.428110 0.000000 0.000000 
#    y 0.000000 3.428110 0.000000 
#    z 0.000000 0.000000 3.290700 
# 
# 
# High freq. dielectric constant tensor:
#      x y z
#    x 1.689920 0.000000 0.000000 
#    y 0.000000 1.689920 0.000000 
#    z 0.000000 0.000000 1.691980 
# 
# From -- ./inp_files/4992.got.cif
#   From: 2010.03.12/outbox.cif.g09.slc.cpg/sg115_3_cif.got.tgz:4992.got - 2010.04.14 02:11:21.
