data_PCOD8309618
_publ_section_title
;
Structure prediction by ZEFSAII (Michael W. Deem and Ramdas Pophale) SiO2 
 PCOD8309618
Probable space group: P -4 M 2
;
_chemical_formula_sum "Si O2"
_cell_formula_units_Z 48
_cell_length_a 9.105207
_cell_length_b 9.105207
_cell_length_c 30.861913
_cell_angle_alpha 90.000000
_cell_angle_beta 90.000000
_cell_angle_gamma 90.000000
_cell_volume 2558.600556
_symmetry_space_group_name_H-M "P -4 M 2"
_symmetry_group_IT_number 115
_symmetry_cell_setting 'tetragonal'
loop_
_space_group_symop_operation_xyz
x,y,z
y,-x,-z
-x,-y,z
-y,x,-z
y,x,-z
-y,-x,-z
-x,y,z
x,-y,z
loop_
_atom_site_type_symbol
_atom_site_label
_atom_site_fract_x
_atom_site_fract_y
_atom_site_fract_z
Si Si1 0.671999 0.829714 0.212163
Si Si2 0.168263 0.327383 0.038283
Si Si3 0.829423 0.672374 0.290007
Si Si4 0.672106 0.170816 0.368435
Si Si5 0.674477 0.336630 0.452831
Si Si6 0.168692 0.170099 0.124972
O O1 0.500000 0.798326 0.213806
O O2 0.750741 0.731407 0.247503
O O3 0.731989 0.782198 0.165359
O O4 0.707670 0.000000 0.221557
O O5 0.187420 0.500000 0.040835
O O6 0.223735 0.260810 0.083594
O O7 0.000000 0.280889 0.029761
O O8 0.267486 0.267486 0.000000
O O9 0.802541 0.500000 0.293221
O O10 0.761619 0.746002 0.332077
O O11 0.000000 0.712853 0.287251
O O12 0.500000 0.202966 0.361725
O O13 0.728151 0.228046 0.415093
O O14 0.707477 0.000000 0.365247
O O15 0.725336 0.274665 0.500000
O O16 0.500000 0.345614 0.453842
O O17 0.738981 0.500000 0.444078
O O18 0.000000 0.206520 0.136386
O O19 0.190207 0.000000 0.113762
#
# Coordination Sequence:
#
# PCOD8309618 Si02
#       6
#     8   8   8   8   8   8
#     4  10  21  37  58  84 111 139 173 214 262 317
#     4  10  21  36  55  80 110 144 182 224 268 314
#     4  11  24  39  55  77 105 139 179 221 265 313
#     4  10  20  34  54  80 108 139 176 217 263 315
#     4   8  14  27  49  75 103 138 178 217 258 306
#     4   9  18  34  56  80 108 144 182 218 259 311
#
# _framework density 18.760255000000001
#
# number of rings (size 3 to 8) (size 9 to 14) (size 15 to 20)
#    0.000    2.333    0.000    3.000    0.000    7.667 
#    0.000    4.167    0.000    3.000    0.000    0.000 
#    0.000    0.000    0.000    0.000    0.000    0.000 
#
# Total GULP energy -595289.690687 kJ/mol
# GULP energy per Si atom -12401.868556 kJ/mol
# Density = 1.871756 g / cm^3
# Si number density = 18.760255 Si / 1000 Ang^3
#
#
#
# Elastic Constant Matrix: (Units=GPa)
#
#
# Indices 1 2 3 4 5 6 
#
# 1 81.6038 56.6026 76.7390 0.0000 0.0000 0.0000
# 2 56.6026 81.6039 76.7390 0.0000 0.0000 0.0000
# 3 76.7390 76.7390 176.0098 0.0000 0.0000 0.0000
# 4 0.0000 0.0000 0.0000 35.7241 0.0000 0.0000
# 5 0.0000 0.0000 0.0000 0.0000 35.7240 0.0000
# 6 0.0000 0.0000 0.0000 0.0000 0.0000 25.1736
#
#
#
# Elastic Compliance Matrix: (Units=1/GPa)
#
#
# Indices 1 2 3 4 5 6 
#
# 1 0.027012 -0.012985 -0.006116 0.000000 0.000000 0.000000
# 2 -0.012985 0.027012 -0.006116 0.000000 0.000000 0.000000
# 3 -0.006116 -0.006116 0.011014 0.000000 0.000000 0.000000
# 4 0.000000 0.000000 0.000000 0.027992 0.000000 0.000000
# 5 0.000000 0.000000 0.000000 0.000000 0.027992 0.000000
# 6 0.000000 0.000000 0.000000 0.000000 0.000000 0.039724
#
#
# Mechanical properties :
#
#
# Convention : Reuss Voigt Hill
#
# Bulk Modulus (GPa) = 68.46695 84.37540 76.42118
# Shear Modulus (GPa) = 23.14279 27.93347 25.53813
#
# Velocity S-wave (km/s) = 3.51608 3.86290 3.69357
# Velocity P-wave (km/s) = 7.28415 8.06035 7.68206
#
# Compressibility (1/GPa) = 0.01460559
#
# Stress axis : x y z
#
# Youngs Moduli (GPa) = 37.01998 37.02005 90.79127
#
# Poissons Ratio (x) = 0.48072 0.55525
# Poissons Ratio (y) = 0.48072 0.55525
# Poissons Ratio (z) = 0.22640 0.22640
#
# Static dielectric constant tensor:
#      x y z
#    x 3.392470 0.000000 0.000000 
#    y 0.000000 3.392470 0.000000 
#    z 0.000000 0.000000 3.771090 
# 
# 
# High freq. dielectric constant tensor:
#      x y z
#    x 1.718730 0.000000 0.000000 
#    y 0.000000 1.718730 0.000000 
#    z 0.000000 0.000000 1.746220 
# 
# From -- ./inp_files/6072.got.cif
#   From: 2010.03.12/outbox.cif.g09.slc.cpg/sg115_4_cif.got.tgz:6072.got - 2010.04.14 02:11:21.
