data_PCOD8309005
_publ_section_title
;
Structure prediction by ZEFSAII (Michael W. Deem and Ramdas Pophale) SiO2 
 PCOD8309005
Probable space group: P -4 21 C
;
_chemical_formula_sum "Si O2"
_cell_formula_units_Z 34
_cell_length_a 8.464795
_cell_length_b 8.464795
_cell_length_c 21.382963
_cell_angle_alpha 90.000000
_cell_angle_beta 90.000000
_cell_angle_gamma 90.000000
_cell_volume 1532.148196
_symmetry_space_group_name_H-M "P -4 21 C"
_symmetry_group_IT_number 114
_symmetry_cell_setting 'tetragonal'
loop_
_space_group_symop_operation_xyz
x,y,z
y,-x,-z
-x,-y,z
-y,x,-z
1/2+x,1/2-y,1/2-z
1/2-x,1/2+y,1/2-z
1/2-y,1/2-x,1/2+z
1/2+y,1/2+x,1/2+z
loop_
_atom_site_type_symbol
_atom_site_label
_atom_site_fract_x
_atom_site_fract_y
_atom_site_fract_z
Si Si1 0.000000 0.500000 0.382443
Si Si2 0.302155 0.648069 0.400283
Si Si3 0.000000 0.000000 0.796893
Si Si4 0.500000 0.500000 0.500000
Si Si5 0.244086 0.885613 0.710798
Si Si6 0.820873 0.550103 0.177703
O O1 0.855265 0.441097 0.425269
O O2 0.972370 0.655837 0.341305
O O3 0.349933 0.535746 0.341196
O O4 0.428032 0.638430 0.456441
O O5 0.277962 0.829871 0.379220
O O6 0.154862 0.019787 0.752703
O O7 0.363638 0.789736 0.755867
O O8 0.110450 0.780114 0.676640
O O9 0.000000 0.500000 0.169342
#
# Coordination Sequence:
#
# PCOD8309005 Si02
#       6
#     4   8   4   2   8   8
#     4  12  24  38  64  98 136 170 210 274 334 412
#     4  10  24  43  66  94 120 173 231 283 342 390
#     4   9  20  35  62  88 132 173 216 245 314 408
#     4  10  24  52  76  84 124 176 236 310 348 390
#     4  11  22  35  58  98 144 183 203 259 323 405
#     4  11  24  37  62  99 141 184 221 259 321 415
#
# _framework density 22.191064999999998
#
# number of rings (size 3 to 8) (size 9 to 14) (size 15 to 20)
#    0.000    1.412    1.176    4.235   16.471    0.000 
#    2.118    0.000    0.000    0.000    0.000    0.000 
#    0.000    0.000    0.000    0.000    0.000    0.000 
#
# Total GULP energy -421262.435603 kJ/mol
# GULP energy per Si atom -12390.071635 kJ/mol
# Density = 2.214056 g / cm^3
# Si number density = 22.191065 Si / 1000 Ang^3
#
#
#
# Elastic Constant Matrix: (Units=GPa)
#
#
# Indices 1 2 3 4 5 6 
#
# 1 115.8568 45.5266 20.9384 0.0000 0.0000 0.0000
# 2 45.5266 115.8568 20.9384 0.0000 0.0000 0.0000
# 3 20.9384 20.9384 61.9750 0.0000 0.0000 0.0000
# 4 0.0000 0.0000 0.0000 12.9826 0.0000 0.0000
# 5 0.0000 0.0000 0.0000 0.0000 12.9826 0.0000
# 6 0.0000 0.0000 0.0000 0.0000 0.0000 53.9188
#
#
#
# Elastic Compliance Matrix: (Units=1/GPa)
#
#
# Indices 1 2 3 4 5 6 
#
# 1 0.010505 -0.003713 -0.002295 0.000000 0.000000 0.000000
# 2 -0.003713 0.010505 -0.002295 0.000000 0.000000 0.000000
# 3 -0.002295 -0.002295 0.017686 0.000000 0.000000 0.000000
# 4 0.000000 0.000000 0.000000 0.077026 0.000000 0.000000
# 5 0.000000 0.000000 0.000000 0.000000 0.077026 0.000000
# 6 0.000000 0.000000 0.000000 0.000000 0.000000 0.018546
#
#
# Mechanical properties :
#
#
# Convention : Reuss Voigt Hill
#
# Bulk Modulus (GPa) = 45.26693 52.05502 48.66098
# Shear Modulus (GPa) = 21.25265 29.72913 25.49089
#
# Velocity S-wave (km/s) = 3.09805 3.66415 3.39293
# Velocity P-wave (km/s) = 5.76543 6.43505 6.10942
#
# Compressibility (1/GPa) = 0.02209118
#
# Stress axis : x y z
#
# Youngs Moduli (GPa) = 95.19051 95.19051 56.54174
#
# Poissons Ratio (x) = 0.35348 0.12974
# Poissons Ratio (y) = 0.35348 0.12974
# Poissons Ratio (z) = 0.21843 0.21843
#
# Static dielectric constant tensor:
#      x y z
#    x 4.292270 0.000000 0.000000 
#    y 0.000000 4.292270 0.000000 
#    z 0.000000 0.000000 3.492870 
# 
# 
# High freq. dielectric constant tensor:
#      x y z
#    x 1.890270 0.000000 0.000000 
#    y 0.000000 1.890270 0.000000 
#    z 0.000000 0.000000 1.813110 
# 
# From -- ./inp_files/3022.got.cif
#   From: 2010.03.12/outbox.cif.g09.slc.cpg/sg114_2_cif.got.tgz:3022.got - 2010.04.14 02:08:34.
