data_PCOD8309239
_publ_section_title
;
Structure prediction by ZEFSAII (Michael W. Deem and Ramdas Pophale) SiO2 
 PCOD8309239
Probable space group: P -4 M 2
;
_chemical_formula_sum "Si O2"
_cell_formula_units_Z 64
_cell_length_a 13.855912
_cell_length_b 13.855912
_cell_length_c 18.550680
_cell_angle_alpha 90.000000
_cell_angle_beta 90.000000
_cell_angle_gamma 90.000000
_cell_volume 3561.476367
_symmetry_space_group_name_H-M "P -4 M 2"
_symmetry_group_IT_number 115
_symmetry_cell_setting 'tetragonal'
loop_
_space_group_symop_operation_xyz
x,y,z
y,-x,-z
-x,-y,z
-y,x,-z
y,x,-z
-y,-x,-z
-x,y,z
x,-y,z
loop_
_atom_site_type_symbol
_atom_site_label
_atom_site_fract_x
_atom_site_fract_y
_atom_site_fract_z
Si Si1 0.249158 0.112533 0.043014
Si Si2 0.889717 0.112720 0.716768
Si Si3 0.244700 0.228407 0.824908
Si Si4 0.708544 0.390434 0.276865
Si Si5 0.889371 0.796391 0.433557
Si Si6 0.385253 0.393405 0.577653
Si Si7 0.391769 0.889243 0.918038
Si Si8 0.394081 0.107326 0.643376
O O1 0.271581 0.171581 0.116090
O O2 0.225128 0.000000 0.059282
O O3 0.157778 0.157778 0.000000
O O4 0.346785 0.123083 0.997463
O O5 0.819532 0.170221 0.768781
O O6 0.861967 0.137559 0.634919
O O7 0.000000 0.144401 0.730297
O O8 0.875563 0.000000 0.732725
O O9 0.309086 0.312421 0.784408
O O10 0.324865 0.161686 0.860440
O O11 0.671850 0.500000 0.257135
O O12 0.668528 0.353028 0.353601
O O13 0.824390 0.389518 0.286665
O O14 0.822599 0.822599 0.500000
O O15 0.867862 0.684338 0.417136
O O16 0.000000 0.813884 0.455557
O O17 0.349912 0.349912 0.500000
O O18 0.500000 0.397597 0.573532
O O19 0.342230 0.500000 0.589864
O O20 0.500000 0.844554 0.918180
O O21 0.396000 0.000000 0.895903
O O22 0.500000 0.117278 0.606688
O O23 0.375175 0.000000 0.673673
#
# Coordination Sequence:
#
# PCOD8309239 Si02
#       8
#     8   8   8   8   8   8   8   8
#     4   9  19  34  52  73 100 129 163 199 238 291
#     4  10  20  32  46  68  99 134 172 211 250 294
#     4  11  19  31  47  74 103 133 159 197 247 299
#     4  10  19  30  47  74 103 131 164 203 250 300
#     4  10  19  32  49  69  94 133 180 219 254 296
#     4   8  15  30  51  72  95 125 163 209 256 298
#     4   9  18  33  53  74  95 124 163 204 242 283
#     4   9  18  32  48  68  96 127 162 207 257 303
#
# _framework density 17.970075000000001
#
# number of rings (size 3 to 8) (size 9 to 14) (size 15 to 20)
#    0.000    2.500    1.250    1.875    0.000    2.250 
#    0.000    1.875    0.000    0.000    0.000    0.000 
#    0.000   17.250    0.000    0.000    0.000    0.000 
#
# Total GULP energy -793076.036487 kJ/mol
# GULP energy per Si atom -12391.813070 kJ/mol
# Density = 1.792917 g / cm^3
# Si number density = 17.970075 Si / 1000 Ang^3
#
#
#
# Elastic Constant Matrix: (Units=GPa)
#
#
# Indices 1 2 3 4 5 6 
#
# 1 79.9596 19.2211 35.5606 0.0000 0.0000 0.0000
# 2 19.2211 79.9596 35.5606 0.0000 0.0000 0.0000
# 3 35.5606 35.5606 100.1041 0.0000 0.0000 0.0000
# 4 0.0000 0.0000 0.0000 23.8525 0.0000 0.0000
# 5 0.0000 0.0000 0.0000 0.0000 23.8525 0.0000
# 6 0.0000 0.0000 0.0000 0.0000 0.0000 16.1388
#
#
#
# Elastic Compliance Matrix: (Units=1/GPa)
#
#
# Indices 1 2 3 4 5 6 
#
# 1 0.014996 -0.001468 -0.004806 0.000000 0.000000 0.000000
# 2 -0.001468 0.014996 -0.004806 0.000000 0.000000 0.000000
# 3 -0.004806 -0.004806 0.013404 0.000000 0.000000 0.000000
# 4 0.000000 0.000000 0.000000 0.041924 0.000000 0.000000
# 5 0.000000 0.000000 0.000000 0.000000 0.041924 0.000000
# 6 0.000000 0.000000 0.000000 0.000000 0.000000 0.061963
#
#
# Mechanical properties :
#
#
# Convention : Reuss Voigt Hill
#
# Bulk Modulus (GPa) = 47.08522 48.96752 48.02637
# Shear Modulus (GPa) = 22.88890 24.08083 23.48487
#
# Velocity S-wave (km/s) = 3.57280 3.66464 3.61901
# Velocity P-wave (km/s) = 6.57866 6.72419 6.65182
#
# Compressibility (1/GPa) = 0.02123809
#
# Stress axis : x y z
#
# Youngs Moduli (GPa) = 66.68240 66.68240 74.60403
#
# Poissons Ratio (x) = 0.09786 0.35854
# Poissons Ratio (y) = 0.09786 0.35854
# Poissons Ratio (z) = 0.32047 0.32047
#
# Static dielectric constant tensor:
#      x y z
#    x 3.381030 0.000000 0.000000 
#    y 0.000000 3.381030 0.000000 
#    z 0.000000 0.000000 3.426000 
# 
# 
# High freq. dielectric constant tensor:
#      x y z
#    x 1.682670 0.000000 0.000000 
#    y 0.000000 1.682670 0.000000 
#    z 0.000000 0.000000 1.691530 
# 
# From -- ./inp_files/4484.got.cif
#   From: 2010.03.12/outbox.cif.g09.slc.cpg/sg115_3_cif.got.tgz:4484.got - 2010.04.14 02:11:21.
