data_PCOD8309727
_publ_section_title
;
Structure prediction by ZEFSAII (Michael W. Deem and Ramdas Pophale) SiO2 
 PCOD8309727
Probable space group: P -4 M 2
;
_chemical_formula_sum "Si O2"
_cell_formula_units_Z 48
_cell_length_a 8.220823
_cell_length_b 8.220823
_cell_length_c 33.847538
_cell_angle_alpha 90.000000
_cell_angle_beta 90.000000
_cell_angle_gamma 90.000000
_cell_volume 2287.481971
_symmetry_space_group_name_H-M "P -4 M 2"
_symmetry_group_IT_number 115
_symmetry_cell_setting 'tetragonal'
loop_
_space_group_symop_operation_xyz
x,y,z
y,-x,-z
-x,-y,z
-y,x,-z
y,x,-z
-y,-x,-z
-x,y,z
x,-y,z
loop_
_atom_site_type_symbol
_atom_site_label
_atom_site_fract_x
_atom_site_fract_y
_atom_site_fract_z
Si Si1 0.815266 0.000000 0.139110
Si Si2 0.688403 0.821448 0.262985
Si Si3 0.312958 0.312958 0.000000
Si Si4 0.307770 0.680717 0.182634
Si Si5 0.679504 0.812814 0.419540
Si Si6 0.687304 0.312697 0.500000
Si Si7 0.684209 0.000000 0.054798
Si Si8 0.815752 0.683621 0.341604
O O1 0.738458 0.168852 0.154512
O O2 0.803164 0.000000 0.091910
O O3 0.000000 0.000000 0.152590
O O4 0.500000 0.843573 0.254457
O O5 0.761651 0.715847 0.226873
O O6 0.706185 0.736967 0.305139
O O7 0.771954 0.000000 0.263469
O O8 0.168994 0.283693 0.968522
O O9 0.294784 0.500000 0.017013
O O10 0.500000 0.670162 0.182873
O O11 0.240525 0.500000 0.169455
O O12 0.500000 0.732406 0.413177
O O13 0.770411 0.745186 0.459005
O O14 0.786809 0.787144 0.380815
O O15 0.657526 0.000000 0.427016
O O16 0.500000 0.271189 0.494642
O O17 0.500000 0.000000 0.070313
O O18 0.773003 0.500000 0.352779
O O19 0.000000 0.706486 0.327748
#
# Coordination Sequence:
#
# PCOD8309727 Si02
#       8
#     4   8   4   8   8   4   4   8
#     4  12  26  40  60  96 136 176 214 266 330 393
#     4  10  20  37  63  89 114 149 198 250 301 361
#     4   9  20  39  64  96 130 171 222 275 336 398
#     4  10  21  41  67  90 121 168 220 270 318 379
#     4  10  21  37  57  81 108 139 179 225 275 337
#     4   9  18  34  56  79 104 138 176 219 272 329
#     4  10  22  40  66  94 128 172 220 273 325 388
#     4  11  24  38  53  79 114 149 187 234 288 345
#
# _framework density 20.983774
#
# number of rings (size 3 to 8) (size 9 to 14) (size 15 to 20)
#    0.000    1.833    0.833    2.750    1.167    7.667 
#    0.000    3.333    0.000    0.000    0.000    0.000 
#    0.000    0.000    0.000    0.000    0.000    0.000 
#
# Total GULP energy -594786.241735 kJ/mol
# GULP energy per Si atom -12391.380036 kJ/mol
# Density = 2.093601 g / cm^3
# Si number density = 20.983774 Si / 1000 Ang^3
#
#
#
# Elastic Constant Matrix: (Units=GPa)
#
#
# Indices 1 2 3 4 5 6 
#
# 1 73.9751 39.0051 39.9971 0.0000 0.0000 0.0000
# 2 39.0051 73.9730 39.9966 0.0000 0.0000 0.0000
# 3 39.9971 39.9966 134.0386 0.0000 0.0000 0.0000
# 4 0.0000 0.0000 0.0000 9.3671 0.0000 0.0000
# 5 0.0000 0.0000 0.0000 0.0000 9.3681 0.0000
# 6 0.0000 0.0000 0.0000 0.0000 0.0000 19.2015
#
#
#
# Elastic Compliance Matrix: (Units=1/GPa)
#
#
# Indices 1 2 3 4 5 6 
#
# 1 0.019909 -0.008687 -0.003349 0.000000 0.000000 0.000000
# 2 -0.008687 0.019910 -0.003349 0.000000 0.000000 0.000000
# 3 -0.003349 -0.003349 0.009459 0.000000 0.000000 0.000000
# 4 0.000000 0.000000 0.000000 0.106756 0.000000 0.000000
# 5 0.000000 0.000000 0.000000 0.000000 0.106745 0.000000
# 6 0.000000 0.000000 0.000000 0.000000 0.000000 0.052079
#
#
# Mechanical properties :
#
#
# Convention : Reuss Voigt Hill
#
# Bulk Modulus (GPa) = 54.02871 57.77603 55.90237
# Shear Modulus (GPa) = 14.21271 18.45321 16.33296
#
# Velocity S-wave (km/s) = 2.60536 2.96869 2.79294
# Velocity P-wave (km/s) = 5.90375 6.27250 6.09092
#
# Compressibility (1/GPa) = 0.01850868
#
# Stress axis : x y z
#
# Youngs Moduli (GPa) = 50.22804 50.22659 105.71924
#
# Poissons Ratio (x) = 0.43633 0.35402
# Poissons Ratio (y) = 0.43635 0.35402
# Poissons Ratio (z) = 0.16820 0.16819
#
# Static dielectric constant tensor:
#      x y z
#    x 4.242170 0.000000 0.000000 
#    y 0.000000 4.242170 0.000000 
#    z 0.000000 0.000000 3.652880 
# 
# 
# High freq. dielectric constant tensor:
#      x y z
#    x 1.819110 0.000000 0.000000 
#    y 0.000000 1.819110 0.000000 
#    z 0.000000 0.000000 1.818000 
# 
# From -- ./inp_files/6325.got.cif
#   From: 2010.03.12/outbox.cif.g09.slc.cpg/sg115_4_cif.got.tgz:6325.got - 2010.04.14 02:11:21.
