data_PCOD8309843
_publ_section_title
;
Structure prediction by ZEFSAII (Michael W. Deem and Ramdas Pophale) SiO2 
 PCOD8309843
Probable space group: P -4 M 2
;
_chemical_formula_sum "Si O2"
_cell_formula_units_Z 48
_cell_length_a 9.086021
_cell_length_b 9.086021
_cell_length_c 30.876888
_cell_angle_alpha 90.000000
_cell_angle_beta 90.000000
_cell_angle_gamma 90.000000
_cell_volume 2549.065499
_symmetry_space_group_name_H-M "P -4 M 2"
_symmetry_group_IT_number 115
_symmetry_cell_setting 'tetragonal'
loop_
_space_group_symop_operation_xyz
x,y,z
y,-x,-z
-x,-y,z
-y,x,-z
y,x,-z
-y,-x,-z
-x,y,z
x,-y,z
loop_
_atom_site_type_symbol
_atom_site_label
_atom_site_fract_x
_atom_site_fract_y
_atom_site_fract_z
Si Si1 0.334037 0.824927 0.289975
Si Si2 0.172495 0.328120 0.960345
Si Si3 0.327325 0.829708 0.882630
Si Si4 0.171494 0.170218 0.374638
Si Si5 0.828886 0.831606 0.205203
Si Si6 0.831103 0.673042 0.461474
O O1 0.500000 0.766745 0.290120
O O2 0.254423 0.763911 0.332865
O O3 0.255947 0.766094 0.246624
O O4 0.324270 0.000000 0.290203
O O5 0.204858 0.500000 0.966970
O O6 0.246382 0.274357 0.916372
O O7 0.000000 0.295280 0.958032
O O8 0.239795 0.239795 0.000000
O O9 0.500000 0.799013 0.884672
O O10 0.268473 0.786046 0.835461
O O11 0.291375 0.000000 0.893222
O O12 0.226214 0.257666 0.416701
O O13 0.000000 0.194050 0.366235
O O14 0.210765 0.000000 0.382170
O O15 0.000000 0.821542 0.216135
O O16 0.782769 0.000000 0.195117
O O17 0.732100 0.732100 0.500000
O O18 0.812167 0.500000 0.458245
O O19 0.000000 0.719131 0.469938
#
# Coordination Sequence:
#
# PCOD8309843 Si02
#       6
#     8   8   8   8   8   8
#     4   9  17  29  48  75 103 131 169 217 262 305
#     4  11  24  40  59  84 112 143 180 221 266 317
#     4  10  21  37  57  82 111 143 181 223 267 316
#     4   9  17  31  52  75  99 130 169 212 258 308
#     4   9  17  31  52  76 103 137 176 217 262 310
#     4  10  21  36  54  77 104 135 172 214 261 313
#
# _framework density 18.830428999999999
#
# number of rings (size 3 to 8) (size 9 to 14) (size 15 to 20)
#    0.000    2.333    0.000    2.500    0.000    8.667 
#    0.000    4.167    0.000    5.000    0.000    0.000 
#    0.000    0.000    0.000    0.000    0.000    0.000 
#
# Total GULP energy -595347.215380 kJ/mol
# GULP energy per Si atom -12403.066987 kJ/mol
# Density = 1.878757 g / cm^3
# Si number density = 18.830429 Si / 1000 Ang^3
#
#
#
# Elastic Constant Matrix: (Units=GPa)
#
#
# Indices 1 2 3 4 5 6 
#
# 1 77.7047 44.4430 65.8768 0.0000 0.0000 0.0000
# 2 44.4430 77.7047 65.8768 0.0000 0.0000 0.0000
# 3 65.8768 65.8768 164.5280 0.0000 0.0000 0.0000
# 4 0.0000 0.0000 0.0000 -8.7672 0.0000 0.0000
# 5 0.0000 0.0000 0.0000 0.0000 -8.7672 0.0000
# 6 0.0000 0.0000 0.0000 0.0000 0.0000 20.8335
#
#
#
# Elastic Compliance Matrix: (Units=1/GPa)
#
#
# Indices 1 2 3 4 5 6 
#
# 1 0.022238 -0.007827 -0.005770 0.000000 0.000000 0.000000
# 2 -0.007827 0.022238 -0.005770 0.000000 0.000000 0.000000
# 3 -0.005770 -0.005770 0.010699 0.000000 0.000000 0.000000
# 4 0.000000 0.000000 0.000000 -0.114061 0.000000 0.000000
# 5 0.000000 0.000000 0.000000 0.000000 -0.114061 0.000000
# 6 0.000000 0.000000 0.000000 0.000000 0.000000 0.048000
#
#
# Mechanical properties :
#
#
# Convention : Reuss Voigt Hill
#
# Bulk Modulus (GPa) = 60.82805 74.70342 67.76574
# Shear Modulus (GPa) = -61.93090 10.24253 -25.84418
#
# Velocity S-wave (km/s) = -5.74109 2.33477 -3.70870
# Velocity P-wave (km/s) = 3.40201 6.85755 4.21025
#
# Compressibility (1/GPa) = 0.01643978
#
# Stress axis : x y z
#
# Youngs Moduli (GPa) = 44.96892 44.96892 93.47049
#
# Poissons Ratio (x) = 0.35197 0.53932
# Poissons Ratio (y) = 0.35197 0.53932
# Poissons Ratio (z) = 0.25947 0.25947
#
# Static dielectric constant tensor:
#      x y z
#    x 3.383910 0.000000 0.000000 
#    y 0.000000 3.383910 0.000000 
#    z 0.000000 0.000000 3.680820 
# 
# 
# High freq. dielectric constant tensor:
#      x y z
#    x 1.720280 0.000000 0.000000 
#    y 0.000000 1.720280 0.000000 
#    z 0.000000 0.000000 1.748210 
# 
# From -- ./inp_files/5973.got.cif
#   From: 2010.03.12/outbox.cif.g09.slc.cpg/sg115_3_cif.got.tgz:5973.got - 2010.04.14 02:11:21.
