data_PCOD8309209
_publ_section_title
;
Structure prediction by ZEFSAII (Michael W. Deem and Ramdas Pophale) SiO2 
 PCOD8309209
Probable space group: P -4 M 2
;
_chemical_formula_sum "Si O2"
_cell_formula_units_Z 25
_cell_length_a 12.035670
_cell_length_b 12.035670
_cell_length_c 9.947214
_cell_angle_alpha 90.000000
_cell_angle_beta 90.000000
_cell_angle_gamma 90.000000
_cell_volume 1440.927083
_symmetry_space_group_name_H-M "P -4 M 2"
_symmetry_group_IT_number 115
_symmetry_cell_setting 'tetragonal'
loop_
_space_group_symop_operation_xyz
x,y,z
y,-x,-z
-x,-y,z
-y,x,-z
y,x,-z
-y,-x,-z
-x,y,z
x,-y,z
loop_
_atom_site_type_symbol
_atom_site_label
_atom_site_fract_x
_atom_site_fract_y
_atom_site_fract_z
Si Si1 0.876923 0.261944 0.102104
Si Si2 0.500000 0.747734 0.598571
Si Si3 0.278773 0.868378 0.586262
Si Si4 0.500000 0.500000 0.500000
Si Si5 0.122395 0.500000 0.140714
O O1 0.839096 0.255201 0.257424
O O2 0.871326 0.389743 0.050984
O O3 0.000000 0.212369 0.088373
O O4 0.800784 0.199217 0.000000
O O5 0.389516 0.803988 0.534367
O O6 0.500000 0.613609 0.586870
O O7 0.500000 0.776530 0.755570
O O8 0.174303 0.825698 0.500000
O O9 0.293141 0.000000 0.565233
O O10 0.000000 0.500000 0.216657
#
# Coordination Sequence:
#
# PCOD8309209 Si02
#       5
#     8   4   8   1   4
#     4   9  18  33  53  75 100 135 174 215 259 307
#     4  10  18  34  51  77 106 138 174 213 270 319
#     4  10  20  35  55  77 107 143 179 218 265 321
#     4  12  20  28  56  84 106 132 176 228 258 320
#     4   8  16  34  56  71  96 142 181 205 253 328
#
# _framework density 17.34994
#
# number of rings (size 3 to 8) (size 9 to 14) (size 15 to 20)
#    0.000    2.560    1.600    3.360    0.000    1.920 
#    0.000   11.200    0.000    3.840    0.000    0.000 
#    0.000    0.000    0.000    0.000    0.000    0.000 
#
# Total GULP energy -309714.010795 kJ/mol
# GULP energy per Si atom -12388.560432 kJ/mol
# Density = 1.731045 g / cm^3
# Si number density = 17.349940 Si / 1000 Ang^3
#
#
#
# Elastic Constant Matrix: (Units=GPa)
#
#
# Indices 1 2 3 4 5 6 
#
# 1 121.7993 66.7719 55.5141 0.0000 0.0000 0.0000
# 2 66.7719 121.7994 55.5122 0.0000 0.0000 0.0000
# 3 55.5141 55.5122 67.4248 0.0000 0.0000 0.0000
# 4 0.0000 0.0000 0.0000 27.6552 0.0000 0.0000
# 5 0.0000 0.0000 0.0000 0.0000 27.6555 0.0000
# 6 0.0000 0.0000 0.0000 0.0000 0.0000 32.5883
#
#
#
# Elastic Compliance Matrix: (Units=1/GPa)
#
#
# Indices 1 2 3 4 5 6 
#
# 1 0.014233 -0.003940 -0.008475 0.000000 0.000000 0.000000
# 2 -0.003940 0.014232 -0.008474 0.000000 0.000000 0.000000
# 3 -0.008475 -0.008474 0.028785 0.000000 0.000000 0.000000
# 4 0.000000 0.000000 0.000000 0.036160 0.000000 0.000000
# 5 0.000000 0.000000 0.000000 0.000000 0.036159 0.000000
# 6 0.000000 0.000000 0.000000 0.000000 0.000000 0.030686
#
#
# Mechanical properties :
#
#
# Convention : Reuss Voigt Hill
#
# Bulk Modulus (GPa) = 64.62536 74.06887 69.34711
# Shear Modulus (GPa) = 24.13252 26.46152 25.29702
#
# Velocity S-wave (km/s) = 3.73356 3.90957 3.82258
# Velocity P-wave (km/s) = 7.47763 7.94755 7.71617
#
# Compressibility (1/GPa) = 0.01547380
#
# Stress axis : x y z
#
# Youngs Moduli (GPa) = 70.26009 70.26301 34.74001
#
# Poissons Ratio (x) = 0.27685 0.29441
# Poissons Ratio (y) = 0.27684 0.29437
# Poissons Ratio (z) = 0.59542 0.59538
#
# Static dielectric constant tensor:
#      x y z
#    x 3.446200 0.000000 0.000000 
#    y 0.000000 3.446210 0.000000 
#    z 0.000000 0.000000 2.851610 
# 
# 
# High freq. dielectric constant tensor:
#      x y z
#    x 1.681350 0.000000 0.000000 
#    y 0.000000 1.681350 0.000000 
#    z 0.000000 0.000000 1.626840 
# 
# From -- ./inp_files/1135.got.cif
#   From: 2010.03.12/outbox.cif.g09.slc.cpg/sg115_1_cif.got.tgz:1135.got - 2010.04.14 02:11:21.
