data_PCOD8309778
_publ_section_title
;
Structure prediction by ZEFSAII (Michael W. Deem and Ramdas Pophale) SiO2 
 PCOD8309778
Probable space group: P -4 M 2
;
_chemical_formula_sum "Si O2"
_cell_formula_units_Z 48
_cell_length_a 9.148728
_cell_length_b 9.148728
_cell_length_c 30.654292
_cell_angle_alpha 90.000000
_cell_angle_beta 90.000000
_cell_angle_gamma 90.000000
_cell_volume 2565.740453
_symmetry_space_group_name_H-M "P -4 M 2"
_symmetry_group_IT_number 115
_symmetry_cell_setting 'tetragonal'
loop_
_space_group_symop_operation_xyz
x,y,z
y,-x,-z
-x,-y,z
-y,x,-z
y,x,-z
-y,-x,-z
-x,y,z
x,-y,z
loop_
_atom_site_type_symbol
_atom_site_label
_atom_site_fract_x
_atom_site_fract_y
_atom_site_fract_z
Si Si1 0.664620 0.173009 0.366428
Si Si2 0.330453 0.333071 0.205047
Si Si3 0.671692 0.828511 0.960284
Si Si4 0.669632 0.171381 0.117165
Si Si5 0.829505 0.331720 0.291268
Si Si6 0.837812 0.672597 0.536557
O O1 0.500000 0.229974 0.357560
O O2 0.774958 0.242797 0.332571
O O3 0.716833 0.218091 0.415120
O O4 0.669240 0.000000 0.361658
O O5 0.500000 0.321874 0.216474
O O6 0.286094 0.500000 0.193565
O O7 0.289120 0.229184 0.164933
O O8 0.244244 0.273626 0.246971
O O9 0.500000 0.794977 0.959219
O O10 0.743581 0.772532 0.916010
O O11 0.702638 0.000000 0.965877
O O12 0.742935 0.742935 0.000000
O O13 0.500000 0.204047 0.106213
O O14 0.703117 0.000000 0.114555
O O15 0.787907 0.500000 0.298621
O O16 0.000000 0.306509 0.286293
O O17 0.730230 0.730230 0.500000
O O18 0.842692 0.500000 0.533431
O O19 0.000000 0.736693 0.528488
#
# Coordination Sequence:
#
# PCOD8309778 Si02
#       6
#     8   8   8   8   8   8
#     4   9  19  36  55  74 100 136 176 216 259 310
#     4   9  18  34  55  77 105 144 185 221 260 310
#     4  11  24  40  59  84 113 146 184 225 269 317
#     4  10  21  37  58  85 114 143 179 222 267 317
#     4  10  21  35  52  78 110 140 173 217 266 314
#     4   9  19  35  53  75 103 134 170 213 260 311
#
# _framework density 18.708051999999999
#
# number of rings (size 3 to 8) (size 9 to 14) (size 15 to 20)
#    0.000    2.333    0.000    3.000    0.000    8.667 
#    0.000    8.333    0.000    0.000    0.000    0.000 
#    0.000    0.000    0.000    0.000    0.000    0.000 
#
# Total GULP energy -595288.704804 kJ/mol
# GULP energy per Si atom -12401.848017 kJ/mol
# Density = 1.866547 g / cm^3
# Si number density = 18.708052 Si / 1000 Ang^3
#
#
#
# Elastic Constant Matrix: (Units=GPa)
#
#
# Indices 1 2 3 4 5 6 
#
# 1 73.5969 46.5082 66.0259 0.0000 0.0000 0.0000
# 2 46.5082 73.5969 66.0259 0.0000 0.0000 0.0000
# 3 66.0259 66.0259 152.2057 0.0000 0.0000 0.0000
# 4 0.0000 0.0000 0.0000 86.2033 0.0000 0.0000
# 5 0.0000 0.0000 0.0000 0.0000 86.2033 0.0000
# 6 0.0000 0.0000 0.0000 0.0000 0.0000 28.3872
#
#
#
# Elastic Compliance Matrix: (Units=1/GPa)
#
#
# Indices 1 2 3 4 5 6 
#
# 1 0.026417 -0.010499 -0.006905 0.000000 0.000000 0.000000
# 2 -0.010499 0.026417 -0.006905 0.000000 0.000000 0.000000
# 3 -0.006905 -0.006905 0.012561 0.000000 0.000000 0.000000
# 4 0.000000 0.000000 0.000000 0.011600 0.000000 0.000000
# 5 0.000000 0.000000 0.000000 0.000000 0.011600 0.000000
# 6 0.000000 0.000000 0.000000 0.000000 0.000000 0.035227
#
#
# Mechanical properties :
#
#
# Convention : Reuss Voigt Hill
#
# Bulk Modulus (GPa) = 59.60766 72.94660 66.27713
# Shear Modulus (GPa) = 28.08466 48.21472 38.14969
#
# Velocity S-wave (km/s) = 3.87874 5.08214 4.52066
# Velocity P-wave (km/s) = 7.21046 8.57404 7.92165
#
# Compressibility (1/GPa) = 0.01677637
#
# Stress axis : x y z
#
# Youngs Moduli (GPa) = 37.85459 37.85459 79.61225
#
# Poissons Ratio (x) = 0.39743 0.54973
# Poissons Ratio (y) = 0.39743 0.54973
# Poissons Ratio (z) = 0.26139 0.26139
#
# Static dielectric constant tensor:
#      x y z
#    x 3.423150 0.000000 0.000000 
#    y 0.000000 3.423150 0.000000 
#    z 0.000000 0.000000 3.594040 
# 
# 
# High freq. dielectric constant tensor:
#      x y z
#    x 1.723320 0.000000 0.000000 
#    y 0.000000 1.723320 0.000000 
#    z 0.000000 0.000000 1.739990 
# 
# From -- ./inp_files/5928.got.cif
#   From: 2010.03.12/outbox.cif.g09.slc.cpg/sg115_3_cif.got.tgz:5928.got - 2010.04.14 02:11:21.
