data_PCOD8309229
_publ_section_title
;
Structure prediction by ZEFSAII (Michael W. Deem and Ramdas Pophale) SiO2 
 PCOD8309229
Probable space group: P -4 M 2
;
_chemical_formula_sum "Si O2"
_cell_formula_units_Z 64
_cell_length_a 14.869181
_cell_length_b 14.869181
_cell_length_c 17.638231
_cell_angle_alpha 90.000000
_cell_angle_beta 90.000000
_cell_angle_gamma 90.000000
_cell_volume 3899.681357
_symmetry_space_group_name_H-M "P -4 M 2"
_symmetry_group_IT_number 115
_symmetry_cell_setting 'tetragonal'
loop_
_space_group_symop_operation_xyz
x,y,z
y,-x,-z
-x,-y,z
-y,x,-z
y,x,-z
-y,-x,-z
-x,y,z
x,-y,z
loop_
_atom_site_type_symbol
_atom_site_label
_atom_site_fract_x
_atom_site_fract_y
_atom_site_fract_z
Si Si1 0.893885 0.398590 0.205682
Si Si2 0.897955 0.247962 0.913794
Si Si3 0.784961 0.399028 0.651365
Si Si4 0.901225 0.394601 0.519365
Si Si5 0.604113 0.896294 0.207952
Si Si6 0.638863 0.400452 0.412205
Si Si7 0.600243 0.842725 0.634379
Si Si8 0.896225 0.249328 0.088355
O O1 0.856543 0.500000 0.190942
O O2 0.853725 0.353438 0.283384
O O3 0.863824 0.335623 0.136368
O O4 0.000000 0.400476 0.213715
O O5 0.876091 0.337339 0.866335
O O6 0.835677 0.164746 0.888858
O O7 0.000000 0.215575 0.900267
O O8 0.882232 0.275048 0.000891
O O9 0.822541 0.500000 0.651849
O O10 0.829612 0.350427 0.577802
O O11 0.825977 0.357796 0.728598
O O12 0.676547 0.400811 0.643402
O O13 0.878694 0.500000 0.508130
O O14 0.896287 0.351152 0.434636
O O15 0.000000 0.378758 0.553572
O O16 0.500000 0.877194 0.187377
O O17 0.616282 0.000000 0.235260
O O18 0.620283 0.379718 0.500000
O O19 0.598422 0.500000 0.393093
O O20 0.742879 0.401419 0.396319
O O21 0.500000 0.881036 0.648326
O O22 0.000000 0.224477 0.105745
#
# Coordination Sequence:
#
# PCOD8309229 Si02
#       8
#     8   8   8   8   8   8   8   8
#     4   9  17  29  46  69  95 121 150 187 233 283
#     4   9  18  32  49  70  96 125 154 185 227 276
#     4  10  19  30  43  63  86 115 154 190 231 275
#     4   9  15  25  42  60  81 108 141 185 229 271
#     4   9  18  32  50  71  93 117 149 193 240 282
#     4  11  21  32  44  61  88 124 163 198 230 268
#     4   9  17  28  41  61  86 115 150 184 227 274
#     4   9  18  31  48  72  98 124 154 185 223 277
#
# _framework density 16.411598000000001
#
# number of rings (size 3 to 8) (size 9 to 14) (size 15 to 20)
#    0.000    2.625    1.250    1.125    1.750    4.625 
#    0.000    3.750    0.000    0.000    0.000    0.000 
#    0.000    0.000    0.000    2.750    0.000   24.750 
#
# Total GULP energy -792902.436071 kJ/mol
# GULP energy per Si atom -12389.100564 kJ/mol
# Density = 1.637424 g / cm^3
# Si number density = 16.411598 Si / 1000 Ang^3
#
#
#
# Elastic Constant Matrix: (Units=GPa)
#
#
# Indices 1 2 3 4 5 6 
#
# 1 75.6014 32.2908 51.7852 0.0000 0.0000 0.0000
# 2 32.2908 75.6015 51.7849 0.0000 0.0000 0.0000
# 3 51.7852 51.7849 107.3346 0.0000 0.0000 0.0000
# 4 0.0000 0.0000 0.0000 21.1466 0.0000 0.0000
# 5 0.0000 0.0000 0.0000 0.0000 21.1464 0.0000
# 6 0.0000 0.0000 0.0000 0.0000 0.0000 17.5251
#
#
#
# Elastic Compliance Matrix: (Units=1/GPa)
#
#
# Indices 1 2 3 4 5 6 
#
# 1 0.020177 -0.002912 -0.008329 0.000000 0.000000 0.000000
# 2 -0.002912 0.020177 -0.008329 0.000000 0.000000 0.000000
# 3 -0.008329 -0.008329 0.017354 0.000000 0.000000 0.000000
# 4 0.000000 0.000000 0.000000 0.047289 0.000000 0.000000
# 5 0.000000 0.000000 0.000000 0.000000 0.047289 0.000000
# 6 0.000000 0.000000 0.000000 0.000000 0.000000 0.057061
#
#
# Mechanical properties :
#
#
# Convention : Reuss Voigt Hill
#
# Bulk Modulus (GPa) = 53.86517 58.91770 56.39143
# Shear Modulus (GPa) = 19.63272 20.14206 19.88739
#
# Velocity S-wave (km/s) = 3.46247 3.50709 3.48485
# Velocity P-wave (km/s) = 6.99125 7.23724 7.11531
#
# Compressibility (1/GPa) = 0.01856487
#
# Stress axis : x y z
#
# Youngs Moduli (GPa) = 49.56217 49.56258 57.62400
#
# Poissons Ratio (x) = 0.14435 0.47997
# Poissons Ratio (y) = 0.14434 0.47997
# Poissons Ratio (z) = 0.41282 0.41282
#
# Static dielectric constant tensor:
#      x y z
#    x 3.028540 0.000000 0.000000 
#    y 0.000000 3.028530 0.000000 
#    z 0.000000 0.000000 3.248050 
# 
# 
# High freq. dielectric constant tensor:
#      x y z
#    x 1.610060 0.000000 0.000000 
#    y 0.000000 1.610060 0.000000 
#    z 0.000000 0.000000 1.635710 
# 
# From -- ./inp_files/4435.got.cif
#   From: 2010.03.12/outbox.cif.g09.slc.cpg/sg115_3_cif.got.tgz:4435.got - 2010.04.14 02:11:21.
