data_PCOD8309870
_publ_section_title
;
Structure prediction by ZEFSAII (Michael W. Deem and Ramdas Pophale) SiO2 
 PCOD8309870
Probable space group: P -4 M 2
;
_chemical_formula_sum "Si O2"
_cell_formula_units_Z 36
_cell_length_a 9.248089
_cell_length_b 9.248089
_cell_length_c 22.667130
_cell_angle_alpha 90.000000
_cell_angle_beta 90.000000
_cell_angle_gamma 90.000000
_cell_volume 1938.655031
_symmetry_space_group_name_H-M "P -4 M 2"
_symmetry_group_IT_number 115
_symmetry_cell_setting 'tetragonal'
loop_
_space_group_symop_operation_xyz
x,y,z
y,-x,-z
-x,-y,z
-y,x,-z
y,x,-z
-y,-x,-z
-x,y,z
x,-y,z
loop_
_atom_site_type_symbol
_atom_site_label
_atom_site_fract_x
_atom_site_fract_y
_atom_site_fract_z
Si Si1 0.667361 0.830009 0.551006
Si Si2 0.169319 0.836937 0.765752
Si Si3 0.666064 0.668678 0.331673
Si Si4 0.834485 0.167455 0.900982
Si Si5 0.668321 0.331680 0.000000
O O1 0.765835 0.765835 0.500000
O O2 0.500000 0.793227 0.537794
O O3 0.718421 0.758257 0.611959
O O4 0.694129 0.000000 0.555639
O O5 0.250871 0.721787 0.725977
O O6 0.207053 0.801709 0.833360
O O7 0.000000 0.821540 0.754458
O O8 0.219811 0.000000 0.750252
O O9 0.500000 0.710694 0.343101
O O10 0.685381 0.500000 0.320040
O O11 0.000000 0.211397 0.913033
O O12 0.811332 0.000000 0.916559
O O13 0.731592 0.262250 0.941145
O O14 0.500000 0.297461 0.001859
#
# Coordination Sequence:
#
# PCOD8309870 Si02
#       5
#     8   8   8   8   4
#     4  10  21  37  57  80 106 139 179 220 264 315
#     4   9  19  36  57  81 108 138 175 220 266 312
#     4  10  21  36  55  80 110 144 179 216 261 313
#     4   9  19  37  59  80 103 136 179 222 264 314
#     4  11  24  37  50  76 112 143 174 217 266 316
#
# _framework density 18.569575
#
# number of rings (size 3 to 8) (size 9 to 14) (size 15 to 20)
#    0.000    2.333    0.000    3.333    0.000    8.444 
#    0.000    6.667    0.000    0.000    0.000    0.000 
#    0.000    0.000    0.000    0.000    0.000    0.000 
#
# Total GULP energy -446524.766910 kJ/mol
# GULP energy per Si atom -12403.465748 kJ/mol
# Density = 1.852731 g / cm^3
# Si number density = 18.569575 Si / 1000 Ang^3
#
#
#
# Elastic Constant Matrix: (Units=GPa)
#
#
# Indices 1 2 3 4 5 6 
#
# 1 88.8990 62.6922 72.0206 0.0000 0.0000 0.0000
# 2 62.6922 88.9000 72.0209 0.0000 0.0000 0.0000
# 3 72.0206 72.0209 131.9679 0.0000 0.0000 0.0000
# 4 0.0000 0.0000 0.0000 56.4450 0.0000 0.0000
# 5 0.0000 0.0000 0.0000 0.0000 56.4509 0.0000
# 6 0.0000 0.0000 0.0000 0.0000 0.0000 34.4867
#
#
#
# Elastic Compliance Matrix: (Units=1/GPa)
#
#
# Indices 1 2 3 4 5 6 
#
# 1 0.025930 -0.012228 -0.007478 0.000000 0.000000 0.000000
# 2 -0.012228 0.025930 -0.007478 0.000000 0.000000 0.000000
# 3 -0.007478 -0.007478 0.015740 0.000000 0.000000 0.000000
# 4 0.000000 0.000000 0.000000 0.017716 0.000000 0.000000
# 5 0.000000 0.000000 0.000000 0.000000 0.017715 0.000000
# 6 0.000000 0.000000 0.000000 0.000000 0.000000 0.028997
#
#
# Mechanical properties :
#
#
# Convention : Reuss Voigt Hill
#
# Bulk Modulus (GPa) = 75.57218 80.35935 77.96576
# Shear Modulus (GPa) = 26.20494 36.34540 31.27517
#
# Velocity S-wave (km/s) = 3.76064 4.42889 4.10837
# Velocity P-wave (km/s) = 7.72280 8.33799 8.03628
#
# Compressibility (1/GPa) = 0.01323238
#
# Stress axis : x y z
#
# Youngs Moduli (GPa) = 38.56560 38.56610 63.53426
#
# Poissons Ratio (x) = 0.47157 0.47510
# Poissons Ratio (y) = 0.47157 0.47509
# Poissons Ratio (z) = 0.28839 0.28839
#
# Static dielectric constant tensor:
#      x y z
#    x 3.367590 0.000000 0.000000 
#    y 0.000000 3.367580 0.000000 
#    z 0.000000 0.000000 3.444120 
# 
# 
# High freq. dielectric constant tensor:
#      x y z
#    x 1.719780 0.000000 0.000000 
#    y 0.000000 1.719780 0.000000 
#    z 0.000000 0.000000 1.731980 
# 
# From -- ./inp_files/5086.got.cif
#   From: 2010.03.12/outbox.cif.g09.slc.cpg/sg115_3_cif.got.tgz:5086.got - 2010.04.14 02:11:21.
