data_PCOD8309533
_publ_section_title
;
Structure prediction by ZEFSAII (Michael W. Deem and Ramdas Pophale) SiO2 
 PCOD8309533
Probable space group: P -4 M 2
;
_chemical_formula_sum "Si O2"
_cell_formula_units_Z 40
_cell_length_a 9.191445
_cell_length_b 9.191445
_cell_length_c 25.673895
_cell_angle_alpha 90.000000
_cell_angle_beta 90.000000
_cell_angle_gamma 90.000000
_cell_volume 2168.998973
_symmetry_space_group_name_H-M "P -4 M 2"
_symmetry_group_IT_number 115
_symmetry_cell_setting 'tetragonal'
loop_
_space_group_symop_operation_xyz
x,y,z
y,-x,-z
-x,-y,z
-y,x,-z
y,x,-z
-y,-x,-z
-x,y,z
x,-y,z
loop_
_atom_site_type_symbol
_atom_site_label
_atom_site_fract_x
_atom_site_fract_y
_atom_site_fract_z
Si Si1 0.327088 0.162592 0.659286
Si Si2 0.830654 0.831354 0.150777
Si Si3 0.164671 0.328737 0.455795
Si Si4 0.167596 0.329554 0.954957
Si Si5 0.672938 0.665239 0.758349
O O1 0.500000 0.158344 0.659705
O O2 0.274078 0.213720 0.601869
O O3 0.269170 0.273639 0.702989
O O4 0.267931 0.000000 0.671363
O O5 0.750515 0.786755 0.097844
O O6 0.764448 0.736572 0.196579
O O7 0.000000 0.794056 0.144649
O O8 0.804961 0.000000 0.163745
O O9 0.265083 0.265083 0.500000
O O10 0.179202 0.500000 0.458819
O O11 0.000000 0.278588 0.465953
O O12 0.195072 0.500000 0.947480
O O13 0.000000 0.295993 0.969157
O O14 0.270497 0.270497 0.000000
O O15 0.500000 0.673742 0.761522
O O16 0.728364 0.500000 0.764256
#
# Coordination Sequence:
#
# PCOD8309533 Si02
#       5
#     8   8   8   8   8
#     4   8  15  30  50  70  96 132 171 210 252 301
#     4  10  21  37  57  79 104 138 178 215 253 302
#     4   9  18  32  50  73 100 130 167 210 255 305
#     4  10  21  37  57  80 106 137 172 211 256 303
#     4  10  20  33  52  79 107 134 168 212 260 308
#
# _framework density 18.441687999999999
#
# number of rings (size 3 to 8) (size 9 to 14) (size 15 to 20)
#    0.000    2.600    0.000    3.000    0.000    5.600 
#    0.000    3.000    0.000    1.200    0.000    0.000 
#    0.000    0.000    0.000    0.000    0.000    0.000 
#
# Total GULP energy -495954.437258 kJ/mol
# GULP energy per Si atom -12398.860931 kJ/mol
# Density = 1.839971 g / cm^3
# Si number density = 18.441688 Si / 1000 Ang^3
#
#
#
# Elastic Constant Matrix: (Units=GPa)
#
#
# Indices 1 2 3 4 5 6 
#
# 1 58.9968 25.0969 46.5173 0.0000 0.0000 0.0000
# 2 25.0969 58.9968 46.5173 0.0000 0.0000 0.0000
# 3 46.5173 46.5173 136.3122 0.0000 0.0000 0.0000
# 4 0.0000 0.0000 0.0000 39.3967 0.0000 0.0000
# 5 0.0000 0.0000 0.0000 0.0000 39.3967 0.0000
# 6 0.0000 0.0000 0.0000 0.0000 0.0000 26.4980
#
#
#
# Elastic Compliance Matrix: (Units=1/GPa)
#
#
# Indices 1 2 3 4 5 6 
#
# 1 0.024301 -0.005197 -0.006519 0.000000 0.000000 0.000000
# 2 -0.005197 0.024301 -0.006519 0.000000 0.000000 0.000000
# 3 -0.006519 -0.006519 0.011786 0.000000 0.000000 0.000000
# 4 0.000000 0.000000 0.000000 0.025383 0.000000 0.000000
# 5 0.000000 0.000000 0.000000 0.000000 0.025383 0.000000
# 6 0.000000 0.000000 0.000000 0.000000 0.000000 0.037739
#
#
# Mechanical properties :
#
#
# Convention : Reuss Voigt Hill
#
# Bulk Modulus (GPa) = 41.81261 54.50765 48.16013
# Shear Modulus (GPa) = 25.86164 30.13659 27.99911
#
# Velocity S-wave (km/s) = 3.74885 4.04685 3.90070
# Velocity P-wave (km/s) = 6.43899 7.17335 6.81607
#
# Compressibility (1/GPa) = 0.02391623
#
# Stress axis : x y z
#
# Youngs Moduli (GPa) = 41.15010 41.15010 84.84905
#
# Poissons Ratio (x) = 0.21387 0.55316
# Poissons Ratio (y) = 0.21387 0.55316
# Poissons Ratio (z) = 0.26827 0.26827
#
# Static dielectric constant tensor:
#      x y z
#    x 3.227550 0.000000 0.000000 
#    y 0.000000 3.227550 0.000000 
#    z 0.000000 0.000000 3.675730 
# 
# 
# High freq. dielectric constant tensor:
#      x y z
#    x 1.703340 0.000000 0.000000 
#    y 0.000000 1.703340 0.000000 
#    z 0.000000 0.000000 1.730730 
# 
# From -- ./inp_files/5085.got.cif
#   From: 2010.03.12/outbox.cif.g09.slc.cpg/sg115_3_cif.got.tgz:5085.got - 2010.04.14 02:11:21.
