data_PCOD8309320
_publ_section_title
;
Structure prediction by ZEFSAII (Michael W. Deem and Ramdas Pophale) SiO2 
 PCOD8309320
Probable space group: P -4 M 2
;
_chemical_formula_sum "Si O2"
_cell_formula_units_Z 34
_cell_length_a 9.780605
_cell_length_b 9.780605
_cell_length_c 20.366843
_cell_angle_alpha 90.000000
_cell_angle_beta 90.000000
_cell_angle_gamma 90.000000
_cell_volume 1948.296971
_symmetry_space_group_name_H-M "P -4 M 2"
_symmetry_group_IT_number 115
_symmetry_cell_setting 'tetragonal'
loop_
_space_group_symop_operation_xyz
x,y,z
y,-x,-z
-x,-y,z
-y,x,-z
y,x,-z
-y,-x,-z
-x,y,z
x,-y,z
loop_
_atom_site_type_symbol
_atom_site_label
_atom_site_fract_x
_atom_site_fract_y
_atom_site_fract_z
Si Si1 0.158621 0.158621 0.000000
Si Si2 0.000000 0.500000 0.438186
Si Si3 0.000000 0.219591 0.517796
Si Si4 0.500000 0.152264 0.688046
Si Si5 0.266924 0.344313 0.739135
Si Si6 0.000000 0.654025 0.655472
Si Si7 0.157416 0.655892 0.880168
O O1 0.209295 0.244691 0.937531
O O2 0.000000 0.186788 0.015224
O O3 0.000000 0.364826 0.481979
O O4 0.135169 0.500000 0.391442
O O5 0.000000 0.240550 0.595737
O O6 0.863929 0.136072 0.500000
O O7 0.369124 0.235071 0.710162
O O8 0.500000 0.000000 0.720471
O O9 0.319376 0.500000 0.728692
O O10 0.127820 0.319085 0.701359
O O11 0.247641 0.314943 0.816118
O O12 0.000000 0.500000 0.627389
O O13 0.175886 0.500000 0.903858
O O14 0.000000 0.685798 0.862608
#
# Coordination Sequence:
#
# PCOD8309320 Si02
#       7
#     4   2   4   4   8   4   8
#     4   9  18  32  52  75 110 146 180 219 272 328
#     4  10  22  42  56  80 124 148 176 234 288 334
#     4  11  22  37  60  83 112 149 185 224 278 336
#     4  10  23  37  52  78 119 154 171 220 291 336
#     4  10  19  36  60  83 108 142 192 234 273 325
#     4  10  19  35  62  88 100 139 195 234 260 327
#     4   9  17  33  56  81 107 141 181 232 274 315
#
# _framework density 17.451139999999999
#
# number of rings (size 3 to 8) (size 9 to 14) (size 15 to 20)
#    0.353    1.882    1.765    1.765    0.000    0.941 
#    2.118    0.000    0.000    0.000    0.000    0.000 
#    0.000    0.000    0.000    0.000    0.000    0.000 
#
# Total GULP energy -421551.692731 kJ/mol
# GULP energy per Si atom -12398.579198 kJ/mol
# Density = 1.741142 g / cm^3
# Si number density = 17.451140 Si / 1000 Ang^3
#
#
#
# Elastic Constant Matrix: (Units=GPa)
#
#
# Indices 1 2 3 4 5 6 
#
# 1 105.7511 60.8570 55.8164 0.0000 0.0000 0.0000
# 2 60.8570 105.7505 55.8162 0.0000 0.0000 0.0000
# 3 55.8164 55.8162 119.5393 0.0000 0.0000 0.0000
# 4 0.0000 0.0000 0.0000 51.8711 0.0000 0.0000
# 5 0.0000 0.0000 0.0000 0.0000 51.8561 0.0000
# 6 0.0000 0.0000 0.0000 0.0000 0.0000 32.9600
#
#
#
# Elastic Compliance Matrix: (Units=1/GPa)
#
#
# Indices 1 2 3 4 5 6 
#
# 1 0.015505 -0.006770 -0.004079 0.000000 0.000000 0.000000
# 2 -0.006770 0.015505 -0.004079 0.000000 0.000000 0.000000
# 3 -0.004079 -0.004079 0.012174 0.000000 0.000000 0.000000
# 4 0.000000 0.000000 0.000000 0.019279 0.000000 0.000000
# 5 0.000000 0.000000 0.000000 0.000000 0.019284 0.000000
# 6 0.000000 0.000000 0.000000 0.000000 0.000000 0.030340
#
#
# Mechanical properties :
#
#
# Convention : Reuss Voigt Hill
#
# Bulk Modulus (GPa) = 75.02012 75.11334 75.06673
# Shear Modulus (GPa) = 34.15679 37.90753 36.03216
#
# Velocity S-wave (km/s) = 4.42892 4.66575 4.54888
# Velocity P-wave (km/s) = 8.32080 8.49477 8.40824
#
# Compressibility (1/GPa) = 0.01332976
#
# Stress axis : x y z
#
# Youngs Moduli (GPa) = 64.49624 64.49586 82.14064
#
# Poissons Ratio (x) = 0.43663 0.33502
# Poissons Ratio (y) = 0.43664 0.33502
# Poissons Ratio (z) = 0.26305 0.26305
#
# Static dielectric constant tensor:
#      x y z
#    x 2.924330 0.000000 0.000000 
#    y 0.000000 2.924260 0.000000 
#    z 0.000000 0.000000 3.285900 
# 
# 
# High freq. dielectric constant tensor:
#      x y z
#    x 1.671530 0.000000 0.000000 
#    y 0.000000 1.671530 0.000000 
#    z 0.000000 0.000000 1.679140 
# 
# From -- ./inp_files/4742.got.cif
#   From: 2010.03.12/outbox.cif.g09.slc.cpg/sg115_3_cif.got.tgz:4742.got - 2010.04.14 02:11:21.
