data_PCOD8309424
_publ_section_title
;
Structure prediction by ZEFSAII (Michael W. Deem and Ramdas Pophale) SiO2 
 PCOD8309424
Probable space group: P -4 M 2
;
_chemical_formula_sum "Si O2"
_cell_formula_units_Z 44
_cell_length_a 9.061879
_cell_length_b 9.061879
_cell_length_c 28.861965
_cell_angle_alpha 90.000000
_cell_angle_beta 90.000000
_cell_angle_gamma 90.000000
_cell_volume 2370.076769
_symmetry_space_group_name_H-M "P -4 M 2"
_symmetry_group_IT_number 115
_symmetry_cell_setting 'tetragonal'
loop_
_space_group_symop_operation_xyz
x,y,z
y,-x,-z
-x,-y,z
-y,x,-z
y,x,-z
-y,-x,-z
-x,y,z
x,-y,z
loop_
_atom_site_type_symbol
_atom_site_label
_atom_site_fract_x
_atom_site_fract_y
_atom_site_fract_z
Si Si1 0.169158 0.169158 0.500000
Si Si2 0.666959 0.324247 0.148238
Si Si3 0.169944 0.673870 0.676932
Si Si4 0.171514 0.328528 0.406381
Si Si5 0.675052 0.668145 0.951234
Si Si6 0.325089 0.168917 0.761442
O O1 0.213551 0.273040 0.457448
O O2 0.000000 0.195083 0.514994
O O3 0.500000 0.264155 0.154836
O O4 0.663244 0.500000 0.148918
O O5 0.737949 0.272976 0.098185
O O6 0.768188 0.264319 0.189747
O O7 0.189919 0.500000 0.678756
O O8 0.239321 0.731808 0.629736
O O9 0.253224 0.741383 0.720322
O O10 0.000000 0.721602 0.678720
O O11 0.210601 0.500000 0.402589
O O12 0.000000 0.298866 0.395682
O O13 0.500000 0.678079 0.955839
O O14 0.726346 0.500000 0.947491
O O15 0.738837 0.738837 0.000000
O O16 0.500000 0.186755 0.757605
O O17 0.276130 0.000000 0.757726
#
# Coordination Sequence:
#
# PCOD8309424 Si02
#       6
#     4   8   8   8   8   8
#     4   9  18  34  56  81 112 150 184 211 242 283
#     4   8  13  22  38  61  90 123 157 197 246 294
#     4  11  24  39  55  76 101 131 169 212 256 302
#     4  10  21  37  58  84 112 141 173 209 249 294
#     4   7   9  14  27  51  83 116 151 192 237 285
#     4  10  20  33  50  73 100 130 165 205 250 301
#
# _framework density 18.564800999999999
#
# number of rings (size 3 to 8) (size 9 to 14) (size 15 to 20)
#    0.000    2.818    0.000    3.818    0.000    6.545 
#    0.000    1.818    0.000    0.000    0.000    1.273 
#    0.000    7.273    0.000    0.000    0.000    0.000 
#
# Total GULP energy -545172.160031 kJ/mol
# GULP energy per Si atom -12390.276364 kJ/mol
# Density = 1.852255 g / cm^3
# Si number density = 18.564801 Si / 1000 Ang^3
#
#
#
# Elastic Constant Matrix: (Units=GPa)
#
#
# Indices 1 2 3 4 5 6 
#
# 1 29.8772 22.0892 23.9200 0.0000 0.0000 0.0000
# 2 22.0892 29.8772 23.9200 0.0000 0.0000 0.0000
# 3 23.9200 23.9200 118.5755 0.0000 0.0000 0.0000
# 4 0.0000 0.0000 0.0000 -21.8714 0.0000 0.0000
# 5 0.0000 0.0000 0.0000 0.0000 -21.8714 0.0000
# 6 0.0000 0.0000 0.0000 0.0000 0.0000 19.5555
#
#
#
# Elastic Compliance Matrix: (Units=1/GPa)
#
#
# Indices 1 2 3 4 5 6 
#
# 1 0.076017 -0.052385 -0.004767 0.000000 0.000000 0.000000
# 2 -0.052385 0.076017 -0.004767 0.000000 0.000000 0.000000
# 3 -0.004767 -0.004767 0.010357 0.000000 0.000000 0.000000
# 4 0.000000 0.000000 0.000000 -0.045722 0.000000 0.000000
# 5 0.000000 0.000000 0.000000 0.000000 -0.045722 0.000000
# 6 0.000000 0.000000 0.000000 0.000000 0.000000 0.051137
#
#
# Mechanical properties :
#
#
# Convention : Reuss Voigt Hill
#
# Bulk Modulus (GPa) = 25.93918 35.35425 30.64671
# Shear Modulus (GPa) = 19.32198 2.38926 10.85562
#
# Velocity S-wave (km/s) = 3.22962 1.13568 2.42077
# Velocity P-wave (km/s) = 5.28298 4.56122 4.93531
#
# Compressibility (1/GPa) = 0.03855172
#
# Stress axis : x y z
#
# Youngs Moduli (GPa) = 13.15498 13.15498 96.55484
#
# Poissons Ratio (x) = 0.68912 0.46030
# Poissons Ratio (y) = 0.68912 0.46030
# Poissons Ratio (z) = 0.06271 0.06271
#
# Static dielectric constant tensor:
#      x y z
#    x 3.187740 0.000000 0.000000 
#    y 0.000000 3.187740 0.000000 
#    z 0.000000 0.000000 3.971610 
# 
# 
# High freq. dielectric constant tensor:
#      x y z
#    x 1.685540 0.000000 0.000000 
#    y 0.000000 1.685540 0.000000 
#    z 0.000000 0.000000 1.752350 
# 
# From -- ./inp_files/5764.got.cif
#   From: 2010.03.12/outbox.cif.g09.slc.cpg/sg115_3_cif.got.tgz:5764.got - 2010.04.14 02:11:21.
