data_PCOD8309540
_publ_section_title
;
Structure prediction by ZEFSAII (Michael W. Deem and Ramdas Pophale) SiO2 
 PCOD8309540
Probable space group: P -4 M 2
;
_chemical_formula_sum "Si O2"
_cell_formula_units_Z 48
_cell_length_a 9.090561
_cell_length_b 9.090561
_cell_length_c 30.756637
_cell_angle_alpha 90.000000
_cell_angle_beta 90.000000
_cell_angle_gamma 90.000000
_cell_volume 2541.676174
_symmetry_space_group_name_H-M "P -4 M 2"
_symmetry_group_IT_number 115
_symmetry_cell_setting 'tetragonal'
loop_
_space_group_symop_operation_xyz
x,y,z
y,-x,-z
-x,-y,z
-y,x,-z
y,x,-z
-y,-x,-z
-x,y,z
x,-y,z
loop_
_atom_site_type_symbol
_atom_site_label
_atom_site_fract_x
_atom_site_fract_y
_atom_site_fract_z
Si Si1 0.172602 0.670438 0.039499
Si Si2 0.169044 0.326832 0.883710
Si Si3 0.337409 0.174485 0.213375
Si Si4 0.172541 0.330899 0.461493
Si Si5 0.328542 0.329826 0.373367
Si Si6 0.174815 0.834229 0.703762
O O1 0.211274 0.500000 0.033530
O O2 0.238101 0.725506 0.084726
O O3 0.000000 0.698782 0.039710
O O4 0.241048 0.758953 0.000000
O O5 0.187119 0.500000 0.891872
O O6 0.220492 0.284834 0.834823
O O7 0.000000 0.280256 0.891825
O O8 0.500000 0.239682 0.222945
O O9 0.225229 0.233801 0.249801
O O10 0.347030 0.000000 0.214960
O O11 0.229490 0.229490 0.500000
O O12 0.213060 0.500000 0.471743
O O13 0.248919 0.277989 0.417242
O O14 0.000000 0.307999 0.455952
O O15 0.500000 0.297942 0.378947
O O16 0.295419 0.500000 0.363834
O O17 0.268300 0.235238 0.333905
O O18 0.000000 0.828505 0.702039
O O19 0.233337 0.000000 0.697845
#
# Coordination Sequence:
#
# PCOD8309540 Si02
#       6
#     8   8   8   8   8   8
#     4  11  24  39  55  78 107 138 175 217 261 313
#     4   9  18  34  57  83 108 136 174 218 263 313
#     4   8  15  30  52  77 106 140 177 217 260 309
#     4  10  21  37  57  80 106 137 173 214 262 314
#     4  10  21  37  57  79 104 139 182 223 264 313
#     4  10  20  33  52  80 111 142 178 220 266 315
#
# _framework density 18.885175
#
# number of rings (size 3 to 8) (size 9 to 14) (size 15 to 20)
#    0.000    2.333    0.000    3.500    0.000    8.000 
#    0.000    2.500    0.000    1.000    0.000    0.000 
#    0.000    0.000    0.000    0.000    0.000    0.000 
#
# Total GULP energy -595273.434037 kJ/mol
# GULP energy per Si atom -12401.529876 kJ/mol
# Density = 1.884219 g / cm^3
# Si number density = 18.885175 Si / 1000 Ang^3
#
#
#
# Elastic Constant Matrix: (Units=GPa)
#
#
# Indices 1 2 3 4 5 6 
#
# 1 67.8999 37.3805 53.3902 0.0000 0.0000 0.0000
# 2 37.3805 67.8954 53.3881 0.0000 0.0000 0.0000
# 3 53.3902 53.3881 149.4505 0.0000 0.0000 0.0000
# 4 0.0000 0.0000 0.0000 34.9467 0.0000 0.0000
# 5 0.0000 0.0000 0.0000 0.0000 34.9466 0.0000
# 6 0.0000 0.0000 0.0000 0.0000 0.0000 28.3108
#
#
#
# Elastic Compliance Matrix: (Units=1/GPa)
#
#
# Indices 1 2 3 4 5 6 
#
# 1 0.023831 -0.008936 -0.005321 0.000000 0.000000 0.000000
# 2 -0.008936 0.023833 -0.005321 0.000000 0.000000 0.000000
# 3 -0.005321 -0.005321 0.010493 0.000000 0.000000 0.000000
# 4 0.000000 0.000000 0.000000 0.028615 0.000000 0.000000
# 5 0.000000 0.000000 0.000000 0.000000 0.028615 0.000000
# 6 0.000000 0.000000 0.000000 0.000000 0.000000 0.035322
#
#
# Mechanical properties :
#
#
# Convention : Reuss Voigt Hill
#
# Bulk Modulus (GPa) = 52.63321 63.72928 58.18124
# Shear Modulus (GPa) = 25.48411 29.04663 27.26537
#
# Velocity S-wave (km/s) = 3.67744 3.92607 3.80379
# Velocity P-wave (km/s) = 6.77953 7.37367 7.08283
#
# Compressibility (1/GPa) = 0.01899941
#
# Stress axis : x y z
#
# Youngs Moduli (GPa) = 41.96145 41.95892 95.30066
#
# Poissons Ratio (x) = 0.37496 0.50712
# Poissons Ratio (y) = 0.37498 0.50713
# Poissons Ratio (z) = 0.22329 0.22328
#
# Static dielectric constant tensor:
#      x y z
#    x 3.401670 0.000000 0.000000 
#    y 0.000000 3.401670 0.000000 
#    z 0.000000 0.000000 3.694190 
# 
# 
# High freq. dielectric constant tensor:
#      x y z
#    x 1.725010 0.000000 0.000000 
#    y 0.000000 1.725010 0.000000 
#    z 0.000000 0.000000 1.750030 
# 
# From -- ./inp_files/6076.got.cif
#   From: 2010.03.12/outbox.cif.g09.slc.cpg/sg115_4_cif.got.tgz:6076.got - 2010.04.14 02:11:21.
