data_PCOD8309719
_publ_section_title
;
Structure prediction by ZEFSAII (Michael W. Deem and Ramdas Pophale) SiO2 
 PCOD8309719
Probable space group: P -4 M 2
;
_chemical_formula_sum "Si O2"
_cell_formula_units_Z 48
_cell_length_a 9.609608
_cell_length_b 9.609608
_cell_length_c 27.836578
_cell_angle_alpha 90.000000
_cell_angle_beta 90.000000
_cell_angle_gamma 90.000000
_cell_volume 2570.556712
_symmetry_space_group_name_H-M "P -4 M 2"
_symmetry_group_IT_number 115
_symmetry_cell_setting 'tetragonal'
loop_
_space_group_symop_operation_xyz
x,y,z
y,-x,-z
-x,-y,z
-y,x,-z
y,x,-z
-y,-x,-z
-x,y,z
x,-y,z
loop_
_atom_site_type_symbol
_atom_site_label
_atom_site_fract_x
_atom_site_fract_y
_atom_site_fract_z
Si Si1 0.000000 0.831073 0.803386
Si Si2 0.000000 0.343685 0.897888
Si Si3 0.657172 0.288844 0.055353
Si Si4 0.833853 0.154699 0.552663
Si Si5 0.659975 0.213987 0.256376
Si Si6 0.835716 0.345915 0.636585
Si Si7 0.167469 0.500000 0.113349
Si Si8 0.345770 0.500000 0.206011
O O1 0.866049 0.768408 0.777224
O O2 0.000000 0.775433 0.857758
O O3 0.000000 0.000000 0.802706
O O4 0.872018 0.324629 0.933503
O O5 0.000000 0.500000 0.874499
O O6 0.500000 0.339239 0.068226
O O7 0.772689 0.365463 0.086862
O O8 0.684864 0.315137 0.000000
O O9 0.788285 0.211716 0.500000
O O10 0.770200 0.250489 0.594761
O O11 0.000000 0.151113 0.554430
O O12 0.774365 0.000000 0.561060
O O13 0.500000 0.157021 0.251705
O O14 0.713532 0.201332 0.310940
O O15 0.669162 0.371933 0.241338
O O16 0.772038 0.500000 0.630817
O O17 0.000000 0.349887 0.630577
O O18 0.222730 0.500000 0.167537
O O19 0.000000 0.500000 0.112829
O O20 0.500000 0.500000 0.181175
#
# Coordination Sequence:
#
# PCOD8309719 Si02
#       8
#     4   4   8   8   8   8   4   4
#     4  12  24  38  58  88 120 154 190 228 285 346
#     4  10  24  42  62  86 118 152 188 230 287 344
#     4  11  23  41  67  91 114 148 193 237 281 335
#     4   8  14  25  43  68  99 133 176 226 275 327
#     4  10  20  37  60  83 113 151 195 241 284 336
#     4   9  16  28  49  77 104 138 184 232 279 325
#     4  12  26  40  64  90 122 152 190 238 281 334
#     4  10  22  40  62  86 114 152 198 234 287 340
#
# _framework density 18.672999999999998
#
# number of rings (size 3 to 8) (size 9 to 14) (size 15 to 20)
#    0.000    2.000    1.667    3.000    1.167    6.000 
#    0.000    0.000    1.833    0.000    0.000    0.000 
#    0.000    0.000    0.000    0.000    0.000    0.000 
#
# Total GULP energy -595009.379438 kJ/mol
# GULP energy per Si atom -12396.028738 kJ/mol
# Density = 1.863050 g / cm^3
# Si number density = 18.673000 Si / 1000 Ang^3
#
#
#
# Elastic Constant Matrix: (Units=GPa)
#
#
# Indices 1 2 3 4 5 6 
#
# 1 99.9047 34.7789 31.4976 0.0000 0.0000 0.0000
# 2 34.7789 99.9040 31.4965 0.0000 0.0000 0.0000
# 3 31.4976 31.4965 89.1336 0.0000 0.0000 0.0000
# 4 0.0000 0.0000 0.0000 24.7242 0.0000 0.0000
# 5 0.0000 0.0000 0.0000 0.0000 24.7239 0.0000
# 6 0.0000 0.0000 0.0000 0.0000 0.0000 0.0727
#
#
#
# Elastic Compliance Matrix: (Units=1/GPa)
#
#
# Indices 1 2 3 4 5 6 
#
# 1 0.012125 -0.003230 -0.003143 0.000000 0.000000 0.000000
# 2 -0.003230 0.012125 -0.003143 0.000000 0.000000 0.000000
# 3 -0.003143 -0.003143 0.013441 0.000000 0.000000 0.000000
# 4 0.000000 0.000000 0.000000 0.040446 0.000000 0.000000
# 5 0.000000 0.000000 0.000000 0.000000 0.040447 0.000000
# 6 0.000000 0.000000 0.000000 0.000000 0.000000 13.747487
#
#
# Mechanical properties :
#
#
# Convention : Reuss Voigt Hill
#
# Bulk Modulus (GPa) = 53.59732 53.83204 53.71468
# Shear Modulus (GPa) = 0.35994 22.64876 11.50435
#
# Velocity S-wave (km/s) = 0.43952 3.48647 2.48482
# Velocity P-wave (km/s) = 5.38730 6.71556 6.08776
#
# Compressibility (1/GPa) = 0.01865765
#
# Stress axis : x y z
#
# Youngs Moduli (GPa) = 82.47433 82.47438 74.40174
#
# Poissons Ratio (x) = 0.26639 0.23387
# Poissons Ratio (y) = 0.26639 0.23385
# Poissons Ratio (z) = 0.25924 0.25923
#
# Static dielectric constant tensor:
#      x y z
#    x 3.438030 0.000000 0.000000 
#    y 0.000000 3.438030 0.000000 
#    z 0.000000 0.000000 3.619630 
# 
# 
# High freq. dielectric constant tensor:
#      x y z
#    x 1.709270 0.000000 0.000000 
#    y 0.000000 1.709270 0.000000 
#    z 0.000000 0.000000 1.736000 
# 
# From -- ./inp_files/6283.got.cif
#   From: 2010.03.12/outbox.cif.g09.slc.cpg/sg115_4_cif.got.tgz:6283.got - 2010.04.14 02:11:21.
