data_PCOD8309227
_publ_section_title
;
Structure prediction by ZEFSAII (Michael W. Deem and Ramdas Pophale) SiO2 
 PCOD8309227
Probable space group: P -4 M 2
;
_chemical_formula_sum "Si O2"
_cell_formula_units_Z 64
_cell_length_a 19.117558
_cell_length_b 19.117558
_cell_length_c 12.601769
_cell_angle_alpha 90.000000
_cell_angle_beta 90.000000
_cell_angle_gamma 90.000000
_cell_volume 4605.707437
_symmetry_space_group_name_H-M "P -4 M 2"
_symmetry_group_IT_number 115
_symmetry_cell_setting 'tetragonal'
loop_
_space_group_symop_operation_xyz
x,y,z
y,-x,-z
-x,-y,z
-y,x,-z
y,x,-z
-y,-x,-z
-x,y,z
x,-y,z
loop_
_atom_site_type_symbol
_atom_site_label
_atom_site_fract_x
_atom_site_fract_y
_atom_site_fract_z
Si Si1 0.694947 0.578308 0.236114
Si Si2 0.809120 0.418116 0.847172
Si Si3 0.582777 0.349121 0.103778
Si Si4 0.583396 0.921763 0.989399
Si Si5 0.422464 0.312246 0.517064
Si Si6 0.078656 0.416645 0.432484
Si Si7 0.847898 0.583391 0.220502
Si Si8 0.583517 0.818036 0.389966
O O1 0.682365 0.500000 0.191308
O O2 0.626976 0.623171 0.204242
O O3 0.707557 0.577008 0.360737
O O4 0.768744 0.609532 0.193409
O O5 0.821323 0.500000 0.836138
O O6 0.733866 0.403845 0.900719
O O7 0.869240 0.385507 0.921970
O O8 0.817947 0.385271 0.729315
O O9 0.500000 0.365978 0.117674
O O10 0.613216 0.386785 0.000000
O O11 0.500000 0.919672 0.991618
O O12 0.611088 0.000000 0.012306
O O13 0.609924 0.897889 0.873761
O O14 0.384252 0.384252 0.500000
O O15 0.500000 0.324598 0.473530
O O16 0.386564 0.250275 0.449856
O O17 0.077575 0.500000 0.426346
O O18 0.121477 0.386774 0.331225
O O19 0.114396 0.391700 0.542752
O O20 0.000000 0.386585 0.430421
O O21 0.845374 0.500000 0.227000
O O22 0.500000 0.814832 0.389075
#
# Coordination Sequence:
#
# PCOD8309227 Si02
#       8
#     8   8   8   8   8   8   8   8
#     4  10  19  30  44  57  73  98 130 171 219 260
#     4   9  18  30  42  55  76 101 125 156 200 252
#     4  11  22  34  45  58  74 100 137 179 224 265
#     4   9  16  25  39  58  77  97 119 146 187 242
#     4  10  19  30  42  55  71  96 129 168 212 253
#     4   9  15  23  39  61  80  99 121 148 190 242
#     4   9  15  26  40  57  79  99 122 155 196 246
#     4   9  16  28  41  55  76  98 121 153 193 244
#
# _framework density 13.895802
#
# number of rings (size 3 to 8) (size 9 to 14) (size 15 to 20)
#    0.000    2.500    1.250    2.250    0.000    6.500 
#    0.000    3.750    0.000    0.000    0.000    0.000 
#    0.000    0.000    0.000    0.000    0.000    0.000 
#
# Total GULP energy -793184.014714 kJ/mol
# GULP energy per Si atom -12393.500230 kJ/mol
# Density = 1.386417 g / cm^3
# Si number density = 13.895802 Si / 1000 Ang^3
#
#
#
# Elastic Constant Matrix: (Units=GPa)
#
#
# Indices 1 2 3 4 5 6 
#
# 1 66.4682 27.9377 30.2375 0.0000 0.0000 0.0000
# 2 27.9377 66.4678 30.2363 0.0000 0.0000 0.0000
# 3 30.2375 30.2363 85.2310 0.0000 0.0000 0.0000
# 4 0.0000 0.0000 0.0000 18.3022 0.0000 0.0000
# 5 0.0000 0.0000 0.0000 0.0000 18.3022 0.0000
# 6 0.0000 0.0000 0.0000 0.0000 0.0000 0.4163
#
#
#
# Elastic Compliance Matrix: (Units=1/GPa)
#
#
# Indices 1 2 3 4 5 6 
#
# 1 0.019831 -0.006123 -0.004863 0.000000 0.000000 0.000000
# 2 -0.006123 0.019831 -0.004863 0.000000 0.000000 0.000000
# 3 -0.004863 -0.004863 0.015183 0.000000 0.000000 0.000000
# 4 0.000000 0.000000 0.000000 0.054638 0.000000 0.000000
# 5 0.000000 0.000000 0.000000 0.000000 0.054638 0.000000
# 6 0.000000 0.000000 0.000000 0.000000 0.000000 2.401862
#
#
# Mechanical properties :
#
#
# Convention : Reuss Voigt Hill
#
# Bulk Modulus (GPa) = 43.20279 43.88776 43.54528
# Shear Modulus (GPa) = 1.91909 16.05452 8.98681
#
# Velocity S-wave (km/s) = 1.17646 3.40273 2.54584
# Velocity P-wave (km/s) = 5.74486 6.86223 6.32825
#
# Compressibility (1/GPa) = 0.02314665
#
# Stress axis : x y z
#
# Youngs Moduli (GPa) = 50.42681 50.42719 65.86202
#
# Poissons Ratio (x) = 0.30876 0.32030
# Poissons Ratio (y) = 0.30876 0.32027
# Poissons Ratio (z) = 0.24524 0.24522
#
# Static dielectric constant tensor:
#      x y z
#    x 2.615350 0.000000 0.000000 
#    y 0.000000 2.615350 0.000000 
#    z 0.000000 0.000000 3.049170 
# 
# 
# High freq. dielectric constant tensor:
#      x y z
#    x 1.487940 0.000000 0.000000 
#    y 0.000000 1.487940 0.000000 
#    z 0.000000 0.000000 1.550210 
# 
# From -- ./inp_files/3220.got.cif
#   From: 2010.03.12/outbox.cif.g09.slc.cpg/sg115_2_cif.got.tgz:3220.got - 2010.04.14 02:11:21.
