data_PCOD8309385
_publ_section_title
;
Structure prediction by ZEFSAII (Michael W. Deem and Ramdas Pophale) SiO2 
 PCOD8309385
Probable space group: P -4 M 2
;
_chemical_formula_sum "Si O2"
_cell_formula_units_Z 48
_cell_length_a 9.561492
_cell_length_b 9.561492
_cell_length_c 30.200301
_cell_angle_alpha 90.000000
_cell_angle_beta 90.000000
_cell_angle_gamma 90.000000
_cell_volume 2760.975822
_symmetry_space_group_name_H-M "P -4 M 2"
_symmetry_group_IT_number 115
_symmetry_cell_setting 'tetragonal'
loop_
_space_group_symop_operation_xyz
x,y,z
y,-x,-z
-x,-y,z
-y,x,-z
y,x,-z
-y,-x,-z
-x,y,z
x,-y,z
loop_
_atom_site_type_symbol
_atom_site_label
_atom_site_fract_x
_atom_site_fract_y
_atom_site_fract_z
Si Si1 0.334725 0.162127 0.297556
Si Si2 0.666046 0.344931 0.216129
Si Si3 0.840713 0.837039 0.949490
Si Si4 0.161804 0.661473 0.365841
Si Si5 0.837548 0.342926 0.467495
Si Si6 0.335555 0.341066 0.882209
O O1 0.500000 0.182060 0.303619
O O2 0.280722 0.233362 0.252120
O O3 0.259203 0.236008 0.338215
O O4 0.292556 0.000000 0.296063
O O5 0.500000 0.352082 0.215484
O O6 0.724635 0.500000 0.228025
O O7 0.716044 0.299126 0.167119
O O8 0.739751 0.753146 0.917834
O O9 0.000000 0.793087 0.939806
O O10 0.819524 0.000000 0.940317
O O11 0.801260 0.801260 0.000000
O O12 0.200330 0.500000 0.356040
O O13 0.191524 0.698498 0.416823
O O14 0.000000 0.688664 0.354059
O O15 0.759541 0.240459 0.500000
O O16 0.784501 0.500000 0.476184
O O17 0.000000 0.330964 0.478191
O O18 0.500000 0.331654 0.890404
O O19 0.283084 0.500000 0.887752
#
# Coordination Sequence:
#
# PCOD8309385 Si02
#       6
#     8   8   8   8   8   8
#     4  10  20  32  49  76 104 128 160 203 246 288
#     4   8  15  30  50  70  96 130 163 196 239 290
#     4   9  19  35  51  68  95 131 167 201 239 286
#     4   9  19  36  54  71  96 132 169 202 240 288
#     4   9  19  35  53  74 100 129 163 203 244 288
#     4   9  18  32  51  76 101 124 157 202 246 289
#
# _framework density 17.385158000000001
#
# number of rings (size 3 to 8) (size 9 to 14) (size 15 to 20)
#    0.000    3.000    0.000    3.000    0.000    5.000 
#    0.000   10.000    0.000    1.000    0.000    0.000 
#    0.000    0.000    0.000    0.000    0.000    0.000 
#
# Total GULP energy -595090.121021 kJ/mol
# GULP energy per Si atom -12397.710855 kJ/mol
# Density = 1.734559 g / cm^3
# Si number density = 17.385158 Si / 1000 Ang^3
#
#
#
# Elastic Constant Matrix: (Units=GPa)
#
#
# Indices 1 2 3 4 5 6 
#
# 1 68.4476 42.7854 63.8859 0.0000 0.0000 0.0000
# 2 42.7854 68.4476 63.8859 0.0000 0.0000 0.0000
# 3 63.8859 63.8859 123.4474 0.0000 0.0000 0.0000
# 4 0.0000 0.0000 0.0000 940.9593 0.0000 0.0000
# 5 0.0000 0.0000 0.0000 0.0000 940.9593 0.0000
# 6 0.0000 0.0000 0.0000 0.0000 0.0000 32.3546
#
#
#
# Elastic Compliance Matrix: (Units=1/GPa)
#
#
# Indices 1 2 3 4 5 6 
#
# 1 0.030568 -0.008400 -0.011473 0.000000 0.000000 0.000000
# 2 -0.008400 0.030568 -0.011473 0.000000 0.000000 0.000000
# 3 -0.011473 -0.011473 0.019975 0.000000 0.000000 0.000000
# 4 0.000000 0.000000 0.000000 0.001063 0.000000 0.000000
# 5 0.000000 0.000000 0.000000 0.000000 0.001063 0.000000
# 6 0.000000 0.000000 0.000000 0.000000 0.000000 0.030907
#
#
# Mechanical properties :
#
#
# Convention : Reuss Voigt Hill
#
# Bulk Modulus (GPa) = 54.28332 66.82857 60.55594
# Shear Modulus (GPa) = 27.32624 388.84032 208.08328
#
# Velocity S-wave (km/s) = 3.96891 14.97157 10.95217
# Velocity P-wave (km/s) = 7.23151 18.36810 13.95854
#
# Compressibility (1/GPa) = 0.01842187
#
# Stress axis : x y z
#
# Youngs Moduli (GPa) = 32.71380 32.71380 50.06256
#
# Poissons Ratio (x) = 0.27479 0.57434
# Poissons Ratio (y) = 0.27479 0.57434
# Poissons Ratio (z) = 0.37531 0.37531
#
# Static dielectric constant tensor:
#      x y z
#    x 3.072750 0.000000 0.000000 
#    y 0.000000 3.072750 0.000000 
#    z 0.000000 0.000000 3.334120 
# 
# 
# High freq. dielectric constant tensor:
#      x y z
#    x 1.661150 0.000000 0.000000 
#    y 0.000000 1.661150 0.000000 
#    z 0.000000 0.000000 1.681110 
# 
# From -- ./inp_files/5977.got.cif
#   From: 2010.03.12/outbox.cif.g09.slc.cpg/sg115_3_cif.got.tgz:5977.got - 2010.04.14 02:11:21.
