data_PCOD8309232
_publ_section_title
;
Structure prediction by ZEFSAII (Michael W. Deem and Ramdas Pophale) SiO2 
 PCOD8309232
Probable space group: P -4 M 2
;
_chemical_formula_sum "Si O2"
_cell_formula_units_Z 36
_cell_length_a 18.274993
_cell_length_b 18.274993
_cell_length_c 7.512206
_cell_angle_alpha 90.000000
_cell_angle_beta 90.000000
_cell_angle_gamma 90.000000
_cell_volume 2508.891772
_symmetry_space_group_name_H-M "P -4 M 2"
_symmetry_group_IT_number 115
_symmetry_cell_setting 'tetragonal'
loop_
_space_group_symop_operation_xyz
x,y,z
y,-x,-z
-x,-y,z
-y,x,-z
y,x,-z
-y,-x,-z
-x,y,z
x,-y,z
loop_
_atom_site_type_symbol
_atom_site_label
_atom_site_fract_x
_atom_site_fract_y
_atom_site_fract_z
Si Si1 0.844719 0.083452 0.350139
Si Si2 0.693077 0.086171 0.905277
Si Si3 0.691273 0.086692 0.498226
Si Si4 0.839201 0.160800 0.000000
Si Si5 0.418956 0.085834 0.206043
O O1 0.906690 0.093311 0.500000
O O2 0.768846 0.116946 0.426865
O O3 0.834864 0.000000 0.296657
O O4 0.873048 0.125442 0.176580
O O5 0.677925 0.110227 0.702217
O O6 0.753751 0.139587 0.991290
O O7 0.716362 0.000000 0.919320
O O8 0.619843 0.101436 0.017327
O O9 0.627234 0.118997 0.371947
O O10 0.692892 0.000000 0.483743
O O11 0.500000 0.121640 0.203190
O O12 0.426143 0.000000 0.235962
#
# Coordination Sequence:
#
# PCOD8309232 Si02
#       5
#     8   8   8   4   8
#     4  11  22  34  47  62  81 109 148 194 237 272
#     4  10  19  30  45  65  86 111 146 184 223 267
#     4   9  17  30  45  60  80 106 136 174 224 274
#     4  12  20  30  50  65  82 116 150 185 228 274
#     4   9  17  29  45  65  86 105 132 177 227 272
#
# _framework density 14.348965
#
# number of rings (size 3 to 8) (size 9 to 14) (size 15 to 20)
#    0.000    2.000    4.444    0.667    0.000    2.000 
#    0.000    4.444    0.000    3.000    0.000    0.000 
#    0.000    0.000    0.000    0.000    0.000    0.556 
#
# Total GULP energy -446240.128446 kJ/mol
# GULP energy per Si atom -12395.559124 kJ/mol
# Density = 1.431631 g / cm^3
# Si number density = 14.348965 Si / 1000 Ang^3
#
#
#
# Elastic Constant Matrix: (Units=GPa)
#
#
# Indices 1 2 3 4 5 6 
#
# 1 42.5178 24.8202 21.2231 0.0000 0.0000 0.0000
# 2 24.8202 42.5218 21.2236 0.0000 0.0000 0.0000
# 3 21.2231 21.2236 112.2766 0.0000 0.0000 0.0000
# 4 0.0000 0.0000 0.0000 18.5006 0.0000 0.0000
# 5 0.0000 0.0000 0.0000 0.0000 18.5004 0.0000
# 6 0.0000 0.0000 0.0000 0.0000 0.0000 4.3692
#
#
#
# Elastic Compliance Matrix: (Units=1/GPa)
#
#
# Indices 1 2 3 4 5 6 
#
# 1 0.036680 -0.019820 -0.003187 0.000000 0.000000 0.000000
# 2 -0.019820 0.036677 -0.003187 0.000000 0.000000 0.000000
# 3 -0.003187 -0.003187 0.010111 0.000000 0.000000 0.000000
# 4 0.000000 0.000000 0.000000 0.054052 0.000000 0.000000
# 5 0.000000 0.000000 0.000000 0.000000 0.054053 0.000000
# 6 0.000000 0.000000 0.000000 0.000000 0.000000 0.228873
#
#
# Mechanical properties :
#
#
# Convention : Reuss Voigt Hill
#
# Bulk Modulus (GPa) = 32.17317 36.87221 34.52269
# Shear Modulus (GPa) = 10.34780 16.94399 13.64589
#
# Velocity S-wave (km/s) = 2.68834 3.44008 3.08718
# Velocity P-wave (km/s) = 5.66629 6.44449 6.06788
#
# Compressibility (1/GPa) = 0.03108180
#
# Stress axis : x y z
#
# Youngs Moduli (GPa) = 27.26245 27.26517 98.89875
#
# Poissons Ratio (x) = 0.54039 0.31519
# Poissons Ratio (y) = 0.54034 0.31514
# Poissons Ratio (z) = 0.08689 0.08688
#
# Static dielectric constant tensor:
#      x y z
#    x 2.648860 0.000000 0.000000 
#    y 0.000000 2.648850 0.000000 
#    z 0.000000 0.000000 3.102050 
# 
# 
# High freq. dielectric constant tensor:
#      x y z
#    x 1.506650 0.000000 0.000000 
#    y 0.000000 1.506650 0.000000 
#    z 0.000000 0.000000 1.576350 
# 
# From -- ./inp_files/1503.got.cif
#   From: 2010.03.12/outbox.cif.g09.slc.cpg/sg115_1_cif.got.tgz:1503.got - 2010.04.14 02:11:21.
