data_PCOD8309053
_publ_section_title
;
Structure prediction by ZEFSAII (Michael W. Deem and Ramdas Pophale) SiO2 
 PCOD8309053
Probable space group: P -4 21 C
;
_chemical_formula_sum "Si O2"
_cell_formula_units_Z 28
_cell_length_a 8.223077
_cell_length_b 8.223077
_cell_length_c 18.361496
_cell_angle_alpha 90.000000
_cell_angle_beta 90.000000
_cell_angle_gamma 90.000000
_cell_volume 1241.585913
_symmetry_space_group_name_H-M "P -4 21 C"
_symmetry_group_IT_number 114
_symmetry_cell_setting 'tetragonal'
loop_
_space_group_symop_operation_xyz
x,y,z
y,-x,-z
-x,-y,z
-y,x,-z
1/2+x,1/2-y,1/2-z
1/2-x,1/2+y,1/2-z
1/2-y,1/2-x,1/2+z
1/2+y,1/2+x,1/2+z
loop_
_atom_site_type_symbol
_atom_site_label
_atom_site_fract_x
_atom_site_fract_y
_atom_site_fract_z
Si Si1 0.500000 0.000000 0.090049
Si Si2 0.243979 0.420977 0.796553
Si Si3 0.253801 0.531611 0.017460
Si Si4 0.433191 0.753133 0.823149
O O1 0.382792 0.890143 0.140675
O O2 0.604912 0.889229 0.033191
O O3 0.315086 0.599521 0.810168
O O4 0.386152 0.287393 0.795018
O O5 0.145920 0.405017 0.719964
O O6 0.196528 0.447282 0.092331
O O7 0.389173 0.667293 0.033680
#
# Coordination Sequence:
#
# PCOD8309053 Si02
#       4
#     4   8   8   8
#     4  12  22  38  70  94 130 178 234 282 340 420
#     4  11  23  41  67 100 137 178 225 292 353 422
#     4  11  21  43  67  96 131 183 235 282 347 425
#     4  11  23  43  67 101 139 179 234 288 350 437
#
# _framework density 22.551801999999999
#
# number of rings (size 3 to 8) (size 9 to 14) (size 15 to 20)
#    0.000    0.857    5.714    3.429    0.000    3.429 
#    0.000    0.000    0.000    0.857    0.000    0.000 
#    0.000    0.000    0.000    0.000    0.000    0.000 
#
# Total GULP energy -346930.124477 kJ/mol
# GULP energy per Si atom -12390.361588 kJ/mol
# Density = 2.250047 g / cm^3
# Si number density = 22.551802 Si / 1000 Ang^3
#
#
#
# Elastic Constant Matrix: (Units=GPa)
#
#
# Indices 1 2 3 4 5 6 
#
# 1 79.6311 22.0761 50.1342 0.0000 0.0000 0.0000
# 2 22.0761 79.6311 50.1342 0.0000 0.0000 0.0000
# 3 50.1342 50.1342 177.7184 0.0000 0.0000 0.0000
# 4 0.0000 0.0000 0.0000 42.7233 0.0000 0.0000
# 5 0.0000 0.0000 0.0000 0.0000 42.7233 0.0000
# 6 0.0000 0.0000 0.0000 0.0000 0.0000 25.1619
#
#
#
# Elastic Compliance Matrix: (Units=1/GPa)
#
#
# Indices 1 2 3 4 5 6 
#
# 1 0.015497 -0.001877 -0.003842 0.000000 0.000000 0.000000
# 2 -0.001877 0.015497 -0.003842 0.000000 0.000000 0.000000
# 3 -0.003842 -0.003842 0.007795 0.000000 0.000000 0.000000
# 4 0.000000 0.000000 0.000000 0.023406 0.000000 0.000000
# 5 0.000000 0.000000 0.000000 0.000000 0.023406 0.000000
# 6 0.000000 0.000000 0.000000 0.000000 0.000000 0.039743
#
#
# Mechanical properties :
#
#
# Convention : Reuss Voigt Hill
#
# Bulk Modulus (GPa) = 50.84960 64.62996 57.73978
# Shear Modulus (GPa) = 33.10746 36.43079 34.76912
#
# Velocity S-wave (km/s) = 3.83569 4.02360 3.93077
# Velocity P-wave (km/s) = 6.49719 7.09270 6.80147
#
# Compressibility (1/GPa) = 0.01966584
#
# Stress axis : x y z
#
# Youngs Moduli (GPa) = 64.52729 64.52729 128.29343
#
# Poissons Ratio (x) = 0.12114 0.49293
# Poissons Ratio (y) = 0.12114 0.49293
# Poissons Ratio (z) = 0.24793 0.24793
#
# Static dielectric constant tensor:
#      x y z
#    x 4.006250 0.000000 0.000000 
#    y 0.000000 4.006250 0.000000 
#    z 0.000000 0.000000 4.143370 
# 
# 
# High freq. dielectric constant tensor:
#      x y z
#    x 1.869470 0.000000 0.000000 
#    y 0.000000 1.869470 0.000000 
#    z 0.000000 0.000000 1.909630 
# 
# From -- ./inp_files/2420.got.cif
#   From: 2010.03.12/outbox.cif.g09.slc.cpg/sg114_2_cif.got.tgz:2420.got - 2010.04.14 02:08:34.
