data_PCOD8309290
_publ_section_title
;
Structure prediction by ZEFSAII (Michael W. Deem and Ramdas Pophale) SiO2 
 PCOD8309290
Probable space group: P -4 M 2
;
_chemical_formula_sum "Si O2"
_cell_formula_units_Z 32
_cell_length_a 7.854110
_cell_length_b 7.854110
_cell_length_c 24.279871
_cell_angle_alpha 90.000000
_cell_angle_beta 90.000000
_cell_angle_gamma 90.000000
_cell_volume 1497.753468
_symmetry_space_group_name_H-M "P -4 M 2"
_symmetry_group_IT_number 115
_symmetry_cell_setting 'tetragonal'
loop_
_space_group_symop_operation_xyz
x,y,z
y,-x,-z
-x,-y,z
-y,x,-z
y,x,-z
-y,-x,-z
-x,y,z
x,-y,z
loop_
_atom_site_type_symbol
_atom_site_label
_atom_site_fract_x
_atom_site_fract_y
_atom_site_fract_z
Si Si1 0.688484 0.805972 0.324768
Si Si2 0.311327 0.701769 0.558573
Si Si3 0.202132 0.000000 0.868800
Si Si4 0.204385 0.000000 0.744799
Si Si5 0.309562 0.802329 0.057388
O O1 0.500000 0.718086 0.318170
O O2 0.753166 0.798544 0.388146
O O3 0.830521 0.721556 0.285177
O O4 0.669432 0.000000 0.307294
O O5 0.231522 0.768479 0.500000
O O6 0.500000 0.776688 0.568445
O O7 0.318894 0.500000 0.552082
O O8 0.274745 0.000000 0.807002
O O9 0.268897 0.170166 0.899552
O O10 0.000000 0.000000 0.866492
O O11 0.000000 0.000000 0.741671
O O12 0.500000 0.774182 0.081590
O O13 0.273405 0.000000 0.045354
O O14 0.296497 0.703504 0.000000
#
# Coordination Sequence:
#
# PCOD8309290 Si02
#       5
#     8   8   4   4   8
#     4   9  17  30  48  68  96 133 173 220 268 317
#     4   8  14  27  47  68  91 121 160 209 265 322
#     4   9  18  32  53  79 111 144 181 230 266 314
#     4   9  18  32  49  73 105 141 178 217 264 312
#     4  10  19  32  55  83 111 145 182 225 281 333
#
# _framework density 21.365328999999999
#
# number of rings (size 3 to 8) (size 9 to 14) (size 15 to 20)
#    0.000    3.000    1.250    0.750    0.000    1.250 
#    2.250    5.625    0.000    3.000    0.000    3.500 
#    0.000    0.000    0.000    0.000    0.000    0.000 
#
# Total GULP energy -396470.483645 kJ/mol
# GULP energy per Si atom -12389.702614 kJ/mol
# Density = 2.131670 g / cm^3
# Si number density = 21.365329 Si / 1000 Ang^3
#
#
#
# Elastic Constant Matrix: (Units=GPa)
#
#
# Indices 1 2 3 4 5 6 
#
# 1 77.2586 23.4226 50.2696 0.0000 0.0000 0.0000
# 2 23.4226 77.2589 50.2703 0.0000 0.0000 0.0000
# 3 50.2696 50.2703 187.9569 0.0000 0.0000 0.0000
# 4 0.0000 0.0000 0.0000 10.8501 0.0000 0.0000
# 5 0.0000 0.0000 0.0000 0.0000 10.8499 0.0000
# 6 0.0000 0.0000 0.0000 0.0000 0.0000 7.1933
#
#
#
# Elastic Compliance Matrix: (Units=1/GPa)
#
#
# Indices 1 2 3 4 5 6 
#
# 1 0.016063 -0.002512 -0.003624 0.000000 0.000000 0.000000
# 2 -0.002512 0.016063 -0.003625 0.000000 0.000000 0.000000
# 3 -0.003624 -0.003625 0.007259 0.000000 0.000000 0.000000
# 4 0.000000 0.000000 0.000000 0.092165 0.000000 0.000000
# 5 0.000000 0.000000 0.000000 0.000000 0.092167 0.000000
# 6 0.000000 0.000000 0.000000 0.000000 0.000000 0.139019
#
#
# Mechanical properties :
#
#
# Convention : Reuss Voigt Hill
#
# Bulk Modulus (GPa) = 50.34063 65.59995 57.97029
# Shear Modulus (GPa) = 12.85748 20.34611 16.60180
#
# Velocity S-wave (km/s) = 2.45581 3.08928 2.79057
# Velocity P-wave (km/s) = 5.62621 6.59511 6.12983
#
# Compressibility (1/GPa) = 0.01986467
#
# Stress axis : x y z
#
# Youngs Moduli (GPa) = 62.25375 62.25369 137.75751
#
# Poissons Ratio (x) = 0.15636 0.49929
# Poissons Ratio (y) = 0.15636 0.49930
# Poissons Ratio (z) = 0.22563 0.22564
#
# Static dielectric constant tensor:
#      x y z
#    x 3.659870 0.000000 0.000000 
#    y 0.000000 3.659870 0.000000 
#    z 0.000000 0.000000 4.020110 
# 
# 
# High freq. dielectric constant tensor:
#      x y z
#    x 1.808790 0.000000 0.000000 
#    y 0.000000 1.808790 0.000000 
#    z 0.000000 0.000000 1.833210 
# 
# From -- ./inp_files/5028.got.cif
#   From: 2010.03.12/outbox.cif.g09.slc.cpg/sg115_3_cif.got.tgz:5028.got - 2010.04.14 02:11:21.
