data_PCOD8309948
_publ_section_title
;
Structure prediction by ZEFSAII (Michael W. Deem and Ramdas Pophale) SiO2 
 PCOD8309948
Probable space group: P -4 M 2
;
_chemical_formula_sum "Si O2"
_cell_formula_units_Z 56
_cell_length_a 13.841004
_cell_length_b 13.841004
_cell_length_c 15.350790
_cell_angle_alpha 90.000000
_cell_angle_beta 90.000000
_cell_angle_gamma 90.000000
_cell_volume 2940.802906
_symmetry_space_group_name_H-M "P -4 M 2"
_symmetry_group_IT_number 115
_symmetry_cell_setting 'tetragonal'
loop_
_space_group_symop_operation_xyz
x,y,z
y,-x,-z
-x,-y,z
-y,x,-z
y,x,-z
-y,-x,-z
-x,y,z
x,-y,z
loop_
_atom_site_type_symbol
_atom_site_label
_atom_site_fract_x
_atom_site_fract_y
_atom_site_fract_z
Si Si1 0.794786 0.887196 0.417801
Si Si2 0.297967 0.205224 0.154840
Si Si3 0.112721 0.392183 0.683294
Si Si4 0.889360 0.611526 0.006442
Si Si5 0.887645 0.396895 0.199382
Si Si6 0.390870 0.611656 0.897715
Si Si7 0.889434 0.195142 0.252798
O O1 0.822993 0.822993 0.500000
O O2 0.686228 0.856965 0.390007
O O3 0.869187 0.864201 0.339904
O O4 0.803213 0.000000 0.441526
O O5 0.371604 0.161956 0.224964
O O6 0.321049 0.169334 0.058590
O O7 0.317375 0.320863 0.157531
O O8 0.188531 0.170309 0.177729
O O9 0.140534 0.500000 0.650662
O O10 0.000000 0.382613 0.700741
O O11 0.874961 0.500000 0.980256
O O12 0.000000 0.643059 0.999673
O O13 0.845478 0.629971 0.103242
O O14 0.845321 0.500000 0.233899
O O15 0.872258 0.310728 0.269009
O O16 0.000000 0.411921 0.180947
O O17 0.500000 0.640038 0.872104
O O18 0.370162 0.500000 0.873572
O O19 0.373527 0.626473 0.000000
O O20 0.000000 0.174311 0.222142
#
# Coordination Sequence:
#
# PCOD8309948 Si02
#       7
#     8   8   8   8   8   8   8
#     4  10  21  38  61  85 106 136 178 218 261 325
#     4  11  20  29  50  74  99 139 183 215 262 319
#     4   9  18  34  56  84 114 135 161 216 280 325
#     4   9  17  29  48  74  99 127 171 222 264 308
#     4   8  16  32  50  68  96 132 167 210 262 308
#     4   9  19  33  46  67 101 136 175 224 269 312
#     4  10  22  36  49  72 105 136 173 222 270 316
#
# _framework density 19.042418999999999
#
# number of rings (size 3 to 8) (size 9 to 14) (size 15 to 20)
#    0.000    2.571    0.000    3.429    2.000    3.286 
#    0.000    0.714    0.000    5.143    0.000    2.000 
#    0.000    0.000    0.000    0.000    0.000    0.000 
#
# Total GULP energy -693996.001854 kJ/mol
# GULP energy per Si atom -12392.785747 kJ/mol
# Density = 1.899908 g / cm^3
# Si number density = 19.042419 Si / 1000 Ang^3
#
#
#
# Elastic Constant Matrix: (Units=GPa)
#
#
# Indices 1 2 3 4 5 6 
#
# 1 83.2011 36.3980 29.5488 0.0000 0.0000 0.0000
# 2 36.3980 83.2005 29.5490 0.0000 0.0000 0.0000
# 3 29.5488 29.5490 44.2149 0.0000 0.0000 0.0000
# 4 0.0000 0.0000 0.0000 23.9865 0.0000 0.0000
# 5 0.0000 0.0000 0.0000 0.0000 23.9865 0.0000
# 6 0.0000 0.0000 0.0000 0.0000 0.0000 24.0869
#
#
#
# Elastic Compliance Matrix: (Units=1/GPa)
#
#
# Indices 1 2 3 4 5 6 
#
# 1 0.016925 -0.004441 -0.008343 0.000000 0.000000 0.000000
# 2 -0.004441 0.016925 -0.008343 0.000000 0.000000 0.000000
# 3 -0.008343 -0.008343 0.033768 0.000000 0.000000 0.000000
# 4 0.000000 0.000000 0.000000 0.041690 0.000000 0.000000
# 5 0.000000 0.000000 0.000000 0.000000 0.041690 0.000000
# 6 0.000000 0.000000 0.000000 0.000000 0.000000 0.041516
#
#
# Mechanical properties :
#
#
# Convention : Reuss Voigt Hill
#
# Bulk Modulus (GPa) = 39.42618 44.62310 42.02464
# Shear Modulus (GPa) = 20.55724 22.08672 21.32198
#
# Velocity S-wave (km/s) = 3.28921 3.40938 3.34984
# Velocity P-wave (km/s) = 5.93082 6.24363 6.08923
#
# Compressibility (1/GPa) = 0.02536385
#
# Stress axis : x y z
#
# Youngs Moduli (GPa) = 59.08452 59.08376 29.61383
#
# Poissons Ratio (x) = 0.26240 0.24706
# Poissons Ratio (y) = 0.26241 0.24707
# Poissons Ratio (z) = 0.49293 0.49294
#
# Static dielectric constant tensor:
#      x y z
#    x 3.691400 0.000000 0.000000 
#    y 0.000000 3.691390 0.000000 
#    z 0.000000 0.000000 3.100170 
# 
# 
# High freq. dielectric constant tensor:
#      x y z
#    x 1.749510 0.000000 0.000000 
#    y 0.000000 1.749510 0.000000 
#    z 0.000000 0.000000 1.691220 
# 
# From -- ./inp_files/3782.got.cif
#   From: 2010.03.12/outbox.cif.g09.slc.cpg/sg115_2_cif.got.tgz:3782.got - 2010.04.14 02:11:21.
