data_PCOD8309749
_publ_section_title
;
Structure prediction by ZEFSAII (Michael W. Deem and Ramdas Pophale) SiO2 
 PCOD8309749
Probable space group: P -4 M 2
;
_chemical_formula_sum "Si O2"
_cell_formula_units_Z 40
_cell_length_a 9.471648
_cell_length_b 9.471648
_cell_length_c 25.974291
_cell_angle_alpha 90.000000
_cell_angle_beta 90.000000
_cell_angle_gamma 90.000000
_cell_volume 2330.208603
_symmetry_space_group_name_H-M "P -4 M 2"
_symmetry_group_IT_number 115
_symmetry_cell_setting 'tetragonal'
loop_
_space_group_symop_operation_xyz
x,y,z
y,-x,-z
-x,-y,z
-y,x,-z
y,x,-z
-y,-x,-z
-x,y,z
x,-y,z
loop_
_atom_site_type_symbol
_atom_site_label
_atom_site_fract_x
_atom_site_fract_y
_atom_site_fract_z
Si Si1 0.330877 0.658925 0.610130
Si Si2 0.664141 0.335860 0.500000
Si Si3 0.661367 0.832818 0.817361
Si Si4 0.662570 0.662570 0.000000
Si Si5 0.664096 0.164617 0.100292
Si Si6 0.332904 0.155626 0.702307
O O1 0.500000 0.658917 0.611066
O O2 0.274081 0.500000 0.616468
O O3 0.280349 0.727830 0.554762
O O4 0.266670 0.746582 0.657751
O O5 0.500000 0.305563 0.494272
O O6 0.500000 0.788402 0.829935
O O7 0.769258 0.753971 0.854069
O O8 0.702373 0.786264 0.759255
O O9 0.678537 0.000000 0.823884
O O10 0.708031 0.760049 0.047405
O O11 0.688382 0.500000 0.015633
O O12 0.500000 0.190556 0.112256
O O13 0.700083 0.000000 0.095363
O O14 0.500000 0.147611 0.696103
O O15 0.267571 0.000000 0.695358
#
# Coordination Sequence:
#
# PCOD8309749 Si02
#       6
#     8   4   8   4   8   8
#     4   8  12  18  30  50  76 105 137 174 216 261
#     4   7  10  16  26  44  72 100 126 165 216 262
#     4   9  18  32  49  69  94 124 157 193 232 273
#     4   9  18  34  54  73  96 128 160 187 220 265
#     4  10  21  35  51  74 101 125 152 188 228 270
#     4   8  14  24  37  56  83 112 143 181 222 261
#
# _framework density 17.165845999999998
#
# number of rings (size 3 to 8) (size 9 to 14) (size 15 to 20)
#    0.000    3.400    0.000    3.000    0.000    3.200 
#    0.000    4.000    0.000    0.000    0.000    1.400 
#    0.000    4.800    0.000    0.000    0.000    0.000 
#
# Total GULP energy -495567.854231 kJ/mol
# GULP energy per Si atom -12389.196356 kJ/mol
# Density = 1.712678 g / cm^3
# Si number density = 17.165846 Si / 1000 Ang^3
#
#
#
# Elastic Constant Matrix: (Units=GPa)
#
#
# Indices 1 2 3 4 5 6 
#
# 1 54.2799 27.4786 63.0420 0.0000 0.0000 0.0000
# 2 27.4786 54.2803 63.0420 0.0000 0.0000 0.0000
# 3 63.0420 63.0420 179.9908 0.0000 0.0000 0.0000
# 4 0.0000 0.0000 0.0000 0.7878 0.0000 0.0000
# 5 0.0000 0.0000 0.0000 0.0000 0.7879 0.0000
# 6 0.0000 0.0000 0.0000 0.0000 0.0000 16.6805
#
#
#
# Elastic Compliance Matrix: (Units=1/GPa)
#
#
# Indices 1 2 3 4 5 6 
#
# 1 0.031955 -0.005357 -0.009316 0.000000 0.000000 0.000000
# 2 -0.005357 0.031954 -0.009316 0.000000 0.000000 0.000000
# 3 -0.009316 -0.009316 0.012082 0.000000 0.000000 0.000000
# 4 0.000000 0.000000 0.000000 1.269435 0.000000 0.000000
# 5 0.000000 0.000000 0.000000 0.000000 1.269166 0.000000
# 6 0.000000 0.000000 0.000000 0.000000 0.000000 0.059950
#
#
# Mechanical properties :
#
#
# Convention : Reuss Voigt Hill
#
# Bulk Modulus (GPa) = 35.69738 66.18623 50.94180
# Shear Modulus (GPa) = 1.83026 12.65048 7.24037
#
# Velocity S-wave (km/s) = 1.03370 2.71764 2.05598
# Velocity P-wave (km/s) = 4.71863 6.96334 5.94784
#
# Compressibility (1/GPa) = 0.02801326
#
# Stress axis : x y z
#
# Youngs Moduli (GPa) = 31.29448 31.29482 82.77086
#
# Poissons Ratio (x) = 0.16765 0.77108
# Poissons Ratio (y) = 0.16764 0.77107
# Poissons Ratio (z) = 0.29153 0.29153
#
# Static dielectric constant tensor:
#      x y z
#    x 2.956130 0.000000 0.000000 
#    y 0.000000 2.956130 0.000000 
#    z 0.000000 0.000000 3.602200 
# 
# 
# High freq. dielectric constant tensor:
#      x y z
#    x 1.623170 0.000000 0.000000 
#    y 0.000000 1.623170 0.000000 
#    z 0.000000 0.000000 1.685670 
# 
# From -- ./inp_files/5517.got.cif
#   From: 2010.03.12/outbox.cif.g09.slc.cpg/sg115_3_cif.got.tgz:5517.got - 2010.04.14 02:11:21.
