data_PCOD8309782
_publ_section_title
;
Structure prediction by ZEFSAII (Michael W. Deem and Ramdas Pophale) SiO2 
 PCOD8309782
Probable space group: P -4 M 2
;
_chemical_formula_sum "Si O2"
_cell_formula_units_Z 31
_cell_length_a 7.505887
_cell_length_b 7.505887
_cell_length_c 28.578287
_cell_angle_alpha 90.000000
_cell_angle_beta 90.000000
_cell_angle_gamma 90.000000
_cell_volume 1610.053240
_symmetry_space_group_name_H-M "P -4 M 2"
_symmetry_group_IT_number 115
_symmetry_cell_setting 'tetragonal'
loop_
_space_group_symop_operation_xyz
x,y,z
y,-x,-z
-x,-y,z
-y,x,-z
y,x,-z
-y,-x,-z
-x,y,z
x,-y,z
loop_
_atom_site_type_symbol
_atom_site_label
_atom_site_fract_x
_atom_site_fract_y
_atom_site_fract_z
Si Si1 0.000000 0.294077 0.076777
Si Si2 0.288016 0.000000 0.621052
Si Si3 0.000000 0.705943 0.775571
Si Si4 0.000000 0.000000 0.698800
Si Si5 0.711232 0.303214 0.551200
Si Si6 0.703504 0.703514 0.150596
Si Si7 0.000000 0.000000 0.000000
O O1 0.174949 0.245779 0.106634
O O2 0.000000 0.178006 0.030454
O O3 0.000000 0.500000 0.061653
O O4 0.224602 0.827857 0.591863
O O5 0.500000 0.000000 0.631056
O O6 0.181431 0.000000 0.669198
O O7 0.825026 0.754169 0.805436
O O8 0.000000 0.500000 0.760453
O O9 0.000000 0.821977 0.729261
O O10 0.770325 0.229676 0.500000
O O11 0.500000 0.313835 0.550439
O O12 0.791775 0.500000 0.561077
O O13 0.500000 0.736927 0.135045
O O14 0.736955 0.500000 0.166145
#
# Coordination Sequence:
#
# PCOD8309782 Si02
#       7
#     4   4   4   2   8   8   1
#     4  10  21  35  53  79 110 145 182 218 258 304
#     4  10  22  37  51  72 104 139 169 200 246 303
#     4  10  21  37  57  80 104 130 167 218 267 310
#     4  12  26  37  49  76 108 139 173 200 242 318
#     4   8  15  31  55  78  98 125 166 213 254 291
#     4   9  18  35  60  84 102 128 173 226 273 308
#     4  12  24  34  48  76 116 160 190 204 244 312
#
# _framework density 19.254021000000002
#
# number of rings (size 3 to 8) (size 9 to 14) (size 15 to 20)
#    0.000    2.581    0.000    2.323    0.000    4.129 
#    0.000    1.290    0.000    0.000    0.000    0.000 
#    0.000    0.000    0.000    0.000    0.000    0.000 
#
# Total GULP energy -384381.430552 kJ/mol
# GULP energy per Si atom -12399.400986 kJ/mol
# Density = 1.921020 g / cm^3
# Si number density = 19.254021 Si / 1000 Ang^3
#
#
#
# Elastic Constant Matrix: (Units=GPa)
#
#
# Indices 1 2 3 4 5 6 
#
# 1 110.7995 49.5751 80.1144 0.0000 0.0000 0.0000
# 2 49.5751 110.7996 80.1145 0.0000 0.0000 0.0000
# 3 80.1144 80.1145 155.7789 0.0000 0.0000 0.0000
# 4 0.0000 0.0000 0.0000 24.7116 0.0000 0.0000
# 5 0.0000 0.0000 0.0000 0.0000 24.7109 0.0000
# 6 0.0000 0.0000 0.0000 0.0000 0.0000 18.2749
#
#
#
# Elastic Compliance Matrix: (Units=1/GPa)
#
#
# Indices 1 2 3 4 5 6 
#
# 1 0.014579 -0.001754 -0.006596 0.000000 0.000000 0.000000
# 2 -0.001754 0.014579 -0.006596 0.000000 0.000000 0.000000
# 3 -0.006596 -0.006596 0.013204 0.000000 0.000000 0.000000
# 4 0.000000 0.000000 0.000000 0.040467 0.000000 0.000000
# 5 0.000000 0.000000 0.000000 0.000000 0.040468 0.000000
# 6 0.000000 0.000000 0.000000 0.000000 0.000000 0.054720
#
#
# Mechanical properties :
#
#
# Convention : Reuss Voigt Hill
#
# Bulk Modulus (GPa) = 80.18727 88.55401 84.37064
# Shear Modulus (GPa) = 23.57770 24.71109 24.14439
#
# Velocity S-wave (km/s) = 3.50317 3.58638 3.54502
# Velocity P-wave (km/s) = 7.62236 7.95247 7.78916
#
# Compressibility (1/GPa) = 0.01247081
#
# Stress axis : x y z
#
# Youngs Moduli (GPa) = 68.59052 68.59066 75.73731
#
# Poissons Ratio (x) = 0.12031 0.49955
# Poissons Ratio (y) = 0.12031 0.49954
# Poissons Ratio (z) = 0.45241 0.45241
#
# Static dielectric constant tensor:
#      x y z
#    x 3.803180 0.000000 0.000000 
#    y 0.000000 3.803140 0.000000 
#    z 0.000000 0.000000 3.290040 
# 
# 
# High freq. dielectric constant tensor:
#      x y z
#    x 1.758030 0.000000 0.000000 
#    y 0.000000 1.758030 0.000000 
#    z 0.000000 0.000000 1.725270 
# 
# From -- ./inp_files/5050.got.cif
#   From: 2010.03.12/outbox.cif.g09.slc.cpg/sg115_3_cif.got.tgz:5050.got - 2010.04.14 02:11:21.
