data_PCOD8309879
_publ_section_title
;
Structure prediction by ZEFSAII (Michael W. Deem and Ramdas Pophale) SiO2 
 PCOD8309879
Probable space group: P -4 M 2
;
_chemical_formula_sum "Si O2"
_cell_formula_units_Z 48
_cell_length_a 9.123218
_cell_length_b 9.123218
_cell_length_c 30.651735
_cell_angle_alpha 90.000000
_cell_angle_beta 90.000000
_cell_angle_gamma 90.000000
_cell_volume 2551.239129
_symmetry_space_group_name_H-M "P -4 M 2"
_symmetry_group_IT_number 115
_symmetry_cell_setting 'tetragonal'
loop_
_space_group_symop_operation_xyz
x,y,z
y,-x,-z
-x,-y,z
-y,x,-z
y,x,-z
-y,-x,-z
-x,y,z
x,-y,z
loop_
_atom_site_type_symbol
_atom_site_label
_atom_site_fract_x
_atom_site_fract_y
_atom_site_fract_z
Si Si1 0.673582 0.336945 0.047883
Si Si2 0.837408 0.827159 0.121667
Si Si3 0.826468 0.164890 0.218913
Si Si4 0.672079 0.171757 0.539844
Si Si5 0.667930 0.330187 0.706191
Si Si6 0.172108 0.329980 0.617842
O O1 0.500000 0.340979 0.049130
O O2 0.736797 0.500000 0.055853
O O3 0.728438 0.231846 0.085560
O O4 0.722356 0.277645 0.000000
O O5 0.781179 0.784833 0.170104
O O6 0.000000 0.762172 0.113787
O O7 0.842965 0.000000 0.117757
O O8 0.758549 0.280055 0.252006
O O9 0.000000 0.167451 0.223554
O O10 0.768282 0.000000 0.228501
O O11 0.741076 0.258925 0.500000
O O12 0.500000 0.205075 0.541796
O O13 0.746263 0.226631 0.583930
O O14 0.703216 0.000000 0.533652
O O15 0.500000 0.289716 0.695550
O O16 0.685722 0.500000 0.717313
O O17 0.767609 0.286522 0.665159
O O18 0.205569 0.500000 0.606996
O O19 0.000000 0.297478 0.616265
#
# Coordination Sequence:
#
# PCOD8309879 Si02
#       6
#     8   8   8   8   8   8
#     4   9  19  35  52  72 101 135 170 210 257 310
#     4   9  19  35  53  75 103 134 171 215 261 311
#     4   9  19  36  55  75 103 139 176 215 262 314
#     4  11  24  40  59  85 115 147 184 224 268 319
#     4  10  21  36  55  81 111 142 178 220 266 316
#     4  10  21  38  60  84 110 143 183 224 267 316
#
# _framework density 18.814387
#
# number of rings (size 3 to 8) (size 9 to 14) (size 15 to 20)
#    0.000    2.333    0.000    3.500    0.000    9.000 
#    0.000    7.500    0.000    0.000    0.000    0.000 
#    0.000    0.000    0.000    0.000    0.000    0.000 
#
# Total GULP energy -595232.227481 kJ/mol
# GULP energy per Si atom -12400.671406 kJ/mol
# Density = 1.877157 g / cm^3
# Si number density = 18.814387 Si / 1000 Ang^3
#
#
#
# Elastic Constant Matrix: (Units=GPa)
#
#
# Indices 1 2 3 4 5 6 
#
# 1 71.2978 44.4186 58.8347 0.0000 0.0000 0.0000
# 2 44.4186 71.2961 58.8334 0.0000 0.0000 0.0000
# 3 58.8347 58.8334 141.2382 0.0000 0.0000 0.0000
# 4 0.0000 0.0000 0.0000 33.8134 0.0000 0.0000
# 5 0.0000 0.0000 0.0000 0.0000 33.8132 0.0000
# 6 0.0000 0.0000 0.0000 0.0000 0.0000 31.9261
#
#
#
# Elastic Compliance Matrix: (Units=1/GPa)
#
#
# Indices 1 2 3 4 5 6 
#
# 1 0.026098 -0.011106 -0.006245 0.000000 0.000000 0.000000
# 2 -0.011106 0.026099 -0.006245 0.000000 0.000000 0.000000
# 3 -0.006245 -0.006245 0.012283 0.000000 0.000000 0.000000
# 4 0.000000 0.000000 0.000000 0.029574 0.000000 0.000000
# 5 0.000000 0.000000 0.000000 0.000000 0.029574 0.000000
# 6 0.000000 0.000000 0.000000 0.000000 0.000000 0.031322
#
#
# Mechanical properties :
#
#
# Convention : Reuss Voigt Hill
#
# Bulk Modulus (GPa) = 57.84609 67.55617 62.70113
# Shear Modulus (GPa) = 24.04924 28.02691 26.03808
#
# Velocity S-wave (km/s) = 3.57912 3.86379 3.72418
# Velocity P-wave (km/s) = 6.92045 7.47595 7.20355
#
# Compressibility (1/GPa) = 0.01728725
#
# Stress axis : x y z
#
# Youngs Moduli (GPa) = 38.31643 38.31601 81.41145
#
# Poissons Ratio (x) = 0.42554 0.50845
# Poissons Ratio (y) = 0.42555 0.50843
# Poissons Ratio (z) = 0.23930 0.23929
#
# Static dielectric constant tensor:
#      x y z
#    x 3.454260 0.000000 0.000000 
#    y 0.000000 3.454260 0.000000 
#    z 0.000000 0.000000 3.651910 
# 
# 
# High freq. dielectric constant tensor:
#      x y z
#    x 1.728060 0.000000 0.000000 
#    y 0.000000 1.728060 0.000000 
#    z 0.000000 0.000000 1.744540 
# 
# From -- ./inp_files/6008.got.cif
#   From: 2010.03.12/outbox.cif.g09.slc.cpg/sg115_4_cif.got.tgz:6008.got - 2010.04.14 02:11:21.
