data_PCOD8309316
_publ_section_title
;
Structure prediction by ZEFSAII (Michael W. Deem and Ramdas Pophale) SiO2 
 PCOD8309316
Probable space group: P -4 M 2
;
_chemical_formula_sum "Si O2"
_cell_formula_units_Z 40
_cell_length_a 13.848372
_cell_length_b 13.848372
_cell_length_c 10.371485
_cell_angle_alpha 90.000000
_cell_angle_beta 90.000000
_cell_angle_gamma 90.000000
_cell_volume 1989.016501
_symmetry_space_group_name_H-M "P -4 M 2"
_symmetry_group_IT_number 115
_symmetry_cell_setting 'tetragonal'
loop_
_space_group_symop_operation_xyz
x,y,z
y,-x,-z
-x,-y,z
-y,x,-z
y,x,-z
-y,-x,-z
-x,y,z
x,-y,z
loop_
_atom_site_type_symbol
_atom_site_label
_atom_site_fract_x
_atom_site_fract_y
_atom_site_fract_z
Si Si1 0.285778 0.387157 0.619294
Si Si2 0.302933 0.112144 0.256057
Si Si3 0.107311 0.612006 0.019582
Si Si4 0.694733 0.612049 0.130654
Si Si5 0.895432 0.113232 0.355410
O O1 0.327265 0.327265 0.500000
O O2 0.304072 0.500000 0.593964
O O3 0.171830 0.366665 0.640307
O O4 0.334875 0.352630 0.750224
O O5 0.190844 0.147191 0.262233
O O6 0.315859 0.000000 0.293209
O O7 0.331887 0.133809 0.110324
O O8 0.109752 0.500000 0.982021
O O9 0.189835 0.635438 0.124614
O O10 0.000000 0.640976 0.071045
O O11 0.676795 0.500000 0.152307
O O12 0.643126 0.643126 0.000000
O O13 0.861669 0.138332 0.500000
O O14 0.000000 0.161992 0.320978
O O15 0.909706 0.000000 0.343273
#
# Coordination Sequence:
#
# PCOD8309316 Si02
#       5
#     8   8   8   8   8
#     4  12  26  43  62  90 127 162 201 257 320 373
#     4  10  19  34  59  87 118 160 205 248 302 373
#     4   9  18  35  60  88 117 152 199 258 314 361
#     4  11  22  39  63  88 115 155 209 256 301 371
#     4   8  14  26  46  75 113 156 200 243 289 349
#
# _framework density 20.110441000000002
#
# number of rings (size 3 to 8) (size 9 to 14) (size 15 to 20)
#    0.000    2.000    2.000    3.000    0.000    3.600 
#    0.000    2.000    0.000    3.600    0.000    0.000 
#    0.000    0.000    0.000    0.000    0.000    0.000 
#
# Total GULP energy -495775.081619 kJ/mol
# GULP energy per Si atom -12394.377040 kJ/mol
# Density = 2.006467 g / cm^3
# Si number density = 20.110441 Si / 1000 Ang^3
#
#
#
# Elastic Constant Matrix: (Units=GPa)
#
#
# Indices 1 2 3 4 5 6 
#
# 1 96.4722 28.2939 28.5522 0.0000 0.0000 0.0000
# 2 28.2939 96.4720 28.5523 0.0000 0.0000 0.0000
# 3 28.5522 28.5523 70.8340 0.0000 0.0000 0.0000
# 4 0.0000 0.0000 0.0000 40.3820 0.0000 0.0000
# 5 0.0000 0.0000 0.0000 0.0000 40.3835 0.0000
# 6 0.0000 0.0000 0.0000 0.0000 0.0000 25.3298
#
#
#
# Elastic Compliance Matrix: (Units=1/GPa)
#
#
# Indices 1 2 3 4 5 6 
#
# 1 0.012248 -0.002420 -0.003962 0.000000 0.000000 0.000000
# 2 -0.002420 0.012248 -0.003962 0.000000 0.000000 0.000000
# 3 -0.003962 -0.003962 0.017311 0.000000 0.000000 0.000000
# 4 0.000000 0.000000 0.000000 0.024764 0.000000 0.000000
# 5 0.000000 0.000000 0.000000 0.000000 0.024763 0.000000
# 6 0.000000 0.000000 0.000000 0.000000 0.000000 0.039479
#
#
# Mechanical properties :
#
#
# Convention : Reuss Voigt Hill
#
# Bulk Modulus (GPa) = 47.34580 48.28613 47.81597
# Shear Modulus (GPa) = 31.53810 33.11104 32.32457
#
# Velocity S-wave (km/s) = 3.96440 4.06206 4.01353
# Velocity P-wave (km/s) = 6.67453 6.78698 6.73099
#
# Compressibility (1/GPa) = 0.02112120
#
# Stress axis : x y z
#
# Youngs Moduli (GPa) = 81.64724 81.64703 57.76582
#
# Poissons Ratio (x) = 0.19755 0.22885
# Poissons Ratio (y) = 0.19756 0.22885
# Poissons Ratio (z) = 0.32345 0.32346
#
# Static dielectric constant tensor:
#      x y z
#    x 3.585310 0.000000 0.000000 
#    y 0.000000 3.585450 0.000000 
#    z 0.000000 0.000000 2.479010 
# 
# 
# High freq. dielectric constant tensor:
#      x y z
#    x 1.793500 0.000000 0.000000 
#    y 0.000000 1.793500 0.000000 
#    z 0.000000 0.000000 1.757680 
# 
# From -- ./inp_files/1614.got.cif
#   From: 2010.03.12/outbox.cif.g09.slc.cpg/sg115_1_cif.got.tgz:1614.got - 2010.04.14 02:11:21.
