data_PCOD8309073
_publ_section_title
;
Structure prediction by ZEFSAII (Michael W. Deem and Ramdas Pophale) SiO2 
 PCOD8309073
Probable space group: P -4 21 C
;
_chemical_formula_sum "Si O2"
_cell_formula_units_Z 52
_cell_length_a 15.789520
_cell_length_b 15.789520
_cell_length_c 8.886052
_cell_angle_alpha 90.000000
_cell_angle_beta 90.000000
_cell_angle_gamma 90.000000
_cell_volume 2215.372221
_symmetry_space_group_name_H-M "P -4 21 C"
_symmetry_group_IT_number 114
_symmetry_cell_setting 'tetragonal'
loop_
_space_group_symop_operation_xyz
x,y,z
y,-x,-z
-x,-y,z
-y,x,-z
1/2+x,1/2-y,1/2-z
1/2-x,1/2+y,1/2-z
1/2-y,1/2-x,1/2+z
1/2+y,1/2+x,1/2+z
loop_
_atom_site_type_symbol
_atom_site_label
_atom_site_fract_x
_atom_site_fract_y
_atom_site_fract_z
Si Si1 0.679387 0.260167 0.329265
Si Si2 0.665582 0.075499 0.326748
Si Si3 0.689466 0.560498 0.405537
Si Si4 0.730465 0.816950 0.448329
Si Si5 0.313295 0.012753 0.604645
Si Si6 0.199717 0.076279 0.861214
Si Si7 0.000000 0.500000 0.767496
O O1 0.634771 0.170864 0.286497
O O2 0.626389 0.306233 0.456069
O O3 0.770477 0.234628 0.402145
O O4 0.697358 0.316946 0.182189
O O5 0.727757 0.047395 0.194013
O O6 0.703741 0.068840 0.496091
O O7 0.583601 0.014919 0.330927
O O8 0.673620 0.470556 0.482549
O O9 0.615847 0.608158 0.306883
O O10 0.708213 0.911413 0.490818
O O11 0.646451 0.771013 0.387505
O O12 0.243894 0.011628 0.741049
O O13 0.412939 0.017032 0.642596
#
# Coordination Sequence:
#
# PCOD8309073 Si02
#       7
#     8   8   8   8   8   8   4
#     4  11  22  43  68  97 135 185 237 282 345 442
#     4  12  24  42  64 103 143 187 233 290 368 432
#     4  11  25  43  71  94 136 185 242 301 366 426
#     4  11  22  43  69  98 135 187 240 285 349 443
#     4  12  25  41  68 103 145 186 237 290 365 437
#     4  11  24  45  66  99 131 183 242 300 357 439
#     4  12  26  42  64 110 160 190 222 302 372 448
#
# _framework density 23.472355
#
# number of rings (size 3 to 8) (size 9 to 14) (size 15 to 20)
#    0.000    0.615    4.615    4.154    6.462    0.308 
#    0.000    0.000    0.000    0.000    0.000    0.000 
#    0.000    0.000    0.000    0.000    0.000    0.000 
#
# Total GULP energy -644244.695327 kJ/mol
# GULP energy per Si atom -12389.321064 kJ/mol
# Density = 2.341893 g / cm^3
# Si number density = 23.472355 Si / 1000 Ang^3
#
#
#
# Elastic Constant Matrix: (Units=GPa)
#
#
# Indices 1 2 3 4 5 6 
#
# 1 66.2375 32.4998 22.9356 0.0000 0.0000 0.0000
# 2 32.4998 66.2375 22.9356 0.0000 0.0000 0.0000
# 3 22.9356 22.9356 92.3418 0.0000 0.0000 0.0000
# 4 0.0000 0.0000 0.0000 34.7873 0.0000 0.0000
# 5 0.0000 0.0000 0.0000 0.0000 34.7873 0.0000
# 6 0.0000 0.0000 0.0000 0.0000 0.0000 42.9860
#
#
#
# Elastic Compliance Matrix: (Units=1/GPa)
#
#
# Indices 1 2 3 4 5 6 
#
# 1 0.020545 -0.009096 -0.002844 0.000000 0.000000 0.000000
# 2 -0.009096 0.020545 -0.002844 0.000000 0.000000 0.000000
# 3 -0.002844 -0.002844 0.012242 0.000000 0.000000 0.000000
# 4 0.000000 0.000000 0.000000 0.028746 0.000000 0.000000
# 5 0.000000 0.000000 0.000000 0.000000 0.028746 0.000000
# 6 0.000000 0.000000 0.000000 0.000000 0.000000 0.023263
#
#
# Mechanical properties :
#
#
# Convention : Reuss Voigt Hill
#
# Bulk Modulus (GPa) = 42.07825 42.39542 42.23683
# Shear Modulus (GPa) = 29.14180 32.27518 30.70849
#
# Velocity S-wave (km/s) = 3.52737 3.71216 3.62094
# Velocity P-wave (km/s) = 5.87838 6.03942 5.95945
#
# Compressibility (1/GPa) = 0.02376525
#
# Stress axis : x y z
#
# Youngs Moduli (GPa) = 48.67430 48.67430 81.68645
#
# Poissons Ratio (x) = 0.44273 0.23229
# Poissons Ratio (y) = 0.44273 0.23229
# Poissons Ratio (z) = 0.13841 0.13841
#
# Static dielectric constant tensor:
#      x y z
#    x 4.423090 0.000000 0.000000 
#    y 0.000000 4.423090 0.000000 
#    z 0.000000 0.000000 4.414410 
# 
# 
# High freq. dielectric constant tensor:
#      x y z
#    x 1.921760 0.000000 0.000000 
#    y 0.000000 1.921760 0.000000 
#    z 0.000000 0.000000 1.938280 
# 
# From -- ./inp_files/966.got.cif
#   From: 2010.03.12/outbox.cif.g09.slc.cpg/sg114_1_cif.got.tgz:966.got - 2010.04.14 02:08:34.
