data_PCOD8309587
_publ_section_title
;
Structure prediction by ZEFSAII (Michael W. Deem and Ramdas Pophale) SiO2 
 PCOD8309587
Probable space group: P -4 M 2
;
_chemical_formula_sum "Si O2"
_cell_formula_units_Z 40
_cell_length_a 8.836223
_cell_length_b 8.836223
_cell_length_c 25.755251
_cell_angle_alpha 90.000000
_cell_angle_beta 90.000000
_cell_angle_gamma 90.000000
_cell_volume 2010.940042
_symmetry_space_group_name_H-M "P -4 M 2"
_symmetry_group_IT_number 115
_symmetry_cell_setting 'tetragonal'
loop_
_space_group_symop_operation_xyz
x,y,z
y,-x,-z
-x,-y,z
-y,x,-z
y,x,-z
-y,-x,-z
-x,y,z
x,-y,z
loop_
_atom_site_type_symbol
_atom_site_label
_atom_site_fract_x
_atom_site_fract_y
_atom_site_fract_z
Si Si1 0.173156 0.321636 0.257160
Si Si2 0.820350 0.670416 0.048620
Si Si3 0.325270 0.824062 0.354159
Si Si4 0.675675 0.824815 0.548604
Si Si5 0.819988 0.829841 0.151678
O O1 0.184101 0.500000 0.252365
O O2 0.279826 0.266001 0.302994
O O3 0.236532 0.251686 0.203827
O O4 0.000000 0.270443 0.267861
O O5 0.758757 0.500000 0.044634
O O6 0.754802 0.743180 0.101481
O O7 0.000000 0.674251 0.049311
O O8 0.765665 0.765665 0.000000
O O9 0.500000 0.791015 0.367433
O O10 0.222295 0.770709 0.401487
O O11 0.295563 0.000000 0.344289
O O12 0.725078 0.725078 0.500000
O O13 0.500000 0.795337 0.560275
O O14 0.707189 0.000000 0.535952
O O15 0.000000 0.828052 0.150006
O O16 0.756333 0.000000 0.151143
#
# Coordination Sequence:
#
# PCOD8309587 Si02
#       5
#     8   8   8   8   8
#     4  10  20  35  57  85 115 147 185 229 278 333
#     4  10  20  34  53  78 108 142 181 226 275 328
#     4  11  24  40  58  83 115 151 192 235 278 328
#     4  11  24  41  62  89 118 149 188 232 279 333
#     4   9  17  31  54  82 110 142 181 226 276 329
#
# _framework density 19.891195
#
# number of rings (size 3 to 8) (size 9 to 14) (size 15 to 20)
#    0.000    1.800    0.000    4.200    0.000   12.800 
#    0.000    1.000    0.000    6.000    0.000    0.000 
#    0.000    0.000    0.000    0.000    0.000    0.000 
#
# Total GULP energy -496184.113684 kJ/mol
# GULP energy per Si atom -12404.602842 kJ/mol
# Density = 1.984592 g / cm^3
# Si number density = 19.891195 Si / 1000 Ang^3
#
#
#
# Elastic Constant Matrix: (Units=GPa)
#
#
# Indices 1 2 3 4 5 6 
#
# 1 44.1140 39.4707 20.6885 0.0000 0.0000 0.0000
# 2 39.4707 44.1140 20.6885 0.0000 0.0000 0.0000
# 3 20.6885 20.6885 131.5140 0.0000 0.0000 0.0000
# 4 0.0000 0.0000 0.0000 6966.8625 0.0000 0.0000
# 5 0.0000 0.0000 0.0000 0.0000 6966.8625 0.0000
# 6 0.0000 0.0000 0.0000 0.0000 0.0000 25.6319
#
#
#
# Elastic Compliance Matrix: (Units=1/GPa)
#
#
# Indices 1 2 3 4 5 6 
#
# 1 0.114170 -0.101195 -0.002041 0.000000 0.000000 0.000000
# 2 -0.101195 0.114170 -0.002041 0.000000 0.000000 0.000000
# 3 -0.002041 -0.002041 0.008246 0.000000 0.000000 0.000000
# 4 0.000000 0.000000 0.000000 0.000144 0.000000 0.000000
# 5 0.000000 0.000000 0.000000 0.000000 0.000144 0.000000
# 6 0.000000 0.000000 0.000000 0.000000 0.000000 0.039014
#
#
# Mechanical properties :
#
#
# Convention : Reuss Voigt Hill
#
# Bulk Modulus (GPa) = 38.41652 42.38195 40.39924
# Shear Modulus (GPa) = 10.09862 2801.13101 1405.61481
#
# Velocity S-wave (km/s) = 2.25565 37.56706 26.61176
# Velocity P-wave (km/s) = 5.11265 43.62413 31.05804
#
# Compressibility (1/GPa) = 0.02603047
#
# Stress axis : x y z
#
# Youngs Moduli (GPa) = 8.75890 8.75890 121.27254
#
# Poissons Ratio (x) = 0.88636 0.24752
# Poissons Ratio (y) = 0.88636 0.24752
# Poissons Ratio (z) = 0.01788 0.01788
#
# Static dielectric constant tensor:
#      x y z
#    x 2.762080 0.000000 0.000000 
#    y 0.000000 2.762080 0.000000 
#    z 0.000000 0.000000 3.973670 
# 
# 
# High freq. dielectric constant tensor:
#      x y z
#    x 1.770480 0.000000 0.000000 
#    y 0.000000 1.770480 0.000000 
#    z 0.000000 0.000000 1.793000 
# 
# From -- ./inp_files/5066.got.cif
#   From: 2010.03.12/outbox.cif.g09.slc.cpg/sg115_3_cif.got.tgz:5066.got - 2010.04.14 02:11:21.
