data_PCOD8309490
_publ_section_title
;
Structure prediction by ZEFSAII (Michael W. Deem and Ramdas Pophale) SiO2 
 PCOD8309490
Probable space group: P -4 M 2
;
_chemical_formula_sum "Si O2"
_cell_formula_units_Z 40
_cell_length_a 9.125786
_cell_length_b 9.125786
_cell_length_c 25.780590
_cell_angle_alpha 90.000000
_cell_angle_beta 90.000000
_cell_angle_gamma 90.000000
_cell_volume 2147.006765
_symmetry_space_group_name_H-M "P -4 M 2"
_symmetry_group_IT_number 115
_symmetry_cell_setting 'tetragonal'
loop_
_space_group_symop_operation_xyz
x,y,z
y,-x,-z
-x,-y,z
-y,x,-z
y,x,-z
-y,-x,-z
-x,y,z
x,-y,z
loop_
_atom_site_type_symbol
_atom_site_label
_atom_site_fract_x
_atom_site_fract_y
_atom_site_fract_z
Si Si1 0.664019 0.825673 0.655002
Si Si2 0.668475 0.171524 0.954582
Si Si3 0.163499 0.174863 0.556730
Si Si4 0.328387 0.668651 0.151069
Si Si5 0.172355 0.168763 0.757459
O O1 0.500000 0.763743 0.660184
O O2 0.733812 0.761361 0.602146
O O3 0.756376 0.772190 0.704391
O O4 0.664827 0.000000 0.652419
O O5 0.500000 0.207736 0.968275
O O6 0.716457 0.251262 0.902014
O O7 0.694245 0.000000 0.946966
O O8 0.771349 0.228652 0.000000
O O9 0.223978 0.223978 0.500000
O O10 0.000000 0.236597 0.565984
O O11 0.159197 0.000000 0.558079
O O12 0.500000 0.695965 0.144676
O O13 0.292515 0.500000 0.164428
O O14 0.267494 0.770434 0.196090
O O15 0.000000 0.187649 0.752166
O O16 0.216228 0.000000 0.767845
#
# Coordination Sequence:
#
# PCOD8309490 Si02
#       5
#     8   8   8   8   8
#     4   9  16  26  43  68  97 128 163 205 252 302
#     4  10  21  37  58  83 110 141 176 213 254 301
#     4   8  13  22  38  61  89 121 158 200 245 295
#     4  10  21  37  57  79 104 137 175 213 255 305
#     4  10  20  33  51  76 105 136 171 213 259 305
#
# _framework density 18.630586999999998
#
# number of rings (size 3 to 8) (size 9 to 14) (size 15 to 20)
#    0.000    2.600    0.000    3.000    0.000    6.800 
#    0.000    0.000    0.000    1.200    0.000    2.800 
#    0.000    0.000    0.000    0.000    0.000    0.000 
#
# Total GULP energy -496014.111446 kJ/mol
# GULP energy per Si atom -12400.352786 kJ/mol
# Density = 1.858818 g / cm^3
# Si number density = 18.630587 Si / 1000 Ang^3
#
#
#
# Elastic Constant Matrix: (Units=GPa)
#
#
# Indices 1 2 3 4 5 6 
#
# 1 77.6379 35.8833 64.6838 0.0000 0.0000 0.0000
# 2 35.8833 77.6388 64.6851 0.0000 0.0000 0.0000
# 3 64.6838 64.6851 171.5595 0.0000 0.0000 0.0000
# 4 0.0000 0.0000 0.0000 4.0686 0.0000 0.0000
# 5 0.0000 0.0000 0.0000 0.0000 4.0697 0.0000
# 6 0.0000 0.0000 0.0000 0.0000 0.0000 20.8713
#
#
#
# Elastic Compliance Matrix: (Units=1/GPa)
#
#
# Indices 1 2 3 4 5 6 
#
# 1 0.019697 -0.004252 -0.005823 0.000000 0.000000 0.000000
# 2 -0.004252 0.019697 -0.005824 0.000000 0.000000 0.000000
# 3 -0.005823 -0.005824 0.010220 0.000000 0.000000 0.000000
# 4 0.000000 0.000000 0.000000 0.245785 0.000000 0.000000
# 5 0.000000 0.000000 0.000000 0.000000 0.245716 0.000000
# 6 0.000000 0.000000 0.000000 0.000000 0.000000 0.047913
#
#
# Mechanical properties :
#
#
# Convention : Reuss Voigt Hill
#
# Bulk Modulus (GPa) = 56.12634 73.03786 64.58210
# Shear Modulus (GPa) = 7.97747 16.57419 12.27583
#
# Velocity S-wave (km/s) = 2.07153 2.98589 2.56970
# Velocity P-wave (km/s) = 5.99274 7.15372 6.59881
#
# Compressibility (1/GPa) = 0.01781695
#
# Stress axis : x y z
#
# Youngs Moduli (GPa) = 50.76853 50.76842 97.84525
#
# Poissons Ratio (x) = 0.21587 0.56979
# Poissons Ratio (y) = 0.21587 0.56981
# Poissons Ratio (z) = 0.29564 0.29565
#
# Static dielectric constant tensor:
#      x y z
#    x 3.256610 0.000000 0.000000 
#    y 0.000000 3.256610 0.000000 
#    z 0.000000 0.000000 3.664780 
# 
# 
# High freq. dielectric constant tensor:
#      x y z
#    x 1.700280 0.000000 0.000000 
#    y 0.000000 1.700280 0.000000 
#    z 0.000000 0.000000 1.740510 
# 
# From -- ./inp_files/5127.got.cif
#   From: 2010.03.12/outbox.cif.g09.slc.cpg/sg115_3_cif.got.tgz:5127.got - 2010.04.14 02:11:21.
