data_PCOD8309568
_publ_section_title
;
Structure prediction by ZEFSAII (Michael W. Deem and Ramdas Pophale) SiO2 
 PCOD8309568
Probable space group: P -4 M 2
;
_chemical_formula_sum "Si O2"
_cell_formula_units_Z 40
_cell_length_a 9.205129
_cell_length_b 9.205129
_cell_length_c 25.629974
_cell_angle_alpha 90.000000
_cell_angle_beta 90.000000
_cell_angle_gamma 90.000000
_cell_volume 2171.740467
_symmetry_space_group_name_H-M "P -4 M 2"
_symmetry_group_IT_number 115
_symmetry_cell_setting 'tetragonal'
loop_
_space_group_symop_operation_xyz
x,y,z
y,-x,-z
-x,-y,z
-y,x,-z
y,x,-z
-y,-x,-z
-x,y,z
x,-y,z
loop_
_atom_site_type_symbol
_atom_site_label
_atom_site_fract_x
_atom_site_fract_y
_atom_site_fract_z
Si Si1 0.331911 0.170188 0.250120
Si Si2 0.329036 0.831107 0.454077
Si Si3 0.163745 0.172498 0.351099
Si Si4 0.669181 0.667940 0.147261
Si Si5 0.829794 0.836123 0.059428
O O1 0.500000 0.206471 0.260816
O O2 0.240718 0.231720 0.298927
O O3 0.273434 0.249169 0.198457
O O4 0.306866 0.000000 0.242058
O O5 0.265698 0.734302 0.500000
O O6 0.500000 0.805448 0.449084
O O7 0.254483 0.774883 0.401047
O O8 0.292709 0.000000 0.464757
O O9 0.000000 0.234388 0.354410
O O10 0.162889 0.000000 0.349386
O O11 0.500000 0.698200 0.139383
O O12 0.704946 0.500000 0.154778
O O13 0.748913 0.723865 0.096141
O O14 0.000000 0.824751 0.069782
O O15 0.776055 0.000000 0.071043
O O16 0.793451 0.793451 0.000000
#
# Coordination Sequence:
#
# PCOD8309568 Si02
#       5
#     8   8   8   8   8
#     4   9  17  31  51  73  99 134 174 212 252 302
#     4  10  20  34  53  77 105 137 173 212 254 303
#     4   9  17  30  51  78 103 129 167 215 262 304
#     4  10  21  35  51  75 107 140 173 209 252 304
#     4   9  19  36  56  77 101 131 170 215 260 306
#
# _framework density 18.418406999999998
#
# number of rings (size 3 to 8) (size 9 to 14) (size 15 to 20)
#    0.000    2.600    0.000    2.400    0.000    6.800 
#    0.000    6.000    0.000    3.600    0.000    0.000 
#    0.000    0.000    0.000    0.000    0.000    0.000 
#
# Total GULP energy -496071.354641 kJ/mol
# GULP energy per Si atom -12401.783866 kJ/mol
# Density = 1.837649 g / cm^3
# Si number density = 18.418407 Si / 1000 Ang^3
#
#
#
# Elastic Constant Matrix: (Units=GPa)
#
#
# Indices 1 2 3 4 5 6 
#
# 1 71.4284 40.2964 65.5964 0.0000 0.0000 0.0000
# 2 40.2964 71.4284 65.5964 0.0000 0.0000 0.0000
# 3 65.5964 65.5964 162.5161 0.0000 0.0000 0.0000
# 4 0.0000 0.0000 0.0000 12.2482 0.0000 0.0000
# 5 0.0000 0.0000 0.0000 0.0000 12.2482 0.0000
# 6 0.0000 0.0000 0.0000 0.0000 0.0000 23.7263
#
#
#
# Elastic Compliance Matrix: (Units=1/GPa)
#
#
# Indices 1 2 3 4 5 6 
#
# 1 0.024568 -0.007553 -0.006868 0.000000 0.000000 0.000000
# 2 -0.007553 0.024568 -0.006868 0.000000 0.000000 0.000000
# 3 -0.006868 -0.006868 0.011697 0.000000 0.000000 0.000000
# 4 0.000000 0.000000 0.000000 0.081644 0.000000 0.000000
# 5 0.000000 0.000000 0.000000 0.000000 0.081644 0.000000
# 6 0.000000 0.000000 0.000000 0.000000 0.000000 0.042147
#
#
# Mechanical properties :
#
#
# Convention : Reuss Voigt Hill
#
# Bulk Modulus (GPa) = 54.77562 72.03904 63.40733
# Shear Modulus (GPa) = 15.87641 18.57013 17.22327
#
# Velocity S-wave (km/s) = 2.93915 3.17872 3.06128
# Velocity P-wave (km/s) = 6.42824 7.25740 6.85537
#
# Compressibility (1/GPa) = 0.01825630
#
# Stress axis : x y z
#
# Youngs Moduli (GPa) = 40.70309 40.70309 85.48952
#
# Poissons Ratio (x) = 0.30743 0.58712
# Poissons Ratio (y) = 0.30743 0.58712
# Poissons Ratio (z) = 0.27954 0.27954
#
# Static dielectric constant tensor:
#      x y z
#    x 3.267920 0.000000 0.000000 
#    y 0.000000 3.267920 0.000000 
#    z 0.000000 0.000000 3.548910 
# 
# 
# High freq. dielectric constant tensor:
#      x y z
#    x 1.700310 0.000000 0.000000 
#    y 0.000000 1.700310 0.000000 
#    z 0.000000 0.000000 1.728740 
# 
# From -- ./inp_files/5087.got.cif
#   From: 2010.03.12/outbox.cif.g09.slc.cpg/sg115_3_cif.got.tgz:5087.got - 2010.04.14 02:11:21.
