data_PCOD8309545
_publ_section_title
;
Structure prediction by ZEFSAII (Michael W. Deem and Ramdas Pophale) SiO2 
 PCOD8309545
Probable space group: P -4 M 2
;
_chemical_formula_sum "Si O2"
_cell_formula_units_Z 48
_cell_length_a 8.158509
_cell_length_b 8.158509
_cell_length_c 34.319438
_cell_angle_alpha 90.000000
_cell_angle_beta 90.000000
_cell_angle_gamma 90.000000
_cell_volume 2284.345348
_symmetry_space_group_name_H-M "P -4 M 2"
_symmetry_group_IT_number 115
_symmetry_cell_setting 'tetragonal'
loop_
_space_group_symop_operation_xyz
x,y,z
y,-x,-z
-x,-y,z
-y,x,-z
y,x,-z
-y,-x,-z
-x,y,z
x,-y,z
loop_
_atom_site_type_symbol
_atom_site_label
_atom_site_fract_x
_atom_site_fract_y
_atom_site_fract_z
Si Si1 0.310099 0.821867 0.538025
Si Si2 0.816481 0.189639 0.220200
Si Si3 0.314526 0.689387 0.616846
Si Si4 0.185993 0.690551 0.039237
Si Si5 0.307560 0.500000 0.909632
Si Si6 0.500000 0.809661 0.176533
Si Si7 0.316077 0.808954 0.696749
O O1 0.288334 0.711667 0.500000
O O2 0.500000 0.822678 0.547785
O O3 0.224425 0.763825 0.578458
O O4 0.240807 0.000000 0.527352
O O5 0.669170 0.268942 0.194171
O O6 0.764918 0.211264 0.265175
O O7 0.000000 0.268814 0.212315
O O8 0.830527 0.000000 0.210115
O O9 0.500000 0.757018 0.620885
O O10 0.311462 0.500000 0.608848
O O11 0.228822 0.731996 0.658201
O O12 0.210174 0.500000 0.028873
O O13 0.331350 0.745151 0.068553
O O14 0.000000 0.721763 0.055921
O O15 0.205014 0.794987 0.000000
O O16 0.500000 0.500000 0.901584
O O17 0.211960 0.500000 0.869433
O O18 0.500000 0.000000 0.187768
O O19 0.500000 0.738655 0.703075
O O20 0.320733 0.000000 0.689551
#
# Coordination Sequence:
#
# PCOD8309545 Si02
#       7
#     8   8   8   8   4   4   8
#     4  10  20  34  52  72  97 131 168 206 252 309
#     4   9  19  36  55  75 104 144 186 230 284 340
#     4   9  17  29  48  75 103 130 163 206 256 312
#     4  10  20  36  61  89 120 160 202 246 302 364
#     4  10  22  38  58  86 124 158 194 250 306 350
#     4  10  22  38  56  78 108 150 196 236 284 346
#     4   9  17  30  50  77 105 133 169 216 267 319
#
# _framework density 21.012584
#
# number of rings (size 3 to 8) (size 9 to 14) (size 15 to 20)
#    0.000    2.500    0.833    1.000    1.167    5.167 
#    0.000    0.833    0.000    3.000    0.000    0.000 
#    0.000    0.000    0.000    0.000    0.000    0.000 
#
# Total GULP energy -594674.997590 kJ/mol
# GULP energy per Si atom -12389.062450 kJ/mol
# Density = 2.096476 g / cm^3
# Si number density = 21.012584 Si / 1000 Ang^3
#
#
#
# Elastic Constant Matrix: (Units=GPa)
#
#
# Indices 1 2 3 4 5 6 
#
# 1 66.6885 27.9635 45.0805 0.0000 0.0000 0.0000
# 2 27.9635 66.6891 45.0802 0.0000 0.0000 0.0000
# 3 45.0805 45.0802 147.1615 0.0000 0.0000 0.0000
# 4 0.0000 0.0000 0.0000 18.2718 0.0000 0.0000
# 5 0.0000 0.0000 0.0000 0.0000 18.2718 0.0000
# 6 0.0000 0.0000 0.0000 0.0000 0.0000 11.8710
#
#
#
# Elastic Compliance Matrix: (Units=1/GPa)
#
#
# Indices 1 2 3 4 5 6 
#
# 1 0.020371 -0.005452 -0.004570 0.000000 0.000000 0.000000
# 2 -0.005452 0.020370 -0.004570 0.000000 0.000000 0.000000
# 3 -0.004570 -0.004570 0.009595 0.000000 0.000000 0.000000
# 4 0.000000 0.000000 0.000000 0.054729 0.000000 0.000000
# 5 0.000000 0.000000 0.000000 0.000000 0.054729 0.000000
# 6 0.000000 0.000000 0.000000 0.000000 0.000000 0.084239
#
#
# Mechanical properties :
#
#
# Convention : Reuss Voigt Hill
#
# Bulk Modulus (GPa) = 47.27781 57.42085 52.34933
# Shear Modulus (GPa) = 17.84005 20.51057 19.17531
#
# Velocity S-wave (km/s) = 2.91695 3.12766 3.02414
# Velocity P-wave (km/s) = 5.82180 6.35840 6.09601
#
# Compressibility (1/GPa) = 0.02115157
#
# Stress axis : x y z
#
# Youngs Moduli (GPa) = 49.09033 49.09110 104.22034
#
# Poissons Ratio (x) = 0.26767 0.47628
# Poissons Ratio (y) = 0.26766 0.47627
# Poissons Ratio (z) = 0.22434 0.22434
#
# Static dielectric constant tensor:
#      x y z
#    x 3.753800 0.000000 0.000000 
#    y 0.000000 3.753800 0.000000 
#    z 0.000000 0.000000 3.741920 
# 
# 
# High freq. dielectric constant tensor:
#      x y z
#    x 1.803100 0.000000 0.000000 
#    y 0.000000 1.803100 0.000000 
#    z 0.000000 0.000000 1.824650 
# 
# From -- ./inp_files/6267.got.cif
#   From: 2010.03.12/outbox.cif.g09.slc.cpg/sg115_4_cif.got.tgz:6267.got - 2010.04.14 02:11:21.
