data_PCOD8309686
_publ_section_title
;
Structure prediction by ZEFSAII (Michael W. Deem and Ramdas Pophale) SiO2 
 PCOD8309686
Probable space group: P -4 M 2
;
_chemical_formula_sum "Si O2"
_cell_formula_units_Z 40
_cell_length_a 8.060358
_cell_length_b 8.060358
_cell_length_c 29.144116
_cell_angle_alpha 90.000000
_cell_angle_beta 90.000000
_cell_angle_gamma 90.000000
_cell_volume 1893.474887
_symmetry_space_group_name_H-M "P -4 M 2"
_symmetry_group_IT_number 115
_symmetry_cell_setting 'tetragonal'
loop_
_space_group_symop_operation_xyz
x,y,z
y,-x,-z
-x,-y,z
-y,x,-z
y,x,-z
-y,-x,-z
-x,y,z
x,-y,z
loop_
_atom_site_type_symbol
_atom_site_label
_atom_site_fract_x
_atom_site_fract_y
_atom_site_fract_z
Si Si1 0.687469 0.189345 0.354447
Si Si2 0.000000 0.699349 0.195994
Si Si3 0.000000 0.690475 0.297807
Si Si4 0.187392 0.803423 0.050809
Si Si5 0.316397 0.304072 0.548912
Si Si6 0.692599 0.319484 0.856775
O O1 0.500000 0.266929 0.347183
O O2 0.742994 0.203412 0.407699
O O3 0.829514 0.271388 0.324090
O O4 0.680524 0.000000 0.340256
O O5 0.165152 0.772810 0.171071
O O6 0.000000 0.500000 0.193658
O O7 0.000000 0.774265 0.247583
O O8 0.000000 0.500000 0.287603
O O9 0.302070 0.719673 0.088826
O O10 0.000000 0.740295 0.058615
O O11 0.195709 0.000000 0.055489
O O12 0.249442 0.750558 0.000000
O O13 0.239549 0.239549 0.500000
O O14 0.500000 0.229543 0.558230
O O15 0.328303 0.500000 0.543031
O O16 0.500000 0.321211 0.845714
O O17 0.767381 0.500000 0.841677
#
# Coordination Sequence:
#
# PCOD8309686 Si02
#       6
#     8   4   4   8   8   8
#     4  10  21  38  58  83 120 157 188 236 302 363
#     4   9  20  39  59  81 111 145 187 245 305 340
#     4  11  23  39  63  89 109 147 205 255 297 354
#     4   9  18  33  53  78 111 152 192 229 274 330
#     4   8  14  28  52  80 111 150 194 235 278 333
#     4  10  20  35  57  83 111 145 186 234 290 351
#
# _framework density 21.125184000000001
#
# number of rings (size 3 to 8) (size 9 to 14) (size 15 to 20)
#    0.000    2.600    1.000    2.100    0.000    3.200 
#    1.800    7.000    0.000    0.000    0.000    0.000 
#    0.000    0.000    0.000    0.000    0.000    0.000 
#
# Total GULP energy -495559.445960 kJ/mol
# GULP energy per Si atom -12388.986149 kJ/mol
# Density = 2.107710 g / cm^3
# Si number density = 21.125184 Si / 1000 Ang^3
#
#
#
# Elastic Constant Matrix: (Units=GPa)
#
#
# Indices 1 2 3 4 5 6 
#
# 1 79.5345 22.8512 44.7963 0.0000 0.0000 0.0000
# 2 22.8512 79.5346 44.7964 0.0000 0.0000 0.0000
# 3 44.7963 44.7964 156.4140 0.0000 0.0000 0.0000
# 4 0.0000 0.0000 0.0000 7.7524 0.0000 0.0000
# 5 0.0000 0.0000 0.0000 0.0000 7.7526 0.0000
# 6 0.0000 0.0000 0.0000 0.0000 0.0000 18.5754
#
#
#
# Elastic Compliance Matrix: (Units=1/GPa)
#
#
# Indices 1 2 3 4 5 6 
#
# 1 0.015338 -0.002304 -0.003733 0.000000 0.000000 0.000000
# 2 -0.002304 0.015338 -0.003733 0.000000 0.000000 0.000000
# 3 -0.003733 -0.003733 0.008531 0.000000 0.000000 0.000000
# 4 0.000000 0.000000 0.000000 0.128992 0.000000 0.000000
# 5 0.000000 0.000000 0.000000 0.000000 0.128989 0.000000
# 6 0.000000 0.000000 0.000000 0.000000 0.000000 0.053835
#
#
# Mechanical properties :
#
#
# Convention : Reuss Voigt Hill
#
# Bulk Modulus (GPa) = 50.84617 60.04120 55.44368
# Shear Modulus (GPa) = 13.25848 20.35204 16.80526
#
# Velocity S-wave (km/s) = 2.50794 3.10724 2.82354
# Velocity P-wave (km/s) = 5.70154 6.43091 6.07718
#
# Compressibility (1/GPa) = 0.01966717
#
# Stress axis : x y z
#
# Youngs Moduli (GPa) = 65.19938 65.19950 117.21491
#
# Poissons Ratio (x) = 0.15024 0.43753
# Poissons Ratio (y) = 0.15024 0.43753
# Poissons Ratio (z) = 0.24337 0.24337
#
# Static dielectric constant tensor:
#      x y z
#    x 3.782700 0.000000 0.000000 
#    y 0.000000 3.782710 0.000000 
#    z 0.000000 0.000000 4.031710 
# 
# 
# High freq. dielectric constant tensor:
#      x y z
#    x 1.806090 0.000000 0.000000 
#    y 0.000000 1.806090 0.000000 
#    z 0.000000 0.000000 1.830730 
# 
# From -- ./inp_files/5541.got.cif
#   From: 2010.03.12/outbox.cif.g09.slc.cpg/sg115_3_cif.got.tgz:5541.got - 2010.04.14 02:11:21.
