data_PCOD8309470
_publ_section_title
;
Structure prediction by ZEFSAII (Michael W. Deem and Ramdas Pophale) SiO2 
 PCOD8309470
Probable space group: P -4 M 2
;
_chemical_formula_sum "Si O2"
_cell_formula_units_Z 44
_cell_length_a 9.198137
_cell_length_b 9.198137
_cell_length_c 28.467126
_cell_angle_alpha 90.000000
_cell_angle_beta 90.000000
_cell_angle_gamma 90.000000
_cell_volume 2408.481813
_symmetry_space_group_name_H-M "P -4 M 2"
_symmetry_group_IT_number 115
_symmetry_cell_setting 'tetragonal'
loop_
_space_group_symop_operation_xyz
x,y,z
y,-x,-z
-x,-y,z
-y,x,-z
y,x,-z
-y,-x,-z
-x,y,z
x,-y,z
loop_
_atom_site_type_symbol
_atom_site_label
_atom_site_fract_x
_atom_site_fract_y
_atom_site_fract_z
Si Si1 0.829592 0.831120 0.233405
Si Si2 0.162861 0.327861 0.960392
Si Si3 0.670071 0.669838 0.316233
Si Si4 0.835864 0.327236 0.591723
Si Si5 0.338859 0.827519 0.142665
Si Si6 0.330451 0.669550 0.500000
O O1 0.755361 0.733878 0.272548
O O2 0.771585 0.775917 0.182963
O O3 0.000000 0.804499 0.234791
O O4 0.789713 0.000000 0.241879
O O5 0.162223 0.500000 0.964054
O O6 0.224258 0.282886 0.908706
O O7 0.000000 0.266582 0.967823
O O8 0.266256 0.266256 0.000000
O O9 0.500000 0.700360 0.308766
O O10 0.703110 0.500000 0.321246
O O11 0.729414 0.748670 0.362982
O O12 0.834853 0.500000 0.591374
O O13 0.756647 0.270271 0.544913
O O14 0.000000 0.266116 0.593395
O O15 0.500000 0.764210 0.153568
O O16 0.348677 0.000000 0.140887
O O17 0.500000 0.698921 0.509127
#
# Coordination Sequence:
#
# PCOD8309470 Si02
#       6
#     8   8   8   8   8   4
#     4  10  20  33  51  76 103 130 163 205 253 302
#     4   9  18  32  50  74 102 131 166 206 247 294
#     4  10  20  34  53  76 101 132 171 210 248 294
#     4   9  17  30  50  75 100 128 165 206 246 291
#     4   8  15  30  51  72  96 129 168 207 245 290
#     4   9  16  28  48  73 100 128 160 201 246 290
#
# _framework density 18.268768000000001
#
# number of rings (size 3 to 8) (size 9 to 14) (size 15 to 20)
#    0.000    2.818    0.000    2.727    0.000    5.455 
#    0.000    3.636    0.000    4.636    0.000    0.000 
#    0.000    0.000    0.000    0.000    0.000    0.000 
#
# Total GULP energy -545510.823822 kJ/mol
# GULP energy per Si atom -12397.973269 kJ/mol
# Density = 1.822719 g / cm^3
# Si number density = 18.268768 Si / 1000 Ang^3
#
#
#
# Elastic Constant Matrix: (Units=GPa)
#
#
# Indices 1 2 3 4 5 6 
#
# 1 66.4268 37.9608 64.9790 0.0000 0.0000 0.0000
# 2 37.9608 66.4263 64.9790 0.0000 0.0000 0.0000
# 3 64.9790 64.9790 187.3848 0.0000 0.0000 0.0000
# 4 0.0000 0.0000 0.0000 -18.8272 0.0000 0.0000
# 5 0.0000 0.0000 0.0000 0.0000 -18.8564 0.0000
# 6 0.0000 0.0000 0.0000 0.0000 0.0000 20.7560
#
#
#
# Elastic Compliance Matrix: (Units=1/GPa)
#
#
# Indices 1 2 3 4 5 6 
#
# 1 0.025993 -0.009136 -0.005845 0.000000 0.000000 0.000000
# 2 -0.009136 0.025994 -0.005846 0.000000 0.000000 0.000000
# 3 -0.005845 -0.005846 0.009391 0.000000 0.000000 0.000000
# 4 0.000000 0.000000 0.000000 -0.053115 0.000000 0.000000
# 5 0.000000 0.000000 0.000000 0.000000 -0.053032 0.000000
# 6 0.000000 0.000000 0.000000 0.000000 0.000000 0.048179
#
#
# Mechanical properties :
#
#
# Convention : Reuss Voigt Hill
#
# Bulk Modulus (GPa) = 50.70249 72.89726 61.79988
# Shear Modulus (GPa) = 96.82688 6.76909 51.79799
#
# Velocity S-wave (km/s) = 7.28810 1.92700 5.33056
# Velocity P-wave (km/s) = 9.93155 6.70376 8.47278
#
# Compressibility (1/GPa) = 0.01972290
#
# Stress axis : x y z
#
# Youngs Moduli (GPa) = 38.47138 38.47091 106.48862
#
# Poissons Ratio (x) = 0.35149 0.62247
# Poissons Ratio (y) = 0.35149 0.62249
# Poissons Ratio (z) = 0.22488 0.22488
#
# Static dielectric constant tensor:
#      x y z
#    x 3.466880 0.000000 0.000000 
#    y 0.000000 3.466740 0.000000 
#    z 0.000000 0.000000 3.698010 
# 
# 
# High freq. dielectric constant tensor:
#      x y z
#    x 1.684460 0.000000 0.000000 
#    y 0.000000 1.684460 0.000000 
#    z 0.000000 0.000000 1.726880 
# 
# From -- ./inp_files/5719.got.cif
#   From: 2010.03.12/outbox.cif.g09.slc.cpg/sg115_3_cif.got.tgz:5719.got - 2010.04.14 02:11:21.
