data_PCOD8309926
_publ_section_title
;
Structure prediction by ZEFSAII (Michael W. Deem and Ramdas Pophale) SiO2 
 PCOD8309926
Probable space group: P -4 M 2
;
_chemical_formula_sum "Si O2"
_cell_formula_units_Z 48
_cell_length_a 9.173462
_cell_length_b 9.173462
_cell_length_c 30.512568
_cell_angle_alpha 90.000000
_cell_angle_beta 90.000000
_cell_angle_gamma 90.000000
_cell_volume 2567.705982
_symmetry_space_group_name_H-M "P -4 M 2"
_symmetry_group_IT_number 115
_symmetry_cell_setting 'tetragonal'
loop_
_space_group_symop_operation_xyz
x,y,z
y,-x,-z
-x,-y,z
-y,x,-z
y,x,-z
-y,-x,-z
-x,y,z
x,-y,z
loop_
_atom_site_type_symbol
_atom_site_label
_atom_site_fract_x
_atom_site_fract_y
_atom_site_fract_z
Si Si1 0.169038 0.169864 0.372819
Si Si2 0.672070 0.331921 0.295338
Si Si3 0.161632 0.828359 0.879271
Si Si4 0.329386 0.832233 0.537970
Si Si5 0.830520 0.169130 0.219963
Si Si6 0.662018 0.327356 0.048005
O O1 0.264133 0.237537 0.334579
O O2 0.212869 0.248389 0.417690
O O3 0.000000 0.195323 0.361490
O O4 0.205900 0.000000 0.377485
O O5 0.500000 0.312862 0.294986
O O6 0.717914 0.500000 0.301251
O O7 0.733815 0.273242 0.249718
O O8 0.206031 0.785442 0.829882
O O9 0.274327 0.765252 0.913613
O O10 0.000000 0.768080 0.889577
O O11 0.162955 0.000000 0.883905
O O12 0.271091 0.728910 0.500000
O O13 0.500000 0.804753 0.544579
O O14 0.295962 0.000000 0.525825
O O15 0.000000 0.203065 0.228327
O O16 0.798644 0.000000 0.230752
O O17 0.500000 0.264083 0.055856
O O18 0.657582 0.500000 0.048885
O O19 0.721749 0.278252 0.000000
#
# Coordination Sequence:
#
# PCOD8309926 Si02
#       6
#     8   8   8   8   8   8
#     4  10  21  38  61  85 108 140 183 227 269 315
#     4  11  24  38  53  79 113 144 176 217 265 316
#     4   9  19  35  54  78 106 134 169 216 265 312
#     4  10  21  37  58  84 113 146 183 222 267 318
#     4   9  19  37  58  78 103 137 176 216 261 315
#     4   9  19  35  52  72 102 139 176 214 258 310
#
# _framework density 18.693728
#
# number of rings (size 3 to 8) (size 9 to 14) (size 15 to 20)
#    0.000    2.333    0.000    3.500    0.000    9.000 
#    0.000    7.500    0.000    0.000    0.000    0.000 
#    0.000    0.000    0.000    0.000    0.000    0.000 
#
# Total GULP energy -595266.940307 kJ/mol
# GULP energy per Si atom -12401.394590 kJ/mol
# Density = 1.865118 g / cm^3
# Si number density = 18.693728 Si / 1000 Ang^3
#
#
#
# Elastic Constant Matrix: (Units=GPa)
#
#
# Indices 1 2 3 4 5 6 
#
# 1 77.3227 44.9696 63.4329 0.0000 0.0000 0.0000
# 2 44.9696 77.3231 63.4338 0.0000 0.0000 0.0000
# 3 63.4329 63.4338 140.9910 0.0000 0.0000 0.0000
# 4 0.0000 0.0000 0.0000 79.4450 0.0000 0.0000
# 5 0.0000 0.0000 0.0000 0.0000 79.4438 0.0000
# 6 0.0000 0.0000 0.0000 0.0000 0.0000 32.5089
#
#
#
# Elastic Compliance Matrix: (Units=1/GPa)
#
#
# Indices 1 2 3 4 5 6 
#
# 1 0.023121 -0.007787 -0.006899 0.000000 0.000000 0.000000
# 2 -0.007787 0.023122 -0.006899 0.000000 0.000000 0.000000
# 3 -0.006899 -0.006899 0.013301 0.000000 0.000000 0.000000
# 4 0.000000 0.000000 0.000000 0.012587 0.000000 0.000000
# 5 0.000000 0.000000 0.000000 0.000000 0.012588 0.000000
# 6 0.000000 0.000000 0.000000 0.000000 0.000000 0.030761
#
#
# Mechanical properties :
#
#
# Convention : Reuss Voigt Hill
#
# Bulk Modulus (GPa) = 61.07679 71.03440 66.05560
# Shear Modulus (GPa) = 30.46787 46.53292 38.50040
#
# Velocity S-wave (km/s) = 4.04151 4.99463 4.54313
# Velocity P-wave (km/s) = 7.38388 8.44650 7.93300
#
# Compressibility (1/GPa) = 0.01637283
#
# Stress axis : x y z
#
# Youngs Moduli (GPa) = 43.25000 43.24970 75.18500
#
# Poissons Ratio (x) = 0.33680 0.51869
# Poissons Ratio (y) = 0.33680 0.51871
# Poissons Ratio (z) = 0.29838 0.29839
#
# Static dielectric constant tensor:
#      x y z
#    x 3.412160 0.000000 0.000000 
#    y 0.000000 3.412160 0.000000 
#    z 0.000000 0.000000 3.573120 
# 
# 
# High freq. dielectric constant tensor:
#      x y z
#    x 1.723330 0.000000 0.000000 
#    y 0.000000 1.723330 0.000000 
#    z 0.000000 0.000000 1.739410 
# 
# From -- ./inp_files/6042.got.cif
#   From: 2010.03.12/outbox.cif.g09.slc.cpg/sg115_4_cif.got.tgz:6042.got - 2010.04.14 02:11:21.
