data_PCOD8309012
_publ_section_title
;
Structure prediction by ZEFSAII (Michael W. Deem and Ramdas Pophale) SiO2 
 PCOD8309012
Probable space group: P -4 21 C
;
_chemical_formula_sum "Si O2"
_cell_formula_units_Z 34
_cell_length_a 9.316652
_cell_length_b 9.316652
_cell_length_c 17.755962
_cell_angle_alpha 90.000000
_cell_angle_beta 90.000000
_cell_angle_gamma 90.000000
_cell_volume 1541.217581
_symmetry_space_group_name_H-M "P -4 21 C"
_symmetry_group_IT_number 114
_symmetry_cell_setting 'tetragonal'
loop_
_space_group_symop_operation_xyz
x,y,z
y,-x,-z
-x,-y,z
-y,x,-z
1/2+x,1/2-y,1/2-z
1/2-x,1/2+y,1/2-z
1/2-y,1/2-x,1/2+z
1/2+y,1/2+x,1/2+z
loop_
_atom_site_type_symbol
_atom_site_label
_atom_site_fract_x
_atom_site_fract_y
_atom_site_fract_z
Si Si1 0.792829 0.308706 0.158063
Si Si2 0.819543 0.142390 0.005101
Si Si3 0.500000 0.500000 0.000000
Si Si4 0.509541 0.667277 0.226875
Si Si5 0.231331 0.896545 0.392739
O O1 0.775860 0.234324 0.077190
O O2 0.647243 0.272727 0.204763
O O3 0.933990 0.248611 0.199365
O O4 0.818104 0.480862 0.152785
O O5 0.710172 0.163885 0.935993
O O6 0.975163 0.186836 0.973709
O O7 0.641222 0.505641 0.050035
O O8 0.500000 0.500000 0.246246
O O9 0.622310 0.694297 0.159207
#
# Coordination Sequence:
#
# PCOD8309012 Si02
#       5
#     8   8   2   8   8
#     4  11  24  45  73 102 139 190 233 291 352 427
#     4  11  27  45  70 100 145 183 230 300 352 413
#     4  12  16  44  72 100 136 180 234 284 340 400
#     4  10  24  44  70 103 143 181 229 295 351 419
#     4  11  21  45  74 101 135 184 238 283 350 418
#
# _framework density 22.060482
#
# number of rings (size 3 to 8) (size 9 to 14) (size 15 to 20)
#    0.000    1.176    5.882    0.000    6.588    2.824 
#    4.235    4.706    0.000    0.000    0.000    0.000 
#    0.000    0.000    0.000    0.000    0.000    0.000 
#
# Total GULP energy -421695.052402 kJ/mol
# GULP energy per Si atom -12402.795659 kJ/mol
# Density = 2.201027 g / cm^3
# Si number density = 22.060482 Si / 1000 Ang^3
#
#
#
# Elastic Constant Matrix: (Units=GPa)
#
#
# Indices 1 2 3 4 5 6 
#
# 1 96.6727 54.4324 33.1153 0.0000 0.0000 0.0000
# 2 54.4324 96.6727 33.1153 0.0000 0.0000 0.0000
# 3 33.1153 33.1153 74.9494 0.0000 0.0000 0.0000
# 4 0.0000 0.0000 0.0000 31.8854 0.0000 0.0000
# 5 0.0000 0.0000 0.0000 0.0000 31.8854 0.0000
# 6 0.0000 0.0000 0.0000 0.0000 0.0000 34.8305
#
#
#
# Elastic Compliance Matrix: (Units=1/GPa)
#
#
# Indices 1 2 3 4 5 6 
#
# 1 0.015941 -0.007733 -0.003626 0.000000 0.000000 0.000000
# 2 -0.007733 0.015941 -0.003626 0.000000 0.000000 0.000000
# 3 -0.003626 -0.003626 0.016547 0.000000 0.000000 0.000000
# 4 0.000000 0.000000 0.000000 0.031362 0.000000 0.000000
# 5 0.000000 0.000000 0.000000 0.000000 0.031362 0.000000
# 6 0.000000 0.000000 0.000000 0.000000 0.000000 0.028710
#
#
# Mechanical properties :
#
#
# Convention : Reuss Voigt Hill
#
# Bulk Modulus (GPa) = 54.18205 56.62453 55.40329
# Shear Modulus (GPa) = 28.41110 29.56234 28.98672
#
# Velocity S-wave (km/s) = 3.59259 3.66465 3.62880
# Velocity P-wave (km/s) = 6.46706 6.60529 6.53654
#
# Compressibility (1/GPa) = 0.01845630
#
# Stress axis : x y z
#
# Youngs Moduli (GPa) = 62.73238 62.73238 60.43464
#
# Poissons Ratio (x) = 0.48513 0.21915
# Poissons Ratio (y) = 0.48513 0.21915
# Poissons Ratio (z) = 0.22749 0.22749
#
# Static dielectric constant tensor:
#      x y z
#    x 4.208520 0.000000 0.000000 
#    y 0.000000 4.208520 0.000000 
#    z 0.000000 0.000000 4.042900 
# 
# 
# High freq. dielectric constant tensor:
#      x y z
#    x 1.867280 0.000000 0.000000 
#    y 0.000000 1.867280 0.000000 
#    z 0.000000 0.000000 1.871260 
# 
# From -- ./inp_files/2886.got.cif
#   From: 2010.03.12/outbox.cif.g09.slc.cpg/sg114_2_cif.got.tgz:2886.got - 2010.04.14 02:08:34.
