data_PCOD8309668
_publ_section_title
;
Structure prediction by ZEFSAII (Michael W. Deem and Ramdas Pophale) SiO2 
 PCOD8309668
Probable space group: P -4 M 2
;
_chemical_formula_sum "Si O2"
_cell_formula_units_Z 48
_cell_length_a 13.951222
_cell_length_b 13.951222
_cell_length_c 12.960752
_cell_angle_alpha 90.000000
_cell_angle_beta 90.000000
_cell_angle_gamma 90.000000
_cell_volume 2522.636642
_symmetry_space_group_name_H-M "P -4 M 2"
_symmetry_group_IT_number 115
_symmetry_cell_setting 'tetragonal'
loop_
_space_group_symop_operation_xyz
x,y,z
y,-x,-z
-x,-y,z
-y,x,-z
y,x,-z
-y,-x,-z
-x,y,z
x,-y,z
loop_
_atom_site_type_symbol
_atom_site_label
_atom_site_fract_x
_atom_site_fract_y
_atom_site_fract_z
Si Si1 0.386020 0.108213 0.401246
Si Si2 0.391356 0.888378 0.807152
Si Si3 0.610890 0.791047 0.602069
Si Si4 0.200984 0.389127 0.811301
Si Si5 0.392193 0.393246 0.710719
Si Si6 0.733081 0.113215 0.005655
O O1 0.500000 0.110542 0.404700
O O2 0.341038 0.167713 0.497840
O O3 0.350852 0.156864 0.296088
O O4 0.346932 0.000000 0.407007
O O5 0.500000 0.852536 0.829878
O O6 0.346192 0.837975 0.706289
O O7 0.390857 0.000000 0.784864
O O8 0.325012 0.861396 0.902944
O O9 0.500000 0.820284 0.598434
O O10 0.625753 0.676557 0.613210
O O11 0.173557 0.500000 0.831324
O O12 0.316611 0.375567 0.803630
O O13 0.156714 0.326531 0.900769
O O14 0.500000 0.379114 0.755781
O O15 0.376846 0.500000 0.665529
O O16 0.747489 0.000000 0.020934
O O17 0.837190 0.162811 0.000000
#
# Coordination Sequence:
#
# PCOD8309668 Si02
#       6
#     8   8   8   8   8   8
#     4   9  17  29  47  73 103 135 174 223 277 322
#     4   9  17  30  51  78 104 131 166 211 263 317
#     4   9  16  28  47  71 103 141 177 214 257 305
#     4  10  20  35  56  81 109 141 178 222 273 327
#     4   9  18  32  49  72 107 149 188 221 256 314
#     4  11  23  38  56  77 102 133 173 221 273 330
#
# _framework density 19.027712000000001
#
# number of rings (size 3 to 8) (size 9 to 14) (size 15 to 20)
#    0.000    2.500    0.000    2.500    0.000    4.500 
#    0.000    3.333    0.000    8.000    0.000    4.667 
#    0.000    0.000    0.000    5.500    0.000    0.000 
#
# Total GULP energy -595011.172961 kJ/mol
# GULP energy per Si atom -12396.066103 kJ/mol
# Density = 1.898440 g / cm^3
# Si number density = 19.027712 Si / 1000 Ang^3
#
#
#
# Elastic Constant Matrix: (Units=GPa)
#
#
# Indices 1 2 3 4 5 6 
#
# 1 98.3060 38.0154 53.6882 0.0000 0.0000 0.0000
# 2 38.0154 98.3081 53.6889 0.0000 0.0000 0.0000
# 3 53.6882 53.6889 136.0288 0.0000 0.0000 0.0000
# 4 0.0000 0.0000 0.0000 17.9332 0.0000 0.0000
# 5 0.0000 0.0000 0.0000 0.0000 17.9338 0.0000
# 6 0.0000 0.0000 0.0000 0.0000 0.0000 21.7497
#
#
#
# Elastic Compliance Matrix: (Units=1/GPa)
#
#
# Indices 1 2 3 4 5 6 
#
# 1 0.013616 -0.002971 -0.004201 0.000000 0.000000 0.000000
# 2 -0.002971 0.013615 -0.004201 0.000000 0.000000 0.000000
# 3 -0.004201 -0.004201 0.010668 0.000000 0.000000 0.000000
# 4 0.000000 0.000000 0.000000 0.055762 0.000000 0.000000
# 5 0.000000 0.000000 0.000000 0.000000 0.055761 0.000000
# 6 0.000000 0.000000 0.000000 0.000000 0.000000 0.045978
#
#
# Mechanical properties :
#
#
# Convention : Reuss Voigt Hill
#
# Bulk Modulus (GPa) = 65.99771 69.26978 67.63374
# Shear Modulus (GPa) = 22.40175 24.00669 23.20422
#
# Velocity S-wave (km/s) = 3.43494 3.55585 3.49592
# Velocity P-wave (km/s) = 7.10578 7.30359 7.20536
#
# Compressibility (1/GPa) = 0.01515204
#
# Stress axis : x y z
#
# Youngs Moduli (GPa) = 73.44531 73.44677 93.73989
#
# Poissons Ratio (x) = 0.21818 0.39384
# Poissons Ratio (y) = 0.21818 0.39383
# Poissons Ratio (z) = 0.30857 0.30858
#
# Static dielectric constant tensor:
#      x y z
#    x 3.486620 0.000000 0.000000 
#    y 0.000000 3.486620 0.000000 
#    z 0.000000 0.000000 3.529670 
# 
# 
# High freq. dielectric constant tensor:
#      x y z
#    x 1.724280 0.000000 0.000000 
#    y 0.000000 1.724280 0.000000 
#    z 0.000000 0.000000 1.736600 
# 
# From -- ./inp_files/2950.got.cif
#   From: 2010.03.12/outbox.cif.g09.slc.cpg/sg115_2_cif.got.tgz:2950.got - 2010.04.14 02:11:21.
