data_PCOD8309302
_publ_section_title
;
Structure prediction by ZEFSAII (Michael W. Deem and Ramdas Pophale) SiO2 
 PCOD8309302
Probable space group: P -4 M 2
;
_chemical_formula_sum "Si O2"
_cell_formula_units_Z 40
_cell_length_a 8.086717
_cell_length_b 8.086717
_cell_length_c 29.048562
_cell_angle_alpha 90.000000
_cell_angle_beta 90.000000
_cell_angle_gamma 90.000000
_cell_volume 1899.630475
_symmetry_space_group_name_H-M "P -4 M 2"
_symmetry_group_IT_number 115
_symmetry_cell_setting 'tetragonal'
loop_
_space_group_symop_operation_xyz
x,y,z
y,-x,-z
-x,-y,z
-y,x,-z
y,x,-z
-y,-x,-z
-x,y,z
x,-y,z
loop_
_atom_site_type_symbol
_atom_site_label
_atom_site_fract_x
_atom_site_fract_y
_atom_site_fract_z
Si Si1 0.682549 0.303032 0.768149
Si Si2 0.303230 0.000000 0.287831
Si Si3 0.315211 0.186019 0.954507
Si Si4 0.180247 0.309827 0.862345
Si Si5 0.305787 0.684022 0.447407
Si Si6 0.302469 0.000000 0.392356
O O1 0.500000 0.238305 0.752141
O O2 0.681878 0.500000 0.766110
O O3 0.711174 0.236467 0.820454
O O4 0.832494 0.234572 0.736433
O O5 0.500000 0.000000 0.285532
O O6 0.239516 0.000000 0.340049
O O7 0.500000 0.232266 0.969516
O O8 0.264640 0.298692 0.911929
O O9 0.298978 0.000000 0.936568
O O10 0.205437 0.205437 0.000000
O O11 0.154619 0.500000 0.850836
O O12 0.000000 0.222514 0.863633
O O13 0.267705 0.732296 0.500000
O O14 0.500000 0.672546 0.439292
O O15 0.230722 0.500000 0.435734
O O16 0.231367 0.831962 0.416043
O O17 0.500000 0.000000 0.395946
#
# Coordination Sequence:
#
# PCOD8309302 Si02
#       6
#     8   4   8   8   8   4
#     4   9  16  27  44  66  97 137 175 218 274 329
#     4   9  16  26  38  64 102 134 172 223 269 326
#     4  11  24  39  54  76 105 134 169 213 262 323
#     4  10  19  33  54  77 102 134 175 220 265 319
#     4   8  14  25  40  60  92 133 175 219 267 325
#     4   9  16  24  40  65  97 137 178 219 273 331
#
# _framework density 21.056725
#
# number of rings (size 3 to 8) (size 9 to 14) (size 15 to 20)
#    0.000    2.600    1.000    2.400    0.000    6.000 
#    0.000    4.000    0.000    0.300    0.000    0.000 
#    6.000    0.000    3.600    0.000    1.200    0.000 
#
# Total GULP energy -495651.526894 kJ/mol
# GULP energy per Si atom -12391.288172 kJ/mol
# Density = 2.100880 g / cm^3
# Si number density = 21.056725 Si / 1000 Ang^3
#
#
#
# Elastic Constant Matrix: (Units=GPa)
#
#
# Indices 1 2 3 4 5 6 
#
# 1 80.0829 31.4587 46.7008 0.0000 0.0000 0.0000
# 2 31.4587 80.0828 46.7007 0.0000 0.0000 0.0000
# 3 46.7008 46.7007 163.2329 0.0000 0.0000 0.0000
# 4 0.0000 0.0000 0.0000 8.3697 0.0000 0.0000
# 5 0.0000 0.0000 0.0000 0.0000 8.3697 0.0000
# 6 0.0000 0.0000 0.0000 0.0000 0.0000 5.6833
#
#
#
# Elastic Compliance Matrix: (Units=1/GPa)
#
#
# Indices 1 2 3 4 5 6 
#
# 1 0.016178 -0.004388 -0.003373 0.000000 0.000000 0.000000
# 2 -0.004388 0.016178 -0.003373 0.000000 0.000000 0.000000
# 3 -0.003373 -0.003373 0.008056 0.000000 0.000000 0.000000
# 4 0.000000 0.000000 0.000000 0.119479 0.000000 0.000000
# 5 0.000000 0.000000 0.000000 0.000000 0.119478 0.000000
# 6 0.000000 0.000000 0.000000 0.000000 0.000000 0.175953
#
#
# Mechanical properties :
#
#
# Convention : Reuss Voigt Hill
#
# Bulk Modulus (GPa) = 55.11581 63.67989 59.39785
# Shear Modulus (GPa) = 10.33830 17.72044 14.02937
#
# Velocity S-wave (km/s) = 2.21820 2.90411 2.58401
# Velocity P-wave (km/s) = 5.72645 6.44615 6.09693
#
# Compressibility (1/GPa) = 0.01814362
#
# Stress axis : x y z
#
# Youngs Moduli (GPa) = 61.81306 61.81294 124.12714
#
# Poissons Ratio (x) = 0.27124 0.41868
# Poissons Ratio (y) = 0.27124 0.41868
# Poissons Ratio (z) = 0.20850 0.20850
#
# Static dielectric constant tensor:
#      x y z
#    x 3.738970 0.000000 0.000000 
#    y 0.000000 3.738970 0.000000 
#    z 0.000000 0.000000 3.719020 
# 
# 
# High freq. dielectric constant tensor:
#      x y z
#    x 1.800330 0.000000 0.000000 
#    y 0.000000 1.800330 0.000000 
#    z 0.000000 0.000000 1.818850 
# 
# From -- ./inp_files/5494.got.cif
#   From: 2010.03.12/outbox.cif.g09.slc.cpg/sg115_3_cif.got.tgz:5494.got - 2010.04.14 02:11:21.
