data_PCOD8309785
_publ_section_title
;
Structure prediction by ZEFSAII (Michael W. Deem and Ramdas Pophale) SiO2 
 PCOD8309785
Probable space group: P -4 M 2
;
_chemical_formula_sum "Si O2"
_cell_formula_units_Z 44
_cell_length_a 9.133534
_cell_length_b 9.133534
_cell_length_c 28.730827
_cell_angle_alpha 90.000000
_cell_angle_beta 90.000000
_cell_angle_gamma 90.000000
_cell_volume 2396.767056
_symmetry_space_group_name_H-M "P -4 M 2"
_symmetry_group_IT_number 115
_symmetry_cell_setting 'tetragonal'
loop_
_space_group_symop_operation_xyz
x,y,z
y,-x,-z
-x,-y,z
-y,x,-z
y,x,-z
-y,-x,-z
-x,y,z
x,-y,z
loop_
_atom_site_type_symbol
_atom_site_label
_atom_site_fract_x
_atom_site_fract_y
_atom_site_fract_z
Si Si1 0.325554 0.662346 0.951108
Si Si2 0.830743 0.328931 0.406708
Si Si3 0.668544 0.331457 0.500000
Si Si4 0.826733 0.667689 0.676287
Si Si5 0.673147 0.330490 0.149896
Si Si6 0.173383 0.166329 0.767717
O O1 0.500000 0.654667 0.955530
O O2 0.259765 0.500000 0.947814
O O3 0.285825 0.737629 0.901623
O O4 0.264752 0.735249 0.000000
O O5 0.806982 0.500000 0.397590
O O6 0.768674 0.283920 0.456915
O O7 0.743074 0.240996 0.368367
O O8 0.000000 0.284227 0.404513
O O9 0.500000 0.304613 0.486104
O O10 0.774994 0.500000 0.678758
O O11 0.767981 0.748541 0.722413
O O12 0.000000 0.680643 0.672355
O O13 0.500000 0.300022 0.152884
O O14 0.705835 0.500000 0.160151
O O15 0.757596 0.232844 0.186419
O O16 0.000000 0.173120 0.769964
O O17 0.230226 0.000000 0.764949
#
# Coordination Sequence:
#
# PCOD8309785 Si02
#       6
#     8   8   4   8   8   8
#     4   7  10  19  38  65  95 123 152 192 242 291
#     4  10  21  36  55  81 111 140 170 206 249 296
#     4   9  18  34  54  75 104 142 178 209 242 283
#     4  10  21  37  57  78  99 128 168 212 256 301
#     4   9  17  29  48  75 101 125 159 203 249 297
#     4  10  21  36  52  70  96 132 170 206 248 299
#
# _framework density 18.358063999999999
#
# number of rings (size 3 to 8) (size 9 to 14) (size 15 to 20)
#    0.000    2.818    0.000    3.273    0.000    5.091 
#    0.000    1.818    0.000    1.091    0.000    6.364 
#    0.000    0.000    0.000    0.000    0.000    0.000 
#
# Total GULP energy -545257.601411 kJ/mol
# GULP energy per Si atom -12392.218214 kJ/mol
# Density = 1.831628 g / cm^3
# Si number density = 18.358064 Si / 1000 Ang^3
#
#
#
# Elastic Constant Matrix: (Units=GPa)
#
#
# Indices 1 2 3 4 5 6 
#
# 1 49.3489 19.7550 42.2687 0.0000 0.0000 0.0000
# 2 19.7550 49.3492 42.2683 0.0000 0.0000 0.0000
# 3 42.2687 42.2683 148.3262 0.0000 0.0000 0.0000
# 4 0.0000 0.0000 0.0000 -39.5342 0.0000 0.0000
# 5 0.0000 0.0000 0.0000 0.0000 -39.5293 0.0000
# 6 0.0000 0.0000 0.0000 0.0000 0.0000 25.0164
#
#
#
# Elastic Compliance Matrix: (Units=1/GPa)
#
#
# Indices 1 2 3 4 5 6 
#
# 1 0.028003 -0.005788 -0.006331 0.000000 0.000000 0.000000
# 2 -0.005788 0.028003 -0.006331 0.000000 0.000000 0.000000
# 3 -0.006331 -0.006331 0.010350 0.000000 0.000000 0.000000
# 4 0.000000 0.000000 0.000000 -0.025295 0.000000 0.000000
# 5 0.000000 0.000000 0.000000 0.000000 -0.025298 0.000000
# 6 0.000000 0.000000 0.000000 0.000000 0.000000 0.039974
#
#
# Mechanical properties :
#
#
# Convention : Reuss Voigt Hill
#
# Bulk Modulus (GPa) = 33.94651 50.62314 42.28482
# Shear Modulus (GPa) = 48.80187 -1.29392 23.75397
#
# Velocity S-wave (km/s) = 5.16150 -0.84045 3.60102
# Velocity P-wave (km/s) = 7.35207 5.16657 6.35399
#
# Compressibility (1/GPa) = 0.02945811
#
# Stress axis : x y z
#
# Youngs Moduli (GPa) = 35.71014 35.71063 96.61790
#
# Poissons Ratio (x) = 0.20668 0.61167
# Poissons Ratio (y) = 0.20667 0.61166
# Poissons Ratio (z) = 0.22608 0.22607
#
# Static dielectric constant tensor:
#      x y z
#    x 3.272860 0.000000 0.000000 
#    y 0.000000 3.272850 0.000000 
#    z 0.000000 0.000000 3.746910 
# 
# 
# High freq. dielectric constant tensor:
#      x y z
#    x 1.686570 0.000000 0.000000 
#    y 0.000000 1.686570 0.000000 
#    z 0.000000 0.000000 1.738530 
# 
# From -- ./inp_files/5735.got.cif
#   From: 2010.03.12/outbox.cif.g09.slc.cpg/sg115_3_cif.got.tgz:5735.got - 2010.04.14 02:11:21.
