data_PCOD8309451
_publ_section_title
;
Structure prediction by ZEFSAII (Michael W. Deem and Ramdas Pophale) SiO2 
 PCOD8309451
Probable space group: P -4 M 2
;
_chemical_formula_sum "Si O2"
_cell_formula_units_Z 48
_cell_length_a 8.970184
_cell_length_b 8.970184
_cell_length_c 31.099424
_cell_angle_alpha 90.000000
_cell_angle_beta 90.000000
_cell_angle_gamma 90.000000
_cell_volume 2502.390304
_symmetry_space_group_name_H-M "P -4 M 2"
_symmetry_group_IT_number 115
_symmetry_cell_setting 'tetragonal'
loop_
_space_group_symop_operation_xyz
x,y,z
y,-x,-z
-x,-y,z
-y,x,-z
y,x,-z
-y,-x,-z
-x,y,z
x,-y,z
loop_
_atom_site_type_symbol
_atom_site_label
_atom_site_fract_x
_atom_site_fract_y
_atom_site_fract_z
Si Si1 0.169727 0.323578 0.369181
Si Si2 0.322538 0.333935 0.546832
Si Si3 0.168635 0.677028 0.709680
Si Si4 0.173451 0.325952 0.039856
Si Si5 0.672079 0.824176 0.119072
Si Si6 0.677102 0.332408 0.205922
O O1 0.188559 0.500000 0.365862
O O2 0.226503 0.264377 0.415430
O O3 0.267817 0.250965 0.332465
O O4 0.000000 0.273069 0.363652
O O5 0.271136 0.271136 0.500000
O O6 0.500000 0.340944 0.546418
O O7 0.258085 0.500000 0.555031
O O8 0.173240 0.500000 0.709783
O O9 0.250956 0.741604 0.751886
O O10 0.000000 0.736619 0.710124
O O11 0.205272 0.500000 0.046105
O O12 0.224042 0.240334 0.082192
O O13 0.000000 0.294147 0.031117
O O14 0.267975 0.267975 0.000000
O O15 0.500000 0.780751 0.110000
O O16 0.729904 0.755907 0.163793
O O17 0.691904 0.000000 0.121385
O O18 0.500000 0.334097 0.208003
O O19 0.741237 0.500000 0.204260
#
# Coordination Sequence:
#
# PCOD8309451 Si02
#       6
#     8   8   8   8   8   8
#     4  10  20  33  50  74 104 137 171 209 257 312
#     4   8  14  27  49  74  98 128 169 215 259 304
#     4  10  20  34  53  77 104 136 176 220 264 311
#     4  11  24  40  58  82 111 144 184 227 269 315
#     4  10  20  35  57  85 115 145 177 215 262 317
#     4   9  17  31  54  82 109 138 174 218 266 313
#
# _framework density 19.181659
#
# number of rings (size 3 to 8) (size 9 to 14) (size 15 to 20)
#    0.000    2.333    0.000    3.500    0.000    8.333 
#    0.000    1.667    0.000    8.000    0.000    0.000 
#    0.000    0.000    0.000    0.000    0.000    0.000 
#
# Total GULP energy -595228.191747 kJ/mol
# GULP energy per Si atom -12400.587328 kJ/mol
# Density = 1.913800 g / cm^3
# Si number density = 19.181659 Si / 1000 Ang^3
#
#
#
# Elastic Constant Matrix: (Units=GPa)
#
#
# Indices 1 2 3 4 5 6 
#
# 1 47.4420 23.8283 29.9315 0.0000 0.0000 0.0000
# 2 23.8283 47.4420 29.9315 0.0000 0.0000 0.0000
# 3 29.9315 29.9315 148.4052 0.0000 0.0000 0.0000
# 4 0.0000 0.0000 0.0000 -15.5200 0.0000 0.0000
# 5 0.0000 0.0000 0.0000 0.0000 -15.5200 0.0000
# 6 0.0000 0.0000 0.0000 0.0000 0.0000 20.1903
#
#
#
# Elastic Compliance Matrix: (Units=1/GPa)
#
#
# Indices 1 2 3 4 5 6 
#
# 1 0.029621 -0.012728 -0.003407 0.000000 0.000000 0.000000
# 2 -0.012728 0.029621 -0.003407 0.000000 0.000000 0.000000
# 3 -0.003407 -0.003407 0.008113 0.000000 0.000000 0.000000
# 4 0.000000 0.000000 0.000000 -0.064433 0.000000 0.000000
# 5 0.000000 0.000000 0.000000 0.000000 -0.064433 0.000000
# 6 0.000000 0.000000 0.000000 0.000000 0.000000 0.049529
#
#
# Mechanical properties :
#
#
# Convention : Reuss Voigt Hill
#
# Bulk Modulus (GPa) = 35.37315 45.63019 40.50167
# Shear Modulus (GPa) = 136.89809 8.46992 72.68401
#
# Velocity S-wave (km/s) = 8.45720 2.10362 6.16236
# Velocity P-wave (km/s) = 10.66990 5.45347 8.47311
#
# Compressibility (1/GPa) = 0.02827003
#
# Stress axis : x y z
#
# Youngs Moduli (GPa) = 33.76033 33.76033 123.26435
#
# Poissons Ratio (x) = 0.42969 0.41997
# Poissons Ratio (y) = 0.42969 0.41997
# Poissons Ratio (z) = 0.11502 0.11502
#
# Static dielectric constant tensor:
#      x y z
#    x 3.396970 0.000000 0.000000 
#    y 0.000000 3.396970 0.000000 
#    z 0.000000 0.000000 3.935200 
# 
# 
# High freq. dielectric constant tensor:
#      x y z
#    x 1.728320 0.000000 0.000000 
#    y 0.000000 1.728320 0.000000 
#    z 0.000000 0.000000 1.766580 
# 
# From -- ./inp_files/6024.got.cif
#   From: 2010.03.12/outbox.cif.g09.slc.cpg/sg115_4_cif.got.tgz:6024.got - 2010.04.14 02:11:21.
