data_PCOD8309027
_publ_section_title
;
Structure prediction by ZEFSAII (Michael W. Deem and Ramdas Pophale) SiO2 
 PCOD8309027
Probable space group: P -4 21 C
;
_chemical_formula_sum "Si O2"
_cell_formula_units_Z 20
_cell_length_a 8.066150
_cell_length_b 8.066150
_cell_length_c 13.017505
_cell_angle_alpha 90.000000
_cell_angle_beta 90.000000
_cell_angle_gamma 90.000000
_cell_volume 846.955010
_symmetry_space_group_name_H-M "P -4 21 C"
_symmetry_group_IT_number 114
_symmetry_cell_setting 'tetragonal'
loop_
_space_group_symop_operation_xyz
x,y,z
y,-x,-z
-x,-y,z
-y,x,-z
1/2+x,1/2-y,1/2-z
1/2-x,1/2+y,1/2-z
1/2-y,1/2-x,1/2+z
1/2+y,1/2+x,1/2+z
loop_
_atom_site_type_symbol
_atom_site_label
_atom_site_fract_x
_atom_site_fract_y
_atom_site_fract_z
Si Si1 0.000000 0.500000 0.445494
Si Si2 0.674205 0.046111 0.360250
Si Si3 0.070165 0.824175 0.830748
O O1 0.982689 0.337367 0.521104
O O2 0.168656 0.473449 0.381201
O O3 0.698452 0.241418 0.359399
O O4 0.500000 0.000000 0.304303
O O5 0.817340 0.957502 0.293182
O O6 0.000000 0.000000 0.872291
#
# Coordination Sequence:
#
# PCOD8309027 Si02
#       3
#     4   8   8
#     4  10  26  46  74 116 140 194 266 302 362 472
#     4  10  25  46  72 106 148 191 253 307 366 452
#     4  12  25  47  78 103 154 200 242 313 390 433
#
# _framework density 23.614007999999998
#
# number of rings (size 3 to 8) (size 9 to 14) (size 15 to 20)
#    1.200    0.000    2.000    2.400    5.600    0.000 
#    0.000    0.000    0.000    0.000    0.000    0.000 
#    0.000    0.000    0.000    0.000    0.000    0.000 
#
# Total GULP energy -247761.746735 kJ/mol
# GULP energy per Si atom -12388.087337 kJ/mol
# Density = 2.356026 g / cm^3
# Si number density = 23.614008 Si / 1000 Ang^3
#
#
#
# Elastic Constant Matrix: (Units=GPa)
#
#
# Indices 1 2 3 4 5 6 
#
# 1 107.0149 -1.7794 28.9464 0.0000 0.0000 0.0000
# 2 -1.7794 107.0149 28.9464 0.0000 0.0000 0.0000
# 3 28.9464 28.9464 100.4719 0.0000 0.0000 0.0000
# 4 0.0000 0.0000 0.0000 11.1714 0.0000 0.0000
# 5 0.0000 0.0000 0.0000 0.0000 11.1714 0.0000
# 6 0.0000 0.0000 0.0000 0.0000 0.0000 33.6386
#
#
#
# Elastic Compliance Matrix: (Units=1/GPa)
#
#
# Indices 1 2 3 4 5 6 
#
# 1 0.010242 0.001050 -0.003253 0.000000 0.000000 0.000000
# 2 0.001050 0.010242 -0.003253 0.000000 0.000000 0.000000
# 3 -0.003253 -0.003253 0.011828 0.000000 0.000000 0.000000
# 4 0.000000 0.000000 0.000000 0.089515 0.000000 0.000000
# 5 0.000000 0.000000 0.000000 0.000000 0.089515 0.000000
# 6 0.000000 0.000000 0.000000 0.000000 0.000000 0.029728
#
#
# Mechanical properties :
#
#
# Convention : Reuss Voigt Hill
#
# Bulk Modulus (GPa) = 46.73171 47.41428 47.07300
# Shear Modulus (GPa) = 19.29652 28.42217 23.85934
#
# Velocity S-wave (km/s) = 2.86171 3.47308 3.18211
# Velocity P-wave (km/s) = 5.54545 6.01710 5.78608
#
# Compressibility (1/GPa) = 0.02139874
#
# Stress axis : x y z
#
# Youngs Moduli (GPa) = 97.63770 97.63770 84.54783
#
# Poissons Ratio (x) = -0.10255 0.27506
# Poissons Ratio (y) = -0.10255 0.27506
# Poissons Ratio (z) = 0.31765 0.31765
#
# Static dielectric constant tensor:
#      x y z
#    x 4.188980 0.000000 0.000000 
#    y 0.000000 4.188980 0.000000 
#    z 0.000000 0.000000 4.347750 
# 
# 
# High freq. dielectric constant tensor:
#      x y z
#    x 1.918610 0.000000 0.000000 
#    y 0.000000 1.918610 0.000000 
#    z 0.000000 0.000000 1.942190 
# 
# From -- ./inp_files/1192.got.cif
#   From: 2010.03.12/outbox.cif.g09.slc.cpg/sg114_1_cif.got.tgz:1192.got - 2010.04.14 02:08:34.
