data_PCOD8309125
_publ_section_title
;
Structure prediction by ZEFSAII (Michael W. Deem and Ramdas Pophale) SiO2 
 PCOD8309125
Probable space group: P -4 21 C
;
_chemical_formula_sum "Si O2"
_cell_formula_units_Z 32
_cell_length_a 10.061872
_cell_length_b 10.061872
_cell_length_c 13.458963
_cell_angle_alpha 90.000000
_cell_angle_beta 90.000000
_cell_angle_gamma 90.000000
_cell_volume 1362.602482
_symmetry_space_group_name_H-M "P -4 21 C"
_symmetry_group_IT_number 114
_symmetry_cell_setting 'tetragonal'
loop_
_space_group_symop_operation_xyz
x,y,z
y,-x,-z
-x,-y,z
-y,x,-z
1/2+x,1/2-y,1/2-z
1/2-x,1/2+y,1/2-z
1/2-y,1/2-x,1/2+z
1/2+y,1/2+x,1/2+z
loop_
_atom_site_type_symbol
_atom_site_label
_atom_site_fract_x
_atom_site_fract_y
_atom_site_fract_z
Si Si1 0.758182 0.127705 0.578283
Si Si2 0.500000 0.500000 0.185251
Si Si3 0.048010 0.270190 0.789889
Si Si4 0.000000 0.500000 0.634563
Si Si5 0.361443 0.127207 0.029020
O O1 0.697025 0.207668 0.670889
O O2 0.789167 0.231726 0.490105
O O3 0.649025 0.019679 0.545886
O O4 0.887929 0.050537 0.611466
O O5 0.381022 0.452410 0.254864
O O6 0.022741 0.369497 0.699831
O O7 0.940160 0.289978 0.877649
O O8 0.866737 0.467174 0.568852
#
# Coordination Sequence:
#
# PCOD8309125 Si02
#       5
#     8   4   8   4   8
#     4  12  26  47  77 111 153 202 260 326 399 479
#     4  12  30  45  77 120 154 206 266 339 391 488
#     4  12  28  50  77 113 155 210 266 327 407 473
#     4  12  22  52  74 102 146 210 260 312 394 482
#     4  12  26  48  77 110 152 208 263 324 397 479
#
# _framework density 23.484473000000001
#
# number of rings (size 3 to 8) (size 9 to 14) (size 15 to 20)
#    0.000    0.000    7.500    1.500    7.000    2.000 
#    0.000    0.000    0.000    0.000    0.000    0.000 
#    0.000    0.000    0.000    0.000    0.000    0.000 
#
# Total GULP energy -396850.722061 kJ/mol
# GULP energy per Si atom -12401.585064 kJ/mol
# Density = 2.343102 g / cm^3
# Si number density = 23.484473 Si / 1000 Ang^3
#
#
#
# Elastic Constant Matrix: (Units=GPa)
#
#
# Indices 1 2 3 4 5 6 
#
# 1 117.2910 33.0019 38.4606 0.0000 0.0000 0.0000
# 2 33.0019 117.2910 38.4606 0.0000 0.0000 0.0000
# 3 38.4606 38.4606 107.2386 0.0000 0.0000 0.0000
# 4 0.0000 0.0000 0.0000 16.7833 0.0000 0.0000
# 5 0.0000 0.0000 0.0000 0.0000 16.7833 0.0000
# 6 0.0000 0.0000 0.0000 0.0000 0.0000 5.0986
#
#
#
# Elastic Compliance Matrix: (Units=1/GPa)
#
#
# Indices 1 2 3 4 5 6 
#
# 1 0.010007 -0.001857 -0.002923 0.000000 0.000000 0.000000
# 2 -0.001857 0.010007 -0.002923 0.000000 0.000000 0.000000
# 3 -0.002923 -0.002923 0.011422 0.000000 0.000000 0.000000
# 4 0.000000 0.000000 0.000000 0.059583 0.000000 0.000000
# 5 0.000000 0.000000 0.000000 0.000000 0.059583 0.000000
# 6 0.000000 0.000000 0.000000 0.000000 0.000000 0.196130
#
#
# Mechanical properties :
#
#
# Convention : Reuss Voigt Hill
#
# Bulk Modulus (GPa) = 62.38521 62.40744 62.39633
# Shear Modulus (GPa) = 13.60618 23.19289 18.39953
#
# Velocity S-wave (km/s) = 2.40962 3.14599 2.80210
# Velocity P-wave (km/s) = 5.86207 6.31094 6.09064
#
# Compressibility (1/GPa) = 0.01602944
#
# Stress axis : x y z
#
# Youngs Moduli (GPa) = 99.93241 99.93241 87.55417
#
# Poissons Ratio (x) = 0.18559 0.25590
# Poissons Ratio (y) = 0.18559 0.25590
# Poissons Ratio (z) = 0.29208 0.29208
#
# Static dielectric constant tensor:
#      x y z
#    x 4.351590 0.000000 0.000000 
#    y 0.000000 4.351590 0.000000 
#    z 0.000000 0.000000 4.485820 
# 
# 
# High freq. dielectric constant tensor:
#      x y z
#    x 1.936780 0.000000 0.000000 
#    y 0.000000 1.936780 0.000000 
#    z 0.000000 0.000000 1.941990 
# 
# From -- ./inp_files/1427.got.cif
#   From: 2010.03.12/outbox.cif.g09.slc.cpg/sg114_1_cif.got.tgz:1427.got - 2010.04.14 02:08:34.
