data_PCOD8309833
_publ_section_title
;
Structure prediction by ZEFSAII (Michael W. Deem and Ramdas Pophale) SiO2 
 PCOD8309833
Probable space group: P -4 M 2
;
_chemical_formula_sum "Si O2"
_cell_formula_units_Z 48
_cell_length_a 9.346471
_cell_length_b 9.346471
_cell_length_c 30.902165
_cell_angle_alpha 90.000000
_cell_angle_beta 90.000000
_cell_angle_gamma 90.000000
_cell_volume 2699.505600
_symmetry_space_group_name_H-M "P -4 M 2"
_symmetry_group_IT_number 115
_symmetry_cell_setting 'tetragonal'
loop_
_space_group_symop_operation_xyz
x,y,z
y,-x,-z
-x,-y,z
-y,x,-z
y,x,-z
-y,-x,-z
-x,y,z
x,-y,z
loop_
_atom_site_type_symbol
_atom_site_label
_atom_site_fract_x
_atom_site_fract_y
_atom_site_fract_z
Si Si1 0.829901 0.341407 0.130719
Si Si2 0.834598 0.832186 0.212299
Si Si3 0.829814 0.338340 0.705385
Si Si4 0.669593 0.161502 0.964634
Si Si5 0.165085 0.332026 0.463806
Si Si6 0.834900 0.165463 0.622423
O O1 0.767622 0.500000 0.139167
O O2 0.773096 0.238038 0.168466
O O3 0.782605 0.284749 0.083283
O O4 0.000000 0.347444 0.131044
O O5 0.744590 0.770660 0.252616
O O6 0.000000 0.792327 0.220254
O O7 0.813394 0.000000 0.207077
O O8 0.770602 0.500000 0.705514
O O9 0.776097 0.258753 0.662285
O O10 0.000000 0.335432 0.706278
O O11 0.500000 0.167084 0.968626
O O12 0.724957 0.000000 0.972209
O O13 0.736160 0.263841 0.000000
O O14 0.265987 0.265987 0.500000
O O15 0.194304 0.500000 0.460442
O O16 0.207166 0.260377 0.418530
O O17 0.000000 0.299129 0.475358
O O18 0.000000 0.201020 0.611617
O O19 0.817110 0.000000 0.635189
#
# Coordination Sequence:
#
# PCOD8309833 Si02
#       6
#     8   8   8   8   8   8
#     4   8  15  29  47  66  90 120 153 190 232 278
#     4   9  16  27  46  70  92 116 151 192 231 275
#     4   9  17  29  46  69  96 124 154 191 236 282
#     4   9  18  32  49  70  96 125 159 199 242 290
#     4  10  21  36  54  77 104 133 166 204 246 292
#     4   9  17  31  52  74  95 123 161 201 237 278
#
# _framework density 17.781033000000001
#
# number of rings (size 3 to 8) (size 9 to 14) (size 15 to 20)
#    0.000    3.000    0.000    2.000    0.000    4.667 
#    0.000    5.000    0.000    8.500    0.000    0.000 
#    0.000    0.000    0.000    0.000    0.000    0.000 
#
# Total GULP energy -595102.014685 kJ/mol
# GULP energy per Si atom -12397.958639 kJ/mol
# Density = 1.774056 g / cm^3
# Si number density = 17.781033 Si / 1000 Ang^3
#
#
#
# Elastic Constant Matrix: (Units=GPa)
#
#
# Indices 1 2 3 4 5 6 
#
# 1 62.3503 34.0920 68.6148 0.0000 0.0000 0.0000
# 2 34.0920 62.3484 68.6141 0.0000 0.0000 0.0000
# 3 68.6148 68.6141 182.3889 0.0000 0.0000 0.0000
# 4 0.0000 0.0000 0.0000 3.4093 0.0000 0.0000
# 5 0.0000 0.0000 0.0000 0.0000 3.4097 0.0000
# 6 0.0000 0.0000 0.0000 0.0000 0.0000 17.1207
#
#
#
# Elastic Compliance Matrix: (Units=1/GPa)
#
#
# Indices 1 2 3 4 5 6 
#
# 1 0.028851 -0.006538 -0.008394 0.000000 0.000000 0.000000
# 2 -0.006538 0.028852 -0.008394 0.000000 0.000000 0.000000
# 3 -0.008394 -0.008394 0.011799 0.000000 0.000000 0.000000
# 4 0.000000 0.000000 0.000000 0.293318 0.000000 0.000000
# 5 0.000000 0.000000 0.000000 0.000000 0.293280 0.000000
# 6 0.000000 0.000000 0.000000 0.000000 0.000000 0.058409
#
#
# Mechanical properties :
#
#
# Convention : Reuss Voigt Hill
#
# Bulk Modulus (GPa) = 43.76677 72.19215 57.97946
# Shear Modulus (GPa) = 6.50383 13.83903 10.17143
#
# Velocity S-wave (km/s) = 1.91460 2.79283 2.39433
# Velocity P-wave (km/s) = 5.43648 7.14764 6.34996
#
# Compressibility (1/GPa) = 0.02284838
#
# Stress axis : x y z
#
# Youngs Moduli (GPa) = 34.66114 34.65993 84.75552
#
# Poissons Ratio (x) = 0.22660 0.71145
# Poissons Ratio (y) = 0.22661 0.71147
# Poissons Ratio (z) = 0.29095 0.29095
#
# Static dielectric constant tensor:
#      x y z
#    x 3.147240 0.000000 0.000000 
#    y 0.000000 3.147240 0.000000 
#    z 0.000000 0.000000 3.564810 
# 
# 
# High freq. dielectric constant tensor:
#      x y z
#    x 1.664770 0.000000 0.000000 
#    y 0.000000 1.664770 0.000000 
#    z 0.000000 0.000000 1.703040 
# 
# From -- ./inp_files/6025.got.cif
#   From: 2010.03.12/outbox.cif.g09.slc.cpg/sg115_4_cif.got.tgz:6025.got - 2010.04.14 02:11:21.
