data_PCOD8309538
_publ_section_title
;
Structure prediction by ZEFSAII (Michael W. Deem and Ramdas Pophale) SiO2 
 PCOD8309538
Probable space group: P -4 M 2
;
_chemical_formula_sum "Si O2"
_cell_formula_units_Z 44
_cell_length_a 9.136091
_cell_length_b 9.136091
_cell_length_c 28.640652
_cell_angle_alpha 90.000000
_cell_angle_beta 90.000000
_cell_angle_gamma 90.000000
_cell_volume 2390.582488
_symmetry_space_group_name_H-M "P -4 M 2"
_symmetry_group_IT_number 115
_symmetry_cell_setting 'tetragonal'
loop_
_space_group_symop_operation_xyz
x,y,z
y,-x,-z
-x,-y,z
-y,x,-z
y,x,-z
-y,-x,-z
-x,y,z
x,-y,z
loop_
_atom_site_type_symbol
_atom_site_label
_atom_site_fract_x
_atom_site_fract_y
_atom_site_fract_z
Si Si1 0.328341 0.827910 0.957288
Si Si2 0.326235 0.336621 0.217078
Si Si3 0.171210 0.669310 0.591484
Si Si4 0.170278 0.170278 0.500000
Si Si5 0.331223 0.329241 0.680852
Si Si6 0.169965 0.672104 0.873680
O O1 0.500000 0.793635 0.959909
O O2 0.264549 0.763688 0.909815
O O3 0.297009 0.000000 0.959602
O O4 0.249001 0.751000 0.000000
O O5 0.500000 0.342794 0.220360
O O6 0.268237 0.500000 0.204604
O O7 0.264383 0.286985 0.268019
O O8 0.276932 0.221650 0.177722
O O9 0.214186 0.500000 0.586664
O O10 0.233671 0.749828 0.545762
O O11 0.240652 0.741547 0.638226
O O12 0.000000 0.694414 0.595745
O O13 0.000000 0.203677 0.493748
O O14 0.500000 0.297463 0.671283
O O15 0.295562 0.500000 0.681354
O O16 0.198470 0.500000 0.881761
O O17 0.000000 0.710629 0.879614
#
# Coordination Sequence:
#
# PCOD8309538 Si02
#       6
#     8   8   8   4   8   8
#     4  11  24  40  58  80 105 135 171 209 251 299
#     4   8  14  26  45  69  98 131 164 199 240 285
#     4   9  17  28  43  64  87 111 145 191 236 276
#     4   9  18  32  46  59  82 118 152 181 224 286
#     4   8  14  25  42  66  95 124 154 191 237 284
#     4  10  20  33  52  80 109 136 170 209 248 293
#
# _framework density 18.405557000000002
#
# number of rings (size 3 to 8) (size 9 to 14) (size 15 to 20)
#    0.000    2.818    0.000    2.727    0.000    6.182 
#    0.000    3.636    0.000    1.091    0.000    5.091 
#    0.000    0.000    0.000    0.000    0.000    0.000 
#
# Total GULP energy -545393.401919 kJ/mol
# GULP energy per Si atom -12395.304589 kJ/mol
# Density = 1.836367 g / cm^3
# Si number density = 18.405557 Si / 1000 Ang^3
#
#
#
# Elastic Constant Matrix: (Units=GPa)
#
#
# Indices 1 2 3 4 5 6 
#
# 1 40.6138 53.0646 51.9582 0.0000 0.0000 0.0000
# 2 53.0646 40.6113 51.9584 0.0000 0.0000 0.0000
# 3 51.9582 51.9584 165.5943 0.0000 0.0000 0.0000
# 4 0.0000 0.0000 0.0000 -3.6540 0.0000 0.0000
# 5 0.0000 0.0000 0.0000 0.0000 -3.6527 0.0000
# 6 0.0000 0.0000 0.0000 0.0000 0.0000 18.0058
#
#
#
# Elastic Compliance Matrix: (Units=1/GPa)
#
#
# Indices 1 2 3 4 5 6 
#
# 1 -0.031965 0.048341 -0.005138 0.000000 0.000000 0.000000
# 2 0.048341 -0.031969 -0.005137 0.000000 0.000000 0.000000
# 3 -0.005138 -0.005137 0.009263 0.000000 0.000000 0.000000
# 4 0.000000 0.000000 0.000000 -0.273674 0.000000 0.000000
# 5 0.000000 0.000000 0.000000 0.000000 -0.273770 0.000000
# 6 0.000000 0.000000 0.000000 0.000000 0.000000 0.055538
#
#
# Mechanical properties :
#
#
# Convention : Reuss Voigt Hill
#
# Bulk Modulus (GPa) = 46.59702 62.30908 54.45305
# Shear Modulus (GPa) = -8.12275 8.12905 0.00315
#
# Velocity S-wave (km/s) = -2.10304 2.10386 0.04139
# Velocity P-wave (km/s) = 4.41302 6.31098 5.44533
#
# Compressibility (1/GPa) = 0.02146060
#
# Stress axis : x y z
#
# Youngs Moduli (GPa) = -31.28394 -31.28067 107.95674
#
# Poissons Ratio (x) = 1.51215 0.55471
# Poissons Ratio (y) = 1.51230 0.55459
# Poissons Ratio (z) = -0.16075 -0.16069
#
# Static dielectric constant tensor:
#      x y z
#    x 3.194550 0.000000 0.000000 
#    y 0.000000 3.194550 0.000000 
#    z 0.000000 0.000000 7.390420 
# 
# 
# High freq. dielectric constant tensor:
#      x y z
#    x 1.688020 0.000000 0.000000 
#    y 0.000000 1.688020 0.000000 
#    z 0.000000 0.000000 1.737770 
# 
# From -- ./inp_files/5802.got.cif
#   From: 2010.03.12/outbox.cif.g09.slc.cpg/sg115_3_cif.got.tgz:5802.got - 2010.04.14 02:11:21.
