data_PCOD8309576
_publ_section_title
;
Structure prediction by ZEFSAII (Michael W. Deem and Ramdas Pophale) SiO2 
 PCOD8309576
Probable space group: P -4 M 2
;
_chemical_formula_sum "Si O2"
_cell_formula_units_Z 40
_cell_length_a 9.014239
_cell_length_b 9.014239
_cell_length_c 26.002727
_cell_angle_alpha 90.000000
_cell_angle_beta 90.000000
_cell_angle_gamma 90.000000
_cell_volume 2112.890710
_symmetry_space_group_name_H-M "P -4 M 2"
_symmetry_group_IT_number 115
_symmetry_cell_setting 'tetragonal'
loop_
_space_group_symop_operation_xyz
x,y,z
y,-x,-z
-x,-y,z
-y,x,-z
y,x,-z
-y,-x,-z
-x,y,z
x,-y,z
loop_
_atom_site_type_symbol
_atom_site_label
_atom_site_fract_x
_atom_site_fract_y
_atom_site_fract_z
Si Si1 0.165452 0.823020 0.556083
Si Si2 0.672810 0.826386 0.047498
Si Si3 0.176112 0.166201 0.245043
Si Si4 0.325170 0.171683 0.858331
Si Si5 0.666355 0.822875 0.655178
O O1 0.227636 0.772365 0.500000
O O2 0.267972 0.760393 0.601688
O O3 0.000000 0.760505 0.565141
O O4 0.161195 0.000000 0.556773
O O5 0.500000 0.793538 0.038196
O O6 0.725404 0.746069 0.098790
O O7 0.704526 0.000000 0.052998
O O8 0.764875 0.764875 0.000000
O O9 0.226766 0.261931 0.196161
O O10 0.240359 0.239770 0.296900
O O11 0.000000 0.162865 0.248191
O O12 0.240172 0.000000 0.240027
O O13 0.500000 0.194958 0.858079
O O14 0.283839 0.000000 0.869016
O O15 0.500000 0.763012 0.660718
O O16 0.670102 0.000000 0.655169
#
# Coordination Sequence:
#
# PCOD8309576 Si02
#       5
#     8   8   8   8   8
#     4   8  13  21  33  50  75 109 147 185 229 286
#     4  11  24  40  58  81 107 136 172 212 254 302
#     4   9  16  26  42  65  95 131 167 203 247 298
#     4  10  20  34  53  78 107 138 173 212 254 302
#     4   9  15  22  34  56  87 119 151 193 245 295
#
# _framework density 18.931408999999999
#
# number of rings (size 3 to 8) (size 9 to 14) (size 15 to 20)
#    0.000    2.600    0.000    3.600    0.000   10.000 
#    0.000    0.000    0.000    0.000    0.000    1.400 
#    0.000    8.400    0.000    0.000    0.000    0.000 
#
# Total GULP energy -495935.687479 kJ/mol
# GULP energy per Si atom -12398.392187 kJ/mol
# Density = 1.888832 g / cm^3
# Si number density = 18.931409 Si / 1000 Ang^3
#
#
#
# Elastic Constant Matrix: (Units=GPa)
#
#
# Indices 1 2 3 4 5 6 
#
# 1 71.8621 28.3494 45.5532 0.0000 0.0000 0.0000
# 2 28.3494 71.8623 45.5533 0.0000 0.0000 0.0000
# 3 45.5532 45.5533 163.9993 0.0000 0.0000 0.0000
# 4 0.0000 0.0000 0.0000 -5.4349 0.0000 0.0000
# 5 0.0000 0.0000 0.0000 0.0000 -5.4349 0.0000
# 6 0.0000 0.0000 0.0000 0.0000 0.0000 15.2003
#
#
#
# Elastic Compliance Matrix: (Units=1/GPa)
#
#
# Indices 1 2 3 4 5 6 
#
# 1 0.018166 -0.004816 -0.003708 0.000000 0.000000 0.000000
# 2 -0.004816 0.018166 -0.003708 0.000000 0.000000 0.000000
# 3 -0.003708 -0.003708 0.008158 0.000000 0.000000 0.000000
# 4 0.000000 0.000000 0.000000 -0.183995 0.000000 0.000000
# 5 0.000000 0.000000 0.000000 0.000000 -0.183995 0.000000
# 6 0.000000 0.000000 0.000000 0.000000 0.000000 0.065788
#
#
# Mechanical properties :
#
#
# Convention : Reuss Voigt Hill
#
# Bulk Modulus (GPa) = 49.93732 60.73729 55.33730
# Shear Modulus (GPa) = -22.06799 13.41728 -4.32535
#
# Velocity S-wave (km/s) = -3.41791 2.66509 -1.51318
# Velocity P-wave (km/s) = 3.29532 6.45157 5.12259
#
# Compressibility (1/GPa) = 0.02002510
#
# Stress axis : x y z
#
# Youngs Moduli (GPa) = 55.04796 55.04808 122.58502
#
# Poissons Ratio (x) = 0.26510 0.45457
# Poissons Ratio (y) = 0.26510 0.45457
# Poissons Ratio (z) = 0.20413 0.20413
#
# Static dielectric constant tensor:
#      x y z
#    x 3.253130 0.000000 0.000000 
#    y 0.000000 3.253130 0.000000 
#    z 0.000000 0.000000 3.910780 
# 
# 
# High freq. dielectric constant tensor:
#      x y z
#    x 1.703980 0.000000 0.000000 
#    y 0.000000 1.703980 0.000000 
#    z 0.000000 0.000000 1.758460 
# 
# From -- ./inp_files/5067.got.cif
#   From: 2010.03.12/outbox.cif.g09.slc.cpg/sg115_3_cif.got.tgz:5067.got - 2010.04.14 02:11:21.
