data_PCOD8309930
_publ_section_title
;
Structure prediction by ZEFSAII (Michael W. Deem and Ramdas Pophale) SiO2 
 PCOD8309930
Probable space group: P -4 M 2
;
_chemical_formula_sum "Si O2"
_cell_formula_units_Z 48
_cell_length_a 8.932257
_cell_length_b 8.932257
_cell_length_c 30.625113
_cell_angle_alpha 90.000000
_cell_angle_beta 90.000000
_cell_angle_gamma 90.000000
_cell_volume 2443.431229
_symmetry_space_group_name_H-M "P -4 M 2"
_symmetry_group_IT_number 115
_symmetry_cell_setting 'tetragonal'
loop_
_space_group_symop_operation_xyz
x,y,z
y,-x,-z
-x,-y,z
-y,x,-z
y,x,-z
-y,-x,-z
-x,y,z
x,-y,z
loop_
_atom_site_type_symbol
_atom_site_label
_atom_site_fract_x
_atom_site_fract_y
_atom_site_fract_z
Si Si1 0.325682 0.173207 0.540407
Si Si2 0.324553 0.672287 0.129127
Si Si3 0.176481 0.328613 0.620586
Si Si4 0.174090 0.671936 0.960533
Si Si5 0.325933 0.672753 0.710262
Si Si6 0.823414 0.169778 0.209694
O O1 0.269691 0.269691 0.500000
O O2 0.500000 0.204023 0.547148
O O3 0.241167 0.220959 0.583939
O O4 0.292323 0.000000 0.530639
O O5 0.500000 0.691866 0.137473
O O6 0.275332 0.500000 0.132601
O O7 0.278520 0.733234 0.081823
O O8 0.238710 0.768200 0.164633
O O9 0.224176 0.500000 0.610811
O O10 0.240142 0.275005 0.666912
O O11 0.000000 0.310927 0.621574
O O12 0.209244 0.500000 0.972720
O O13 0.000000 0.696278 0.950596
O O14 0.222945 0.777056 0.000000
O O15 0.500000 0.702690 0.702715
O O16 0.292439 0.500000 0.720752
O O17 0.270679 0.769261 0.750555
O O18 0.000000 0.177571 0.207662
O O19 0.766716 0.000000 0.216276
#
# Coordination Sequence:
#
# PCOD8309930 Si02
#       6
#     8   8   8   8   8   8
#     4  11  24  40  59  85 116 151 191 234 282 336
#     4  10  21  38  61  86 111 144 188 235 282 334
#     4  10  21  38  61  88 116 148 188 233 282 336
#     4  10  21  37  58  84 113 147 186 228 277 332
#     4  10  21  38  61  87 114 148 191 235 281 335
#     4  11  24  39  56  82 116 152 189 231 282 337
#
# _framework density 19.644507000000001
#
# number of rings (size 3 to 8) (size 9 to 14) (size 15 to 20)
#    0.000    1.667    0.000    4.000    0.000   12.000 
#    0.000    0.000    0.000    0.000    0.000    0.000 
#    0.000    0.000    0.000    0.000    0.000    0.000 
#
# Total GULP energy -595517.106400 kJ/mol
# GULP energy per Si atom -12406.606383 kJ/mol
# Density = 1.959979 g / cm^3
# Si number density = 19.644507 Si / 1000 Ang^3
#
#
#
# Elastic Constant Matrix: (Units=GPa)
#
#
# Indices 1 2 3 4 5 6 
#
# 1 67.0899 37.0986 37.1450 0.0000 0.0000 0.0000
# 2 37.0986 67.0894 37.1445 0.0000 0.0000 0.0000
# 3 37.1450 37.1445 109.8549 0.0000 0.0000 0.0000
# 4 0.0000 0.0000 0.0000 67.1139 0.0000 0.0000
# 5 0.0000 0.0000 0.0000 0.0000 67.1145 0.0000
# 6 0.0000 0.0000 0.0000 0.0000 0.0000 31.5975
#
#
#
# Elastic Compliance Matrix: (Units=1/GPa)
#
#
# Indices 1 2 3 4 5 6 
#
# 1 0.022995 -0.010348 -0.004276 0.000000 0.000000 0.000000
# 2 -0.010348 0.022995 -0.004276 0.000000 0.000000 0.000000
# 3 -0.004276 -0.004276 0.011995 0.000000 0.000000 0.000000
# 4 0.000000 0.000000 0.000000 0.014900 0.000000 0.000000
# 5 0.000000 0.000000 0.000000 0.000000 0.014900 0.000000
# 6 0.000000 0.000000 0.000000 0.000000 0.000000 0.031648
#
#
# Mechanical properties :
#
#
# Convention : Reuss Voigt Hill
#
# Bulk Modulus (GPa) = 49.54467 51.86782 50.70624
# Shear Modulus (GPa) = 30.49476 42.00826 36.25151
#
# Velocity S-wave (km/s) = 3.94424 4.62933 4.30045
# Velocity P-wave (km/s) = 6.78366 7.41854 7.10819
#
# Compressibility (1/GPa) = 0.02018381
#
# Stress axis : x y z
#
# Youngs Moduli (GPa) = 43.48740 43.48723 83.36956
#
# Poissons Ratio (x) = 0.45001 0.35652
# Poissons Ratio (y) = 0.45001 0.35651
# Poissons Ratio (z) = 0.18597 0.18596
#
# Static dielectric constant tensor:
#      x y z
#    x 3.682440 0.000000 0.000000 
#    y 0.000000 3.682440 0.000000 
#    z 0.000000 0.000000 3.970180 
# 
# 
# High freq. dielectric constant tensor:
#      x y z
#    x 1.771370 0.000000 0.000000 
#    y 0.000000 1.771370 0.000000 
#    z 0.000000 0.000000 1.779630 
# 
# From -- ./inp_files/6057.got.cif
#   From: 2010.03.12/outbox.cif.g09.slc.cpg/sg115_4_cif.got.tgz:6057.got - 2010.04.14 02:11:21.
