data_PCOD8309331
_publ_section_title
;
Structure prediction by ZEFSAII (Michael W. Deem and Ramdas Pophale) SiO2 
 PCOD8309331
Probable space group: P -4 M 2
;
_chemical_formula_sum "Si O2"
_cell_formula_units_Z 48
_cell_length_a 15.078995
_cell_length_b 15.078995
_cell_length_c 12.738090
_cell_angle_alpha 90.000000
_cell_angle_beta 90.000000
_cell_angle_gamma 90.000000
_cell_volume 2896.337101
_symmetry_space_group_name_H-M "P -4 M 2"
_symmetry_group_IT_number 115
_symmetry_cell_setting 'tetragonal'
loop_
_space_group_symop_operation_xyz
x,y,z
y,-x,-z
-x,-y,z
-y,x,-z
y,x,-z
-y,-x,-z
-x,y,z
x,-y,z
loop_
_atom_site_type_symbol
_atom_site_label
_atom_site_fract_x
_atom_site_fract_y
_atom_site_fract_z
Si Si1 0.246050 0.106285 0.030181
Si Si2 0.894785 0.400925 0.125215
Si Si3 0.400634 0.104409 0.429398
Si Si4 0.732531 0.901549 0.261940
Si Si5 0.141817 0.900541 0.619225
Si Si6 0.348519 0.100391 0.651037
O O1 0.326781 0.139189 0.956281
O O2 0.230439 0.000000 0.025082
O O3 0.154223 0.154223 0.000000
O O4 0.270383 0.141426 0.146848
O O5 0.866405 0.500000 0.088388
O O6 0.853600 0.382671 0.241496
O O7 0.000000 0.392555 0.131082
O O8 0.500000 0.122863 0.389993
O O9 0.332617 0.148291 0.345024
O O10 0.386585 0.147128 0.545429
O O11 0.379060 0.000000 0.438972
O O12 0.832780 0.908289 0.305001
O O13 0.694488 0.000000 0.248193
O O14 0.127014 0.872987 0.500000
O O15 0.243627 0.895102 0.649032
O O16 0.105213 0.000000 0.638197
O O17 0.383804 0.000000 0.652249
#
# Coordination Sequence:
#
# PCOD8309331 Si02
#       6
#     8   8   8   8   8   8
#     4  10  21  35  49  65  92 129 169 208 245 285
#     4   9  17  30  49  71  91 117 159 207 252 296
#     4   9  16  27  43  62  84 109 139 183 239 290
#     4  10  20  32  43  61  86 116 158 198 234 281
#     4  11  20  30  44  63  93 128 163 200 237 277
#     4   9  16  27  44  65  89 114 146 190 236 285
#
# _framework density 16.572657
#
# number of rings (size 3 to 8) (size 9 to 14) (size 15 to 20)
#    0.000    2.333    1.667    2.000    0.000    6.000 
#    0.000    5.000    0.000    0.000    0.000    0.000 
#    0.000    0.333    0.000    0.333    0.000   22.000 
#
# Total GULP energy -594805.574679 kJ/mol
# GULP energy per Si atom -12391.782806 kJ/mol
# Density = 1.653494 g / cm^3
# Si number density = 16.572657 Si / 1000 Ang^3
#
#
#
# Elastic Constant Matrix: (Units=GPa)
#
#
# Indices 1 2 3 4 5 6 
#
# 1 62.4829 10.1965 39.1524 0.0000 0.0000 0.0000
# 2 10.1965 62.4849 39.1525 0.0000 0.0000 0.0000
# 3 39.1524 39.1525 156.0769 0.0000 0.0000 0.0000
# 4 0.0000 0.0000 0.0000 27.4738 0.0000 0.0000
# 5 0.0000 0.0000 0.0000 0.0000 27.4652 0.0000
# 6 0.0000 0.0000 0.0000 0.0000 0.0000 1.5037
#
#
#
# Elastic Compliance Matrix: (Units=1/GPa)
#
#
# Indices 1 2 3 4 5 6 
#
# 1 0.018990 -0.000135 -0.004730 0.000000 0.000000 0.000000
# 2 -0.000135 0.018989 -0.004730 0.000000 0.000000 0.000000
# 3 -0.004730 -0.004730 0.008780 0.000000 0.000000 0.000000
# 4 0.000000 0.000000 0.000000 0.036398 0.000000 0.000000
# 5 0.000000 0.000000 0.000000 0.000000 0.036410 0.000000
# 6 0.000000 0.000000 0.000000 0.000000 0.000000 0.665020
#
#
# Mechanical properties :
#
#
# Convention : Reuss Voigt Hill
#
# Bulk Modulus (GPa) = 36.27091 50.89418 43.58254
# Shear Modulus (GPa) = 6.15031 24.12476 15.13753
#
# Velocity S-wave (km/s) = 1.92852 3.81950 3.02554
# Velocity P-wave (km/s) = 5.18579 7.08716 6.20968
#
# Compressibility (1/GPa) = 0.02757031
#
# Stress axis : x y z
#
# Youngs Moduli (GPa) = 52.65873 52.66073 113.89459
#
# Poissons Ratio (x) = 0.00712 0.53870
# Poissons Ratio (y) = 0.00712 0.53868
# Poissons Ratio (z) = 0.24907 0.24907
#
# Static dielectric constant tensor:
#      x y z
#    x 2.704910 0.000000 0.000000 
#    y 0.000000 2.704750 0.000000 
#    z 0.000000 0.000000 3.520290 
# 
# 
# High freq. dielectric constant tensor:
#      x y z
#    x 1.595220 0.000000 0.000000 
#    y 0.000000 1.595220 0.000000 
#    z 0.000000 0.000000 1.660410 
# 
# From -- ./inp_files/2946.got.cif
#   From: 2010.03.12/outbox.cif.g09.slc.cpg/sg115_2_cif.got.tgz:2946.got - 2010.04.14 02:11:21.
