data_PCOD8309729
_publ_section_title
;
Structure prediction by ZEFSAII (Michael W. Deem and Ramdas Pophale) SiO2 
 PCOD8309729
Probable space group: P -4 M 2
;
_chemical_formula_sum "Si O2"
_cell_formula_units_Z 56
_cell_length_a 14.176596
_cell_length_b 14.176596
_cell_length_c 14.831708
_cell_angle_alpha 90.000000
_cell_angle_beta 90.000000
_cell_angle_gamma 90.000000
_cell_volume 2980.815480
_symmetry_space_group_name_H-M "P -4 M 2"
_symmetry_group_IT_number 115
_symmetry_cell_setting 'tetragonal'
loop_
_space_group_symop_operation_xyz
x,y,z
y,-x,-z
-x,-y,z
-y,x,-z
y,x,-z
-y,-x,-z
-x,y,z
x,-y,z
loop_
_atom_site_type_symbol
_atom_site_label
_atom_site_fract_x
_atom_site_fract_y
_atom_site_fract_z
Si Si1 0.109216 0.890565 0.605208
Si Si2 0.222743 0.606126 0.217446
Si Si3 0.388919 0.245542 0.477977
Si Si4 0.282356 0.793092 0.302356
Si Si5 0.240001 0.392020 0.013576
Si Si6 0.100500 0.607353 0.378653
Si Si7 0.392059 0.109084 0.148956
O O1 0.129238 0.870763 0.500000
O O2 0.176509 0.823375 0.666438
O O3 0.000000 0.867778 0.626956
O O4 0.131085 0.000000 0.628742
O O5 0.267846 0.500000 0.229757
O O6 0.288844 0.688134 0.258609
O O7 0.125604 0.611590 0.273098
O O8 0.198885 0.625975 0.113505
O O9 0.348648 0.348648 0.500000
O O10 0.500000 0.254050 0.479033
O O11 0.354888 0.202000 0.384601
O O12 0.345880 0.179680 0.558021
O O13 0.321228 0.866341 0.229389
O O14 0.267763 0.500000 0.999257
O O15 0.162364 0.359453 0.941684
O O16 0.335904 0.335904 0.000000
O O17 0.091321 0.500000 0.411145
O O18 0.000000 0.659186 0.393242
O O19 0.500000 0.135320 0.175049
O O20 0.382399 0.000000 0.126495
#
# Coordination Sequence:
#
# PCOD8309729 Si02
#       7
#     8   8   8   8   8   8   8
#     4   9  20  38  57  82 117 154 196 243 290 344
#     4  10  21  36  57  84 115 146 187 238 288 340
#     4  11  23  38  55  81 115 156 198 239 283 340
#     4  12  21  36  59  85 114 156 195 237 286 346
#     4  10  20  38  62  86 116 148 184 232 285 343
#     4   9  19  36  56  80 112 145 184 237 287 332
#     4  10  22  39  60  87 118 151 189 236 288 343
#
# _framework density 18.786805000000001
#
# number of rings (size 3 to 8) (size 9 to 14) (size 15 to 20)
#    0.000    1.857    2.857    1.714    0.000    2.571 
#    0.000    4.286    0.000    1.286    0.000    0.000 
#    0.000    0.000    0.000    0.000    0.000    0.000 
#
# Total GULP energy -694171.719524 kJ/mol
# GULP energy per Si atom -12395.923563 kJ/mol
# Density = 1.874405 g / cm^3
# Si number density = 18.786805 Si / 1000 Ang^3
#
#
#
# Elastic Constant Matrix: (Units=GPa)
#
#
# Indices 1 2 3 4 5 6 
#
# 1 100.6697 43.2138 56.4647 0.0000 0.0000 0.0000
# 2 43.2138 100.6697 56.4647 0.0000 0.0000 0.0000
# 3 56.4647 56.4647 145.6523 0.0000 0.0000 0.0000
# 4 0.0000 0.0000 0.0000 25.5711 0.0000 0.0000
# 5 0.0000 0.0000 0.0000 0.0000 25.5711 0.0000
# 6 0.0000 0.0000 0.0000 0.0000 0.0000 24.2601
#
#
#
# Elastic Compliance Matrix: (Units=1/GPa)
#
#
# Indices 1 2 3 4 5 6 
#
# 1 0.013697 -0.003708 -0.003873 0.000000 0.000000 0.000000
# 2 -0.003708 0.013697 -0.003873 0.000000 0.000000 0.000000
# 3 -0.003873 -0.003873 0.009868 0.000000 0.000000 0.000000
# 4 0.000000 0.000000 0.000000 0.039107 0.000000 0.000000
# 5 0.000000 0.000000 0.000000 0.000000 0.039107 0.000000
# 6 0.000000 0.000000 0.000000 0.000000 0.000000 0.041220
#
#
# Mechanical properties :
#
#
# Convention : Reuss Voigt Hill
#
# Bulk Modulus (GPa) = 69.65312 73.25313 71.45313
# Shear Modulus (GPa) = 27.11688 27.80369 27.46029
#
# Velocity S-wave (km/s) = 3.80333 3.85120 3.82734
# Velocity P-wave (km/s) = 7.51287 7.67151 7.59260
#
# Compressibility (1/GPa) = 0.01435686
#
# Stress axis : x y z
#
# Youngs Moduli (GPa) = 73.00813 73.00810 101.33497
#
# Poissons Ratio (x) = 0.27068 0.39243
# Poissons Ratio (y) = 0.27068 0.39243
# Poissons Ratio (z) = 0.28273 0.28273
#
# Static dielectric constant tensor:
#      x y z
#    x 3.473910 0.000000 0.000000 
#    y 0.000000 3.473910 0.000000 
#    z 0.000000 0.000000 3.558960 
# 
# 
# High freq. dielectric constant tensor:
#      x y z
#    x 1.726760 0.000000 0.000000 
#    y 0.000000 1.726760 0.000000 
#    z 0.000000 0.000000 1.732230 
# 
# From -- ./inp_files/3878.got.cif
#   From: 2010.03.12/outbox.cif.g09.slc.cpg/sg115_2_cif.got.tgz:3878.got - 2010.04.14 02:11:21.
