data_PCOD8309820
_publ_section_title
;
Structure prediction by ZEFSAII (Michael W. Deem and Ramdas Pophale) SiO2 
 PCOD8309820
Probable space group: P -4 M 2
;
_chemical_formula_sum "Si O2"
_cell_formula_units_Z 48
_cell_length_a 9.207187
_cell_length_b 9.207187
_cell_length_c 31.144173
_cell_angle_alpha 90.000000
_cell_angle_beta 90.000000
_cell_angle_gamma 90.000000
_cell_volume 2640.162942
_symmetry_space_group_name_H-M "P -4 M 2"
_symmetry_group_IT_number 115
_symmetry_cell_setting 'tetragonal'
loop_
_space_group_symop_operation_xyz
x,y,z
y,-x,-z
-x,-y,z
-y,x,-z
y,x,-z
-y,-x,-z
-x,y,z
x,-y,z
loop_
_atom_site_type_symbol
_atom_site_label
_atom_site_fract_x
_atom_site_fract_y
_atom_site_fract_z
Si Si1 0.826899 0.837960 0.547057
Si Si2 0.835798 0.173243 0.289218
Si Si3 0.167211 0.329443 0.037176
Si Si4 0.336029 0.172933 0.206791
Si Si5 0.173272 0.336600 0.628114
Si Si6 0.831628 0.168060 0.123139
O O1 0.778789 0.778789 0.500000
O O2 0.765619 0.733113 0.584118
O O3 0.000000 0.843578 0.548274
O O4 0.765254 0.000000 0.555167
O O5 0.751866 0.234396 0.247594
O O6 0.755392 0.232207 0.331630
O O7 0.000000 0.233001 0.288829
O O8 0.835753 0.000000 0.288856
O O9 0.191854 0.500000 0.040385
O O10 0.216988 0.259135 0.081887
O O11 0.000000 0.289911 0.027329
O O12 0.266881 0.266881 0.000000
O O13 0.500000 0.233007 0.208441
O O14 0.259993 0.227719 0.163298
O O15 0.334631 0.000000 0.208042
O O16 0.233091 0.500000 0.631822
O O17 0.000000 0.335723 0.627913
O O18 0.000000 0.191471 0.134249
O O19 0.797451 0.000000 0.113636
#
# Coordination Sequence:
#
# PCOD8309820 Si02
#       6
#     8   8   8   8   8   8
#     4   8  13  21  32  45  64  95 134 169 201 246
#     4   9  15  22  33  50  76 111 147 180 218 268
#     4  10  21  36  54  76 101 129 162 200 242 288
#     4   9  16  25  38  58  84 114 150 191 231 271
#     4   9  15  21  30  47  73 103 134 171 216 262
#     4   9  17  30  48  68  91 121 156 192 231 277
#
# _framework density 18.180696999999999
#
# number of rings (size 3 to 8) (size 9 to 14) (size 15 to 20)
#    0.000    3.000    0.000    2.500    0.000    7.667 
#    0.000    1.667    0.000    0.000    0.000    0.000 
#    0.000    1.667    0.000   11.333    0.000   12.500 
#
# Total GULP energy -595107.205306 kJ/mol
# GULP energy per Si atom -12398.066777 kJ/mol
# Density = 1.813932 g / cm^3
# Si number density = 18.180697 Si / 1000 Ang^3
#
#
#
# Elastic Constant Matrix: (Units=GPa)
#
#
# Indices 1 2 3 4 5 6 
#
# 1 75.5994 26.5483 66.8047 0.0000 0.0000 0.0000
# 2 26.5483 75.5994 66.8047 0.0000 0.0000 0.0000
# 3 66.8047 66.8047 195.6720 0.0000 0.0000 0.0000
# 4 0.0000 0.0000 0.0000 4.0335 0.0000 0.0000
# 5 0.0000 0.0000 0.0000 0.0000 4.0335 0.0000
# 6 0.0000 0.0000 0.0000 0.0000 0.0000 8.4778
#
#
#
# Elastic Compliance Matrix: (Units=1/GPa)
#
#
# Indices 1 2 3 4 5 6 
#
# 1 0.019038 -0.001349 -0.006039 0.000000 0.000000 0.000000
# 2 -0.001349 0.019038 -0.006039 0.000000 0.000000 0.000000
# 3 -0.006039 -0.006039 0.009234 0.000000 0.000000 0.000000
# 4 0.000000 0.000000 0.000000 0.247921 0.000000 0.000000
# 5 0.000000 0.000000 0.000000 0.000000 0.247921 0.000000
# 6 0.000000 0.000000 0.000000 0.000000 0.000000 0.117955
#
#
# Mechanical properties :
#
#
# Convention : Reuss Voigt Hill
#
# Bulk Modulus (GPa) = 48.88658 74.13180 61.50919
# Shear Modulus (GPa) = 7.19651 15.75652 11.47651
#
# Velocity S-wave (km/s) = 1.99171 2.94711 2.51519
# Velocity P-wave (km/s) = 5.67775 7.24183 6.50696
#
# Compressibility (1/GPa) = 0.02045551
#
# Stress axis : x y z
#
# Youngs Moduli (GPa) = 52.52649 52.52649 108.29125
#
# Poissons Ratio (x) = 0.07085 0.65400
# Poissons Ratio (y) = 0.07085 0.65400
# Poissons Ratio (z) = 0.31722 0.31722
#
# Static dielectric constant tensor:
#      x y z
#    x 3.053540 0.000000 0.000000 
#    y 0.000000 3.053540 0.000000 
#    z 0.000000 0.000000 3.646730 
# 
# 
# High freq. dielectric constant tensor:
#      x y z
#    x 1.664250 0.000000 0.000000 
#    y 0.000000 1.664250 0.000000 
#    z 0.000000 0.000000 1.724540 
# 
# From -- ./inp_files/6098.got.cif
#   From: 2010.03.12/outbox.cif.g09.slc.cpg/sg115_4_cif.got.tgz:6098.got - 2010.04.14 02:11:21.
