data_PCOD8309857
_publ_section_title
;
Structure prediction by ZEFSAII (Michael W. Deem and Ramdas Pophale) SiO2 
 PCOD8309857
Probable space group: P -4 M 2
;
_chemical_formula_sum "Si O2"
_cell_formula_units_Z 48
_cell_length_a 9.195917
_cell_length_b 9.195917
_cell_length_c 30.516795
_cell_angle_alpha 90.000000
_cell_angle_beta 90.000000
_cell_angle_gamma 90.000000
_cell_volume 2580.649396
_symmetry_space_group_name_H-M "P -4 M 2"
_symmetry_group_IT_number 115
_symmetry_cell_setting 'tetragonal'
loop_
_space_group_symop_operation_xyz
x,y,z
y,-x,-z
-x,-y,z
-y,x,-z
y,x,-z
-y,-x,-z
-x,y,z
x,-y,z
loop_
_atom_site_type_symbol
_atom_site_label
_atom_site_fract_x
_atom_site_fract_y
_atom_site_fract_z
Si Si1 0.667528 0.828477 0.289985
Si Si2 0.332773 0.829231 0.038003
Si Si3 0.170359 0.833001 0.623727
Si Si4 0.664205 0.330022 0.449869
Si Si5 0.168146 0.329574 0.212576
Si Si6 0.668210 0.667346 0.874463
O O1 0.500000 0.780527 0.290699
O O2 0.740955 0.773578 0.334833
O O3 0.746925 0.754285 0.249841
O O4 0.685584 0.000000 0.284681
O O5 0.500000 0.788259 0.028267
O O6 0.282307 0.760969 0.083895
O O7 0.308930 0.000000 0.040826
O O8 0.233351 0.766650 0.000000
O O9 0.246418 0.777951 0.579981
O O10 0.000000 0.812245 0.617063
O O11 0.212522 0.000000 0.631881
O O12 0.704551 0.295450 0.500000
O O13 0.500000 0.276997 0.439752
O O14 0.677339 0.500000 0.440433
O O15 0.190431 0.500000 0.220317
O O16 0.233630 0.282112 0.165980
O O17 0.000000 0.284597 0.213745
O O18 0.500000 0.692236 0.886062
O O19 0.699471 0.500000 0.862132
#
# Coordination Sequence:
#
# PCOD8309857 Si02
#       6
#     8   8   8   8   8   8
#     4  10  21  37  57  79 104 139 181 221 263 313
#     4  10  21  36  55  80 109 141 178 220 265 314
#     4  10  21  36  54  78 108 140 175 216 263 316
#     4   9  19  36  56  78 105 138 177 219 262 310
#     4  10  21  36  55  81 111 141 174 215 264 316
#     4   9  18  34  55  77 104 140 180 219 259 308
#
# _framework density 18.599968000000001
#
# number of rings (size 3 to 8) (size 9 to 14) (size 15 to 20)
#    0.000    2.333    0.000    2.500    0.000    7.000 
#    0.000    5.833    0.000    0.000    0.000    0.000 
#    0.000    0.000    0.000    0.000    0.000    0.000 
#
# Total GULP energy -595394.388140 kJ/mol
# GULP energy per Si atom -12404.049753 kJ/mol
# Density = 1.855763 g / cm^3
# Si number density = 18.599968 Si / 1000 Ang^3
#
#
#
# Elastic Constant Matrix: (Units=GPa)
#
#
# Indices 1 2 3 4 5 6 
#
# 1 89.5372 52.2396 76.9977 0.0000 0.0000 0.0000
# 2 52.2396 89.5362 76.9963 0.0000 0.0000 0.0000
# 3 76.9977 76.9963 153.2086 0.0000 0.0000 0.0000
# 4 0.0000 0.0000 0.0000 125.7439 0.0000 0.0000
# 5 0.0000 0.0000 0.0000 0.0000 125.7610 0.0000
# 6 0.0000 0.0000 0.0000 0.0000 0.0000 30.1641
#
#
#
# Elastic Compliance Matrix: (Units=1/GPa)
#
#
# Indices 1 2 3 4 5 6 
#
# 1 0.021172 -0.005640 -0.007806 0.000000 0.000000 0.000000
# 2 -0.005640 0.021172 -0.007805 0.000000 0.000000 0.000000
# 3 -0.007806 -0.007805 0.014373 0.000000 0.000000 0.000000
# 4 0.000000 0.000000 0.000000 0.007953 0.000000 0.000000
# 5 0.000000 0.000000 0.000000 0.000000 0.007952 0.000000
# 6 0.000000 0.000000 0.000000 0.000000 0.000000 0.033152
#
#
# Mechanical properties :
#
#
# Convention : Reuss Voigt Hill
#
# Bulk Modulus (GPa) = 70.35585 82.74993 76.55289
# Shear Modulus (GPa) = 32.67700 64.73703 48.70701
#
# Velocity S-wave (km/s) = 4.19600 5.90597 5.12284
# Velocity P-wave (km/s) = 7.83474 9.54427 8.73145
#
# Compressibility (1/GPa) = 0.01421346
#
# Stress axis : x y z
#
# Youngs Moduli (GPa) = 47.23266 47.23303 69.57630
#
# Poissons Ratio (x) = 0.26640 0.54310
# Poissons Ratio (y) = 0.26639 0.54308
# Poissons Ratio (z) = 0.36869 0.36868
#
# Static dielectric constant tensor:
#      x y z
#    x 3.204610 0.000000 0.000000 
#    y 0.000000 3.204640 0.000000 
#    z 0.000000 0.000000 3.487590 
# 
# 
# High freq. dielectric constant tensor:
#      x y z
#    x 1.720740 0.000000 0.000000 
#    y 0.000000 1.720740 0.000000 
#    z 0.000000 0.000000 1.733110 
# 
# From -- ./inp_files/5941.got.cif
#   From: 2010.03.12/outbox.cif.g09.slc.cpg/sg115_3_cif.got.tgz:5941.got - 2010.04.14 02:11:21.
