data_PCOD8309876
_publ_section_title
;
Structure prediction by ZEFSAII (Michael W. Deem and Ramdas Pophale) SiO2 
 PCOD8309876
Probable space group: P -4 M 2
;
_chemical_formula_sum "Si O2"
_cell_formula_units_Z 48
_cell_length_a 9.204799
_cell_length_b 9.204799
_cell_length_c 30.348441
_cell_angle_alpha 90.000000
_cell_angle_beta 90.000000
_cell_angle_gamma 90.000000
_cell_volume 2571.372561
_symmetry_space_group_name_H-M "P -4 M 2"
_symmetry_group_IT_number 115
_symmetry_cell_setting 'tetragonal'
loop_
_space_group_symop_operation_xyz
x,y,z
y,-x,-z
-x,-y,z
-y,x,-z
y,x,-z
-y,-x,-z
-x,y,z
x,-y,z
loop_
_atom_site_type_symbol
_atom_site_label
_atom_site_fract_x
_atom_site_fract_y
_atom_site_fract_z
Si Si1 0.667128 0.169822 0.210197
Si Si2 0.833686 0.832726 0.448799
Si Si3 0.166385 0.329485 0.135057
Si Si4 0.667999 0.328771 0.375700
Si Si5 0.161168 0.671397 0.036130
Si Si6 0.830498 0.169820 0.702261
O O1 0.500000 0.211671 0.217964
O O2 0.724453 0.248432 0.167026
O O3 0.757488 0.222813 0.252462
O O4 0.688222 0.000000 0.202605
O O5 0.804278 0.804278 0.500000
O O6 0.724863 0.730590 0.422217
O O7 0.000000 0.794197 0.436746
O O8 0.802814 0.000000 0.436673
O O9 0.187624 0.500000 0.141431
O O10 0.208083 0.281582 0.085366
O O11 0.000000 0.285564 0.145328
O O12 0.500000 0.285711 0.369977
O O13 0.690559 0.500000 0.374619
O O14 0.761015 0.258649 0.337112
O O15 0.161546 0.500000 0.033222
O O16 0.000000 0.731395 0.026127
O O17 0.270426 0.729575 0.000000
O O18 0.000000 0.200171 0.693933
O O19 0.796043 0.000000 0.704874
#
# Coordination Sequence:
#
# PCOD8309876 Si02
#       6
#     8   8   8   8   8   8
#     4  10  21  36  55  81 110 138 171 214 264 316
#     4   9  19  37  60  84 109 140 181 225 267 315
#     4   9  19  36  55  75 103 140 178 215 259 312
#     4  11  24  38  53  79 114 147 179 218 265 316
#     4   9  19  35  53  75 104 137 175 218 262 311
#     4  10  21  38  60  82 104 136 179 222 264 314
#
# _framework density 18.667072999999998
#
# number of rings (size 3 to 8) (size 9 to 14) (size 15 to 20)
#    0.000    2.333    0.000    3.500    0.000    9.000 
#    0.000    7.500    0.000    0.000    0.000    0.000 
#    0.000    0.000    0.000    0.000    0.000    0.000 
#
# Total GULP energy -595305.002400 kJ/mol
# GULP energy per Si atom -12402.187550 kJ/mol
# Density = 1.862459 g / cm^3
# Si number density = 18.667073 Si / 1000 Ang^3
#
#
#
# Elastic Constant Matrix: (Units=GPa)
#
#
# Indices 1 2 3 4 5 6 
#
# 1 84.5001 54.1765 62.3403 0.0000 0.0000 0.0000
# 2 54.1765 84.5018 62.3411 0.0000 0.0000 0.0000
# 3 62.3403 62.3411 127.7708 0.0000 0.0000 0.0000
# 4 0.0000 0.0000 0.0000 -249.0398 0.0000 0.0000
# 5 0.0000 0.0000 0.0000 0.0000 -249.0668 0.0000
# 6 0.0000 0.0000 0.0000 0.0000 0.0000 33.7858
#
#
#
# Elastic Compliance Matrix: (Units=1/GPa)
#
#
# Indices 1 2 3 4 5 6 
#
# 1 0.022912 -0.010065 -0.006268 0.000000 0.000000 0.000000
# 2 -0.010065 0.022911 -0.006268 0.000000 0.000000 0.000000
# 3 -0.006268 -0.006268 0.013943 0.000000 0.000000 0.000000
# 4 0.000000 0.000000 0.000000 -0.004015 0.000000 0.000000
# 5 0.000000 0.000000 0.000000 0.000000 -0.004015 0.000000
# 6 0.000000 0.000000 0.000000 0.000000 0.000000 0.029598
#
#
# Mechanical properties :
#
#
# Convention : Reuss Voigt Hill
#
# Bulk Modulus (GPa) = 68.66257 72.72093 70.69175
# Shear Modulus (GPa) = 38.05470 -85.00317 -23.47424
#
# Velocity S-wave (km/s) = 4.51998 -6.75539 -3.55000
# Velocity P-wave (km/s) = 8.00643 4.66965 4.59876
#
# Compressibility (1/GPa) = 0.01456397
#
# Stress axis : x y z
#
# Youngs Moduli (GPa) = 43.64593 43.64667 71.72186
#
# Poissons Ratio (x) = 0.43932 0.44954
# Poissons Ratio (y) = 0.43931 0.44954
# Poissons Ratio (z) = 0.27356 0.27357
#
# Static dielectric constant tensor:
#      x y z
#    x 3.441390 0.000000 0.000000 
#    y 0.000000 3.441390 0.000000 
#    z 0.000000 0.000000 3.530010 
# 
# 
# High freq. dielectric constant tensor:
#      x y z
#    x 1.722800 0.000000 0.000000 
#    y 0.000000 1.722800 0.000000 
#    z 0.000000 0.000000 1.737710 
# 
# From -- ./inp_files/5968.got.cif
#   From: 2010.03.12/outbox.cif.g09.slc.cpg/sg115_3_cif.got.tgz:5968.got - 2010.04.14 02:11:21.
