data_PCOD8309786
_publ_section_title
;
Structure prediction by ZEFSAII (Michael W. Deem and Ramdas Pophale) SiO2 
 PCOD8309786
Probable space group: P -4 M 2
;
_chemical_formula_sum "Si O2"
_cell_formula_units_Z 48
_cell_length_a 9.270299
_cell_length_b 9.270299
_cell_length_c 31.075107
_cell_angle_alpha 90.000000
_cell_angle_beta 90.000000
_cell_angle_gamma 90.000000
_cell_volume 2670.546329
_symmetry_space_group_name_H-M "P -4 M 2"
_symmetry_group_IT_number 115
_symmetry_cell_setting 'tetragonal'
loop_
_space_group_symop_operation_xyz
x,y,z
y,-x,-z
-x,-y,z
-y,x,-z
y,x,-z
-y,-x,-z
-x,y,z
x,-y,z
loop_
_atom_site_type_symbol
_atom_site_label
_atom_site_fract_x
_atom_site_fract_y
_atom_site_fract_z
Si Si1 0.334115 0.669484 0.620290
Si Si2 0.834740 0.670595 0.704172
Si Si3 0.163234 0.327964 0.035977
Si Si4 0.163411 0.832231 0.549569
Si Si5 0.657324 0.170459 0.871552
Si Si6 0.329060 0.833119 0.778199
O O1 0.500000 0.712772 0.627343
O O2 0.314905 0.500000 0.614348
O O3 0.244242 0.726197 0.661192
O O4 0.275976 0.743372 0.577461
O O5 0.822627 0.500000 0.708041
O O6 0.756555 0.736355 0.745087
O O7 0.000000 0.722441 0.702467
O O8 0.173391 0.500000 0.036844
O O9 0.213859 0.265304 0.083227
O O10 0.000000 0.278379 0.025741
O O11 0.268375 0.268375 0.000000
O O12 0.199358 0.800643 0.500000
O O13 0.000000 0.782912 0.560093
O O14 0.181759 0.000000 0.559969
O O15 0.500000 0.244122 0.871035
O O16 0.732535 0.210995 0.826026
O O17 0.636511 0.000000 0.872498
O O18 0.500000 0.803029 0.775164
O O19 0.296548 0.000000 0.768362
#
# Coordination Sequence:
#
# PCOD8309786 Si02
#       6
#     8   8   8   8   8   8
#     4  10  21  36  54  76 101 131 169 209 245 285
#     4  10  21  36  52  71  99 135 168 198 241 295
#     4   9  17  30  48  69  94 125 160 198 240 286
#     4   9  19  36  56  78 105 136 168 202 243 291
#     4   7  12  26  47  68  91 121 157 196 238 285
#     4   9  17  31  53  77  96 119 158 205 247 289
#
# _framework density 17.973849000000001
#
# number of rings (size 3 to 8) (size 9 to 14) (size 15 to 20)
#    0.000    3.000    0.000    3.500    0.000    4.333 
#    0.000    4.167    0.000    8.000    0.000    0.000 
#    0.000    0.000    0.000    0.000    0.000    0.000 
#
# Total GULP energy -594781.577102 kJ/mol
# GULP energy per Si atom -12391.282856 kJ/mol
# Density = 1.793294 g / cm^3
# Si number density = 17.973849 Si / 1000 Ang^3
#
#
#
# Elastic Constant Matrix: (Units=GPa)
#
#
# Indices 1 2 3 4 5 6 
#
# 1 51.7134 29.1376 50.2505 0.0000 0.0000 0.0000
# 2 29.1376 51.7135 50.2505 0.0000 0.0000 0.0000
# 3 50.2505 50.2505 148.8316 0.0000 0.0000 0.0000
# 4 0.0000 0.0000 0.0000 35.7630 0.0000 0.0000
# 5 0.0000 0.0000 0.0000 0.0000 35.7631 0.0000
# 6 0.0000 0.0000 0.0000 0.0000 0.0000 27.3965
#
#
#
# Elastic Compliance Matrix: (Units=1/GPa)
#
#
# Indices 1 2 3 4 5 6 
#
# 1 0.032804 -0.011491 -0.007196 0.000000 0.000000 0.000000
# 2 -0.011491 0.032804 -0.007196 0.000000 0.000000 0.000000
# 3 -0.007196 -0.007196 0.011578 0.000000 0.000000 0.000000
# 4 0.000000 0.000000 0.000000 0.027962 0.000000 0.000000
# 5 0.000000 0.000000 0.000000 0.000000 0.027962 0.000000
# 6 0.000000 0.000000 0.000000 0.000000 0.000000 0.036501
#
#
# Mechanical properties :
#
#
# Convention : Reuss Voigt Hill
#
# Bulk Modulus (GPa) = 39.33795 56.83730 48.08762
# Shear Modulus (GPa) = 21.75319 27.95918 24.85618
#
# Velocity S-wave (km/s) = 3.48267 3.94832 3.72278
# Velocity P-wave (km/s) = 6.17298 7.24407 6.72987
#
# Compressibility (1/GPa) = 0.02542075
#
# Stress axis : x y z
#
# Youngs Moduli (GPa) = 30.48377 30.48385 86.36831
#
# Poissons Ratio (x) = 0.35028 0.62152
# Poissons Ratio (y) = 0.35028 0.62152
# Poissons Ratio (z) = 0.21937 0.21937
#
# Static dielectric constant tensor:
#      x y z
#    x 3.057050 0.000000 0.000000 
#    y 0.000000 3.057050 0.000000 
#    z 0.000000 0.000000 3.664790 
# 
# 
# High freq. dielectric constant tensor:
#      x y z
#    x 1.671960 0.000000 0.000000 
#    y 0.000000 1.671960 0.000000 
#    z 0.000000 0.000000 1.718420 
# 
# From -- ./inp_files/5951.got.cif
#   From: 2010.03.12/outbox.cif.g09.slc.cpg/sg115_3_cif.got.tgz:5951.got - 2010.04.14 02:11:21.
