data_PCOD8309913
_publ_section_title
;
Structure prediction by ZEFSAII (Michael W. Deem and Ramdas Pophale) SiO2 
 PCOD8309913
Probable space group: P -4 M 2
;
_chemical_formula_sum "Si O2"
_cell_formula_units_Z 48
_cell_length_a 9.008313
_cell_length_b 9.008313
_cell_length_c 31.068971
_cell_angle_alpha 90.000000
_cell_angle_beta 90.000000
_cell_angle_gamma 90.000000
_cell_volume 2521.237772
_symmetry_space_group_name_H-M "P -4 M 2"
_symmetry_group_IT_number 115
_symmetry_cell_setting 'tetragonal'
loop_
_space_group_symop_operation_xyz
x,y,z
y,-x,-z
-x,-y,z
-y,x,-z
y,x,-z
-y,-x,-z
-x,y,z
x,-y,z
loop_
_atom_site_type_symbol
_atom_site_label
_atom_site_fract_x
_atom_site_fract_y
_atom_site_fract_z
Si Si1 0.174456 0.672694 0.539881
Si Si2 0.672400 0.826075 0.302321
Si Si3 0.177395 0.165743 0.046581
Si Si4 0.325258 0.172463 0.619476
Si Si5 0.170986 0.326560 0.130109
Si Si6 0.673496 0.331152 0.215136
O O1 0.235739 0.764262 0.500000
O O2 0.211300 0.500000 0.533078
O O3 0.250664 0.728736 0.583008
O O4 0.000000 0.700121 0.543804
O O5 0.500000 0.789138 0.311752
O O6 0.776155 0.738556 0.335082
O O7 0.719014 0.771679 0.255053
O O8 0.703675 0.000000 0.306386
O O9 0.241126 0.260440 0.086365
O O10 0.000000 0.167229 0.046031
O O11 0.238224 0.000000 0.053089
O O12 0.230519 0.230519 0.000000
O O13 0.500000 0.200598 0.618630
O O14 0.287396 0.000000 0.611800
O O15 0.196998 0.500000 0.127502
O O16 0.250459 0.263148 0.172600
O O17 0.000000 0.281697 0.133776
O O18 0.500000 0.326769 0.206888
O O19 0.727198 0.500000 0.224207
#
# Coordination Sequence:
#
# PCOD8309913 Si02
#       6
#     8   8   8   8   8   8
#     4  11  24  41  62  89 119 151 189 230 272 320
#     4  10  21  37  57  81 108 139 177 220 266 317
#     4   8  14  26  44  64  87 118 155 193 237 293
#     4  11  24  40  59  85 115 147 185 226 268 318
#     4   9  17  29  46  68  93 121 157 202 247 292
#     4   9  18  33  51  70  97 134 169 202 249 308
#
# _framework density 19.038267999999999
#
# number of rings (size 3 to 8) (size 9 to 14) (size 15 to 20)
#    0.000    2.333    0.000    3.000    0.000    9.000 
#    0.000    2.500    0.000    1.000    0.000    0.000 
#    0.000    0.000    0.000    0.000    0.000    0.000 
#
# Total GULP energy -595196.182105 kJ/mol
# GULP energy per Si atom -12399.920461 kJ/mol
# Density = 1.899494 g / cm^3
# Si number density = 19.038268 Si / 1000 Ang^3
#
#
#
# Elastic Constant Matrix: (Units=GPa)
#
#
# Indices 1 2 3 4 5 6 
#
# 1 58.0184 40.5660 44.0383 0.0000 0.0000 0.0000
# 2 40.5660 58.0153 44.0362 0.0000 0.0000 0.0000
# 3 44.0383 44.0362 145.6264 0.0000 0.0000 0.0000
# 4 0.0000 0.0000 0.0000 38.7678 0.0000 0.0000
# 5 0.0000 0.0000 0.0000 0.0000 38.7677 0.0000
# 6 0.0000 0.0000 0.0000 0.0000 0.0000 23.2391
#
#
#
# Elastic Compliance Matrix: (Units=1/GPa)
#
#
# Indices 1 2 3 4 5 6 
#
# 1 0.035601 -0.021703 -0.004203 0.000000 0.000000 0.000000
# 2 -0.021703 0.035602 -0.004203 0.000000 0.000000 0.000000
# 3 -0.004203 -0.004203 0.009409 0.000000 0.000000 0.000000
# 4 0.000000 0.000000 0.000000 0.025795 0.000000 0.000000
# 5 0.000000 0.000000 0.000000 0.000000 0.025795 0.000000
# 6 0.000000 0.000000 0.000000 0.000000 0.000000 0.043031
#
#
# Mechanical properties :
#
#
# Convention : Reuss Voigt Hill
#
# Bulk Modulus (GPa) = 49.03305 57.66012 53.34658
# Shear Modulus (GPa) = 20.64009 29.02288 24.83149
#
# Velocity S-wave (km/s) = 3.29620 3.90866 3.61542
# Velocity P-wave (km/s) = 6.34803 7.12196 6.74610
#
# Compressibility (1/GPa) = 0.02039441
#
# Stress axis : x y z
#
# Youngs Moduli (GPa) = 28.08941 28.08826 106.28324
#
# Poissons Ratio (x) = 0.60959 0.44673
# Poissons Ratio (y) = 0.60961 0.44668
# Poissons Ratio (z) = 0.11806 0.11805
#
# Static dielectric constant tensor:
#      x y z
#    x 3.441530 0.000000 0.000000 
#    y 0.000000 3.441530 0.000000 
#    z 0.000000 0.000000 4.034400 
# 
# 
# High freq. dielectric constant tensor:
#      x y z
#    x 1.728750 0.000000 0.000000 
#    y 0.000000 1.728750 0.000000 
#    z 0.000000 0.000000 1.760800 
# 
# From -- ./inp_files/5981.got.cif
#   From: 2010.03.12/outbox.cif.g09.slc.cpg/sg115_3_cif.got.tgz:5981.got - 2010.04.14 02:11:21.
