data_PCOD8309387
_publ_section_title
;
Structure prediction by ZEFSAII (Michael W. Deem and Ramdas Pophale) SiO2 
 PCOD8309387
Probable space group: P -4 M 2
;
_chemical_formula_sum "Si O2"
_cell_formula_units_Z 48
_cell_length_a 9.575191
_cell_length_b 9.575191
_cell_length_c 30.128975
_cell_angle_alpha 90.000000
_cell_angle_beta 90.000000
_cell_angle_gamma 90.000000
_cell_volume 2762.353461
_symmetry_space_group_name_H-M "P -4 M 2"
_symmetry_group_IT_number 115
_symmetry_cell_setting 'tetragonal'
loop_
_space_group_symop_operation_xyz
x,y,z
y,-x,-z
-x,-y,z
-y,x,-z
y,x,-z
-y,-x,-z
-x,y,z
x,-y,z
loop_
_atom_site_type_symbol
_atom_site_label
_atom_site_fract_x
_atom_site_fract_y
_atom_site_fract_z
Si Si1 0.834162 0.654812 0.699346
Si Si2 0.337800 0.840030 0.966451
Si Si3 0.660242 0.341018 0.551907
Si Si4 0.835015 0.838259 0.617973
Si Si5 0.662537 0.839715 0.865643
Si Si6 0.335937 0.159123 0.201984
O O1 0.775778 0.500000 0.687510
O O2 0.780369 0.765805 0.663223
O O3 0.784502 0.700328 0.748504
O O4 0.000000 0.648273 0.699796
O O5 0.500000 0.810630 0.973756
O O6 0.295261 0.803170 0.916076
O O7 0.301669 0.000000 0.976684
O O8 0.254503 0.745498 0.000000
O O9 0.683091 0.316910 0.500000
O O10 0.500000 0.311231 0.564962
O O11 0.700261 0.500000 0.564663
O O12 0.760268 0.233339 0.576588
O O13 0.000000 0.818328 0.611978
O O14 0.792980 0.000000 0.619989
O O15 0.500000 0.810933 0.858119
O O16 0.747635 0.741804 0.833373
O O17 0.698667 0.000000 0.855135
O O18 0.500000 0.170555 0.193433
O O19 0.285153 0.000000 0.196432
#
# Coordination Sequence:
#
# PCOD8309387 Si02
#       6
#     8   8   8   8   8   8
#     4   8  15  30  50  70  96 131 167 201 239 285
#     4   9  19  35  52  71  97 128 162 201 243 288
#     4   9  19  36  55  73  95 127 167 206 243 287
#     4  10  20  32  49  76 105 130 160 200 244 290
#     4   9  19  35  51  69  98 133 164 196 240 293
#     4   9  18  32  51  76 101 125 161 207 246 284
#
# _framework density 17.376487000000001
#
# number of rings (size 3 to 8) (size 9 to 14) (size 15 to 20)
#    0.000    3.000    0.000    3.000    0.000    5.000 
#    0.000   10.000    0.000    1.000    0.000    0.000 
#    0.000    0.000    0.000    0.000    0.000    0.000 
#
# Total GULP energy -595099.967278 kJ/mol
# GULP energy per Si atom -12397.915985 kJ/mol
# Density = 1.733694 g / cm^3
# Si number density = 17.376487 Si / 1000 Ang^3
#
#
#
# Elastic Constant Matrix: (Units=GPa)
#
#
# Indices 1 2 3 4 5 6 
#
# 1 83.2613 44.8035 66.8892 0.0000 0.0000 0.0000
# 2 44.8035 83.2758 66.9022 0.0000 0.0000 0.0000
# 3 66.8892 66.9022 120.4423 0.0000 0.0000 0.0000
# 4 0.0000 0.0000 0.0000 36.2983 0.0000 0.0000
# 5 0.0000 0.0000 0.0000 0.0000 36.2981 0.0000
# 6 0.0000 0.0000 0.0000 0.0000 0.0000 32.6175
#
#
#
# Elastic Compliance Matrix: (Units=1/GPa)
#
#
# Indices 1 2 3 4 5 6 
#
# 1 0.022299 -0.003699 -0.010330 0.000000 0.000000 0.000000
# 2 -0.003699 0.022299 -0.010332 0.000000 0.000000 0.000000
# 3 -0.010330 -0.010332 0.019779 0.000000 0.000000 0.000000
# 4 0.000000 0.000000 0.000000 0.027549 0.000000 0.000000
# 5 0.000000 0.000000 0.000000 0.000000 0.027550 0.000000
# 6 0.000000 0.000000 0.000000 0.000000 0.000000 0.030658
#
#
# Mechanical properties :
#
#
# Convention : Reuss Voigt Hill
#
# Bulk Modulus (GPa) = 63.87466 71.57434 67.72450
# Shear Modulus (GPa) = 24.50089 28.26843 26.38466
#
# Velocity S-wave (km/s) = 3.75907 4.03776 3.90091
# Velocity P-wave (km/s) = 7.46190 7.93837 7.70382
#
# Compressibility (1/GPa) = 0.01565566
#
# Stress axis : x y z
#
# Youngs Moduli (GPa) = 44.84491 44.84491 50.55920
#
# Poissons Ratio (x) = 0.16586 0.52226
# Poissons Ratio (y) = 0.16586 0.52240
# Poissons Ratio (z) = 0.46323 0.46336
#
# Static dielectric constant tensor:
#      x y z
#    x 3.096730 0.000000 0.000000 
#    y 0.000000 3.096730 0.000000 
#    z 0.000000 0.000000 3.306330 
# 
# 
# High freq. dielectric constant tensor:
#      x y z
#    x 1.661140 0.000000 0.000000 
#    y 0.000000 1.661140 0.000000 
#    z 0.000000 0.000000 1.680570 
# 
# From -- ./inp_files/5918.got.cif
#   From: 2010.03.12/outbox.cif.g09.slc.cpg/sg115_3_cif.got.tgz:5918.got - 2010.04.14 02:11:21.
