data_PCOD8309098
_publ_section_title
;
Structure prediction by ZEFSAII (Michael W. Deem and Ramdas Pophale) SiO2 
 PCOD8309098
Probable space group: P -4 21 C
;
_chemical_formula_sum "Si O2"
_cell_formula_units_Z 34
_cell_length_a 8.491609
_cell_length_b 8.491609
_cell_length_c 20.052024
_cell_angle_alpha 90.000000
_cell_angle_beta 90.000000
_cell_angle_gamma 90.000000
_cell_volume 1445.899785
_symmetry_space_group_name_H-M "P -4 21 C"
_symmetry_group_IT_number 114
_symmetry_cell_setting 'tetragonal'
loop_
_space_group_symop_operation_xyz
x,y,z
y,-x,-z
-x,-y,z
-y,x,-z
1/2+x,1/2-y,1/2-z
1/2-x,1/2+y,1/2-z
1/2-y,1/2-x,1/2+z
1/2+y,1/2+x,1/2+z
loop_
_atom_site_type_symbol
_atom_site_label
_atom_site_fract_x
_atom_site_fract_y
_atom_site_fract_z
Si Si1 0.153506 0.607160 0.611065
Si Si2 0.333180 0.086118 0.036282
Si Si3 0.516215 0.681860 0.786029
Si Si4 0.795020 0.189283 0.840735
Si Si5 0.000000 0.000000 0.000000
O O1 0.165032 0.673305 0.535478
O O2 0.148666 0.750092 0.663319
O O3 0.297101 0.488544 0.628988
O O4 0.000000 0.500000 0.616458
O O5 0.315287 0.204622 0.098573
O O6 0.169705 0.980447 0.039549
O O7 0.500000 0.000000 0.046675
O O8 0.500000 0.500000 0.803485
O O9 0.356976 0.777844 0.796070
O O10 0.558357 0.709173 0.708745
#
# Coordination Sequence:
#
# PCOD8309098 Si02
#       5
#     8   8   8   8   2
#     4   9  21  45  67  95 144 186 244 308 370 457
#     4  11  25  45  77 109 146 201 262 316 387 470
#     4  11  25  44  70 104 146 193 242 316 380 469
#     4  11  24  45  70 104 144 195 244 314 389 460
#     4  12  24  44  80 108 144 216 248 326 396 460
#
# _framework density 23.514768
#
# number of rings (size 3 to 8) (size 9 to 14) (size 15 to 20)
#    0.000    1.412    2.353    1.412    1.647    8.471 
#    0.000    0.000    0.000    0.000    0.000    0.000 
#    0.000    0.000    0.000    0.000    0.000    0.000 
#
# Total GULP energy -421238.239395 kJ/mol
# GULP energy per Si atom -12389.359982 kJ/mol
# Density = 2.346125 g / cm^3
# Si number density = 23.514768 Si / 1000 Ang^3
#
#
#
# Elastic Constant Matrix: (Units=GPa)
#
#
# Indices 1 2 3 4 5 6 
#
# 1 105.1568 20.8356 50.8276 0.0000 0.0000 0.0000
# 2 20.8356 105.1568 50.8276 0.0000 0.0000 0.0000
# 3 50.8276 50.8276 212.1662 0.0000 0.0000 0.0000
# 4 0.0000 0.0000 0.0000 27.1108 0.0000 0.0000
# 5 0.0000 0.0000 0.0000 0.0000 27.1108 0.0000
# 6 0.0000 0.0000 0.0000 0.0000 0.0000 35.5464
#
#
#
# Elastic Compliance Matrix: (Units=1/GPa)
#
#
# Indices 1 2 3 4 5 6 
#
# 1 0.010849 -0.001010 -0.002357 0.000000 0.000000 0.000000
# 2 -0.001010 0.010849 -0.002357 0.000000 0.000000 0.000000
# 3 -0.002357 -0.002357 0.005843 0.000000 0.000000 0.000000
# 4 0.000000 0.000000 0.000000 0.036886 0.000000 0.000000
# 5 0.000000 0.000000 0.000000 0.000000 0.036886 0.000000
# 6 0.000000 0.000000 0.000000 0.000000 0.000000 0.028132
#
#
# Mechanical properties :
#
#
# Convention : Reuss Voigt Hill
#
# Bulk Modulus (GPa) = 62.14275 74.16235 68.15255
# Shear Modulus (GPa) = 34.18637 37.95286 36.06961
#
# Velocity S-wave (km/s) = 3.81704 4.02182 3.92077
# Velocity P-wave (km/s) = 6.77576 7.29204 7.03863
#
# Compressibility (1/GPa) = 0.01609198
#
# Stress axis : x y z
#
# Youngs Moduli (GPa) = 92.17388 92.17388 171.15675
#
# Poissons Ratio (x) = 0.09313 0.40342
# Poissons Ratio (y) = 0.09313 0.40342
# Poissons Ratio (z) = 0.21725 0.21725
#
# Static dielectric constant tensor:
#      x y z
#    x 4.311860 0.000000 0.000000 
#    y 0.000000 4.311860 0.000000 
#    z 0.000000 0.000000 4.464340 
# 
# 
# High freq. dielectric constant tensor:
#      x y z
#    x 1.918340 0.000000 0.000000 
#    y 0.000000 1.918340 0.000000 
#    z 0.000000 0.000000 1.947800 
# 
# From -- ./inp_files/2962.got.cif
#   From: 2010.03.12/outbox.cif.g09.slc.cpg/sg114_2_cif.got.tgz:2962.got - 2010.04.14 02:08:34.
