data_PCOD8309633
_publ_section_title
;
Structure prediction by ZEFSAII (Michael W. Deem and Ramdas Pophale) SiO2 
 PCOD8309633
Probable space group: P -4 M 2
;
_chemical_formula_sum "Si O2"
_cell_formula_units_Z 48
_cell_length_a 13.929986
_cell_length_b 13.929986
_cell_length_c 12.471218
_cell_angle_alpha 90.000000
_cell_angle_beta 90.000000
_cell_angle_gamma 90.000000
_cell_volume 2419.971385
_symmetry_space_group_name_H-M "P -4 M 2"
_symmetry_group_IT_number 115
_symmetry_cell_setting 'tetragonal'
loop_
_space_group_symop_operation_xyz
x,y,z
y,-x,-z
-x,-y,z
-y,x,-z
y,x,-z
-y,-x,-z
-x,y,z
x,-y,z
loop_
_atom_site_type_symbol
_atom_site_label
_atom_site_fract_x
_atom_site_fract_y
_atom_site_fract_z
Si Si1 0.294074 0.112003 0.316410
Si Si2 0.112317 0.388083 0.280107
Si Si3 0.603458 0.893206 0.109164
Si Si4 0.230068 0.386849 0.495004
Si Si5 0.891518 0.893289 0.789311
Si Si6 0.277762 0.834387 0.922832
O O1 0.332909 0.154822 0.202703
O O2 0.347640 0.166929 0.408780
O O3 0.179521 0.133223 0.308782
O O4 0.314402 0.000000 0.334155
O O5 0.113682 0.500000 0.254908
O O6 0.167915 0.364654 0.389487
O O7 0.175756 0.334965 0.189074
O O8 0.000000 0.352297 0.284063
O O9 0.500000 0.839915 0.096799
O O10 0.583767 0.000000 0.149303
O O11 0.657711 0.902471 0.996352
O O12 0.331974 0.331974 0.500000
O O13 0.250344 0.500000 0.507788
O O14 0.825872 0.878764 0.894222
O O15 0.000000 0.873752 0.829156
O O16 0.878477 0.000000 0.742319
O O17 0.260370 0.739631 0.000000
#
# Coordination Sequence:
#
# PCOD8309633 Si02
#       6
#     8   8   8   8   8   8
#     4  10  20  38  61  89 121 155 202 255 304 360
#     4  10  22  41  65  92 120 155 202 257 314 366
#     4  10  20  34  54  81 112 150 200 259 313 353
#     4  11  24  41  65  92 121 157 202 254 313 376
#     4  10  21  35  53  83 125 169 208 243 290 361
#     4  12  22  34  54  81 120 159 202 246 295 364
#
# _framework density 19.834947
#
# number of rings (size 3 to 8) (size 9 to 14) (size 15 to 20)
#    0.000    1.500    1.667    4.000    0.000    4.500 
#    0.000    1.667    0.000    1.000    0.000    2.333 
#    0.000    3.000    0.000    0.000    0.000    0.000 
#
# Total GULP energy -594657.956645 kJ/mol
# GULP energy per Si atom -12388.707430 kJ/mol
# Density = 1.978980 g / cm^3
# Si number density = 19.834947 Si / 1000 Ang^3
#
#
#
# Elastic Constant Matrix: (Units=GPa)
#
#
# Indices 1 2 3 4 5 6 
#
# 1 119.0528 44.9875 60.2888 0.0000 0.0000 0.0000
# 2 44.9875 119.0531 60.2888 0.0000 0.0000 0.0000
# 3 60.2888 60.2888 145.7065 0.0000 0.0000 0.0000
# 4 0.0000 0.0000 0.0000 30.0135 0.0000 0.0000
# 5 0.0000 0.0000 0.0000 0.0000 30.0135 0.0000
# 6 0.0000 0.0000 0.0000 0.0000 0.0000 18.6036
#
#
#
# Elastic Compliance Matrix: (Units=1/GPa)
#
#
# Indices 1 2 3 4 5 6 
#
# 1 0.011131 -0.002371 -0.003625 0.000000 0.000000 0.000000
# 2 -0.002371 0.011131 -0.003625 0.000000 0.000000 0.000000
# 3 -0.003625 -0.003625 0.009863 0.000000 0.000000 0.000000
# 4 0.000000 0.000000 0.000000 0.033318 0.000000 0.000000
# 5 0.000000 0.000000 0.000000 0.000000 0.033318 0.000000
# 6 0.000000 0.000000 0.000000 0.000000 0.000000 0.053753
#
#
# Mechanical properties :
#
#
# Convention : Reuss Voigt Hill
#
# Bulk Modulus (GPa) = 77.61276 79.43805 78.52541
# Shear Modulus (GPa) = 28.40107 30.27593 29.33850
#
# Velocity S-wave (km/s) = 3.78811 3.91115 3.85012
# Velocity P-wave (km/s) = 7.63854 7.78027 7.70973
#
# Compressibility (1/GPa) = 0.01288448
#
# Stress axis : x y z
#
# Youngs Moduli (GPa) = 89.83887 89.83924 101.39143
#
# Poissons Ratio (x) = 0.21297 0.36752
# Poissons Ratio (y) = 0.21297 0.36752
# Poissons Ratio (z) = 0.32565 0.32565
#
# Static dielectric constant tensor:
#      x y z
#    x 3.812370 0.000000 0.000000 
#    y 0.000000 3.812370 0.000000 
#    z 0.000000 0.000000 3.571510 
# 
# 
# High freq. dielectric constant tensor:
#      x y z
#    x 1.765740 0.000000 0.000000 
#    y 0.000000 1.765740 0.000000 
#    z 0.000000 0.000000 1.774210 
# 
# From -- ./inp_files/2963.got.cif
#   From: 2010.03.12/outbox.cif.g09.slc.cpg/sg115_2_cif.got.tgz:2963.got - 2010.04.14 02:11:21.
