data_PCOD8309792
_publ_section_title
;
Structure prediction by ZEFSAII (Michael W. Deem and Ramdas Pophale) SiO2 
 PCOD8309792
Probable space group: P -4 M 2
;
_chemical_formula_sum "Si O2"
_cell_formula_units_Z 48
_cell_length_a 8.919210
_cell_length_b 8.919210
_cell_length_c 31.191169
_cell_angle_alpha 90.000000
_cell_angle_beta 90.000000
_cell_angle_gamma 90.000000
_cell_volume 2481.329453
_symmetry_space_group_name_H-M "P -4 M 2"
_symmetry_group_IT_number 115
_symmetry_cell_setting 'tetragonal'
loop_
_space_group_symop_operation_xyz
x,y,z
y,-x,-z
-x,-y,z
-y,x,-z
y,x,-z
-y,-x,-z
-x,y,z
x,-y,z
loop_
_atom_site_type_symbol
_atom_site_label
_atom_site_fract_x
_atom_site_fract_y
_atom_site_fract_z
Si Si1 0.678612 0.668664 0.362580
Si Si2 0.824257 0.672550 0.039757
Si Si3 0.678968 0.334169 0.545071
Si Si4 0.827860 0.172907 0.714381
Si Si5 0.326163 0.824647 0.801541
Si Si6 0.676885 0.171731 0.119467
O O1 0.500000 0.671060 0.364609
O O2 0.734109 0.500000 0.351496
O O3 0.745747 0.719507 0.409489
O O4 0.733563 0.784053 0.327191
O O5 0.782541 0.500000 0.031410
O O6 0.747652 0.725709 0.083093
O O7 0.000000 0.695381 0.045080
O O8 0.769323 0.769323 0.000000
O O9 0.740482 0.259519 0.500000
O O10 0.500000 0.342853 0.541575
O O11 0.748161 0.500000 0.547570
O O12 0.726429 0.223996 0.754322
O O13 0.000000 0.205036 0.726063
O O14 0.799551 0.000000 0.703763
O O15 0.500000 0.783809 0.807045
O O16 0.228575 0.731135 0.834710
O O17 0.296399 0.000000 0.809408
O O18 0.500000 0.187281 0.116712
O O19 0.727624 0.000000 0.112910
#
# Coordination Sequence:
#
# PCOD8309792 Si02
#       6
#     8   8   8   8   8   8
#     4   9  17  29  48  75 102 128 163 209 260 311
#     4  11  24  41  62  89 119 152 192 234 275 320
#     4   7  10  19  38  65  95 124 156 199 251 304
#     4  10  21  36  53  73 100 137 177 214 257 311
#     4  10  21  38  60  83 105 134 176 223 269 317
#     4  11  24  40  59  86 118 150 184 221 265 320
#
# _framework density 19.344470000000001
#
# number of rings (size 3 to 8) (size 9 to 14) (size 15 to 20)
#    0.000    2.333    0.000    4.500    0.000    9.667 
#    0.000    0.000    0.000    1.000    0.000    5.833 
#    0.000    0.000    0.000    0.000    0.000    0.000 
#
# Total GULP energy -594953.310895 kJ/mol
# GULP energy per Si atom -12394.860644 kJ/mol
# Density = 1.930044 g / cm^3
# Si number density = 19.344470 Si / 1000 Ang^3
#
#
#
# Elastic Constant Matrix: (Units=GPa)
#
#
# Indices 1 2 3 4 5 6 
#
# 1 45.1641 36.3439 29.9487 0.0000 0.0000 0.0000
# 2 36.3439 45.1642 29.9487 0.0000 0.0000 0.0000
# 3 29.9487 29.9487 127.7288 0.0000 0.0000 0.0000
# 4 0.0000 0.0000 0.0000 41.5636 0.0000 0.0000
# 5 0.0000 0.0000 0.0000 0.0000 41.5636 0.0000
# 6 0.0000 0.0000 0.0000 0.0000 0.0000 25.8297
#
#
#
# Elastic Compliance Matrix: (Units=1/GPa)
#
#
# Indices 1 2 3 4 5 6 
#
# 1 0.064099 -0.049276 -0.003476 0.000000 0.000000 0.000000
# 2 -0.049276 0.064099 -0.003475 0.000000 0.000000 0.000000
# 3 -0.003476 -0.003475 0.009459 0.000000 0.000000 0.000000
# 4 0.000000 0.000000 0.000000 0.024059 0.000000 0.000000
# 5 0.000000 0.000000 0.000000 0.000000 0.024060 0.000000
# 6 0.000000 0.000000 0.000000 0.000000 0.000000 0.038715
#
#
# Mechanical properties :
#
#
# Convention : Reuss Voigt Hill
#
# Bulk Modulus (GPa) = 39.67880 45.61553 42.64716
# Shear Modulus (GPa) = 14.47826 29.91244 22.19535
#
# Velocity S-wave (km/s) = 2.73874 3.93657 3.39097
# Velocity P-wave (km/s) = 5.52785 6.65537 6.11764
#
# Compressibility (1/GPa) = 0.02520238
#
# Stress axis : x y z
#
# Youngs Moduli (GPa) = 15.60091 15.60094 105.72056
#
# Poissons Ratio (x) = 0.76875 0.36743
# Poissons Ratio (y) = 0.76875 0.36743
# Poissons Ratio (z) = 0.05422 0.05422
#
# Static dielectric constant tensor:
#      x y z
#    x 3.377480 0.000000 0.000000 
#    y 0.000000 3.377480 0.000000 
#    z 0.000000 0.000000 4.093250 
# 
# 
# High freq. dielectric constant tensor:
#      x y z
#    x 1.732410 0.000000 0.000000 
#    y 0.000000 1.732410 0.000000 
#    z 0.000000 0.000000 1.779560 
# 
# From -- ./inp_files/5933.got.cif
#   From: 2010.03.12/outbox.cif.g09.slc.cpg/sg115_3_cif.got.tgz:5933.got - 2010.04.14 02:11:21.
