data_PCOD8309813
_publ_section_title
;
Structure prediction by ZEFSAII (Michael W. Deem and Ramdas Pophale) SiO2 
 PCOD8309813
Probable space group: P -4 M 2
;
_chemical_formula_sum "Si O2"
_cell_formula_units_Z 48
_cell_length_a 9.027370
_cell_length_b 9.027370
_cell_length_c 30.982653
_cell_angle_alpha 90.000000
_cell_angle_beta 90.000000
_cell_angle_gamma 90.000000
_cell_volume 2524.882016
_symmetry_space_group_name_H-M "P -4 M 2"
_symmetry_group_IT_number 115
_symmetry_cell_setting 'tetragonal'
loop_
_space_group_symop_operation_xyz
x,y,z
y,-x,-z
-x,-y,z
-y,x,-z
y,x,-z
-y,-x,-z
-x,y,z
x,-y,z
loop_
_atom_site_type_symbol
_atom_site_label
_atom_site_fract_x
_atom_site_fract_y
_atom_site_fract_z
Si Si1 0.676721 0.334874 0.453271
Si Si2 0.167450 0.175830 0.284296
Si Si3 0.668581 0.825331 0.369038
Si Si4 0.174231 0.670745 0.117950
Si Si5 0.172507 0.673182 0.960303
Si Si6 0.671475 0.328599 0.206636
O O1 0.729592 0.270409 0.500000
O O2 0.500000 0.336591 0.454274
O O3 0.738976 0.500000 0.446047
O O4 0.735997 0.235774 0.413833
O O5 0.233980 0.235224 0.329376
O O6 0.267998 0.233547 0.245834
O O7 0.000000 0.235428 0.279550
O O8 0.171957 0.000000 0.283165
O O9 0.500000 0.770217 0.362154
O O10 0.675798 0.000000 0.371650
O O11 0.212209 0.500000 0.106937
O O12 0.246218 0.777163 0.082954
O O13 0.239811 0.716937 0.163951
O O14 0.000000 0.698064 0.118808
O O15 0.205052 0.500000 0.955571
O O16 0.000000 0.704926 0.968549
O O17 0.265059 0.734942 0.000000
O O18 0.500000 0.290972 0.199148
O O19 0.696210 0.500000 0.217667
#
# Coordination Sequence:
#
# PCOD8309813 Si02
#       6
#     8   8   8   8   8   8
#     4   8  14  26  45  68  93 122 158 201 249 302
#     4  10  21  36  53  74 103 139 176 215 262 314
#     4   9  17  30  48  69  94 126 164 206 252 304
#     4  10  21  38  60  85 113 145 180 219 266 319
#     4  11  24  40  59  85 115 148 187 228 270 317
#     4  10  21  37  58  83 109 139 177 220 266 316
#
# _framework density 19.01079
#
# number of rings (size 3 to 8) (size 9 to 14) (size 15 to 20)
#    0.000    2.333    0.000    3.000    0.000    7.667 
#    0.000    2.500    0.000    1.000    0.000    0.000 
#    0.000    0.000    0.000    0.000    0.000    0.000 
#
# Total GULP energy -595240.097442 kJ/mol
# GULP energy per Si atom -12400.835363 kJ/mol
# Density = 1.896752 g / cm^3
# Si number density = 19.010790 Si / 1000 Ang^3
#
#
#
# Elastic Constant Matrix: (Units=GPa)
#
#
# Indices 1 2 3 4 5 6 
#
# 1 60.6914 33.3573 46.0608 0.0000 0.0000 0.0000
# 2 33.3573 60.6935 46.0626 0.0000 0.0000 0.0000
# 3 46.0608 46.0626 146.4130 0.0000 0.0000 0.0000
# 4 0.0000 0.0000 0.0000 125.9118 0.0000 0.0000
# 5 0.0000 0.0000 0.0000 0.0000 125.9353 0.0000
# 6 0.0000 0.0000 0.0000 0.0000 0.0000 24.3128
#
#
#
# Elastic Compliance Matrix: (Units=1/GPa)
#
#
# Indices 1 2 3 4 5 6 
#
# 1 0.025976 -0.010607 -0.004835 0.000000 0.000000 0.000000
# 2 -0.010607 0.025975 -0.004835 0.000000 0.000000 0.000000
# 3 -0.004835 -0.004835 0.009872 0.000000 0.000000 0.000000
# 4 0.000000 0.000000 0.000000 0.007942 0.000000 0.000000
# 5 0.000000 0.000000 0.000000 0.000000 0.007941 0.000000
# 6 0.000000 0.000000 0.000000 0.000000 0.000000 0.041131
#
#
# Mechanical properties :
#
#
# Convention : Reuss Voigt Hill
#
# Bulk Modulus (GPa) = 47.01573 57.63994 52.32784
# Shear Modulus (GPa) = 30.03345 64.71979 47.37662
#
# Velocity S-wave (km/s) = 3.97900 5.84103 4.99750
# Velocity P-wave (km/s) = 6.77456 8.71066 7.80289
#
# Compressibility (1/GPa) = 0.02126948
#
# Stress axis : x y z
#
# Youngs Moduli (GPa) = 38.49701 38.49782 101.29469
#
# Poissons Ratio (x) = 0.40835 0.48975
# Poissons Ratio (y) = 0.40834 0.48977
# Poissons Ratio (z) = 0.18613 0.18614
#
# Static dielectric constant tensor:
#      x y z
#    x 3.450750 0.000000 0.000000 
#    y 0.000000 3.450750 0.000000 
#    z 0.000000 0.000000 3.876970 
# 
# 
# High freq. dielectric constant tensor:
#      x y z
#    x 1.728600 0.000000 0.000000 
#    y 0.000000 1.728600 0.000000 
#    z 0.000000 0.000000 1.757300 
# 
# From -- ./inp_files/5906.got.cif
#   From: 2010.03.12/outbox.cif.g09.slc.cpg/sg115_3_cif.got.tgz:5906.got - 2010.04.14 02:11:21.
