data_PCOD8309894
_publ_section_title
;
Structure prediction by ZEFSAII (Michael W. Deem and Ramdas Pophale) SiO2 
 PCOD8309894
Probable space group: P -4 M 2
;
_chemical_formula_sum "Si O2"
_cell_formula_units_Z 40
_cell_length_a 8.165489
_cell_length_b 8.165489
_cell_length_c 29.059989
_cell_angle_alpha 90.000000
_cell_angle_beta 90.000000
_cell_angle_gamma 90.000000
_cell_volume 1937.580887
_symmetry_space_group_name_H-M "P -4 M 2"
_symmetry_group_IT_number 115
_symmetry_cell_setting 'tetragonal'
loop_
_space_group_symop_operation_xyz
x,y,z
y,-x,-z
-x,-y,z
-y,x,-z
y,x,-z
-y,-x,-z
-x,y,z
x,-y,z
loop_
_atom_site_type_symbol
_atom_site_label
_atom_site_fract_x
_atom_site_fract_y
_atom_site_fract_z
Si Si1 0.812237 0.812237 0.500000
Si Si2 0.188536 0.315581 0.308814
Si Si3 0.685825 0.685825 0.000000
Si Si4 0.000000 0.195127 0.849954
Si Si5 0.000000 0.195078 0.744677
Si Si6 0.691200 0.677590 0.595479
Si Si7 0.811761 0.316673 0.097414
O O1 0.741847 0.739718 0.546150
O O2 0.000000 0.769713 0.499037
O O3 0.266957 0.500000 0.300296
O O4 0.205879 0.259145 0.362071
O O5 0.000000 0.329952 0.296195
O O6 0.266572 0.168562 0.278089
O O7 0.797240 0.730765 0.043663
O O8 0.715325 0.500000 0.984079
O O9 0.832539 0.267520 0.873039
O O10 0.000000 0.251673 0.797312
O O11 0.000000 0.000000 0.855483
O O12 0.000000 0.000000 0.739004
O O13 0.500000 0.660624 0.594221
O O14 0.772006 0.500000 0.604299
O O15 0.732346 0.500000 0.106426
O O16 0.000000 0.329202 0.111078
#
# Coordination Sequence:
#
# PCOD8309894 Si02
#       7
#     4   8   4   4   4   8   8
#     4  11  24  37  52  78 110 143 176 215 262 316
#     4   9  18  33  54  79 105 137 178 227 277 326
#     4   9  18  32  49  70  98 134 175 216 262 319
#     4   9  18  32  49  77 109 139 175 225 279 324
#     4   9  18  32  53  79 107 137 179 227 273 330
#     4  10  21  37  56  78 106 139 175 218 269 325
#     4   9  18  31  48  73 103 137 177 221 270 328
#
# _framework density 20.644302
#
# number of rings (size 3 to 8) (size 9 to 14) (size 15 to 20)
#    0.000    2.600    0.000    1.200    2.800    4.000 
#    0.000    4.000    0.000    2.400    0.000    5.600 
#    0.000    0.000    0.000    0.000    0.000    0.000 
#
# Total GULP energy -495524.792339 kJ/mol
# GULP energy per Si atom -12388.119808 kJ/mol
# Density = 2.059731 g / cm^3
# Si number density = 20.644302 Si / 1000 Ang^3
#
#
#
# Elastic Constant Matrix: (Units=GPa)
#
#
# Indices 1 2 3 4 5 6 
#
# 1 81.4374 27.9089 49.5571 0.0000 0.0000 0.0000
# 2 27.9089 81.4374 49.5571 0.0000 0.0000 0.0000
# 3 49.5571 49.5571 154.2668 0.0000 0.0000 0.0000
# 4 0.0000 0.0000 0.0000 5.8949 0.0000 0.0000
# 5 0.0000 0.0000 0.0000 0.0000 5.8949 0.0000
# 6 0.0000 0.0000 0.0000 0.0000 0.0000 12.8763
#
#
#
# Elastic Compliance Matrix: (Units=1/GPa)
#
#
# Indices 1 2 3 4 5 6 
#
# 1 0.015792 -0.002890 -0.004145 0.000000 0.000000 0.000000
# 2 -0.002890 0.015792 -0.004145 0.000000 0.000000 0.000000
# 3 -0.004145 -0.004145 0.009145 0.000000 0.000000 0.000000
# 4 0.000000 0.000000 0.000000 0.169638 0.000000 0.000000
# 5 0.000000 0.000000 0.000000 0.000000 0.169638 0.000000
# 6 0.000000 0.000000 0.000000 0.000000 0.000000 0.077662
#
#
# Mechanical properties :
#
#
# Convention : Reuss Voigt Hill
#
# Bulk Modulus (GPa) = 54.43481 63.46529 58.95005
# Shear Modulus (GPa) = 10.28494 17.60780 13.94637
#
# Velocity S-wave (km/s) = 2.23446 2.92364 2.60196
# Velocity P-wave (km/s) = 5.75172 6.49661 6.13548
#
# Compressibility (1/GPa) = 0.01837060
#
# Stress axis : x y z
#
# Youngs Moduli (GPa) = 63.32363 63.32363 109.34711
#
# Poissons Ratio (x) = 0.18299 0.45321
# Poissons Ratio (y) = 0.18299 0.45321
# Poissons Ratio (z) = 0.26246 0.26246
#
# Static dielectric constant tensor:
#      x y z
#    x 3.880160 0.000000 0.000000 
#    y 0.000000 3.880160 0.000000 
#    z 0.000000 0.000000 3.618270 
# 
# 
# High freq. dielectric constant tensor:
#      x y z
#    x 1.794500 0.000000 0.000000 
#    y 0.000000 1.794500 0.000000 
#    z 0.000000 0.000000 1.802860 
# 
# From -- ./inp_files/5587.got.cif
#   From: 2010.03.12/outbox.cif.g09.slc.cpg/sg115_3_cif.got.tgz:5587.got - 2010.04.14 02:11:21.
