data_PCOD8309230
_publ_section_title
;
Structure prediction by ZEFSAII (Michael W. Deem and Ramdas Pophale) SiO2 
 PCOD8309230
Probable space group: P -4 M 2
;
_chemical_formula_sum "Si O2"
_cell_formula_units_Z 48
_cell_length_a 14.265213
_cell_length_b 14.265213
_cell_length_c 15.235102
_cell_angle_alpha 90.000000
_cell_angle_beta 90.000000
_cell_angle_gamma 90.000000
_cell_volume 3100.286917
_symmetry_space_group_name_H-M "P -4 M 2"
_symmetry_group_IT_number 115
_symmetry_cell_setting 'tetragonal'
loop_
_space_group_symop_operation_xyz
x,y,z
y,-x,-z
-x,-y,z
-y,x,-z
y,x,-z
-y,-x,-z
-x,y,z
x,-y,z
loop_
_atom_site_type_symbol
_atom_site_label
_atom_site_fract_x
_atom_site_fract_y
_atom_site_fract_z
Si Si1 0.218497 0.888110 0.263732
Si Si2 0.644526 0.398777 0.402163
Si Si3 0.798745 0.603807 0.660157
Si Si4 0.896947 0.802506 0.419787
Si Si5 0.104110 0.110837 0.096351
Si Si6 0.603852 0.148720 0.539900
O O1 0.322371 0.845316 0.273472
O O2 0.148386 0.840623 0.331780
O O3 0.179786 0.857671 0.168592
O O4 0.221014 0.000000 0.277649
O O5 0.603921 0.396080 0.500000
O O6 0.615059 0.500000 0.361333
O O7 0.608271 0.314706 0.340872
O O8 0.755690 0.392343 0.406805
O O9 0.828160 0.500000 0.691915
O O10 0.836474 0.623982 0.562927
O O11 0.831134 0.831134 0.500000
O O12 0.910914 0.689330 0.420190
O O13 0.000000 0.847594 0.429055
O O14 0.000000 0.153462 0.115912
O O15 0.094287 0.000000 0.097065
O O16 0.141719 0.141719 0.000000
O O17 0.500000 0.101991 0.552169
#
# Coordination Sequence:
#
# PCOD8309230 Si02
#       6
#     8   8   8   8   8   8
#     4  11  21  33  47  66  94 126 159 194 233 275
#     4   9  15  26  44  63  85 114 153 202 247 276
#     4  10  19  30  44  64  91 122 159 197 232 273
#     4  12  22  32  44  62  92 128 163 193 226 271
#     4   8  15  30  52  75  94 112 143 191 241 285
#     4   9  17  31  47  60  84 124 165 199 231 267
#
# _framework density 15.482438
#
# number of rings (size 3 to 8) (size 9 to 14) (size 15 to 20)
#    0.000    2.167    3.333    3.500    0.000    3.667 
#    0.000    1.667    0.000    0.000    0.000    2.333 
#    0.000    5.333    0.000    0.000    0.000    0.000 
#
# Total GULP energy -594797.994039 kJ/mol
# GULP energy per Si atom -12391.624876 kJ/mol
# Density = 1.544720 g / cm^3
# Si number density = 15.482438 Si / 1000 Ang^3
#
#
#
# Elastic Constant Matrix: (Units=GPa)
#
#
# Indices 1 2 3 4 5 6 
#
# 1 98.5160 31.8761 40.1162 0.0000 0.0000 0.0000
# 2 31.8761 98.5156 40.1163 0.0000 0.0000 0.0000
# 3 40.1162 40.1163 85.0457 0.0000 0.0000 0.0000
# 4 0.0000 0.0000 0.0000 7.3363 0.0000 0.0000
# 5 0.0000 0.0000 0.0000 0.0000 7.3365 0.0000
# 6 0.0000 0.0000 0.0000 0.0000 0.0000 9.2871
#
#
#
# Elastic Compliance Matrix: (Units=1/GPa)
#
#
# Indices 1 2 3 4 5 6 
#
# 1 0.012906 -0.002100 -0.005097 0.000000 0.000000 0.000000
# 2 -0.002100 0.012906 -0.005097 0.000000 0.000000 0.000000
# 3 -0.005097 -0.005097 0.016567 0.000000 0.000000 0.000000
# 4 0.000000 0.000000 0.000000 0.136308 0.000000 0.000000
# 5 0.000000 0.000000 0.000000 0.000000 0.136305 0.000000
# 6 0.000000 0.000000 0.000000 0.000000 0.000000 0.107676
#
#
# Mechanical properties :
#
#
# Convention : Reuss Voigt Hill
#
# Bulk Modulus (GPa) = 56.21152 56.25493 56.23323
# Shear Modulus (GPa) = 11.03300 16.12323 13.57811
#
# Velocity S-wave (km/s) = 2.67238 3.23056 2.96463
# Velocity P-wave (km/s) = 6.77551 7.09428 6.93673
#
# Compressibility (1/GPa) = 0.01778995
#
# Stress axis : x y z
#
# Youngs Moduli (GPa) = 77.48504 77.48458 60.36150
#
# Poissons Ratio (x) = 0.16274 0.30766
# Poissons Ratio (y) = 0.16274 0.30766
# Poissons Ratio (z) = 0.39493 0.39494
#
# Static dielectric constant tensor:
#      x y z
#    x 3.080320 0.000000 0.000000 
#    y 0.000000 3.080320 0.000000 
#    z 0.000000 0.000000 2.865370 
# 
# 
# High freq. dielectric constant tensor:
#      x y z
#    x 1.597360 0.000000 0.000000 
#    y 0.000000 1.597360 0.000000 
#    z 0.000000 0.000000 1.534670 
# 
# From -- ./inp_files/3716.got.cif
#   From: 2010.03.12/outbox.cif.g09.slc.cpg/sg115_2_cif.got.tgz:3716.got - 2010.04.14 02:11:21.
