data_PCOD8309427
_publ_section_title
;
Structure prediction by ZEFSAII (Michael W. Deem and Ramdas Pophale) SiO2 
 PCOD8309427
Probable space group: P -4 M 2
;
_chemical_formula_sum "Si O2"
_cell_formula_units_Z 40
_cell_length_a 9.040933
_cell_length_b 9.040933
_cell_length_c 25.947459
_cell_angle_alpha 90.000000
_cell_angle_beta 90.000000
_cell_angle_gamma 90.000000
_cell_volume 2120.905586
_symmetry_space_group_name_H-M "P -4 M 2"
_symmetry_group_IT_number 115
_symmetry_cell_setting 'tetragonal'
loop_
_space_group_symop_operation_xyz
x,y,z
y,-x,-z
-x,-y,z
-y,x,-z
y,x,-z
-y,-x,-z
-x,y,z
x,-y,z
loop_
_atom_site_type_symbol
_atom_site_label
_atom_site_fract_x
_atom_site_fract_y
_atom_site_fract_z
Si Si1 0.175624 0.667054 0.546302
Si Si2 0.673827 0.828164 0.047512
Si Si3 0.175760 0.164589 0.241863
Si Si4 0.330126 0.174829 0.858755
Si Si5 0.823953 0.835234 0.645713
O O1 0.236553 0.763448 0.500000
O O2 0.232439 0.500000 0.540863
O O3 0.236966 0.730188 0.600529
O O4 0.000000 0.676630 0.544706
O O5 0.500000 0.800315 0.049141
O O6 0.744142 0.770376 0.099927
O O7 0.712450 0.000000 0.040859
O O8 0.739771 0.739771 0.000000
O O9 0.228772 0.276654 0.197560
O O10 0.228999 0.223842 0.298067
O O11 0.000000 0.155483 0.243595
O O12 0.239590 0.000000 0.230489
O O13 0.500000 0.221476 0.866043
O O14 0.309383 0.000000 0.865578
O O15 0.000000 0.842505 0.644602
O O16 0.758902 0.000000 0.636892
#
# Coordination Sequence:
#
# PCOD8309427 Si02
#       5
#     8   8   8   8   8
#     4  10  20  33  50  73 100 132 170 211 258 310
#     4  11  24  40  58  81 107 137 175 216 259 307
#     4   8  14  27  49  75 102 134 172 213 255 297
#     4  10  20  34  54  81 111 142 175 210 251 301
#     4   8  14  27  49  74  98 128 169 215 258 299
#
# _framework density 18.859869
#
# number of rings (size 3 to 8) (size 9 to 14) (size 15 to 20)
#    0.000    2.600    0.000    3.600    0.000    6.400 
#    0.000    2.000    0.000    7.200    0.000    0.000 
#    0.000    0.000    0.000    0.000    0.000    0.000 
#
# Total GULP energy -495898.987030 kJ/mol
# GULP energy per Si atom -12397.474676 kJ/mol
# Density = 1.881694 g / cm^3
# Si number density = 18.859869 Si / 1000 Ang^3
#
#
#
# Elastic Constant Matrix: (Units=GPa)
#
#
# Indices 1 2 3 4 5 6 
#
# 1 37.1500 26.6693 27.4394 0.0000 0.0000 0.0000
# 2 26.6693 37.1471 27.4387 0.0000 0.0000 0.0000
# 3 27.4394 27.4387 142.3255 0.0000 0.0000 0.0000
# 4 0.0000 0.0000 0.0000 -12.9320 0.0000 0.0000
# 5 0.0000 0.0000 0.0000 0.0000 -12.9336 0.0000
# 6 0.0000 0.0000 0.0000 0.0000 0.0000 18.6976
#
#
#
# Elastic Compliance Matrix: (Units=1/GPa)
#
#
# Indices 1 2 3 4 5 6 
#
# 1 0.057103 -0.038322 -0.003621 0.000000 0.000000 0.000000
# 2 -0.038322 0.057108 -0.003622 0.000000 0.000000 0.000000
# 3 -0.003621 -0.003622 0.008422 0.000000 0.000000 0.000000
# 4 0.000000 0.000000 0.000000 -0.077327 0.000000 0.000000
# 5 0.000000 0.000000 0.000000 0.000000 -0.077318 0.000000
# 6 0.000000 0.000000 0.000000 0.000000 0.000000 0.053483
#
#
# Mechanical properties :
#
#
# Convention : Reuss Voigt Hill
#
# Bulk Modulus (GPa) = 31.74153 42.19084 36.96618
# Shear Modulus (GPa) = 40.61728 7.57141 24.09434
#
# Velocity S-wave (km/s) = 4.64576 2.00581 3.57815
# Velocity P-wave (km/s) = 6.75605 5.27102 6.05920
#
# Compressibility (1/GPa) = 0.03150447
#
# Stress axis : x y z
#
# Youngs Moduli (GPa) = 17.51225 17.51080 118.73016
#
# Poissons Ratio (x) = 0.67104 0.42993
# Poissons Ratio (y) = 0.67110 0.42998
# Poissons Ratio (z) = 0.06341 0.06342
#
# Static dielectric constant tensor:
#      x y z
#    x 3.315080 0.000000 0.000000 
#    y 0.000000 3.315080 0.000000 
#    z 0.000000 0.000000 4.028540 
# 
# 
# High freq. dielectric constant tensor:
#      x y z
#    x 1.708250 0.000000 0.000000 
#    y 0.000000 1.708250 0.000000 
#    z 0.000000 0.000000 1.755090 
# 
# From -- ./inp_files/5424.got.cif
#   From: 2010.03.12/outbox.cif.g09.slc.cpg/sg115_3_cif.got.tgz:5424.got - 2010.04.14 02:11:21.
