data_PCOD8309832
_publ_section_title
;
Structure prediction by ZEFSAII (Michael W. Deem and Ramdas Pophale) SiO2 
 PCOD8309832
Probable space group: P -4 M 2
;
_chemical_formula_sum "Si O2"
_cell_formula_units_Z 48
_cell_length_a 9.314147
_cell_length_b 9.314147
_cell_length_c 30.887744
_cell_angle_alpha 90.000000
_cell_angle_beta 90.000000
_cell_angle_gamma 90.000000
_cell_volume 2679.614782
_symmetry_space_group_name_H-M "P -4 M 2"
_symmetry_group_IT_number 115
_symmetry_cell_setting 'tetragonal'
loop_
_space_group_symop_operation_xyz
x,y,z
y,-x,-z
-x,-y,z
-y,x,-z
y,x,-z
-y,-x,-z
-x,y,z
x,-y,z
loop_
_atom_site_type_symbol
_atom_site_label
_atom_site_fract_x
_atom_site_fract_y
_atom_site_fract_z
Si Si1 0.831450 0.834767 0.195247
Si Si2 0.339382 0.828440 0.627921
Si Si3 0.831148 0.333788 0.963246
Si Si4 0.171180 0.159993 0.452624
Si Si5 0.334521 0.667323 0.876789
Si Si6 0.170439 0.841040 0.292231
O O1 0.750495 0.726710 0.164078
O O2 0.784919 0.791488 0.244049
O O3 0.000000 0.813758 0.188469
O O4 0.788437 0.000000 0.185796
O O5 0.500000 0.768621 0.627308
O O6 0.260787 0.767477 0.585239
O O7 0.265079 0.766991 0.671363
O O8 0.335987 0.000000 0.627906
O O9 0.798388 0.500000 0.974310
O O10 0.755987 0.287773 0.918744
O O11 0.000000 0.305166 0.958933
O O12 0.766890 0.233110 0.000000
O O13 0.219120 0.219120 0.500000
O O14 0.000000 0.155471 0.451578
O O15 0.232069 0.000000 0.444729
O O16 0.500000 0.710322 0.884353
O O17 0.317768 0.500000 0.867176
O O18 0.000000 0.845771 0.295018
O O19 0.231501 0.000000 0.301570
#
# Coordination Sequence:
#
# PCOD8309832 Si02
#       6
#     8   8   8   8   8   8
#     4   9  18  32  50  73 100 130 165 204 245 289
#     4   9  15  21  32  54  83 111 140 179 227 273
#     4  10  21  37  57  79 102 130 164 201 243 290
#     4   8  13  21  33  49  71 102 138 173 213 265
#     4  10  21  36  54  76 102 134 170 205 243 288
#     4   8  14  25  40  59  87 122 154 185 228 281
#
# _framework density 17.913024
#
# number of rings (size 3 to 8) (size 9 to 14) (size 15 to 20)
#    0.000    3.000    0.000    3.000    0.000    5.667 
#    0.000    1.667    0.000    0.000    0.000    1.167 
#    0.000    7.000    0.000    0.000    0.000    0.000 
#
# Total GULP energy -595030.856655 kJ/mol
# GULP energy per Si atom -12396.476180 kJ/mol
# Density = 1.787225 g / cm^3
# Si number density = 17.913024 Si / 1000 Ang^3
#
#
#
# Elastic Constant Matrix: (Units=GPa)
#
#
# Indices 1 2 3 4 5 6 
#
# 1 76.3233 38.3458 70.1590 0.0000 0.0000 0.0000
# 2 38.3458 76.3234 70.1600 0.0000 0.0000 0.0000
# 3 70.1590 70.1600 172.1775 0.0000 0.0000 0.0000
# 4 0.0000 0.0000 0.0000 3.0018 0.0000 0.0000
# 5 0.0000 0.0000 0.0000 0.0000 3.0023 0.0000
# 6 0.0000 0.0000 0.0000 0.0000 0.0000 18.8945
#
#
#
# Elastic Compliance Matrix: (Units=1/GPa)
#
#
# Indices 1 2 3 4 5 6 
#
# 1 0.021862 -0.004469 -0.007088 0.000000 0.000000 0.000000
# 2 -0.004469 0.021863 -0.007088 0.000000 0.000000 0.000000
# 3 -0.007088 -0.007088 0.011584 0.000000 0.000000 0.000000
# 4 0.000000 0.000000 0.000000 0.333133 0.000000 0.000000
# 5 0.000000 0.000000 0.000000 0.000000 0.333078 0.000000
# 6 0.000000 0.000000 0.000000 0.000000 0.000000 0.052926
#
#
# Mechanical properties :
#
#
# Convention : Reuss Voigt Hill
#
# Bulk Modulus (GPa) = 55.49047 75.79485 65.64266
# Shear Modulus (GPa) = 6.11441 14.72368 10.41905
#
# Velocity S-wave (km/s) = 1.84954 2.87008 2.41435
# Velocity P-wave (km/s) = 5.96708 7.30669 6.67060
#
# Compressibility (1/GPa) = 0.01802111
#
# Stress axis : x y z
#
# Youngs Moduli (GPa) = 45.74057 45.73983 86.32431
#
# Poissons Ratio (x) = 0.20440 0.61183
# Poissons Ratio (y) = 0.20440 0.61186
# Poissons Ratio (z) = 0.32419 0.32420
#
# Static dielectric constant tensor:
#      x y z
#    x 3.105870 0.000000 0.000000 
#    y 0.000000 3.105870 0.000000 
#    z 0.000000 0.000000 3.592090 
# 
# 
# High freq. dielectric constant tensor:
#      x y z
#    x 1.662690 0.000000 0.000000 
#    y 0.000000 1.662690 0.000000 
#    z 0.000000 0.000000 1.711060 
# 
# From -- ./inp_files/5993.got.cif
#   From: 2010.03.12/outbox.cif.g09.slc.cpg/sg115_3_cif.got.tgz:5993.got - 2010.04.14 02:11:21.
