data_PCOD8309530
_publ_section_title
;
Structure prediction by ZEFSAII (Michael W. Deem and Ramdas Pophale) SiO2 
 PCOD8309530
Probable space group: P -4 M 2
;
_chemical_formula_sum "Si O2"
_cell_formula_units_Z 44
_cell_length_a 9.327962
_cell_length_b 9.327962
_cell_length_c 28.120053
_cell_angle_alpha 90.000000
_cell_angle_beta 90.000000
_cell_angle_gamma 90.000000
_cell_volume 2446.750419
_symmetry_space_group_name_H-M "P -4 M 2"
_symmetry_group_IT_number 115
_symmetry_cell_setting 'tetragonal'
loop_
_space_group_symop_operation_xyz
x,y,z
y,-x,-z
-x,-y,z
-y,x,-z
y,x,-z
-y,-x,-z
-x,y,z
x,-y,z
loop_
_atom_site_type_symbol
_atom_site_label
_atom_site_fract_x
_atom_site_fract_y
_atom_site_fract_z
Si Si1 0.669469 0.660959 0.869492
Si Si2 0.835745 0.670140 0.674953
Si Si3 0.833526 0.667027 0.405846
Si Si4 0.329658 0.659275 0.235469
Si Si5 0.835764 0.164237 0.500000
Si Si6 0.161058 0.830766 0.946819
O O1 0.500000 0.662075 0.874816
O O2 0.728961 0.500000 0.876650
O O3 0.711422 0.720171 0.816913
O O4 0.733865 0.762395 0.909054
O O5 0.822814 0.500000 0.670387
O O6 0.746185 0.739176 0.632936
O O7 0.770532 0.725380 0.724952
O O8 0.000000 0.721071 0.672260
O O9 0.793887 0.500000 0.406318
O O10 0.793966 0.732624 0.456838
O O11 0.000000 0.692500 0.394059
O O12 0.500000 0.650982 0.235154
O O13 0.268354 0.500000 0.246879
O O14 0.000000 0.188608 0.516080
O O15 0.000000 0.774683 0.937710
O O16 0.166604 0.000000 0.941001
O O17 0.211632 0.788369 0.000000
#
# Coordination Sequence:
#
# PCOD8309530 Si02
#       6
#     8   8   8   8   4   8
#     4   9  18  32  51  76 102 127 160 204 251 299
#     4  10  20  33  52  78 104 132 169 210 249 293
#     4  10  21  36  54  77 105 136 169 206 249 297
#     4   8  15  30  50  71  99 133 165 201 248 297
#     4   9  18  34  54  73  98 134 170 205 248 295
#     4   9  19  35  51  68  95 131 168 205 246 294
#
# _framework density 17.983036999999999
#
# number of rings (size 3 to 8) (size 9 to 14) (size 15 to 20)
#    0.000    2.818    0.000    2.727    0.000    5.091 
#    0.000    7.273    0.000    1.091    0.000    0.000 
#    0.000    0.000    0.000    0.000    0.000    0.000 
#
# Total GULP energy -545523.048190 kJ/mol
# GULP energy per Si atom -12398.251095 kJ/mol
# Density = 1.794211 g / cm^3
# Si number density = 17.983037 Si / 1000 Ang^3
#
#
#
# Elastic Constant Matrix: (Units=GPa)
#
#
# Indices 1 2 3 4 5 6 
#
# 1 65.8433 33.6158 64.0702 0.0000 0.0000 0.0000
# 2 33.6158 65.8429 64.0705 0.0000 0.0000 0.0000
# 3 64.0702 64.0705 151.2907 0.0000 0.0000 0.0000
# 4 0.0000 0.0000 0.0000 52.0492 0.0000 0.0000
# 5 0.0000 0.0000 0.0000 0.0000 52.0479 0.0000
# 6 0.0000 0.0000 0.0000 0.0000 0.0000 27.8622
#
#
#
# Elastic Compliance Matrix: (Units=1/GPa)
#
#
# Indices 1 2 3 4 5 6 
#
# 1 0.026578 -0.004451 -0.009371 0.000000 0.000000 0.000000
# 2 -0.004451 0.026579 -0.009371 0.000000 0.000000 0.000000
# 3 -0.009371 -0.009371 0.014547 0.000000 0.000000 0.000000
# 4 0.000000 0.000000 0.000000 0.019213 0.000000 0.000000
# 5 0.000000 0.000000 0.000000 0.000000 0.019213 0.000000
# 6 0.000000 0.000000 0.000000 0.000000 0.000000 0.035891
#
#
# Mechanical properties :
#
#
# Convention : Reuss Voigt Hill
#
# Bulk Modulus (GPa) = 46.90752 67.38778 57.14765
# Shear Modulus (GPa) = 25.57386 34.47322 30.02354
#
# Velocity S-wave (km/s) = 3.77518 4.38309 4.09044
# Velocity P-wave (km/s) = 6.71890 7.94793 7.35912
#
# Compressibility (1/GPa) = 0.02131854
#
# Stress axis : x y z
#
# Youngs Moduli (GPa) = 37.62460 37.62385 68.74388
#
# Poissons Ratio (x) = 0.16746 0.64418
# Poissons Ratio (y) = 0.16747 0.64420
# Poissons Ratio (z) = 0.35257 0.35257
#
# Static dielectric constant tensor:
#      x y z
#    x 3.152100 0.000000 0.000000 
#    y 0.000000 3.152090 0.000000 
#    z 0.000000 0.000000 3.541560 
# 
# 
# High freq. dielectric constant tensor:
#      x y z
#    x 1.683820 0.000000 0.000000 
#    y 0.000000 1.683820 0.000000 
#    z 0.000000 0.000000 1.709240 
# 
# From -- ./inp_files/5723.got.cif
#   From: 2010.03.12/outbox.cif.g09.slc.cpg/sg115_3_cif.got.tgz:5723.got - 2010.04.14 02:11:21.
