data_PCOD8309268
_publ_section_title
;
Structure prediction by ZEFSAII (Michael W. Deem and Ramdas Pophale) SiO2 
 PCOD8309268
Probable space group: P -4 M 2
;
_chemical_formula_sum "Si O2"
_cell_formula_units_Z 56
_cell_length_a 17.936870
_cell_length_b 17.936870
_cell_length_c 11.215748
_cell_angle_alpha 90.000000
_cell_angle_beta 90.000000
_cell_angle_gamma 90.000000
_cell_volume 3608.457245
_symmetry_space_group_name_H-M "P -4 M 2"
_symmetry_group_IT_number 115
_symmetry_cell_setting 'tetragonal'
loop_
_space_group_symop_operation_xyz
x,y,z
y,-x,-z
-x,-y,z
-y,x,-z
y,x,-z
-y,-x,-z
-x,y,z
x,-y,z
loop_
_atom_site_type_symbol
_atom_site_label
_atom_site_fract_x
_atom_site_fract_y
_atom_site_fract_z
Si Si1 0.413473 0.707247 0.708082
Si Si2 0.415458 0.360383 0.125219
Si Si3 0.662610 0.775045 0.490830
Si Si4 0.150098 0.585492 0.161283
Si Si5 0.411130 0.916896 0.079367
Si Si6 0.084160 0.585555 0.409367
Si Si7 0.584215 0.210603 0.249001
O O1 0.500000 0.723115 0.690350
O O2 0.400486 0.626575 0.765468
O O3 0.378352 0.715552 0.577072
O O4 0.378974 0.771168 0.795707
O O5 0.500000 0.390481 0.125129
O O6 0.413147 0.271670 0.143859
O O7 0.377402 0.377402 0.000000
O O8 0.750814 0.750814 0.500000
O O9 0.644011 0.860135 0.527027
O O10 0.637269 0.763311 0.355136
O O11 0.165153 0.500000 0.129383
O O12 0.089840 0.593951 0.267054
O O13 0.117350 0.624189 0.042408
O O14 0.500000 0.919123 0.068584
O O15 0.386975 0.866845 0.192186
O O16 0.379192 0.000000 0.098964
O O17 0.104302 0.500000 0.446193
O O18 0.000000 0.604866 0.449085
O O19 0.500000 0.201777 0.297893
#
# Coordination Sequence:
#
# PCOD8309268 Si02
#       7
#     8   8   8   8   8   8   8
#     4  10  19  32  49  65  82 113 155 199 244 284
#     4  11  22  34  47  61  81 109 149 202 252 290
#     4  11  20  34  49  66  91 125 157 190 230 286
#     4   8  14  26  45  69  92 112 141 183 235 289
#     4   9  16  26  43  67  93 117 141 177 230 288
#     4   9  17  29  49  74  96 120 154 198 240 281
#     4  10  20  33  46  62  85 116 152 192 235 283
#
# _framework density 15.519098
#
# number of rings (size 3 to 8) (size 9 to 14) (size 15 to 20)
#    0.000    2.286    1.429    3.857    0.000    5.571 
#    0.000    1.429    0.000    0.000    0.000    0.000 
#    0.000    0.286    0.000    0.000    0.000    0.000 
#
# Total GULP energy -694071.562219 kJ/mol
# GULP energy per Si atom -12394.135040 kJ/mol
# Density = 1.548378 g / cm^3
# Si number density = 15.519098 Si / 1000 Ang^3
#
#
#
# Elastic Constant Matrix: (Units=GPa)
#
#
# Indices 1 2 3 4 5 6 
#
# 1 76.7460 31.2891 34.9735 0.0000 0.0000 0.0000
# 2 31.2891 76.7460 34.9735 0.0000 0.0000 0.0000
# 3 34.9735 34.9735 94.5811 0.0000 0.0000 0.0000
# 4 0.0000 0.0000 0.0000 18.3834 0.0000 0.0000
# 5 0.0000 0.0000 0.0000 0.0000 18.3834 0.0000
# 6 0.0000 0.0000 0.0000 0.0000 0.0000 13.8381
#
#
#
# Elastic Compliance Matrix: (Units=1/GPa)
#
#
# Indices 1 2 3 4 5 6 
#
# 1 0.017084 -0.004915 -0.004500 0.000000 0.000000 0.000000
# 2 -0.004915 0.017084 -0.004500 0.000000 0.000000 0.000000
# 3 -0.004500 -0.004500 0.013901 0.000000 0.000000 0.000000
# 4 0.000000 0.000000 0.000000 0.054397 0.000000 0.000000
# 5 0.000000 0.000000 0.000000 0.000000 0.054397 0.000000
# 6 0.000000 0.000000 0.000000 0.000000 0.000000 0.072264
#
#
# Mechanical properties :
#
#
# Convention : Reuss Voigt Hill
#
# Bulk Modulus (GPa) = 49.40638 50.06059 49.73349
# Shear Modulus (GPa) = 18.96067 19.91012 19.43540
#
# Velocity S-wave (km/s) = 3.49917 3.58571 3.54270
# Velocity P-wave (km/s) = 6.94482 7.03353 6.98931
#
# Compressibility (1/GPa) = 0.02024030
#
# Stress axis : x y z
#
# Youngs Moduli (GPa) = 58.53324 58.53324 71.93759
#
# Poissons Ratio (x) = 0.28766 0.32372
# Poissons Ratio (y) = 0.28766 0.32372
# Poissons Ratio (z) = 0.26340 0.26340
#
# Static dielectric constant tensor:
#      x y z
#    x 2.866830 0.000000 0.000000 
#    y 0.000000 2.866830 0.000000 
#    z 0.000000 0.000000 3.025220 
# 
# 
# High freq. dielectric constant tensor:
#      x y z
#    x 1.561360 0.000000 0.000000 
#    y 0.000000 1.561360 0.000000 
#    z 0.000000 0.000000 1.608860 
# 
# From -- ./inp_files/3140.got.cif
#   From: 2010.03.12/outbox.cif.g09.slc.cpg/sg115_2_cif.got.tgz:3140.got - 2010.04.14 02:11:21.
