data_PCOD8309647
_publ_section_title
;
Structure prediction by ZEFSAII (Michael W. Deem and Ramdas Pophale) SiO2 
 PCOD8309647
Probable space group: P -4 M 2
;
_chemical_formula_sum "Si O2"
_cell_formula_units_Z 48
_cell_length_a 8.993691
_cell_length_b 8.993691
_cell_length_c 30.987250
_cell_angle_alpha 90.000000
_cell_angle_beta 90.000000
_cell_angle_gamma 90.000000
_cell_volume 2506.449509
_symmetry_space_group_name_H-M "P -4 M 2"
_symmetry_group_IT_number 115
_symmetry_cell_setting 'tetragonal'
loop_
_space_group_symop_operation_xyz
x,y,z
y,-x,-z
-x,-y,z
-y,x,-z
y,x,-z
-y,-x,-z
-x,y,z
x,-y,z
loop_
_atom_site_type_symbol
_atom_site_label
_atom_site_fract_x
_atom_site_fract_y
_atom_site_fract_z
Si Si1 0.675988 0.334939 0.047196
Si Si2 0.825358 0.327260 0.459987
Si Si3 0.175844 0.834963 0.877427
Si Si4 0.671334 0.824656 0.698560
Si Si5 0.176461 0.834790 0.216692
Si Si6 0.675251 0.827731 0.380084
O O1 0.500000 0.341087 0.047446
O O2 0.741229 0.500000 0.055274
O O3 0.728684 0.227621 0.084713
O O4 0.726475 0.273526 0.000000
O O5 0.764967 0.235034 0.500000
O O6 0.787929 0.500000 0.467010
O O7 0.748938 0.271730 0.416698
O O8 0.000000 0.300275 0.455861
O O9 0.224908 0.770327 0.830364
O O10 0.000000 0.842508 0.877973
O O11 0.242530 0.000000 0.884792
O O12 0.500000 0.780893 0.691600
O O13 0.720774 0.772273 0.746278
O O14 0.774625 0.737225 0.665537
O O15 0.696018 0.000000 0.691986
O O16 0.000000 0.845581 0.215038
O O17 0.241327 0.000000 0.226417
O O18 0.500000 0.802985 0.381505
O O19 0.716663 0.000000 0.387301
#
# Coordination Sequence:
#
# PCOD8309647 Si02
#       6
#     8   8   8   8   8   8
#     4   9  19  35  51  68  95 132 172 212 255 307
#     4  11  24  41  62  89 118 148 185 226 269 320
#     4   9  18  32  51  77 105 131 165 211 260 311
#     4  10  20  34  55  83 110 138 177 222 266 315
#     4   8  15  30  51  74 103 138 172 209 257 311
#     4  11  24  40  58  82 112 147 187 227 268 317
#
# _framework density 19.150593000000001
#
# number of rings (size 3 to 8) (size 9 to 14) (size 15 to 20)
#    0.000    2.333    0.000    4.000    0.000    9.667 
#    0.000    5.000    0.000    1.000    0.000    0.000 
#    0.000    0.000    0.000    0.000    0.000    0.000 
#
# Total GULP energy -595124.591182 kJ/mol
# GULP energy per Si atom -12398.428983 kJ/mol
# Density = 1.910701 g / cm^3
# Si number density = 19.150593 Si / 1000 Ang^3
#
#
#
# Elastic Constant Matrix: (Units=GPa)
#
#
# Indices 1 2 3 4 5 6 
#
# 1 48.7870 31.6693 32.3819 0.0000 0.0000 0.0000
# 2 31.6693 48.7893 32.3825 0.0000 0.0000 0.0000
# 3 32.3819 32.3825 136.3397 0.0000 0.0000 0.0000
# 4 0.0000 0.0000 0.0000 53.4876 0.0000 0.0000
# 5 0.0000 0.0000 0.0000 0.0000 53.4895 0.0000
# 6 0.0000 0.0000 0.0000 0.0000 0.0000 27.0773
#
#
#
# Elastic Compliance Matrix: (Units=1/GPa)
#
#
# Indices 1 2 3 4 5 6 
#
# 1 0.036892 -0.021524 -0.003650 0.000000 0.000000 0.000000
# 2 -0.021524 0.036890 -0.003650 0.000000 0.000000 0.000000
# 3 -0.003650 -0.003650 0.009068 0.000000 0.000000 0.000000
# 4 0.000000 0.000000 0.000000 0.018696 0.000000 0.000000
# 5 0.000000 0.000000 0.000000 0.000000 0.018695 0.000000
# 6 0.000000 0.000000 0.000000 0.000000 0.000000 0.036931
#
#
# Mechanical properties :
#
#
# Convention : Reuss Voigt Hill
#
# Bulk Modulus (GPa) = 39.67803 47.42036 43.54920
# Shear Modulus (GPa) = 22.39932 35.97637 29.18785
#
# Velocity S-wave (km/s) = 3.42371 4.33899 3.90824
# Velocity P-wave (km/s) = 6.03266 7.06527 6.56928
#
# Compressibility (1/GPa) = 0.02520287
#
# Stress axis : x y z
#
# Youngs Moduli (GPa) = 27.10624 27.10762 110.27352
#
# Poissons Ratio (x) = 0.58347 0.40249
# Poissons Ratio (y) = 0.58344 0.40247
# Poissons Ratio (z) = 0.09894 0.09893
#
# Static dielectric constant tensor:
#      x y z
#    x 3.424480 0.000000 0.000000 
#    y 0.000000 3.424470 0.000000 
#    z 0.000000 0.000000 4.074300 
# 
# 
# High freq. dielectric constant tensor:
#      x y z
#    x 1.732990 0.000000 0.000000 
#    y 0.000000 1.732990 0.000000 
#    z 0.000000 0.000000 1.764870 
# 
# From -- ./inp_files/6004.got.cif
#   From: 2010.03.12/outbox.cif.g09.slc.cpg/sg115_4_cif.got.tgz:6004.got - 2010.04.14 02:11:21.
