data_PCOD8309318
_publ_section_title
;
Structure prediction by ZEFSAII (Michael W. Deem and Ramdas Pophale) SiO2 
 PCOD8309318
Probable space group: P -4 M 2
;
_chemical_formula_sum "Si O2"
_cell_formula_units_Z 32
_cell_length_a 7.961082
_cell_length_b 7.961082
_cell_length_c 24.003863
_cell_angle_alpha 90.000000
_cell_angle_beta 90.000000
_cell_angle_gamma 90.000000
_cell_volume 1521.336671
_symmetry_space_group_name_H-M "P -4 M 2"
_symmetry_group_IT_number 115
_symmetry_cell_setting 'tetragonal'
loop_
_space_group_symop_operation_xyz
x,y,z
y,-x,-z
-x,-y,z
-y,x,-z
y,x,-z
-y,-x,-z
-x,y,z
x,-y,z
loop_
_atom_site_type_symbol
_atom_site_label
_atom_site_fract_x
_atom_site_fract_y
_atom_site_fract_z
Si Si1 0.684442 0.301536 0.327500
Si Si2 0.305140 0.183960 0.557327
Si Si3 0.199580 0.000000 0.868966
Si Si4 0.196356 0.000000 0.744917
Si Si5 0.311105 0.804288 0.057621
O O1 0.500000 0.233665 0.308336
O O2 0.679278 0.500000 0.330148
O O3 0.720048 0.226395 0.389430
O O4 0.830398 0.249409 0.285741
O O5 0.282022 0.282022 0.500000
O O6 0.500000 0.164057 0.568969
O O7 0.220932 0.000000 0.552844
O O8 0.276527 0.000000 0.806730
O O9 0.263592 0.170075 0.899441
O O10 0.000000 0.000000 0.866941
O O11 0.000000 0.000000 0.750432
O O12 0.500000 0.773924 0.081643
O O13 0.279646 0.000000 0.045269
O O14 0.295036 0.704965 0.000000
#
# Coordination Sequence:
#
# PCOD8309318 Si02
#       5
#     8   8   4   4   8
#     4  10  21  40  64  85 114 161 210 257 311 371
#     4  10  20  35  56  82 113 148 194 250 308 375
#     4   9  20  37  59  87 123 166 204 247 303 360
#     4  11  23  39  61  91 125 161 207 258 307 370
#     4  10  19  34  60  89 118 157 203 250 307 369
#
# _framework density 21.034133000000001
#
# number of rings (size 3 to 8) (size 9 to 14) (size 15 to 20)
#    0.000    2.000    2.500    1.125    0.000    4.250 
#    0.000    5.000    0.000    0.000    0.000    0.000 
#    0.000    0.000    0.000    0.000    0.000    0.000 
#
# Total GULP energy -396625.947531 kJ/mol
# GULP energy per Si atom -12394.560860 kJ/mol
# Density = 2.098626 g / cm^3
# Si number density = 21.034133 Si / 1000 Ang^3
#
#
#
# Elastic Constant Matrix: (Units=GPa)
#
#
# Indices 1 2 3 4 5 6 
#
# 1 103.1780 33.0271 54.4510 0.0000 0.0000 0.0000
# 2 33.0271 103.1783 54.4516 0.0000 0.0000 0.0000
# 3 54.4510 54.4516 178.8321 0.0000 0.0000 0.0000
# 4 0.0000 0.0000 0.0000 6.0079 0.0000 0.0000
# 5 0.0000 0.0000 0.0000 0.0000 6.0079 0.0000
# 6 0.0000 0.0000 0.0000 0.0000 0.0000 18.1315
#
#
#
# Elastic Compliance Matrix: (Units=1/GPa)
#
#
# Indices 1 2 3 4 5 6 
#
# 1 0.011980 -0.002275 -0.002955 0.000000 0.000000 0.000000
# 2 -0.002275 0.011980 -0.002955 0.000000 0.000000 0.000000
# 3 -0.002955 -0.002955 0.007391 0.000000 0.000000 0.000000
# 4 0.000000 0.000000 0.000000 0.166446 0.000000 0.000000
# 5 0.000000 0.000000 0.000000 0.000000 0.166447 0.000000
# 6 0.000000 0.000000 0.000000 0.000000 0.000000 0.055153
#
#
# Mechanical properties :
#
#
# Convention : Reuss Voigt Hill
#
# Bulk Modulus (GPa) = 66.75251 74.33865 70.54558
# Shear Modulus (GPa) = 11.34404 22.24672 16.79538
#
# Velocity S-wave (km/s) = 2.32484 3.25568 2.82881
# Velocity P-wave (km/s) = 6.24586 7.03926 6.65439
#
# Compressibility (1/GPa) = 0.01498071
#
# Stress axis : x y z
#
# Youngs Moduli (GPa) = 83.47478 83.47477 135.29559
#
# Poissons Ratio (x) = 0.18993 0.39977
# Poissons Ratio (y) = 0.18993 0.39978
# Poissons Ratio (z) = 0.24665 0.24666
#
# Static dielectric constant tensor:
#      x y z
#    x 3.808330 0.000000 0.000000 
#    y 0.000000 3.808330 0.000000 
#    z 0.000000 0.000000 4.010770 
# 
# 
# High freq. dielectric constant tensor:
#      x y z
#    x 1.817640 0.000000 0.000000 
#    y 0.000000 1.817640 0.000000 
#    z 0.000000 0.000000 1.816390 
# 
# From -- ./inp_files/5025.got.cif
#   From: 2010.03.12/outbox.cif.g09.slc.cpg/sg115_3_cif.got.tgz:5025.got - 2010.04.14 02:11:21.
