data_PCOD8309397
_publ_section_title
;
Structure prediction by ZEFSAII (Michael W. Deem and Ramdas Pophale) SiO2 
 PCOD8309397
Probable space group: P -4 M 2
;
_chemical_formula_sum "Si O2"
_cell_formula_units_Z 40
_cell_length_a 9.349617
_cell_length_b 9.349617
_cell_length_c 26.125692
_cell_angle_alpha 90.000000
_cell_angle_beta 90.000000
_cell_angle_gamma 90.000000
_cell_volume 2283.786198
_symmetry_space_group_name_H-M "P -4 M 2"
_symmetry_group_IT_number 115
_symmetry_cell_setting 'tetragonal'
loop_
_space_group_symop_operation_xyz
x,y,z
y,-x,-z
-x,-y,z
-y,x,-z
y,x,-z
-y,-x,-z
-x,y,z
x,-y,z
loop_
_atom_site_type_symbol
_atom_site_label
_atom_site_fract_x
_atom_site_fract_y
_atom_site_fract_z
Si Si1 0.840068 0.330047 0.851156
Si Si2 0.168600 0.333526 0.543533
Si Si3 0.670128 0.161163 0.261558
Si Si4 0.330401 0.660571 0.356061
Si Si5 0.659089 0.328917 0.944334
O O1 0.836551 0.500000 0.855078
O O2 0.782459 0.283283 0.794927
O O3 0.749069 0.262638 0.897455
O O4 0.000000 0.272381 0.857761
O O5 0.235108 0.235108 0.500000
O O6 0.200723 0.500000 0.531536
O O7 0.242867 0.284341 0.596065
O O8 0.000000 0.305338 0.548037
O O9 0.500000 0.157801 0.265391
O O10 0.733642 0.266844 0.304667
O O11 0.728053 0.000000 0.270599
O O12 0.500000 0.653479 0.352297
O O13 0.267493 0.500000 0.361676
O O14 0.500000 0.269117 0.936827
O O15 0.658697 0.500000 0.943341
O O16 0.720325 0.279676 0.000000
#
# Coordination Sequence:
#
# PCOD8309397 Si02
#       5
#     8   8   8   8   8
#     4   8  13  20  30  45  68 100 135 169 206 250
#     4  10  20  33  49  68  91 120 152 187 227 269
#     4   8  13  21  32  48  74 107 139 170 208 256
#     4   9  16  25  39  60  85 113 145 180 218 262
#     4   8  13  20  29  42  63  93 127 162 203 251
#
# _framework density 17.514773999999999
#
# number of rings (size 3 to 8) (size 9 to 14) (size 15 to 20)
#    0.000    3.400    0.000    3.000    0.000    4.400 
#    0.000    4.000    0.000    0.000    0.000    0.000 
#    0.000    2.000    0.000   14.800    0.000   18.000 
#
# Total GULP energy -495621.185713 kJ/mol
# GULP energy per Si atom -12390.529643 kJ/mol
# Density = 1.747491 g / cm^3
# Si number density = 17.514774 Si / 1000 Ang^3
#
#
#
# Elastic Constant Matrix: (Units=GPa)
#
#
# Indices 1 2 3 4 5 6 
#
# 1 58.6901 24.8585 60.8320 0.0000 0.0000 0.0000
# 2 24.8585 58.6903 60.8320 0.0000 0.0000 0.0000
# 3 60.8320 60.8320 196.3508 0.0000 0.0000 0.0000
# 4 0.0000 0.0000 0.0000 4.2078 0.0000 0.0000
# 5 0.0000 0.0000 0.0000 0.0000 4.2078 0.0000
# 6 0.0000 0.0000 0.0000 0.0000 0.0000 8.6907
#
#
#
# Elastic Compliance Matrix: (Units=1/GPa)
#
#
# Indices 1 2 3 4 5 6 
#
# 1 0.025683 -0.003875 -0.006756 0.000000 0.000000 0.000000
# 2 -0.003875 0.025683 -0.006756 0.000000 0.000000 0.000000
# 3 -0.006756 -0.006756 0.009279 0.000000 0.000000 0.000000
# 4 0.000000 0.000000 0.000000 0.237652 0.000000 0.000000
# 5 0.000000 0.000000 0.000000 0.000000 0.237653 0.000000
# 6 0.000000 0.000000 0.000000 0.000000 0.000000 0.115065
#
#
# Mechanical properties :
#
#
# Convention : Reuss Voigt Hill
#
# Bulk Modulus (GPa) = 38.65574 67.41957 53.03765
# Shear Modulus (GPa) = 7.20032 14.56852 10.88442
#
# Velocity S-wave (km/s) = 2.02976 2.88720 2.49558
# Velocity P-wave (km/s) = 5.25466 7.04919 6.21702
#
# Compressibility (1/GPa) = 0.02586938
#
# Stress axis : x y z
#
# Youngs Moduli (GPa) = 38.93647 38.93660 107.76691
#
# Poissons Ratio (x) = 0.15089 0.72810
# Poissons Ratio (y) = 0.15089 0.72810
# Poissons Ratio (z) = 0.26307 0.26307
#
# Static dielectric constant tensor:
#      x y z
#    x 2.952070 0.000000 0.000000 
#    y 0.000000 2.952070 0.000000 
#    z 0.000000 0.000000 3.727970 
# 
# 
# High freq. dielectric constant tensor:
#      x y z
#    x 1.627820 0.000000 0.000000 
#    y 0.000000 1.627820 0.000000 
#    z 0.000000 0.000000 1.700730 
# 
# From -- ./inp_files/5426.got.cif
#   From: 2010.03.12/outbox.cif.g09.slc.cpg/sg115_3_cif.got.tgz:5426.got - 2010.04.14 02:11:21.
