data_PCOD8309171
_publ_section_title
;
Structure prediction by ZEFSAII (Michael W. Deem and Ramdas Pophale) SiO2 
 PCOD8309171
Probable space group: P -4 M 2
;
_chemical_formula_sum "Si O2"
_cell_formula_units_Z 48
_cell_length_a 13.756176
_cell_length_b 13.756176
_cell_length_c 16.015302
_cell_angle_alpha 90.000000
_cell_angle_beta 90.000000
_cell_angle_gamma 90.000000
_cell_volume 3030.613684
_symmetry_space_group_name_H-M "P -4 M 2"
_symmetry_group_IT_number 115
_symmetry_cell_setting 'tetragonal'
loop_
_space_group_symop_operation_xyz
x,y,z
y,-x,-z
-x,-y,z
-y,x,-z
y,x,-z
-y,-x,-z
-x,y,z
x,-y,z
loop_
_atom_site_type_symbol
_atom_site_label
_atom_site_fract_x
_atom_site_fract_y
_atom_site_fract_z
Si Si1 0.115646 0.891362 0.591608
Si Si2 0.228673 0.884688 0.247690
Si Si3 0.107420 0.385943 0.502162
Si Si4 0.783877 0.386527 0.671381
Si Si5 0.884206 0.108016 0.908712
Si Si6 0.300152 0.386068 0.418315
O O1 0.150754 0.849247 0.500000
O O2 0.151989 0.827216 0.669098
O O3 0.000000 0.894470 0.589142
O O4 0.156371 0.000000 0.605539
O O5 0.334462 0.833985 0.249351
O O6 0.175935 0.844389 0.165018
O O7 0.238864 0.000000 0.244730
O O8 0.095763 0.500000 0.495790
O O9 0.147195 0.359410 0.593351
O O10 0.187343 0.353070 0.433583
O O11 0.000000 0.337285 0.488512
O O12 0.777554 0.500000 0.689497
O O13 0.675424 0.344346 0.657896
O O14 0.000000 0.103228 0.906435
O O15 0.841957 0.000000 0.893732
O O16 0.851687 0.148314 0.000000
O O17 0.365113 0.365113 0.500000
O O18 0.306895 0.500000 0.396915
#
# Coordination Sequence:
#
# PCOD8309171 Si02
#       6
#     8   8   8   8   8   8
#     4   8  14  24  36  52  79 114 147 176 203 236
#     4  10  18  27  41  60  84 116 146 172 211 263
#     4   8  14  26  42  57  77 107 140 178 224 267
#     4  10  20  30  39  56  83 112 145 185 225 263
#     4   8  14  26  45  68  91 112 137 175 221 266
#     4   9  17  29  45  62  79 106 150 199 238 266
#
# _framework density 15.838376999999999
#
# number of rings (size 3 to 8) (size 9 to 14) (size 15 to 20)
#    0.000    3.167    0.000    3.500    0.000    6.167 
#    0.000    3.333    0.000    0.000    0.000    1.167 
#    0.000   17.667    0.000    0.000    0.000    1.000 
#
# Total GULP energy -594815.788798 kJ/mol
# GULP energy per Si atom -12391.995600 kJ/mol
# Density = 1.580233 g / cm^3
# Si number density = 15.838377 Si / 1000 Ang^3
#
#
#
# Elastic Constant Matrix: (Units=GPa)
#
#
# Indices 1 2 3 4 5 6 
#
# 1 79.9101 34.6032 42.6322 0.0000 0.0000 0.0000
# 2 34.6032 79.9103 42.6322 0.0000 0.0000 0.0000
# 3 42.6322 42.6322 98.0277 0.0000 0.0000 0.0000
# 4 0.0000 0.0000 0.0000 14.1569 0.0000 0.0000
# 5 0.0000 0.0000 0.0000 0.0000 14.1570 0.0000
# 6 0.0000 0.0000 0.0000 0.0000 0.0000 18.3642
#
#
#
# Elastic Compliance Matrix: (Units=1/GPa)
#
#
# Indices 1 2 3 4 5 6 
#
# 1 0.017493 -0.004579 -0.005617 0.000000 0.000000 0.000000
# 2 -0.004579 0.017493 -0.005617 0.000000 0.000000 0.000000
# 3 -0.005617 -0.005617 0.015086 0.000000 0.000000 0.000000
# 4 0.000000 0.000000 0.000000 0.070637 0.000000 0.000000
# 5 0.000000 0.000000 0.000000 0.000000 0.070637 0.000000
# 6 0.000000 0.000000 0.000000 0.000000 0.000000 0.054454
#
#
# Mechanical properties :
#
#
# Convention : Reuss Voigt Hill
#
# Bulk Modulus (GPa) = 54.20219 55.28702 54.74460
# Shear Modulus (GPa) = 17.63215 18.53432 18.08324
#
# Velocity S-wave (km/s) = 3.34017 3.42455 3.38262
# Velocity P-wave (km/s) = 7.01227 7.11474 7.06369
#
# Compressibility (1/GPa) = 0.01844944
#
# Stress axis : x y z
#
# Youngs Moduli (GPa) = 57.16530 57.16544 66.28466
#
# Poissons Ratio (x) = 0.26173 0.37229
# Poissons Ratio (y) = 0.26173 0.37229
# Poissons Ratio (z) = 0.32107 0.32107
#
# Static dielectric constant tensor:
#      x y z
#    x 3.073780 0.000000 0.000000 
#    y 0.000000 3.073780 0.000000 
#    z 0.000000 0.000000 2.909690 
# 
# 
# High freq. dielectric constant tensor:
#      x y z
#    x 1.601020 0.000000 0.000000 
#    y 0.000000 1.601020 0.000000 
#    z 0.000000 0.000000 1.557350 
# 
# From -- ./inp_files/3711.got.cif
#   From: 2010.03.12/outbox.cif.g09.slc.cpg/sg115_2_cif.got.tgz:3711.got - 2010.04.14 02:11:21.
