data_PCOD8309452
_publ_section_title
;
Structure prediction by ZEFSAII (Michael W. Deem and Ramdas Pophale) SiO2 
 PCOD8309452
Probable space group: P -4 M 2
;
_chemical_formula_sum "Si O2"
_cell_formula_units_Z 40
_cell_length_a 8.079936
_cell_length_b 8.079936
_cell_length_c 29.241975
_cell_angle_alpha 90.000000
_cell_angle_beta 90.000000
_cell_angle_gamma 90.000000
_cell_volume 1909.073034
_symmetry_space_group_name_H-M "P -4 M 2"
_symmetry_group_IT_number 115
_symmetry_cell_setting 'tetragonal'
loop_
_space_group_symop_operation_xyz
x,y,z
y,-x,-z
-x,-y,z
-y,x,-z
y,x,-z
-y,-x,-z
-x,y,z
x,-y,z
loop_
_atom_site_type_symbol
_atom_site_label
_atom_site_fract_x
_atom_site_fract_y
_atom_site_fract_z
Si Si1 0.315761 0.694432 0.052174
Si Si2 0.187356 0.193187 0.360434
Si Si3 0.000000 0.698225 0.107324
Si Si4 0.689757 0.183737 0.454149
Si Si5 0.000000 0.693121 0.209842
Si Si6 0.683516 0.195816 0.266491
O O1 0.500000 0.769652 0.063777
O O2 0.327530 0.500000 0.059835
O O3 0.168151 0.768395 0.083542
O O4 0.266733 0.733267 0.000000
O O5 0.226076 0.273426 0.410086
O O6 0.293791 0.266148 0.318242
O O7 0.000000 0.228958 0.346603
O O8 0.226269 0.000000 0.366309
O O9 0.000000 0.500000 0.104595
O O10 0.000000 0.768367 0.158895
O O11 0.711549 0.288451 0.500000
O O12 0.500000 0.172779 0.441435
O O13 0.763884 0.000000 0.462784
O O14 0.830160 0.743569 0.234252
O O15 0.000000 0.500000 0.205649
O O16 0.500000 0.251835 0.249022
O O17 0.696709 0.000000 0.268353
#
# Coordination Sequence:
#
# PCOD8309452 Si02
#       6
#     8   8   4   8   4   8
#     4   8  14  27  50  77 104 141 190 238 284 341
#     4   9  16  30  56  84 104 130 179 238 288 338
#     4   9  18  31  51  79 113 153 193 237 289 347
#     4  10  20  33  50  75 105 135 172 219 273 335
#     4  11  23  37  55  85 123 159 195 243 301 362
#     4  10  20  37  62  85 110 151 200 248 297 354
#
# _framework density 20.952579
#
# number of rings (size 3 to 8) (size 9 to 14) (size 15 to 20)
#    0.000    2.600    1.000    2.100    0.000    4.800 
#    0.000    3.000    4.400    2.400    0.000    0.000 
#    0.000    0.000    0.000    0.000    0.000    0.000 
#
# Total GULP energy -495615.893515 kJ/mol
# GULP energy per Si atom -12390.397338 kJ/mol
# Density = 2.090489 g / cm^3
# Si number density = 20.952579 Si / 1000 Ang^3
#
#
#
# Elastic Constant Matrix: (Units=GPa)
#
#
# Indices 1 2 3 4 5 6 
#
# 1 80.6266 21.3318 56.0662 0.0000 0.0000 0.0000
# 2 21.3318 80.6264 56.0661 0.0000 0.0000 0.0000
# 3 56.0662 56.0661 171.7108 0.0000 0.0000 0.0000
# 4 0.0000 0.0000 0.0000 21.3338 0.0000 0.0000
# 5 0.0000 0.0000 0.0000 0.0000 21.3338 0.0000
# 6 0.0000 0.0000 0.0000 0.0000 0.0000 14.2988
#
#
#
# Elastic Compliance Matrix: (Units=1/GPa)
#
#
# Indices 1 2 3 4 5 6 
#
# 1 0.016084 -0.000781 -0.004997 0.000000 0.000000 0.000000
# 2 -0.000781 0.016084 -0.004997 0.000000 0.000000 0.000000
# 3 -0.004997 -0.004997 0.009087 0.000000 0.000000 0.000000
# 4 0.000000 0.000000 0.000000 0.046874 0.000000 0.000000
# 5 0.000000 0.000000 0.000000 0.000000 0.046874 0.000000
# 6 0.000000 0.000000 0.000000 0.000000 0.000000 0.069936
#
#
# Mechanical properties :
#
#
# Convention : Reuss Voigt Hill
#
# Bulk Modulus (GPa) = 50.74507 66.65465 58.69986
# Shear Modulus (GPa) = 21.45403 24.69324 23.07364
#
# Velocity S-wave (km/s) = 3.20337 3.43670 3.32208
# Velocity P-wave (km/s) = 6.16065 6.90138 6.54151
#
# Compressibility (1/GPa) = 0.01970635
#
# Stress axis : x y z
#
# Youngs Moduli (GPa) = 62.17325 62.17312 110.05004
#
# Poissons Ratio (x) = 0.04855 0.54989
# Poissons Ratio (y) = 0.04855 0.54989
# Poissons Ratio (z) = 0.31066 0.31066
#
# Static dielectric constant tensor:
#      x y z
#    x 3.683770 0.000000 0.000000 
#    y 0.000000 3.683780 0.000000 
#    z 0.000000 0.000000 4.030160 
# 
# 
# High freq. dielectric constant tensor:
#      x y z
#    x 1.797480 0.000000 0.000000 
#    y 0.000000 1.797480 0.000000 
#    z 0.000000 0.000000 1.823430 
# 
# From -- ./inp_files/5559.got.cif
#   From: 2010.03.12/outbox.cif.g09.slc.cpg/sg115_3_cif.got.tgz:5559.got - 2010.04.14 02:11:21.
