data_PCOD8309104
_publ_section_title
;
Structure prediction by ZEFSAII (Michael W. Deem and Ramdas Pophale) SiO2 
 PCOD8309104
Probable space group: P -4 21 C
;
_chemical_formula_sum "Si O2"
_cell_formula_units_Z 48
_cell_length_a 8.771043
_cell_length_b 8.771043
_cell_length_c 27.529277
_cell_angle_alpha 90.000000
_cell_angle_beta 90.000000
_cell_angle_gamma 90.000000
_cell_volume 2117.860186
_symmetry_space_group_name_H-M "P -4 21 C"
_symmetry_group_IT_number 114
_symmetry_cell_setting 'tetragonal'
loop_
_space_group_symop_operation_xyz
x,y,z
y,-x,-z
-x,-y,z
-y,x,-z
1/2+x,1/2-y,1/2-z
1/2-x,1/2+y,1/2-z
1/2-y,1/2-x,1/2+z
1/2+y,1/2+x,1/2+z
loop_
_atom_site_type_symbol
_atom_site_label
_atom_site_fract_x
_atom_site_fract_y
_atom_site_fract_z
Si Si1 0.257518 0.305218 0.103882
Si Si2 0.669918 0.957554 0.528911
Si Si3 0.671502 0.459189 0.623083
Si Si4 0.395285 0.141478 0.695556
Si Si5 0.394612 0.376289 0.270100
Si Si6 0.131429 0.776283 0.571994
O O1 0.301630 0.220401 0.054205
O O2 0.317923 0.203145 0.148507
O O3 0.311097 0.483236 0.106327
O O4 0.075464 0.297606 0.103015
O O5 0.798325 0.073858 0.548160
O O6 0.500000 0.000000 0.545242
O O7 0.671132 0.934206 0.471145
O O8 0.500000 0.500000 0.604742
O O9 0.680696 0.477671 0.681103
O O10 0.730622 0.297069 0.603237
O O11 0.531610 0.249160 0.712351
O O12 0.273987 0.131243 0.738931
O O13 0.500000 0.000000 0.682535
O O14 0.500000 0.500000 0.241706
#
# Coordination Sequence:
#
# PCOD8309104 Si02
#       6
#     8   8   8   8   8   8
#     4  12  25  46  73 106 149 191 248 302 374 444
#     4  12  26  48  70 108 148 189 247 313 368 462
#     4  11  24  48  72 105 146 195 242 306 364 453
#     4  12  27  45  76 114 147 200 246 304 374 445
#     4  11  25  49  73 106 155 189 245 304 358 446
#     4  12  27  46  76 105 147 196 244 306 388 441
#
# _framework density 22.664383999999998
#
# number of rings (size 3 to 8) (size 9 to 14) (size 15 to 20)
#    0.000    0.333    5.000    4.500    4.667    1.333 
#    0.000    0.000    0.000    0.000    0.000    0.000 
#    0.000    0.000    0.000    0.000    0.000    0.000 
#
# Total GULP energy -594820.797459 kJ/mol
# GULP energy per Si atom -12392.099947 kJ/mol
# Density = 2.261280 g / cm^3
# Si number density = 22.664384 Si / 1000 Ang^3
#
#
#
# Elastic Constant Matrix: (Units=GPa)
#
#
# Indices 1 2 3 4 5 6 
#
# 1 107.8771 25.5124 25.9317 0.0000 0.0000 0.0000
# 2 25.5124 107.8771 25.9317 0.0000 0.0000 0.0000
# 3 25.9317 25.9317 71.5460 0.0000 0.0000 0.0000
# 4 0.0000 0.0000 0.0000 1667.8125 0.0000 0.0000
# 5 0.0000 0.0000 0.0000 0.0000 1667.8125 0.0000
# 6 0.0000 0.0000 0.0000 0.0000 0.0000 42.6253
#
#
#
# Elastic Compliance Matrix: (Units=1/GPa)
#
#
# Indices 1 2 3 4 5 6 
#
# 1 0.010434 -0.001707 -0.003163 0.000000 0.000000 0.000000
# 2 -0.001707 0.010434 -0.003163 0.000000 0.000000 0.000000
# 3 -0.003163 -0.003163 0.016270 0.000000 0.000000 0.000000
# 4 0.000000 0.000000 0.000000 0.000600 0.000000 0.000000
# 5 0.000000 0.000000 0.000000 0.000000 0.000600 0.000000
# 6 0.000000 0.000000 0.000000 0.000000 0.000000 0.023460
#
#
# Mechanical properties :
#
#
# Convention : Reuss Voigt Hill
#
# Bulk Modulus (GPa) = 47.45794 49.11688 48.28741
# Shear Modulus (GPa) = 58.90178 689.64502 374.27340
#
# Velocity S-wave (km/s) = 5.10344 17.46271 12.86451
# Velocity P-wave (km/s) = 7.46403 20.69574 15.55676
#
# Compressibility (1/GPa) = 0.02107129
#
# Stress axis : x y z
#
# Youngs Moduli (GPa) = 95.84162 95.84162 61.46346
#
# Poissons Ratio (x) = 0.16362 0.19441
# Poissons Ratio (y) = 0.16362 0.19441
# Poissons Ratio (z) = 0.30314 0.30314
#
# Static dielectric constant tensor:
#      x y z
#    x -20.615750 0.000000 0.000000 
#    y 0.000000 -20.615750 0.000000 
#    z 0.000000 0.000000 4.159690 
# 
# 
# High freq. dielectric constant tensor:
#      x y z
#    x 1.908030 0.000000 0.000000 
#    y 0.000000 1.908030 0.000000 
#    z 0.000000 0.000000 1.888120 
# 
# From -- ./inp_files/3904.got.cif
#   From: 2010.03.12/outbox.cif.g09.slc.cpg/sg114_2_cif.got.tgz:3904.got - 2010.04.14 02:08:34.
