data_PCOD8309614
_publ_section_title
;
Structure prediction by ZEFSAII (Michael W. Deem and Ramdas Pophale) SiO2 
 PCOD8309614
Probable space group: P -4 M 2
;
_chemical_formula_sum "Si O2"
_cell_formula_units_Z 40
_cell_length_a 9.085883
_cell_length_b 9.085883
_cell_length_c 25.903361
_cell_angle_alpha 90.000000
_cell_angle_beta 90.000000
_cell_angle_gamma 90.000000
_cell_volume 2138.407152
_symmetry_space_group_name_H-M "P -4 M 2"
_symmetry_group_IT_number 115
_symmetry_cell_setting 'tetragonal'
loop_
_space_group_symop_operation_xyz
x,y,z
y,-x,-z
-x,-y,z
-y,x,-z
y,x,-z
-y,-x,-z
-x,y,z
x,-y,z
loop_
_atom_site_type_symbol
_atom_site_label
_atom_site_fract_x
_atom_site_fract_y
_atom_site_fract_z
Si Si1 0.175126 0.665183 0.158354
Si Si2 0.826300 0.665035 0.044560
Si Si3 0.327788 0.827269 0.452554
Si Si4 0.828658 0.672868 0.359025
Si Si5 0.825373 0.164066 0.256096
O O1 0.234009 0.500000 0.167652
O O2 0.225213 0.721020 0.101440
O O3 0.240976 0.769953 0.202926
O O4 0.000000 0.664168 0.161477
O O5 0.767237 0.500000 0.035713
O O6 0.000000 0.667640 0.041869
O O7 0.768468 0.768468 0.000000
O O8 0.240676 0.759325 0.500000
O O9 0.500000 0.794813 0.459679
O O10 0.271462 0.753185 0.400555
O O11 0.295130 0.000000 0.450069
O O12 0.798372 0.500000 0.360982
O O13 0.777856 0.732982 0.303493
O O14 0.000000 0.708095 0.369915
O O15 0.000000 0.158570 0.252300
O O16 0.761329 0.000000 0.264037
#
# Coordination Sequence:
#
# PCOD8309614 Si02
#       5
#     8   8   8   8   8
#     4   8  14  26  43  64  93 127 162 204 254 306
#     4   9  18  31  47  69  97 129 166 208 255 307
#     4  11  24  40  58  81 108 138 173 213 257 304
#     4  10  20  34  54  80 108 139 175 212 252 301
#     4   9  16  26  44  72 103 133 167 209 256 303
#
# _framework density 18.705511000000001
#
# number of rings (size 3 to 8) (size 9 to 14) (size 15 to 20)
#    0.000    2.600    0.000    3.600    0.000    8.800 
#    0.000    2.000    0.000    1.200    0.000    5.600 
#    0.000    0.000    0.000    0.000    0.000    0.000 
#
# Total GULP energy -495875.235161 kJ/mol
# GULP energy per Si atom -12396.880879 kJ/mol
# Density = 1.866294 g / cm^3
# Si number density = 18.705511 Si / 1000 Ang^3
#
#
#
# Elastic Constant Matrix: (Units=GPa)
#
#
# Indices 1 2 3 4 5 6 
#
# 1 69.3571 38.6754 51.8608 0.0000 0.0000 0.0000
# 2 38.6754 69.3544 51.8585 0.0000 0.0000 0.0000
# 3 51.8608 51.8585 156.9803 0.0000 0.0000 0.0000
# 4 0.0000 0.0000 0.0000 -122.0646 0.0000 0.0000
# 5 0.0000 0.0000 0.0000 0.0000 -122.1114 0.0000
# 6 0.0000 0.0000 0.0000 0.0000 0.0000 19.4163
#
#
#
# Elastic Compliance Matrix: (Units=1/GPa)
#
#
# Indices 1 2 3 4 5 6 
#
# 1 0.023075 -0.009519 -0.004479 0.000000 0.000000 0.000000
# 2 -0.009519 0.023075 -0.004478 0.000000 0.000000 0.000000
# 3 -0.004479 -0.004478 0.009329 0.000000 0.000000 0.000000
# 4 0.000000 0.000000 0.000000 -0.008192 0.000000 0.000000
# 5 0.000000 0.000000 0.000000 0.000000 -0.008189 0.000000
# 6 0.000000 0.000000 0.000000 0.000000 0.000000 0.051503
#
#
# Mechanical properties :
#
#
# Convention : Reuss Voigt Hill
#
# Bulk Modulus (GPa) = 53.97225 64.49791 59.23508
# Shear Modulus (GPa) = 37.38912 -34.73215 1.32848
#
# Velocity S-wave (km/s) = 4.47568 -4.31372 0.84365
# Velocity P-wave (km/s) = 7.45823 3.12164 5.71707
#
# Compressibility (1/GPa) = 0.01852804
#
# Stress axis : x y z
#
# Youngs Moduli (GPa) = 43.33704 43.33610 107.19053
#
# Poissons Ratio (x) = 0.41251 0.48006
# Poissons Ratio (y) = 0.41252 0.48003
# Poissons Ratio (z) = 0.19409 0.19407
#
# Static dielectric constant tensor:
#      x y z
#    x 3.368410 0.000000 0.000000 
#    y 0.000000 3.368390 0.000000 
#    z 0.000000 0.000000 3.820690 
# 
# 
# High freq. dielectric constant tensor:
#      x y z
#    x 1.703780 0.000000 0.000000 
#    y 0.000000 1.703780 0.000000 
#    z 0.000000 0.000000 1.747310 
# 
# From -- ./inp_files/5120.got.cif
#   From: 2010.03.12/outbox.cif.g09.slc.cpg/sg115_3_cif.got.tgz:5120.got - 2010.04.14 02:11:21.
