data_PCOD8309812
_publ_section_title
;
Structure prediction by ZEFSAII (Michael W. Deem and Ramdas Pophale) SiO2 
 PCOD8309812
Probable space group: P -4 M 2
;
_chemical_formula_sum "Si O2"
_cell_formula_units_Z 48
_cell_length_a 9.052754
_cell_length_b 9.052754
_cell_length_c 30.988277
_cell_angle_alpha 90.000000
_cell_angle_beta 90.000000
_cell_angle_gamma 90.000000
_cell_volume 2539.562277
_symmetry_space_group_name_H-M "P -4 M 2"
_symmetry_group_IT_number 115
_symmetry_cell_setting 'tetragonal'
loop_
_space_group_symop_operation_xyz
x,y,z
y,-x,-z
-x,-y,z
-y,x,-z
y,x,-z
-y,-x,-z
-x,y,z
x,-y,z
loop_
_atom_site_type_symbol
_atom_site_label
_atom_site_fract_x
_atom_site_fract_y
_atom_site_fract_z
Si Si1 0.328061 0.328061 0.000000
Si Si2 0.324053 0.331357 0.592868
Si Si3 0.171711 0.170531 0.330056
Si Si4 0.327787 0.169827 0.833712
Si Si5 0.173498 0.829824 0.922180
Si Si6 0.328478 0.671523 0.500000
Si Si7 0.326293 0.830807 0.243066
O O1 0.274320 0.239983 0.041546
O O2 0.295778 0.500000 0.007253
O O3 0.500000 0.327287 0.594147
O O4 0.269329 0.500000 0.600144
O O5 0.261656 0.225741 0.629188
O O6 0.267908 0.266110 0.545956
O O7 0.254579 0.226781 0.287338
O O8 0.000000 0.199935 0.322992
O O9 0.207826 0.000000 0.338659
O O10 0.500000 0.197689 0.841141
O O11 0.243672 0.217596 0.876901
O O12 0.271787 0.271375 0.795284
O O13 0.293641 0.000000 0.822191
O O14 0.000000 0.802923 0.919460
O O15 0.210757 0.000000 0.933239
O O16 0.500000 0.704106 0.497072
O O17 0.500000 0.814121 0.247599
O O18 0.279142 0.000000 0.233878
#
# Coordination Sequence:
#
# PCOD8309812 Si02
#       7
#     4   8   8   8   8   4   8
#     4  11  24  39  56  82 116 151 186 227 274 318
#     4   9  17  31  53  78 102 131 170 215 261 310
#     4  10  21  36  53  74 103 139 176 215 261 312
#     4  10  21  37  58  84 113 144 177 216 265 318
#     4  10  21  38  61  86 111 144 186 226 266 317
#     4   7  12  26  48  73 100 130 166 209 256 307
#     4  10  21  37  57  79 103 136 179 222 264 313
#
# _framework density 18.900894999999998
#
# number of rings (size 3 to 8) (size 9 to 14) (size 15 to 20)
#    0.000    2.333    0.000    3.500    0.000    7.333 
#    0.000    0.833    0.000    4.000    0.000    0.000 
#    0.000    0.000    0.000    0.000    0.000    0.000 
#
# Total GULP energy -595144.143042 kJ/mol
# GULP energy per Si atom -12398.836313 kJ/mol
# Density = 1.885788 g / cm^3
# Si number density = 18.900895 Si / 1000 Ang^3
#
#
#
# Elastic Constant Matrix: (Units=GPa)
#
#
# Indices 1 2 3 4 5 6 
#
# 1 68.4648 33.8325 55.9807 0.0000 0.0000 0.0000
# 2 33.8325 68.4645 55.9807 0.0000 0.0000 0.0000
# 3 55.9807 55.9807 159.0381 0.0000 0.0000 0.0000
# 4 0.0000 0.0000 0.0000 34.3834 0.0000 0.0000
# 5 0.0000 0.0000 0.0000 0.0000 34.3834 0.0000
# 6 0.0000 0.0000 0.0000 0.0000 0.0000 29.3091
#
#
#
# Elastic Compliance Matrix: (Units=1/GPa)
#
#
# Indices 1 2 3 4 5 6 
#
# 1 0.022388 -0.006487 -0.005597 0.000000 0.000000 0.000000
# 2 -0.006487 0.022388 -0.005597 0.000000 0.000000 0.000000
# 3 -0.005597 -0.005597 0.010228 0.000000 0.000000 0.000000
# 4 0.000000 0.000000 0.000000 0.029084 0.000000 0.000000
# 5 0.000000 0.000000 0.000000 0.000000 0.029084 0.000000
# 6 0.000000 0.000000 0.000000 0.000000 0.000000 0.034119
#
#
# Mechanical properties :
#
#
# Convention : Reuss Voigt Hill
#
# Bulk Modulus (GPa) = 50.91089 65.28393 58.09741
# Shear Modulus (GPa) = 26.42691 29.62674 28.02683
#
# Velocity S-wave (km/s) = 3.74329 3.96343 3.85493
# Velocity P-wave (km/s) = 6.75848 7.45387 7.11468
#
# Compressibility (1/GPa) = 0.01964216
#
# Stress axis : x y z
#
# Youngs Moduli (GPa) = 44.66658 44.66630 97.76869
#
# Poissons Ratio (x) = 0.28974 0.54723
# Poissons Ratio (y) = 0.28974 0.54724
# Poissons Ratio (z) = 0.25001 0.25001
#
# Static dielectric constant tensor:
#      x y z
#    x 3.353160 0.000000 0.000000 
#    y 0.000000 3.353160 0.000000 
#    z 0.000000 0.000000 3.791310 
# 
# 
# High freq. dielectric constant tensor:
#      x y z
#    x 1.723880 0.000000 0.000000 
#    y 0.000000 1.723880 0.000000 
#    z 0.000000 0.000000 1.754690 
# 
# From -- ./inp_files/6270.got.cif
#   From: 2010.03.12/outbox.cif.g09.slc.cpg/sg115_4_cif.got.tgz:6270.got - 2010.04.14 02:11:21.
