data_PCOD8309825
_publ_section_title
;
Structure prediction by ZEFSAII (Michael W. Deem and Ramdas Pophale) SiO2 
 PCOD8309825
Probable space group: P -4 M 2
;
_chemical_formula_sum "Si O2"
_cell_formula_units_Z 44
_cell_length_a 9.309899
_cell_length_b 9.309899
_cell_length_c 28.261957
_cell_angle_alpha 90.000000
_cell_angle_beta 90.000000
_cell_angle_gamma 90.000000
_cell_volume 2449.583061
_symmetry_space_group_name_H-M "P -4 M 2"
_symmetry_group_IT_number 115
_symmetry_cell_setting 'tetragonal'
loop_
_space_group_symop_operation_xyz
x,y,z
y,-x,-z
-x,-y,z
-y,x,-z
y,x,-z
-y,-x,-z
-x,y,z
x,-y,z
loop_
_atom_site_type_symbol
_atom_site_label
_atom_site_fract_x
_atom_site_fract_y
_atom_site_fract_z
Si Si1 0.833161 0.666746 0.225588
Si Si2 0.166163 0.331176 0.959780
Si Si3 0.658514 0.329529 0.314060
Si Si4 0.665979 0.330697 0.580420
Si Si5 0.165113 0.832954 0.133964
Si Si6 0.168280 0.831721 0.500000
O O1 0.796862 0.500000 0.218812
O O2 0.760120 0.731327 0.272755
O O3 0.775074 0.748241 0.179383
O O4 0.000000 0.695775 0.232121
O O5 0.193812 0.500000 0.956783
O O6 0.213584 0.260996 0.910389
O O7 0.000000 0.295592 0.970917
O O8 0.264938 0.264938 0.000000
O O9 0.500000 0.265600 0.305564
O O10 0.652759 0.500000 0.311665
O O11 0.713525 0.286704 0.366325
O O12 0.500000 0.290374 0.570792
O O13 0.688510 0.500000 0.572237
O O14 0.767303 0.241563 0.546310
O O15 0.000000 0.791593 0.122990
O O16 0.181285 0.000000 0.145131
O O17 0.000000 0.798924 0.497959
#
# Coordination Sequence:
#
# PCOD8309825 Si02
#       6
#     8   8   8   8   8   4
#     4   9  17  29  47  72  99 127 162 201 238 282
#     4  10  21  36  54  76 101 130 166 208 252 299
#     4   8  15  29  49  73  99 125 156 197 243 290
#     4   9  18  34  56  78  98 126 168 211 248 294
#     4   9  18  33  51  70  96 132 169 202 241 291
#     4  11  24  37  48  70 104 135 164 203 252 302
#
# _framework density 17.962240000000001
#
# number of rings (size 3 to 8) (size 9 to 14) (size 15 to 20)
#    0.000    2.818    0.000    2.182    0.000    5.455 
#    0.000    4.545    0.000    3.273    0.000    0.000 
#    0.000    0.000    0.000    0.000    0.000    0.000 
#
# Total GULP energy -545553.013499 kJ/mol
# GULP energy per Si atom -12398.932125 kJ/mol
# Density = 1.792136 g / cm^3
# Si number density = 17.962240 Si / 1000 Ang^3
#
#
#
# Elastic Constant Matrix: (Units=GPa)
#
#
# Indices 1 2 3 4 5 6 
#
# 1 69.4068 46.2556 75.6285 0.0000 0.0000 0.0000
# 2 46.2556 69.4072 75.6286 0.0000 0.0000 0.0000
# 3 75.6285 75.6286 187.5066 0.0000 0.0000 0.0000
# 4 0.0000 0.0000 0.0000 -3.4689 0.0000 0.0000
# 5 0.0000 0.0000 0.0000 0.0000 -3.4426 0.0000
# 6 0.0000 0.0000 0.0000 0.0000 0.0000 22.4127
#
#
#
# Elastic Compliance Matrix: (Units=1/GPa)
#
#
# Indices 1 2 3 4 5 6 
#
# 1 0.030745 -0.012449 -0.007380 0.000000 0.000000 0.000000
# 2 -0.012449 0.030745 -0.007380 0.000000 0.000000 0.000000
# 3 -0.007380 -0.007380 0.011286 0.000000 0.000000 0.000000
# 4 0.000000 0.000000 0.000000 -0.288277 0.000000 0.000000
# 5 0.000000 0.000000 0.000000 0.000000 -0.290478 0.000000
# 6 0.000000 0.000000 0.000000 0.000000 0.000000 0.044618
#
#
# Mechanical properties :
#
#
# Convention : Reuss Voigt Hill
#
# Bulk Modulus (GPa) = 54.46459 80.14954 67.30707
# Shear Modulus (GPa) = -12.47429 11.68742 -0.39344
#
# Velocity S-wave (km/s) = -2.63814 2.55358 -0.46852
# Velocity P-wave (km/s) = 4.59432 7.30838 6.10410
#
# Compressibility (1/GPa) = 0.01836055
#
# Stress axis : x y z
#
# Youngs Moduli (GPa) = 32.52513 32.52541 88.60379
#
# Poissons Ratio (x) = 0.40490 0.65388
# Poissons Ratio (y) = 0.40490 0.65387
# Poissons Ratio (z) = 0.24003 0.24003
#
# Static dielectric constant tensor:
#      x y z
#    x 3.234390 0.000000 0.000000 
#    y 0.000000 3.234380 0.000000 
#    z 0.000000 0.000000 3.631980 
# 
# 
# High freq. dielectric constant tensor:
#      x y z
#    x 1.679940 0.000000 0.000000 
#    y 0.000000 1.679940 0.000000 
#    z 0.000000 0.000000 1.711100 
# 
# From -- ./inp_files/5713.got.cif
#   From: 2010.03.12/outbox.cif.g09.slc.cpg/sg115_3_cif.got.tgz:5713.got - 2010.04.14 02:11:21.
