data_PCOD8309002
_publ_section_title
;
Structure prediction by ZEFSAII (Michael W. Deem and Ramdas Pophale) SiO2 
 PCOD8309002
Probable space group: P -4 21 C
;
_chemical_formula_sum "Si O2"
_cell_formula_units_Z 34
_cell_length_a 8.934273
_cell_length_b 8.934273
_cell_length_c 19.623901
_cell_angle_alpha 90.000000
_cell_angle_beta 90.000000
_cell_angle_gamma 90.000000
_cell_volume 1566.403994
_symmetry_space_group_name_H-M "P -4 21 C"
_symmetry_group_IT_number 114
_symmetry_cell_setting 'tetragonal'
loop_
_space_group_symop_operation_xyz
x,y,z
y,-x,-z
-x,-y,z
-y,x,-z
1/2+x,1/2-y,1/2-z
1/2-x,1/2+y,1/2-z
1/2-y,1/2-x,1/2+z
1/2+y,1/2+x,1/2+z
loop_
_atom_site_type_symbol
_atom_site_label
_atom_site_fract_x
_atom_site_fract_y
_atom_site_fract_z
Si Si1 0.786785 0.131837 0.202229
Si Si2 0.203032 0.246669 0.438261
Si Si3 0.628047 0.300475 0.316330
Si Si4 0.000000 0.000000 0.500000
Si Si5 0.839210 0.531810 0.552097
O O1 0.696631 0.214841 0.141683
O O2 0.706019 0.171011 0.272623
O O3 0.956701 0.186714 0.206439
O O4 0.780638 0.953809 0.192233
O O5 0.374860 0.240826 0.462902
O O6 0.132210 0.380926 0.481813
O O7 0.112094 0.093292 0.451387
O O8 0.633931 0.255864 0.395854
O O9 0.000000 0.500000 0.586502
#
# Coordination Sequence:
#
# PCOD8309002 Si02
#       5
#     8   8   8   2   8
#     4  10  24  44  65  97 129 173 222 267 327 391
#     4  11  24  43  67  98 129 174 219 272 328 394
#     4  10  24  42  67  94 132 173 217 273 324 391
#     4  12  24  40  64 100 136 160 216 286 328 380
#     4  11  23  43  68  95 134 173 220 271 335 391
#
# _framework density 21.705765
#
# number of rings (size 3 to 8) (size 9 to 14) (size 15 to 20)
#    0.000    1.412    2.353    1.412    6.588    6.118 
#    4.235    0.000    0.000    0.000    0.000    0.000 
#    0.000    0.000    0.000    0.000    0.000    0.000 
#
# Total GULP energy -421768.200679 kJ/mol
# GULP energy per Si atom -12404.947079 kJ/mol
# Density = 2.165636 g / cm^3
# Si number density = 21.705765 Si / 1000 Ang^3
#
#
#
# Elastic Constant Matrix: (Units=GPa)
#
#
# Indices 1 2 3 4 5 6 
#
# 1 96.6818 31.3894 47.5776 0.0000 0.0000 0.0000
# 2 31.3894 96.6818 47.5776 0.0000 0.0000 0.0000
# 3 47.5776 47.5776 92.7788 0.0000 0.0000 0.0000
# 4 0.0000 0.0000 0.0000 33.9758 0.0000 0.0000
# 5 0.0000 0.0000 0.0000 0.0000 33.9758 0.0000
# 6 0.0000 0.0000 0.0000 0.0000 0.0000 39.6673
#
#
#
# Elastic Compliance Matrix: (Units=1/GPa)
#
#
# Indices 1 2 3 4 5 6 
#
# 1 0.013965 -0.001351 -0.006469 0.000000 0.000000 0.000000
# 2 -0.001351 0.013965 -0.006469 0.000000 0.000000 0.000000
# 3 -0.006469 -0.006469 0.017413 0.000000 0.000000 0.000000
# 4 0.000000 0.000000 0.000000 0.029433 0.000000 0.000000
# 5 0.000000 0.000000 0.000000 0.000000 0.029433 0.000000
# 6 0.000000 0.000000 0.000000 0.000000 0.000000 0.025210
#
#
# Mechanical properties :
#
#
# Convention : Reuss Voigt Hill
#
# Bulk Modulus (GPa) = 59.64262 59.91459 59.77861
# Shear Modulus (GPa) = 30.56554 32.16363 31.36458
#
# Velocity S-wave (km/s) = 3.75664 3.85359 3.80542
# Velocity P-wave (km/s) = 6.80837 6.88936 6.84898
#
# Compressibility (1/GPa) = 0.01676653
#
# Stress axis : x y z
#
# Youngs Moduli (GPa) = 71.60751 71.60751 57.42935
#
# Poissons Ratio (x) = 0.09672 0.37149
# Poissons Ratio (y) = 0.09672 0.37149
# Poissons Ratio (z) = 0.46321 0.46321
#
# Static dielectric constant tensor:
#      x y z
#    x 3.923110 0.000000 0.000000 
#    y 0.000000 3.923110 0.000000 
#    z 0.000000 0.000000 3.677510 
# 
# 
# High freq. dielectric constant tensor:
#      x y z
#    x 1.858080 0.000000 0.000000 
#    y 0.000000 1.858080 0.000000 
#    z 0.000000 0.000000 1.845260 
# 
# From -- ./inp_files/2932.got.cif
#   From: 2010.03.12/outbox.cif.g09.slc.cpg/sg114_2_cif.got.tgz:2932.got - 2010.04.14 02:08:34.
