data_PCOD8309608
_publ_section_title
;
Structure prediction by ZEFSAII (Michael W. Deem and Ramdas Pophale) SiO2 
 PCOD8309608
Probable space group: P -4 M 2
;
_chemical_formula_sum "Si O2"
_cell_formula_units_Z 40
_cell_length_a 9.072064
_cell_length_b 9.072064
_cell_length_c 25.955261
_cell_angle_alpha 90.000000
_cell_angle_beta 90.000000
_cell_angle_gamma 90.000000
_cell_volume 2136.178851
_symmetry_space_group_name_H-M "P -4 M 2"
_symmetry_group_IT_number 115
_symmetry_cell_setting 'tetragonal'
loop_
_space_group_symop_operation_xyz
x,y,z
y,-x,-z
-x,-y,z
-y,x,-z
y,x,-z
-y,-x,-z
-x,y,z
x,-y,z
loop_
_atom_site_type_symbol
_atom_site_label
_atom_site_fract_x
_atom_site_fract_y
_atom_site_fract_z
Si Si1 0.669690 0.173115 0.397821
Si Si2 0.328721 0.671280 0.500000
Si Si3 0.175806 0.833723 0.703304
Si Si4 0.327846 0.327846 0.000000
Si Si5 0.665701 0.175056 0.196936
Si Si6 0.170979 0.826390 0.906442
O O1 0.500000 0.216769 0.389141
O O2 0.733208 0.247032 0.449523
O O3 0.759588 0.234737 0.349046
O O4 0.690293 0.000000 0.403841
O O5 0.500000 0.705109 0.507281
O O6 0.239346 0.744452 0.752174
O O7 0.000000 0.830374 0.704244
O O8 0.235499 0.000000 0.706125
O O9 0.240990 0.271143 0.049389
O O10 0.295549 0.500000 0.992329
O O11 0.500000 0.238659 0.193676
O O12 0.756820 0.225625 0.147111
O O13 0.662122 0.000000 0.200118
O O14 0.000000 0.788591 0.917535
O O15 0.196158 0.000000 0.903702
#
# Coordination Sequence:
#
# PCOD8309608 Si02
#       6
#     8   4   8   4   8   8
#     4   9  17  29  45  65  89 118 153 193 238 288
#     4   9  18  32  48  65  88 120 156 193 236 288
#     4   9  16  26  42  67  98 128 159 199 245 290
#     4  11  24  39  54  74 102 137 174 209 250 304
#     4   9  16  27  46  72 102 135 168 203 246 296
#     4  10  20  34  54  80 106 132 167 212 258 302
#
# _framework density 18.725024000000001
#
# number of rings (size 3 to 8) (size 9 to 14) (size 15 to 20)
#    0.000    2.600    0.000    2.400    0.000    8.800 
#    0.000    0.000    0.000    1.200    0.000    2.800 
#    0.000    0.000    0.000    0.000    0.000    0.000 
#
# Total GULP energy -496034.873119 kJ/mol
# GULP energy per Si atom -12400.871828 kJ/mol
# Density = 1.868240 g / cm^3
# Si number density = 18.725024 Si / 1000 Ang^3
#
#
#
# Elastic Constant Matrix: (Units=GPa)
#
#
# Indices 1 2 3 4 5 6 
#
# 1 73.3402 32.6469 59.7997 0.0000 0.0000 0.0000
# 2 32.6469 73.3399 59.7998 0.0000 0.0000 0.0000
# 3 59.7997 59.7998 187.6499 0.0000 0.0000 0.0000
# 4 0.0000 0.0000 0.0000 5.3248 0.0000 0.0000
# 5 0.0000 0.0000 0.0000 0.0000 5.3217 0.0000
# 6 0.0000 0.0000 0.0000 0.0000 0.0000 16.9391
#
#
#
# Elastic Compliance Matrix: (Units=1/GPa)
#
#
# Indices 1 2 3 4 5 6 
#
# 1 0.019654 -0.004920 -0.004695 0.000000 0.000000 0.000000
# 2 -0.004920 0.019654 -0.004695 0.000000 0.000000 0.000000
# 3 -0.004695 -0.004695 0.008322 0.000000 0.000000 0.000000
# 4 0.000000 0.000000 0.000000 0.187800 0.000000 0.000000
# 5 0.000000 0.000000 0.000000 0.000000 0.187909 0.000000
# 6 0.000000 0.000000 0.000000 0.000000 0.000000 0.059035
#
#
# Mechanical properties :
#
#
# Convention : Reuss Voigt Hill
#
# Bulk Modulus (GPa) = 52.61074 70.98030 61.79552
# Shear Modulus (GPa) = 9.66500 17.65604 13.66052
#
# Velocity S-wave (km/s) = 2.27437 3.07402 2.70392
# Velocity P-wave (km/s) = 5.92068 7.11255 6.54381
#
# Compressibility (1/GPa) = 0.01900753
#
# Stress axis : x y z
#
# Youngs Moduli (GPa) = 50.88106 50.88072 120.16969
#
# Poissons Ratio (x) = 0.25035 0.56421
# Poissons Ratio (y) = 0.25036 0.56422
# Poissons Ratio (z) = 0.23889 0.23890
#
# Static dielectric constant tensor:
#      x y z
#    x 3.272570 0.000000 0.000000 
#    y 0.000000 3.272580 0.000000 
#    z 0.000000 0.000000 3.747440 
# 
# 
# High freq. dielectric constant tensor:
#      x y z
#    x 1.704170 0.000000 0.000000 
#    y 0.000000 1.704170 0.000000 
#    z 0.000000 0.000000 1.746680 
# 
# From -- ./inp_files/5528.got.cif
#   From: 2010.03.12/outbox.cif.g09.slc.cpg/sg115_3_cif.got.tgz:5528.got - 2010.04.14 02:11:21.
