data_PCOD8309596
_publ_section_title
;
Structure prediction by ZEFSAII (Michael W. Deem and Ramdas Pophale) SiO2 
 PCOD8309596
Probable space group: P -4 M 2
;
_chemical_formula_sum "Si O2"
_cell_formula_units_Z 28
_cell_length_a 9.076252
_cell_length_b 9.076252
_cell_length_c 18.188391
_cell_angle_alpha 90.000000
_cell_angle_beta 90.000000
_cell_angle_gamma 90.000000
_cell_volume 1498.329646
_symmetry_space_group_name_H-M "P -4 M 2"
_symmetry_group_IT_number 115
_symmetry_cell_setting 'tetragonal'
loop_
_space_group_symop_operation_xyz
x,y,z
y,-x,-z
-x,-y,z
-y,x,-z
y,x,-z
-y,-x,-z
-x,y,z
x,-y,z
loop_
_atom_site_type_symbol
_atom_site_label
_atom_site_fract_x
_atom_site_fract_y
_atom_site_fract_z
Si Si1 0.824166 0.164420 0.580402
Si Si2 0.826631 0.829194 0.133349
Si Si3 0.824952 0.335449 0.720266
Si Si4 0.671977 0.671977 0.000000
O O1 0.774757 0.225244 0.500000
O O2 0.760048 0.267742 0.644803
O O3 0.000000 0.159958 0.582377
O O4 0.762108 0.000000 0.593475
O O5 0.762678 0.774090 0.211014
O O6 0.755914 0.730078 0.070968
O O7 0.000000 0.803969 0.134167
O O8 0.787269 0.000000 0.118533
O O9 0.761846 0.500000 0.729821
O O10 0.000000 0.337416 0.715740
O O11 0.704862 0.500000 0.990364
#
# Coordination Sequence:
#
# PCOD8309596 Si02
#       4
#     8   8   8   4
#     4   8  13  22  38  61  89 122 162 207 251 294
#     4  10  20  34  54  79 104 131 167 210 253 298
#     4   9  16  26  43  69 100 131 163 203 251 299
#     4  11  24  39  54  74 102 135 168 203 248 302
#
# _framework density 18.687474999999999
#
# number of rings (size 3 to 8) (size 9 to 14) (size 15 to 20)
#    0.000    2.714    0.000    3.429    0.000    8.000 
#    0.000    0.000    0.000    1.714    0.000    4.000 
#    0.000    0.000    0.000    0.000    0.000    0.000 
#
# Total GULP energy -347133.078407 kJ/mol
# GULP energy per Si atom -12397.609943 kJ/mol
# Density = 1.864494 g / cm^3
# Si number density = 18.687475 Si / 1000 Ang^3
#
#
#
# Elastic Constant Matrix: (Units=GPa)
#
#
# Indices 1 2 3 4 5 6 
#
# 1 70.3386 33.2396 53.1873 0.0000 0.0000 0.0000
# 2 33.2396 70.3384 53.1872 0.0000 0.0000 0.0000
# 3 53.1873 53.1872 172.5880 0.0000 0.0000 0.0000
# 4 0.0000 0.0000 0.0000 -2.7586 0.0000 0.0000
# 5 0.0000 0.0000 0.0000 0.0000 -2.7586 0.0000
# 6 0.0000 0.0000 0.0000 0.0000 0.0000 16.9085
#
#
#
# Elastic Compliance Matrix: (Units=1/GPa)
#
#
# Indices 1 2 3 4 5 6 
#
# 1 0.020540 -0.006415 -0.004353 0.000000 0.000000 0.000000
# 2 -0.006415 0.020540 -0.004353 0.000000 0.000000 0.000000
# 3 -0.004353 -0.004353 0.008477 0.000000 0.000000 0.000000
# 4 0.000000 0.000000 0.000000 -0.362498 0.000000 0.000000
# 5 0.000000 0.000000 0.000000 0.000000 -0.362498 0.000000
# 6 0.000000 0.000000 0.000000 0.000000 0.000000 0.059142
#
#
# Mechanical properties :
#
#
# Convention : Reuss Voigt Hill
#
# Bulk Modulus (GPa) = 51.77251 65.83259 58.80255
# Shear Modulus (GPa) = -8.62640 13.85497 2.61429
#
# Velocity S-wave (km/s) = -2.15085 2.72583 1.18406
# Velocity P-wave (km/s) = 4.64718 6.72395 5.77961
#
# Compressibility (1/GPa) = 0.01931527
#
# Stress axis : x y z
#
# Youngs Moduli (GPa) = 48.68554 48.68536 117.96490
#
# Poissons Ratio (x) = 0.31232 0.51350
# Poissons Ratio (y) = 0.31232 0.51350
# Poissons Ratio (z) = 0.21193 0.21193
#
# Static dielectric constant tensor:
#      x y z
#    x 3.244380 0.000000 0.000000 
#    y 0.000000 3.244380 0.000000 
#    z 0.000000 0.000000 3.814090 
# 
# 
# High freq. dielectric constant tensor:
#      x y z
#    x 1.694030 0.000000 0.000000 
#    y 0.000000 1.694030 0.000000 
#    z 0.000000 0.000000 1.747860 
# 
# From -- ./inp_files/4012.got.cif
#   From: 2010.03.12/outbox.cif.g09.slc.cpg/sg115_3_cif.got.tgz:4012.got - 2010.04.14 02:11:21.
