data_PCOD8309836
_publ_section_title
;
Structure prediction by ZEFSAII (Michael W. Deem and Ramdas Pophale) SiO2 
 PCOD8309836
Probable space group: P -4 M 2
;
_chemical_formula_sum "Si O2"
_cell_formula_units_Z 48
_cell_length_a 9.278716
_cell_length_b 9.278716
_cell_length_c 31.034691
_cell_angle_alpha 90.000000
_cell_angle_beta 90.000000
_cell_angle_gamma 90.000000
_cell_volume 2671.918396
_symmetry_space_group_name_H-M "P -4 M 2"
_symmetry_group_IT_number 115
_symmetry_cell_setting 'tetragonal'
loop_
_space_group_symop_operation_xyz
x,y,z
y,-x,-z
-x,-y,z
-y,x,-z
y,x,-z
-y,-x,-z
-x,y,z
x,-y,z
loop_
_atom_site_type_symbol
_atom_site_label
_atom_site_fract_x
_atom_site_fract_y
_atom_site_fract_z
Si Si1 0.171845 0.839211 0.952738
Si Si2 0.833754 0.669224 0.536710
Si Si3 0.833486 0.167071 0.377240
Si Si4 0.171381 0.337343 0.294230
Si Si5 0.661886 0.171670 0.127635
Si Si6 0.168215 0.832474 0.211144
O O1 0.234268 0.735722 0.915596
O O2 0.000000 0.844238 0.951297
O O3 0.232902 0.000000 0.944699
O O4 0.219284 0.780717 0.000000
O O5 0.733692 0.733692 0.500000
O O6 0.806521 0.500000 0.540014
O O7 0.787583 0.740501 0.581633
O O8 0.000000 0.705129 0.526074
O O9 0.772618 0.257837 0.337061
O O10 0.000000 0.203392 0.387114
O O11 0.813831 0.000000 0.365625
O O12 0.230883 0.500000 0.293886
O O13 0.228760 0.254693 0.252095
O O14 0.000000 0.333480 0.294013
O O15 0.500000 0.231908 0.130002
O O16 0.748560 0.225972 0.169323
O O17 0.663879 0.000000 0.126210
O O18 0.000000 0.804269 0.203247
O O19 0.199308 0.000000 0.219757
#
# Coordination Sequence:
#
# PCOD8309836 Si02
#       6
#     8   8   8   8   8   8
#     4   8  13  22  38  60  84 110 142 180 221 265
#     4  10  21  36  54  77 104 134 168 205 245 289
#     4   9  17  31  52  75  98 125 158 196 238 284
#     4   9  17  29  47  71  95 119 152 194 234 272
#     4   9  16  25  39  62  90 116 144 182 225 265
#     4   9  16  27  45  67  90 117 149 184 224 271
#
# _framework density 17.964618999999999
#
# number of rings (size 3 to 8) (size 9 to 14) (size 15 to 20)
#    0.000    3.000    0.000    2.000    0.000    5.667 
#    0.000    2.500    0.000    6.500    0.000    4.667 
#    0.000    0.000    0.000    0.000    0.000    0.000 
#
# Total GULP energy -595137.532993 kJ/mol
# GULP energy per Si atom -12398.698604 kJ/mol
# Density = 1.792373 g / cm^3
# Si number density = 17.964619 Si / 1000 Ang^3
#
#
#
# Elastic Constant Matrix: (Units=GPa)
#
#
# Indices 1 2 3 4 5 6 
#
# 1 70.2941 32.9549 71.2498 0.0000 0.0000 0.0000
# 2 32.9549 70.2942 71.2499 0.0000 0.0000 0.0000
# 3 71.2498 71.2499 195.9976 0.0000 0.0000 0.0000
# 4 0.0000 0.0000 0.0000 4.0403 0.0000 0.0000
# 5 0.0000 0.0000 0.0000 0.0000 4.0403 0.0000
# 6 0.0000 0.0000 0.0000 0.0000 0.0000 11.2072
#
#
#
# Elastic Compliance Matrix: (Units=1/GPa)
#
#
# Indices 1 2 3 4 5 6 
#
# 1 0.023110 -0.003672 -0.007066 0.000000 0.000000 0.000000
# 2 -0.003672 0.023109 -0.007066 0.000000 0.000000 0.000000
# 3 -0.007066 -0.007066 0.010239 0.000000 0.000000 0.000000
# 4 0.000000 0.000000 0.000000 0.247505 0.000000 0.000000
# 5 0.000000 0.000000 0.000000 0.000000 0.247507 0.000000
# 6 0.000000 0.000000 0.000000 0.000000 0.000000 0.089229
#
#
# Mechanical properties :
#
#
# Convention : Reuss Voigt Hill
#
# Bulk Modulus (GPa) = 47.96069 76.38836 62.17452
# Shear Modulus (GPa) = 7.31789 14.59964 10.95876
#
# Velocity S-wave (km/s) = 2.02048 2.85386 2.47254
# Velocity P-wave (km/s) = 5.67436 7.31254 6.54491
#
# Compressibility (1/GPa) = 0.02085041
#
# Stress axis : x y z
#
# Youngs Moduli (GPa) = 43.27224 43.27235 97.66174
#
# Poissons Ratio (x) = 0.15890 0.69008
# Poissons Ratio (y) = 0.15890 0.69008
# Poissons Ratio (z) = 0.30576 0.30576
#
# Static dielectric constant tensor:
#      x y z
#    x 3.099020 0.000000 0.000000 
#    y 0.000000 3.099020 0.000000 
#    z 0.000000 0.000000 3.593900 
# 
# 
# High freq. dielectric constant tensor:
#      x y z
#    x 1.662880 0.000000 0.000000 
#    y 0.000000 1.662880 0.000000 
#    z 0.000000 0.000000 1.713310 
# 
# From -- ./inp_files/6068.got.cif
#   From: 2010.03.12/outbox.cif.g09.slc.cpg/sg115_4_cif.got.tgz:6068.got - 2010.04.14 02:11:21.
