data_PCOD8309467
_publ_section_title
;
Structure prediction by ZEFSAII (Michael W. Deem and Ramdas Pophale) SiO2 
 PCOD8309467
Probable space group: P -4 M 2
;
_chemical_formula_sum "Si O2"
_cell_formula_units_Z 37
_cell_length_a 7.741830
_cell_length_b 7.741830
_cell_length_c 30.063097
_cell_angle_alpha 90.000000
_cell_angle_beta 90.000000
_cell_angle_gamma 90.000000
_cell_volume 1801.859730
_symmetry_space_group_name_H-M "P -4 M 2"
_symmetry_group_IT_number 115
_symmetry_cell_setting 'tetragonal'
loop_
_space_group_symop_operation_xyz
x,y,z
y,-x,-z
-x,-y,z
-y,x,-z
y,x,-z
-y,-x,-z
-x,y,z
x,-y,z
loop_
_atom_site_type_symbol
_atom_site_label
_atom_site_fract_x
_atom_site_fract_y
_atom_site_fract_z
Si Si1 0.704333 0.000000 0.570838
Si Si2 0.701833 0.694370 0.636063
Si Si3 0.798215 0.000000 0.788778
Si Si4 0.311278 0.197932 0.266657
Si Si5 0.000000 0.000000 0.500000
Si Si6 0.000000 0.295081 0.109198
Si Si7 0.308755 0.704795 0.049647
O O1 0.756667 0.171072 0.598238
O O2 0.822307 0.000000 0.527478
O O3 0.500000 0.000000 0.558345
O O4 0.500000 0.704689 0.644687
O O5 0.757890 0.500000 0.621547
O O6 0.790901 0.748824 0.682169
O O7 0.713493 0.170191 0.765934
O O8 0.767369 0.000000 0.840761
O O9 0.000000 0.000000 0.777666
O O10 0.500000 0.288559 0.260662
O O11 0.329273 0.000000 0.253033
O O12 0.170951 0.220415 0.084904
O O13 0.000000 0.500000 0.106648
O O14 0.500000 0.782670 0.059684
O O15 0.319312 0.500000 0.052961
O O16 0.245651 0.754350 0.000000
#
# Coordination Sequence:
#
# PCOD8309467 Si02
#       7
#     4   8   4   8   1   4   8
#     4  10  23  41  57  83 119 148 187 241 283 330
#     4   9  18  34  58  86 112 140 181 235 286 323
#     4  10  21  35  46  66 110 146 169 210 263 314
#     4   9  18  32  52  77 104 142 183 218 262 319
#     4  12  28  40  60  88 112 160 204 220 280 360
#     4  10  20  33  51  75  98 129 176 211 253 326
#     4   8  15  31  53  73  96 124 158 212 271 315
#
# _framework density 20.53434
#
# number of rings (size 3 to 8) (size 9 to 14) (size 15 to 20)
#    0.000    2.811    0.000    1.297    1.514    2.595 
#    1.946    0.000    0.000    0.000    0.000    0.000 
#    0.000    0.000    0.000    0.000    0.000    0.000 
#
# Total GULP energy -458591.933454 kJ/mol
# GULP energy per Si atom -12394.376580 kJ/mol
# Density = 2.048760 g / cm^3
# Si number density = 20.534340 Si / 1000 Ang^3
#
#
#
# Elastic Constant Matrix: (Units=GPa)
#
#
# Indices 1 2 3 4 5 6 
#
# 1 89.9249 34.9651 66.9875 0.0000 0.0000 0.0000
# 2 34.9651 89.9247 66.9874 0.0000 0.0000 0.0000
# 3 66.9875 66.9874 155.5978 0.0000 0.0000 0.0000
# 4 0.0000 0.0000 0.0000 33.3126 0.0000 0.0000
# 5 0.0000 0.0000 0.0000 0.0000 33.3127 0.0000
# 6 0.0000 0.0000 0.0000 0.0000 0.0000 4.0530
#
#
#
# Elastic Compliance Matrix: (Units=1/GPa)
#
#
# Indices 1 2 3 4 5 6 
#
# 1 0.016537 -0.001658 -0.006405 0.000000 0.000000 0.000000
# 2 -0.001658 0.016537 -0.006405 0.000000 0.000000 0.000000
# 3 -0.006405 -0.006405 0.011942 0.000000 0.000000 0.000000
# 4 0.000000 0.000000 0.000000 0.030019 0.000000 0.000000
# 5 0.000000 0.000000 0.000000 0.000000 0.030019 0.000000
# 6 0.000000 0.000000 0.000000 0.000000 0.000000 0.246730
#
#
# Mechanical properties :
#
#
# Convention : Reuss Voigt Hill
#
# Bulk Modulus (GPa) = 62.19950 74.81416 68.50683
# Shear Modulus (GPa) = 12.95067 25.23616 19.09342
#
# Velocity S-wave (km/s) = 2.51407 3.50948 3.05262
# Velocity P-wave (km/s) = 6.22765 7.27562 6.77194
#
# Compressibility (1/GPa) = 0.01607730
#
# Stress axis : x y z
#
# Youngs Moduli (GPa) = 60.47134 60.47121 83.73739
#
# Poissons Ratio (x) = 0.10028 0.53637
# Poissons Ratio (y) = 0.10028 0.53637
# Poissons Ratio (z) = 0.38734 0.38734
#
# Static dielectric constant tensor:
#      x y z
#    x 3.905630 0.000000 0.000000 
#    y 0.000000 3.905640 0.000000 
#    z 0.000000 0.000000 3.596460 
# 
# 
# High freq. dielectric constant tensor:
#      x y z
#    x 1.798610 0.000000 0.000000 
#    y 0.000000 1.798610 0.000000 
#    z 0.000000 0.000000 1.784120 
# 
# From -- ./inp_files/5230.got.cif
#   From: 2010.03.12/outbox.cif.g09.slc.cpg/sg115_3_cif.got.tgz:5230.got - 2010.04.14 02:11:21.
