data_PCOD8309115
_publ_section_title
;
Structure prediction by ZEFSAII (Michael W. Deem and Ramdas Pophale) SiO2 
 PCOD8309115
Probable space group: P -4 21 C
;
_chemical_formula_sum "Si O2"
_cell_formula_units_Z 38
_cell_length_a 8.521997
_cell_length_b 8.521997
_cell_length_c 22.752537
_cell_angle_alpha 90.000000
_cell_angle_beta 90.000000
_cell_angle_gamma 90.000000
_cell_volume 1652.390096
_symmetry_space_group_name_H-M "P -4 21 C"
_symmetry_group_IT_number 114
_symmetry_cell_setting 'tetragonal'
loop_
_space_group_symop_operation_xyz
x,y,z
y,-x,-z
-x,-y,z
-y,x,-z
1/2+x,1/2-y,1/2-z
1/2-x,1/2+y,1/2-z
1/2-y,1/2-x,1/2+z
1/2+y,1/2+x,1/2+z
loop_
_atom_site_type_symbol
_atom_site_label
_atom_site_fract_x
_atom_site_fract_y
_atom_site_fract_z
Si Si1 0.518208 0.171269 0.573517
Si Si2 0.787948 0.339162 0.034475
Si Si3 0.500000 0.000000 0.871627
Si Si4 0.257860 0.920268 0.777578
Si Si5 0.444324 0.723354 0.697834
Si Si6 0.000000 0.000000 0.500000
O O1 0.380354 0.190820 0.526213
O O2 0.681554 0.188953 0.540660
O O3 0.523931 0.291786 0.627844
O O4 0.500000 0.000000 0.601709
O O5 0.899534 0.382021 0.088363
O O6 0.661643 0.480662 0.035915
O O7 0.381352 0.897386 0.831414
O O8 0.362285 0.886260 0.718795
O O9 0.118538 0.791566 0.775723
O O10 0.174092 0.088509 0.779491
#
# Coordination Sequence:
#
# PCOD8309115 Si02
#       6
#     8   8   4   8   8   2
#     4  12  27  45  75 111 151 193 252 313 376 453
#     4  12  26  47  74 107 154 198 249 314 383 455
#     4  12  24  48  72 108 150 200 248 318 378 466
#     4  11  26  48  73 104 149 192 259 306 381 450
#     4  11  27  47  73 109 145 206 249 317 372 458
#     4  12  24  48  68 108 144 200 248 300 388 458
#
# _framework density 22.996988999999999
#
# number of rings (size 3 to 8) (size 9 to 14) (size 15 to 20)
#    0.000    0.421    5.263    1.263   10.316    0.421 
#    0.000    0.000    0.000    0.000    0.000    0.000 
#    0.000    0.000    0.000    0.000    0.000    0.000 
#
# Total GULP energy -470774.427132 kJ/mol
# GULP energy per Si atom -12388.800714 kJ/mol
# Density = 2.294465 g / cm^3
# Si number density = 22.996989 Si / 1000 Ang^3
#
#
#
# Elastic Constant Matrix: (Units=GPa)
#
#
# Indices 1 2 3 4 5 6 
#
# 1 120.3506 51.7648 50.3460 0.0000 0.0000 0.0000
# 2 51.7648 120.3506 50.3460 0.0000 0.0000 0.0000
# 3 50.3460 50.3460 131.4414 0.0000 0.0000 0.0000
# 4 0.0000 0.0000 0.0000 17.4010 0.0000 0.0000
# 5 0.0000 0.0000 0.0000 0.0000 17.4010 0.0000
# 6 0.0000 0.0000 0.0000 0.0000 0.0000 47.8216
#
#
#
# Elastic Compliance Matrix: (Units=1/GPa)
#
#
# Indices 1 2 3 4 5 6 
#
# 1 0.011034 -0.003546 -0.002868 0.000000 0.000000 0.000000
# 2 -0.003546 0.011034 -0.002868 0.000000 0.000000 0.000000
# 3 -0.002868 -0.002868 0.009805 0.000000 0.000000 0.000000
# 4 0.000000 0.000000 0.000000 0.057468 0.000000 0.000000
# 5 0.000000 0.000000 0.000000 0.000000 0.057468 0.000000
# 6 0.000000 0.000000 0.000000 0.000000 0.000000 0.020911
#
#
# Mechanical properties :
#
#
# Convention : Reuss Voigt Hill
#
# Bulk Modulus (GPa) = 75.13947 75.22846 75.18396
# Shear Modulus (GPa) = 26.21622 31.17043 28.69333
#
# Velocity S-wave (km/s) = 3.38003 3.68559 3.53611
# Velocity P-wave (km/s) = 6.92657 7.13405 7.03108
#
# Compressibility (1/GPa) = 0.01330858
#
# Stress axis : x y z
#
# Youngs Moduli (GPa) = 90.62797 90.62797 101.98774
#
# Poissons Ratio (x) = 0.32138 0.29251
# Poissons Ratio (y) = 0.32138 0.29251
# Poissons Ratio (z) = 0.25993 0.25993
#
# Static dielectric constant tensor:
#      x y z
#    x 4.297640 0.000000 0.000000 
#    y 0.000000 4.297640 0.000000 
#    z 0.000000 0.000000 3.954770 
# 
# 
# High freq. dielectric constant tensor:
#      x y z
#    x 1.921150 0.000000 0.000000 
#    y 0.000000 1.921150 0.000000 
#    z 0.000000 0.000000 1.898800 
# 
# From -- ./inp_files/3443.got.cif
#   From: 2010.03.12/outbox.cif.g09.slc.cpg/sg114_2_cif.got.tgz:3443.got - 2010.04.14 02:08:34.
