data_PCOD8309966
_publ_section_title
;
Structure prediction by ZEFSAII (Michael W. Deem and Ramdas Pophale) SiO2 
 PCOD8309966
Probable space group: P -4 M 2
;
_chemical_formula_sum "Si O2"
_cell_formula_units_Z 40
_cell_length_a 13.558891
_cell_length_b 13.558891
_cell_length_c 10.616022
_cell_angle_alpha 90.000000
_cell_angle_beta 90.000000
_cell_angle_gamma 90.000000
_cell_volume 1951.686908
_symmetry_space_group_name_H-M "P -4 M 2"
_symmetry_group_IT_number 115
_symmetry_cell_setting 'tetragonal'
loop_
_space_group_symop_operation_xyz
x,y,z
y,-x,-z
-x,-y,z
-y,x,-z
y,x,-z
-y,-x,-z
-x,y,z
x,-y,z
loop_
_atom_site_type_symbol
_atom_site_label
_atom_site_fract_x
_atom_site_fract_y
_atom_site_fract_z
Si Si1 0.388608 0.883663 0.250001
Si Si2 0.883862 0.729319 0.998802
Si Si3 0.277235 0.385905 0.110585
Si Si4 0.722766 0.385905 0.389415
Si Si5 0.270680 0.116138 0.498803
O O1 0.500000 0.838170 0.250000
O O2 0.325988 0.850444 0.129187
O O3 0.325989 0.850443 0.370815
O O4 0.398398 0.000000 0.250002
O O5 0.000000 0.733233 0.021383
O O6 0.841096 0.841096 0.000000
O O7 0.829674 0.667446 0.107608
O O8 0.258453 0.500000 0.088086
O O9 0.323614 0.366577 0.250000
O O10 0.348019 0.348019 0.000000
O O11 0.651982 0.348019 0.500000
O O12 0.741548 0.500000 0.411913
O O13 0.829675 0.332553 0.392391
O O14 0.158903 0.158903 0.500000
O O15 0.266767 0.000000 0.521382
#
# Coordination Sequence:
#
# PCOD8309966 Si02
#       5
#     8   8   8   8   8
#     4   9  18  36  61  87 116 157 207 253 301 361
#     4  10  22  38  60  91 125 162 206 254 305 364
#     4  10  23  41  62  92 126 162 205 253 309 368
#     4  10  23  41  62  92 126 162 205 253 309 368
#     4  10  22  38  60  91 125 162 206 254 305 364
#
# _framework density 20.495090999999999
#
# number of rings (size 3 to 8) (size 9 to 14) (size 15 to 20)
#    0.000    2.200    0.000    1.200   11.200    4.800 
#    0.000    4.000    0.000    3.600    0.000    0.000 
#    0.000    0.000    0.000    0.000    0.000    0.000 
#
# Total GULP energy -495745.766199 kJ/mol
# GULP energy per Si atom -12393.644155 kJ/mol
# Density = 2.044844 g / cm^3
# Si number density = 20.495091 Si / 1000 Ang^3
#
#
#
# Elastic Constant Matrix: (Units=GPa)
#
#
# Indices 1 2 3 4 5 6 
#
# 1 103.8655 65.5958 47.6916 0.0000 0.0000 0.0000
# 2 65.5958 103.8561 47.6877 0.0000 0.0000 0.0000
# 3 47.6916 47.6877 106.1044 0.0000 0.0000 0.0000
# 4 0.0000 0.0000 0.0000 28.1624 0.0000 0.0000
# 5 0.0000 0.0000 0.0000 0.0000 28.1624 0.0000
# 6 0.0000 0.0000 0.0000 0.0000 0.0000 23.7071
#
#
#
# Elastic Compliance Matrix: (Units=1/GPa)
#
#
# Indices 1 2 3 4 5 6 
#
# 1 0.017016 -0.009117 -0.003551 0.000000 0.000000 0.000000
# 2 -0.009117 0.017017 -0.003550 0.000000 0.000000 0.000000
# 3 -0.003551 -0.003550 0.012616 0.000000 0.000000 0.000000
# 4 0.000000 0.000000 0.000000 0.035508 0.000000 0.000000
# 5 0.000000 0.000000 0.000000 0.000000 0.035508 0.000000
# 6 0.000000 0.000000 0.000000 0.000000 0.000000 0.042181
#
#
# Mechanical properties :
#
#
# Convention : Reuss Voigt Hill
#
# Bulk Modulus (GPa) = 70.35625 70.64180 70.49902
# Shear Modulus (GPa) = 25.37791 26.19643 25.78717
#
# Velocity S-wave (km/s) = 3.52269 3.57904 3.55098
# Velocity P-wave (km/s) = 7.13783 7.18484 7.16137
#
# Compressibility (1/GPa) = 0.01421338
#
# Stress axis : x y z
#
# Youngs Moduli (GPa) = 58.76820 58.76401 79.26204
#
# Poissons Ratio (x) = 0.53575 0.28144
# Poissons Ratio (y) = 0.53579 0.28141
# Poissons Ratio (z) = 0.20867 0.20863
#
# Static dielectric constant tensor:
#      x y z
#    x 3.679080 0.000000 0.000000 
#    y 0.000000 3.679080 0.000000 
#    z 0.000000 0.000000 3.885200 
# 
# 
# High freq. dielectric constant tensor:
#      x y z
#    x 1.798810 0.000000 0.000000 
#    y 0.000000 1.798810 0.000000 
#    z 0.000000 0.000000 1.809350 
# 
# From -- ./inp_files/1617.got.cif
#   From: 2010.03.12/outbox.cif.g09.slc.cpg/sg115_1_cif.got.tgz:1617.got - 2010.04.14 02:11:21.
