data_PCOD8309573
_publ_section_title
;
Structure prediction by ZEFSAII (Michael W. Deem and Ramdas Pophale) SiO2 
 PCOD8309573
Probable space group: P -4 M 2
;
_chemical_formula_sum "Si O2"
_cell_formula_units_Z 48
_cell_length_a 9.120915
_cell_length_b 9.120915
_cell_length_c 30.675373
_cell_angle_alpha 90.000000
_cell_angle_beta 90.000000
_cell_angle_gamma 90.000000
_cell_volume 2551.917729
_symmetry_space_group_name_H-M "P -4 M 2"
_symmetry_group_IT_number 115
_symmetry_cell_setting 'tetragonal'
loop_
_space_group_symop_operation_xyz
x,y,z
y,-x,-z
-x,-y,z
-y,x,-z
y,x,-z
-y,-x,-z
-x,y,z
x,-y,z
loop_
_atom_site_type_symbol
_atom_site_label
_atom_site_fract_x
_atom_site_fract_y
_atom_site_fract_z
Si Si1 0.168030 0.172723 0.375527
Si Si2 0.671546 0.330156 0.297717
Si Si3 0.165178 0.825776 0.874764
Si Si4 0.330523 0.667776 0.550361
Si Si5 0.170462 0.329731 0.210328
Si Si6 0.830164 0.327591 0.038948
O O1 0.264100 0.238505 0.337099
O O2 0.223672 0.231497 0.421772
O O3 0.000000 0.220197 0.369067
O O4 0.186822 0.000000 0.375106
O O5 0.500000 0.301094 0.294872
O O6 0.708459 0.500000 0.305890
O O7 0.743287 0.275386 0.252803
O O8 0.241060 0.766048 0.830907
O O9 0.254361 0.770564 0.916735
O O10 0.000000 0.764607 0.877392
O O11 0.167709 0.000000 0.873626
O O12 0.298595 0.701406 0.500000
O O13 0.500000 0.696130 0.561576
O O14 0.289890 0.500000 0.561486
O O15 0.198414 0.500000 0.200818
O O16 0.000000 0.296473 0.218249
O O17 0.807278 0.500000 0.043150
O O18 0.000000 0.287298 0.030559
O O19 0.733451 0.266549 0.000000
#
# Coordination Sequence:
#
# PCOD8309573 Si02
#       6
#     8   8   8   8   8   8
#     4  11  24  38  53  78 111 144 179 221 267 314
#     4  10  21  37  57  80 106 139 180 222 264 314
#     4   9  17  30  51  78 105 135 173 217 263 311
#     4   9  19  37  60  84 109 139 177 219 263 315
#     4   9  17  31  52  77 105 137 173 214 262 316
#     4  10  20  34  53  77 105 138 177 219 263 313
#
# _framework density 18.809381999999999
#
# number of rings (size 3 to 8) (size 9 to 14) (size 15 to 20)
#    0.000    2.333    0.000    3.000    0.000    9.000 
#    0.000    5.000    0.000    3.000    0.000    0.000 
#    0.000    0.000    0.000    0.000    0.000    0.000 
#
# Total GULP energy -595353.864847 kJ/mol
# GULP energy per Si atom -12403.205518 kJ/mol
# Density = 1.876657 g / cm^3
# Si number density = 18.809382 Si / 1000 Ang^3
#
#
#
# Elastic Constant Matrix: (Units=GPa)
#
#
# Indices 1 2 3 4 5 6 
#
# 1 73.7146 41.0650 56.4611 0.0000 0.0000 0.0000
# 2 41.0650 73.7146 56.4612 0.0000 0.0000 0.0000
# 3 56.4611 56.4612 143.9346 0.0000 0.0000 0.0000
# 4 0.0000 0.0000 0.0000 29.3337 0.0000 0.0000
# 5 0.0000 0.0000 0.0000 0.0000 29.3334 0.0000
# 6 0.0000 0.0000 0.0000 0.0000 0.0000 25.2597
#
#
#
# Elastic Compliance Matrix: (Units=1/GPa)
#
#
# Indices 1 2 3 4 5 6 
#
# 1 0.022408 -0.008220 -0.005565 0.000000 0.000000 0.000000
# 2 -0.008220 0.022408 -0.005565 0.000000 0.000000 0.000000
# 3 -0.005565 -0.005565 0.011314 0.000000 0.000000 0.000000
# 4 0.000000 0.000000 0.000000 0.034090 0.000000 0.000000
# 5 0.000000 0.000000 0.000000 0.000000 0.034091 0.000000
# 6 0.000000 0.000000 0.000000 0.000000 0.000000 0.039589
#
#
# Mechanical properties :
#
#
# Convention : Reuss Voigt Hill
#
# Bulk Modulus (GPa) = 57.38006 66.59316 61.98661
# Shear Modulus (GPa) = 23.99103 25.94380 24.96741
#
# Velocity S-wave (km/s) = 3.57526 3.71792 3.64729
# Velocity P-wave (km/s) = 6.90041 7.34246 7.12486
#
# Compressibility (1/GPa) = 0.01742766
#
# Stress axis : x y z
#
# Youngs Moduli (GPa) = 44.62699 44.62692 88.38714
#
# Poissons Ratio (x) = 0.36685 0.49191
# Poissons Ratio (y) = 0.36685 0.49191
# Poissons Ratio (z) = 0.24837 0.24837
#
# Static dielectric constant tensor:
#      x y z
#    x 3.406080 0.000000 0.000000 
#    y 0.000000 3.406080 0.000000 
#    z 0.000000 0.000000 3.615120 
# 
# 
# High freq. dielectric constant tensor:
#      x y z
#    x 1.720520 0.000000 0.000000 
#    y 0.000000 1.720520 0.000000 
#    z 0.000000 0.000000 1.746850 
# 
# From -- ./inp_files/5986.got.cif
#   From: 2010.03.12/outbox.cif.g09.slc.cpg/sg115_3_cif.got.tgz:5986.got - 2010.04.14 02:11:21.
