data_PCOD8309495
_publ_section_title
;
Structure prediction by ZEFSAII (Michael W. Deem and Ramdas Pophale) SiO2 
 PCOD8309495
Probable space group: P -4 M 2
;
_chemical_formula_sum "Si O2"
_cell_formula_units_Z 40
_cell_length_a 9.115569
_cell_length_b 9.115569
_cell_length_c 25.849759
_cell_angle_alpha 90.000000
_cell_angle_beta 90.000000
_cell_angle_gamma 90.000000
_cell_volume 2147.949488
_symmetry_space_group_name_H-M "P -4 M 2"
_symmetry_group_IT_number 115
_symmetry_cell_setting 'tetragonal'
loop_
_space_group_symop_operation_xyz
x,y,z
y,-x,-z
-x,-y,z
-y,x,-z
y,x,-z
-y,-x,-z
-x,y,z
x,-y,z
loop_
_atom_site_type_symbol
_atom_site_label
_atom_site_fract_x
_atom_site_fract_y
_atom_site_fract_z
Si Si1 0.167733 0.326165 0.696389
Si Si2 0.334278 0.325175 0.797899
Si Si3 0.330208 0.828758 0.603841
Si Si4 0.329213 0.329213 0.000000
Si Si5 0.831111 0.168890 0.500000
Si Si6 0.674733 0.834463 0.101949
O O1 0.178803 0.500000 0.692923
O O2 0.249904 0.266846 0.747383
O O3 0.243216 0.260670 0.646346
O O4 0.000000 0.273466 0.699168
O O5 0.500000 0.264443 0.796894
O O6 0.333729 0.500000 0.799002
O O7 0.253159 0.262687 0.848688
O O8 0.500000 0.785383 0.606419
O O9 0.268828 0.783235 0.547965
O O10 0.304684 0.000000 0.613973
O O11 0.242616 0.269078 0.950268
O O12 0.299095 0.500000 0.009918
O O13 0.000000 0.195943 0.515326
O O14 0.500000 0.832357 0.103283
O O15 0.735032 0.000000 0.103817
#
# Coordination Sequence:
#
# PCOD8309495 Si02
#       6
#     8   8   8   4   4   8
#     4  10  20  33  51  76 105 137 173 212 254 302
#     4   9  16  27  45  70 100 131 163 204 253 300
#     4  10  21  36  54  77 105 136 170 209 254 304
#     4   9  16  26  42  65  90 116 150 193 240 288
#     4   9  18  34  54  73  96 130 170 209 250 299
#     4   9  16  26  42  65  93 124 158 197 242 293
#
# _framework density 18.622413000000002
#
# number of rings (size 3 to 8) (size 9 to 14) (size 15 to 20)
#    0.000    2.600    0.000    2.400    0.000    8.000 
#    0.000    2.000    0.000    1.500    0.000    2.800 
#    0.000    0.000    0.000    0.000    0.000    0.000 
#
# Total GULP energy -496059.660846 kJ/mol
# GULP energy per Si atom -12401.491521 kJ/mol
# Density = 1.858003 g / cm^3
# Si number density = 18.622413 Si / 1000 Ang^3
#
#
#
# Elastic Constant Matrix: (Units=GPa)
#
#
# Indices 1 2 3 4 5 6 
#
# 1 86.1537 33.5737 65.7028 0.0000 0.0000 0.0000
# 2 33.5737 86.1534 65.7033 0.0000 0.0000 0.0000
# 3 65.7028 65.7033 164.7255 0.0000 0.0000 0.0000
# 4 0.0000 0.0000 0.0000 6.1602 0.0000 0.0000
# 5 0.0000 0.0000 0.0000 0.0000 6.1581 0.0000
# 6 0.0000 0.0000 0.0000 0.0000 0.0000 17.9849
#
#
#
# Elastic Compliance Matrix: (Units=1/GPa)
#
#
# Indices 1 2 3 4 5 6 
#
# 1 0.016937 -0.002081 -0.005925 0.000000 0.000000 0.000000
# 2 -0.002081 0.016937 -0.005925 0.000000 0.000000 0.000000
# 3 -0.005925 -0.005925 0.010798 0.000000 0.000000 0.000000
# 4 0.000000 0.000000 0.000000 0.162333 0.000000 0.000000
# 5 0.000000 0.000000 0.000000 0.000000 0.162388 0.000000
# 6 0.000000 0.000000 0.000000 0.000000 0.000000 0.055602
#
#
# Mechanical properties :
#
#
# Convention : Reuss Voigt Hill
#
# Bulk Modulus (GPa) = 59.49768 74.11023 66.80396
# Shear Modulus (GPa) = 10.90602 17.53082 14.21842
#
# Velocity S-wave (km/s) = 2.42262 3.07152 2.76617
# Velocity P-wave (km/s) = 6.31224 7.24304 6.79360
#
# Compressibility (1/GPa) = 0.01680738
#
# Stress axis : x y z
#
# Youngs Moduli (GPa) = 59.04199 59.04125 92.61340
#
# Poissons Ratio (x) = 0.12289 0.54877
# Poissons Ratio (y) = 0.12289 0.54878
# Poissons Ratio (z) = 0.34984 0.34985
#
# Static dielectric constant tensor:
#      x y z
#    x 3.305050 0.000000 0.000000 
#    y 0.000000 3.305060 0.000000 
#    z 0.000000 0.000000 3.595450 
# 
# 
# High freq. dielectric constant tensor:
#      x y z
#    x 1.701610 0.000000 0.000000 
#    y 0.000000 1.701610 0.000000 
#    z 0.000000 0.000000 1.740390 
# 
# From -- ./inp_files/5512.got.cif
#   From: 2010.03.12/outbox.cif.g09.slc.cpg/sg115_3_cif.got.tgz:5512.got - 2010.04.14 02:11:21.
