data_PCOD8309202
_publ_section_title
;
Structure prediction by ZEFSAII (Michael W. Deem and Ramdas Pophale) SiO2 
 PCOD8309202
Probable space group: P -4 M 2
;
_chemical_formula_sum "Si O2"
_cell_formula_units_Z 33
_cell_length_a 11.435671
_cell_length_b 11.435671
_cell_length_c 15.316930
_cell_angle_alpha 90.000000
_cell_angle_beta 90.000000
_cell_angle_gamma 90.000000
_cell_volume 2003.064953
_symmetry_space_group_name_H-M "P -4 M 2"
_symmetry_group_IT_number 115
_symmetry_cell_setting 'tetragonal'
loop_
_space_group_symop_operation_xyz
x,y,z
y,-x,-z
-x,-y,z
-y,x,-z
y,x,-z
-y,-x,-z
-x,y,z
x,-y,z
loop_
_atom_site_type_symbol
_atom_site_label
_atom_site_fract_x
_atom_site_fract_y
_atom_site_fract_z
Si Si1 0.258408 0.000000 0.459917
Si Si2 0.754915 0.637592 0.266437
Si Si3 0.760273 0.363815 0.579803
Si Si4 0.630723 0.361074 0.095443
Si Si5 0.000000 0.362230 0.348091
Si Si6 0.000000 0.000000 0.500000
O O1 0.312040 0.110788 0.411862
O O2 0.288284 0.000000 0.563083
O O3 0.118887 0.000000 0.443177
O O4 0.738882 0.500000 0.273221
O O5 0.661028 0.693228 0.331219
O O6 0.721878 0.682680 0.169297
O O7 0.887108 0.673429 0.291089
O O8 0.694614 0.305387 0.500000
O O9 0.767014 0.500000 0.560802
O O10 0.500000 0.310506 0.113680
O O11 0.623017 0.500000 0.095084
O O12 0.678615 0.321386 0.000000
O O13 0.000000 0.500000 0.371616
#
# Coordination Sequence:
#
# PCOD8309202 Si02
#       6
#     4   8   8   8   4   1
#     4  12  22  38  52  71  97 134 179 218 255 293
#     4  10  19  31  49  73 100 131 171 211 251 310
#     4  12  23  34  50  72 103 136 167 209 257 304
#     4   8  14  26  45  69  96 124 157 204 260 314
#     4  10  18  32  48  67 100 135 168 212 258 296
#     4  12  20  36  60  68  84 128 186 220 232 288
#
# _framework density 16.474751999999999
#
# number of rings (size 3 to 8) (size 9 to 14) (size 15 to 20)
#    0.000    1.697    3.636    3.273    0.000    2.667 
#    0.000    0.000    0.000    1.455    0.000    5.091 
#    0.000    0.000    0.000    0.000    0.000    0.000 
#
# Total GULP energy -409139.624678 kJ/mol
# GULP energy per Si atom -12398.170445 kJ/mol
# Density = 1.643725 g / cm^3
# Si number density = 16.474752 Si / 1000 Ang^3
#
#
#
# Elastic Constant Matrix: (Units=GPa)
#
#
# Indices 1 2 3 4 5 6 
#
# 1 37.8047 43.5208 15.8069 0.0000 0.0000 0.0000
# 2 43.5208 37.8094 15.8054 0.0000 0.0000 0.0000
# 3 15.8069 15.8054 110.5690 0.0000 0.0000 0.0000
# 4 0.0000 0.0000 0.0000 1.5880 0.0000 0.0000
# 5 0.0000 0.0000 0.0000 0.0000 1.5842 0.0000
# 6 0.0000 0.0000 0.0000 0.0000 0.0000 17.2754
#
#
#
# Elastic Compliance Matrix: (Units=1/GPa)
#
#
# Indices 1 2 3 4 5 6 
#
# 1 -0.081004 0.094018 -0.001859 0.000000 0.000000 0.000000
# 2 0.094018 -0.080993 -0.001863 0.000000 0.000000 0.000000
# 3 -0.001859 -0.001863 0.009576 0.000000 0.000000 0.000000
# 4 0.000000 0.000000 0.000000 0.629719 0.000000 0.000000
# 5 0.000000 0.000000 0.000000 0.000000 0.631251 0.000000
# 6 0.000000 0.000000 0.000000 0.000000 0.000000 0.057886
#
#
# Mechanical properties :
#
#
# Convention : Reuss Voigt Hill
#
# Bulk Modulus (GPa) = 35.49836 37.38325 36.44081
# Shear Modulus (GPa) = 5.02395 11.49285 8.25840
#
# Velocity S-wave (km/s) = 1.74817 2.64408 2.24135
# Velocity P-wave (km/s) = 5.06643 5.66234 5.37265
#
# Compressibility (1/GPa) = 0.02817032
#
# Stress axis : x y z
#
# Youngs Moduli (GPa) = -12.34502 -12.34680 104.42510
#
# Poissons Ratio (x) = 1.16082 0.19414
# Poissons Ratio (y) = 1.16065 0.19456
# Poissons Ratio (z) = -0.02295 -0.02300
#
# Static dielectric constant tensor:
#      x y z
#    x 3.190650 0.000000 0.000000 
#    y 0.000000 3.190640 0.000000 
#    z 0.000000 0.000000 3.522790 
# 
# 
# High freq. dielectric constant tensor:
#      x y z
#    x 1.624260 0.000000 0.000000 
#    y 0.000000 1.624260 0.000000 
#    z 0.000000 0.000000 1.624180 
# 
# From -- ./inp_files/3541.got.cif
#   From: 2010.03.12/outbox.cif.g09.slc.cpg/sg115_2_cif.got.tgz:3541.got - 2010.04.14 02:11:21.
