data_PCOD8309835
_publ_section_title
;
Structure prediction by ZEFSAII (Michael W. Deem and Ramdas Pophale) SiO2 
 PCOD8309835
Probable space group: P -4 M 2
;
_chemical_formula_sum "Si O2"
_cell_formula_units_Z 48
_cell_length_a 9.366368
_cell_length_b 9.366368
_cell_length_c 30.871341
_cell_angle_alpha 90.000000
_cell_angle_beta 90.000000
_cell_angle_gamma 90.000000
_cell_volume 2708.307229
_symmetry_space_group_name_H-M "P -4 M 2"
_symmetry_group_IT_number 115
_symmetry_cell_setting 'tetragonal'
loop_
_space_group_symop_operation_xyz
x,y,z
y,-x,-z
-x,-y,z
-y,x,-z
y,x,-z
-y,-x,-z
-x,y,z
x,-y,z
loop_
_atom_site_type_symbol
_atom_site_label
_atom_site_fract_x
_atom_site_fract_y
_atom_site_fract_z
Si Si1 0.834917 0.665600 0.705625
Si Si2 0.165761 0.836383 0.378324
Si Si3 0.667868 0.834650 0.536335
Si Si4 0.340693 0.670135 0.047613
Si Si5 0.329849 0.160707 0.872351
Si Si6 0.333384 0.334796 0.789591
O O1 0.805536 0.500000 0.696975
O O2 0.780968 0.749281 0.663450
O O3 0.747183 0.720451 0.746963
O O4 0.000000 0.697706 0.714820
O O5 0.210685 0.737317 0.418234
O O6 0.000000 0.821095 0.367526
O O7 0.206173 0.000000 0.389590
O O8 0.735816 0.735816 0.500000
O O9 0.500000 0.805805 0.538764
O O10 0.701798 0.000000 0.525828
O O11 0.500000 0.730813 0.055942
O O12 0.346292 0.500000 0.049331
O O13 0.236287 0.731773 0.084506
O O14 0.283499 0.716502 0.000000
O O15 0.500000 0.162657 0.873558
O O16 0.275089 0.245112 0.830230
O O17 0.270380 0.000000 0.870659
O O18 0.500000 0.308886 0.781972
O O19 0.299451 0.500000 0.799031
#
# Coordination Sequence:
#
# PCOD8309835 Si02
#       6
#     8   8   8   8   8   8
#     4   9  18  32  49  69  93 121 154 192 232 274
#     4   9  18  33  52  72  95 126 162 197 235 281
#     4  10  21  36  54  77 104 134 168 205 245 289
#     4   8  13  22  38  59  81 108 144 182 218 260
#     4   9  16  25  39  62  90 116 144 182 225 265
#     4   9  17  29  45  65  90 120 151 183 224 273
#
# _framework density 17.723246
#
# number of rings (size 3 to 8) (size 9 to 14) (size 15 to 20)
#    0.000    3.000    0.000    1.500    0.000    5.000 
#    0.000    1.667    0.000    1.000    0.000    4.667 
#    0.000    0.000    0.000    0.000    0.000    0.000 
#
# Total GULP energy -595177.745216 kJ/mol
# GULP energy per Si atom -12399.536359 kJ/mol
# Density = 1.768291 g / cm^3
# Si number density = 17.723246 Si / 1000 Ang^3
#
#
#
# Elastic Constant Matrix: (Units=GPa)
#
#
# Indices 1 2 3 4 5 6 
#
# 1 67.4404 35.8752 75.2201 0.0000 0.0000 0.0000
# 2 35.8752 67.4403 75.2201 0.0000 0.0000 0.0000
# 3 75.2201 75.2201 194.1884 0.0000 0.0000 0.0000
# 4 0.0000 0.0000 0.0000 13.7676 0.0000 0.0000
# 5 0.0000 0.0000 0.0000 0.0000 13.7675 0.0000
# 6 0.0000 0.0000 0.0000 0.0000 0.0000 15.7551
#
#
#
# Elastic Compliance Matrix: (Units=1/GPa)
#
#
# Indices 1 2 3 4 5 6 
#
# 1 0.026941 -0.004739 -0.008600 0.000000 0.000000 0.000000
# 2 -0.004739 0.026941 -0.008600 0.000000 0.000000 0.000000
# 3 -0.008600 -0.008600 0.011812 0.000000 0.000000 0.000000
# 4 0.000000 0.000000 0.000000 0.072634 0.000000 0.000000
# 5 0.000000 0.000000 0.000000 0.000000 0.072635 0.000000
# 6 0.000000 0.000000 0.000000 0.000000 0.000000 0.063472
#
#
# Mechanical properties :
#
#
# Convention : Reuss Voigt Hill
#
# Bulk Modulus (GPa) = 45.83860 77.96666 61.90263
# Shear Modulus (GPa) = 15.35696 18.17496 16.76596
#
# Velocity S-wave (km/s) = 2.94681 3.20580 3.07903
# Velocity P-wave (km/s) = 6.12356 7.60194 6.90244
#
# Compressibility (1/GPa) = 0.02181567
#
# Stress axis : x y z
#
# Youngs Moduli (GPa) = 37.11808 37.11797 84.65861
#
# Poissons Ratio (x) = 0.17592 0.72806
# Poissons Ratio (y) = 0.17592 0.72806
# Poissons Ratio (z) = 0.31921 0.31921
#
# Static dielectric constant tensor:
#      x y z
#    x 3.136660 0.000000 0.000000 
#    y 0.000000 3.136660 0.000000 
#    z 0.000000 0.000000 3.524770 
# 
# 
# High freq. dielectric constant tensor:
#      x y z
#    x 1.661910 0.000000 0.000000 
#    y 0.000000 1.661910 0.000000 
#    z 0.000000 0.000000 1.699310 
# 
# From -- ./inp_files/6096.got.cif
#   From: 2010.03.12/outbox.cif.g09.slc.cpg/sg115_4_cif.got.tgz:6096.got - 2010.04.14 02:11:21.
