data_PCOD8309799
_publ_section_title
;
Structure prediction by ZEFSAII (Michael W. Deem and Ramdas Pophale) SiO2 
 PCOD8309799
Probable space group: P -4 M 2
;
_chemical_formula_sum "Si O2"
_cell_formula_units_Z 44
_cell_length_a 9.302721
_cell_length_b 9.302721
_cell_length_c 28.300804
_cell_angle_alpha 90.000000
_cell_angle_beta 90.000000
_cell_angle_gamma 90.000000
_cell_volume 2449.169068
_symmetry_space_group_name_H-M "P -4 M 2"
_symmetry_group_IT_number 115
_symmetry_cell_setting 'tetragonal'
loop_
_space_group_symop_operation_xyz
x,y,z
y,-x,-z
-x,-y,z
-y,x,-z
y,x,-z
-y,-x,-z
-x,y,z
x,-y,z
loop_
_atom_site_type_symbol
_atom_site_label
_atom_site_fract_x
_atom_site_fract_y
_atom_site_fract_z
Si Si1 0.160021 0.171357 0.051334
Si Si2 0.169009 0.166356 0.314685
Si Si3 0.333389 0.333389 0.500000
Si Si4 0.332126 0.164696 0.140887
Si Si5 0.668965 0.666693 0.766020
Si Si6 0.167292 0.335222 0.591847
O O1 0.258440 0.228425 0.093874
O O2 0.000000 0.232614 0.059649
O O3 0.156869 0.000000 0.050711
O O4 0.221565 0.221565 0.000000
O O5 0.236698 0.265224 0.274794
O O6 0.237640 0.214083 0.364246
O O7 0.000000 0.193959 0.317069
O O8 0.205080 0.000000 0.303755
O O9 0.301508 0.500000 0.491302
O O10 0.249969 0.276992 0.545960
O O11 0.500000 0.176903 0.132169
O O12 0.282625 0.260307 0.184983
O O13 0.285484 0.000000 0.150640
O O14 0.500000 0.694063 0.769012
O O15 0.704978 0.500000 0.755816
O O16 0.209808 0.500000 0.603185
O O17 0.000000 0.320181 0.581021
#
# Coordination Sequence:
#
# PCOD8309799 Si02
#       6
#     8   8   4   8   8   8
#     4   8  14  26  45  68  93 122 157 196 238 286
#     4  10  21  36  54  77 103 131 166 208 253 300
#     4   9  18  32  50  73 100 130 166 205 242 285
#     4   9  17  30  49  71  94 123 161 202 242 289
#     4  10  21  36  53  73  99 132 168 206 250 300
#     4   9  18  33  52  73  99 132 167 202 243 293
#
# _framework density 17.965275999999999
#
# number of rings (size 3 to 8) (size 9 to 14) (size 15 to 20)
#    0.000    2.818    0.000    1.636    0.000    4.364 
#    0.000    4.545    0.000    1.091    0.000    0.000 
#    0.000    0.000    0.000    0.000    0.000    0.000 
#
# Total GULP energy -545595.391359 kJ/mol
# GULP energy per Si atom -12399.895258 kJ/mol
# Density = 1.792439 g / cm^3
# Si number density = 17.965276 Si / 1000 Ang^3
#
#
#
# Elastic Constant Matrix: (Units=GPa)
#
#
# Indices 1 2 3 4 5 6 
#
# 1 67.0923 41.6661 75.9552 0.0000 0.0000 0.0000
# 2 41.6661 67.0923 75.9552 0.0000 0.0000 0.0000
# 3 75.9552 75.9552 191.6002 0.0000 0.0000 0.0000
# 4 0.0000 0.0000 0.0000 -6.2528 0.0000 0.0000
# 5 0.0000 0.0000 0.0000 0.0000 -6.2528 0.0000
# 6 0.0000 0.0000 0.0000 0.0000 0.0000 20.1470
#
#
#
# Elastic Compliance Matrix: (Units=1/GPa)
#
#
# Indices 1 2 3 4 5 6 
#
# 1 0.029966 -0.009363 -0.008167 0.000000 0.000000 0.000000
# 2 -0.009363 0.029966 -0.008167 0.000000 0.000000 0.000000
# 3 -0.008167 -0.008167 0.011695 0.000000 0.000000 0.000000
# 4 0.000000 0.000000 0.000000 -0.159929 0.000000 0.000000
# 5 0.000000 0.000000 0.000000 0.000000 -0.159929 0.000000
# 6 0.000000 0.000000 0.000000 0.000000 0.000000 0.049635
#
#
# Mechanical properties :
#
#
# Convention : Reuss Voigt Hill
#
# Bulk Modulus (GPa) = 49.43044 79.21529 64.32286
# Shear Modulus (GPa) = -35.59856 10.34218 -12.62819
#
# Velocity S-wave (km/s) = -4.45626 2.40193 -2.65414
# Velocity P-wave (km/s) = 1.04716 7.20289 5.14675
#
# Compressibility (1/GPa) = 0.02023045
#
# Stress axis : x y z
#
# Youngs Moduli (GPa) = 33.37104 33.37104 85.50834
#
# Poissons Ratio (x) = 0.31247 0.69838
# Poissons Ratio (y) = 0.31247 0.69838
# Poissons Ratio (z) = 0.27256 0.27256
#
# Static dielectric constant tensor:
#      x y z
#    x 3.227910 0.000000 0.000000 
#    y 0.000000 3.227910 0.000000 
#    z 0.000000 0.000000 3.588340 
# 
# 
# High freq. dielectric constant tensor:
#      x y z
#    x 1.679690 0.000000 0.000000 
#    y 0.000000 1.679690 0.000000 
#    z 0.000000 0.000000 1.709670 
# 
# From -- ./inp_files/5693.got.cif
#   From: 2010.03.12/outbox.cif.g09.slc.cpg/sg115_3_cif.got.tgz:5693.got - 2010.04.14 02:11:21.
