data_PCOD8309346
_publ_section_title
;
Structure prediction by ZEFSAII (Michael W. Deem and Ramdas Pophale) SiO2 
 PCOD8309346
Probable space group: P -4 M 2
;
_chemical_formula_sum "Si O2"
_cell_formula_units_Z 36
_cell_length_a 9.370486
_cell_length_b 9.370486
_cell_length_c 23.437376
_cell_angle_alpha 90.000000
_cell_angle_beta 90.000000
_cell_angle_gamma 90.000000
_cell_volume 2057.942422
_symmetry_space_group_name_H-M "P -4 M 2"
_symmetry_group_IT_number 115
_symmetry_cell_setting 'tetragonal'
loop_
_space_group_symop_operation_xyz
x,y,z
y,-x,-z
-x,-y,z
-y,x,-z
y,x,-z
-y,-x,-z
-x,y,z
x,-y,z
loop_
_atom_site_type_symbol
_atom_site_label
_atom_site_fract_x
_atom_site_fract_y
_atom_site_fract_z
Si Si1 0.669484 0.158264 0.172458
Si Si2 0.168564 0.167376 0.376479
Si Si3 0.165588 0.165588 0.500000
Si Si4 0.664894 0.331654 0.720355
Si Si5 0.168621 0.661136 0.953718
O O1 0.500000 0.150174 0.172081
O O2 0.724413 0.267881 0.220276
O O3 0.718603 0.210052 0.109595
O O4 0.730870 0.000000 0.185994
O O5 0.223647 0.224606 0.439191
O O6 0.254002 0.257936 0.331110
O O7 0.000000 0.193743 0.369479
O O8 0.203135 0.000000 0.368692
O O9 0.000000 0.197006 0.500902
O O10 0.500000 0.288962 0.720517
O O11 0.687514 0.500000 0.713189
O O12 0.224822 0.500000 0.962449
O O13 0.000000 0.666535 0.961190
O O14 0.238100 0.761901 0.000000
#
# Coordination Sequence:
#
# PCOD8309346 Si02
#       5
#     8   8   4   8   8
#     4   8  15  30  50  68  89 122 163 201 232 269
#     4   9  17  31  52  74  94 120 157 198 238 281
#     4   7  12  26  48  71  92 116 152 197 236 273
#     4  10  20  32  47  70  99 128 158 194 237 282
#     4   9  18  32  50  73  98 123 155 195 237 281
#
# _framework density 17.493202
#
# number of rings (size 3 to 8) (size 9 to 14) (size 15 to 20)
#    0.000    3.222    0.000    3.333    0.000    3.111 
#    0.000    4.444    0.000    6.667    0.000    0.000 
#    0.000    0.000    0.000    0.000    0.000    0.000 
#
# Total GULP energy -446026.212332 kJ/mol
# GULP energy per Si atom -12389.617009 kJ/mol
# Density = 1.745339 g / cm^3
# Si number density = 17.493202 Si / 1000 Ang^3
#
#
#
# Elastic Constant Matrix: (Units=GPa)
#
#
# Indices 1 2 3 4 5 6 
#
# 1 55.5641 33.6062 65.2866 0.0000 0.0000 0.0000
# 2 33.6062 55.5614 65.2856 0.0000 0.0000 0.0000
# 3 65.2866 65.2856 195.7252 0.0000 0.0000 0.0000
# 4 0.0000 0.0000 0.0000 40.0410 0.0000 0.0000
# 5 0.0000 0.0000 0.0000 0.0000 40.0405 0.0000
# 6 0.0000 0.0000 0.0000 0.0000 0.0000 25.3041
#
#
#
# Elastic Compliance Matrix: (Units=1/GPa)
#
#
# Indices 1 2 3 4 5 6 
#
# 1 0.033732 -0.011811 -0.007312 0.000000 0.000000 0.000000
# 2 -0.011811 0.033734 -0.007313 0.000000 0.000000 0.000000
# 3 -0.007312 -0.007313 0.009988 0.000000 0.000000 0.000000
# 4 0.000000 0.000000 0.000000 0.024974 0.000000 0.000000
# 5 0.000000 0.000000 0.000000 0.000000 0.024975 0.000000
# 6 0.000000 0.000000 0.000000 0.000000 0.000000 0.039519
#
#
# Mechanical properties :
#
#
# Convention : Reuss Voigt Hill
#
# Bulk Modulus (GPa) = 40.67918 70.57863 55.62891
# Shear Modulus (GPa) = 21.93090 30.58862 26.25976
#
# Velocity S-wave (km/s) = 3.54458 4.18616 3.87866
# Velocity P-wave (km/s) = 6.32904 7.98744 7.20611
#
# Compressibility (1/GPa) = 0.02458260
#
# Stress axis : x y z
#
# Youngs Moduli (GPa) = 29.64507 29.64326 100.12514
#
# Poissons Ratio (x) = 0.35012 0.73214
# Poissons Ratio (y) = 0.35014 0.73218
# Poissons Ratio (z) = 0.21677 0.21677
#
# Static dielectric constant tensor:
#      x y z
#    x 2.933990 0.000000 0.000000 
#    y 0.000000 2.933980 0.000000 
#    z 0.000000 0.000000 3.729220 
# 
# 
# High freq. dielectric constant tensor:
#      x y z
#    x 1.647190 0.000000 0.000000 
#    y 0.000000 1.647190 0.000000 
#    z 0.000000 0.000000 1.700410 
# 
# From -- ./inp_files/5089.got.cif
#   From: 2010.03.12/outbox.cif.g09.slc.cpg/sg115_3_cif.got.tgz:5089.got - 2010.04.14 02:11:21.
