data_PCOD8309735
_publ_section_title
;
Structure prediction by ZEFSAII (Michael W. Deem and Ramdas Pophale) SiO2 
 PCOD8309735
Probable space group: P -4 M 2
;
_chemical_formula_sum "Si O2"
_cell_formula_units_Z 44
_cell_length_a 9.269435
_cell_length_b 9.269435
_cell_length_c 28.465321
_cell_angle_alpha 90.000000
_cell_angle_beta 90.000000
_cell_angle_gamma 90.000000
_cell_volume 2445.809415
_symmetry_space_group_name_H-M "P -4 M 2"
_symmetry_group_IT_number 115
_symmetry_cell_setting 'tetragonal'
loop_
_space_group_symop_operation_xyz
x,y,z
y,-x,-z
-x,-y,z
-y,x,-z
y,x,-z
-y,-x,-z
-x,y,z
x,-y,z
loop_
_atom_site_type_symbol
_atom_site_label
_atom_site_fract_x
_atom_site_fract_y
_atom_site_fract_z
Si Si1 0.667899 0.665506 0.866751
Si Si2 0.169537 0.333169 0.040370
Si Si3 0.328475 0.667058 0.601502
Si Si4 0.831775 0.167971 0.317383
Si Si5 0.667444 0.667444 0.500000
Si Si6 0.666108 0.168117 0.225326
O O1 0.500000 0.683561 0.856344
O O2 0.708621 0.500000 0.878007
O O3 0.717168 0.762055 0.910501
O O4 0.750931 0.722067 0.820950
O O5 0.207463 0.500000 0.030182
O O6 0.000000 0.306777 0.042839
O O7 0.235536 0.235536 0.000000
O O8 0.500000 0.682227 0.605449
O O9 0.283548 0.500000 0.608797
O O10 0.254436 0.766078 0.639651
O O11 0.273653 0.727478 0.550053
O O12 0.758880 0.222728 0.269369
O O13 0.000000 0.201306 0.314074
O O14 0.799153 0.000000 0.325284
O O15 0.699200 0.500000 0.501902
O O16 0.500000 0.206357 0.235750
O O17 0.689109 0.000000 0.216309
#
# Coordination Sequence:
#
# PCOD8309735 Si02
#       6
#     8   8   8   8   4   8
#     4   9  18  33  53  76 101 129 163 205 251 297
#     4  10  21  36  54  77 105 137 172 208 247 294
#     4   9  17  31  53  77  98 124 162 207 252 298
#     4  10  21  35  49  69 101 138 171 203 244 295
#     4   7  12  26  48  73  98 122 154 201 252 297
#     4   9  18  33  52  72  95 127 168 209 246 290
#
# _framework density 17.989954000000001
#
# number of rings (size 3 to 8) (size 9 to 14) (size 15 to 20)
#    0.000    2.818    0.000    2.182    0.000    4.727 
#    0.000    4.545    0.000    4.364    0.000    0.000 
#    0.000    0.000    0.000    0.000    0.000    0.000 
#
# Total GULP energy -545445.916888 kJ/mol
# GULP energy per Si atom -12396.498111 kJ/mol
# Density = 1.794901 g / cm^3
# Si number density = 17.989954 Si / 1000 Ang^3
#
#
#
# Elastic Constant Matrix: (Units=GPa)
#
#
# Indices 1 2 3 4 5 6 
#
# 1 62.7031 37.9691 71.7324 0.0000 0.0000 0.0000
# 2 37.9691 62.7031 71.7324 0.0000 0.0000 0.0000
# 3 71.7324 71.7324 194.7119 0.0000 0.0000 0.0000
# 4 0.0000 0.0000 0.0000 -17.1107 0.0000 0.0000
# 5 0.0000 0.0000 0.0000 0.0000 -17.1107 0.0000
# 6 0.0000 0.0000 0.0000 0.0000 0.0000 23.7820
#
#
#
# Elastic Compliance Matrix: (Units=1/GPa)
#
#
# Indices 1 2 3 4 5 6 
#
# 1 0.030671 -0.009759 -0.007704 0.000000 0.000000 0.000000
# 2 -0.009759 0.030671 -0.007704 0.000000 0.000000 0.000000
# 3 -0.007704 -0.007704 0.010812 0.000000 0.000000 0.000000
# 4 0.000000 0.000000 0.000000 -0.058443 0.000000 0.000000
# 5 0.000000 0.000000 0.000000 0.000000 -0.058443 0.000000
# 6 0.000000 0.000000 0.000000 0.000000 0.000000 0.042049
#
#
# Mechanical properties :
#
#
# Convention : Reuss Voigt Hill
#
# Bulk Modulus (GPa) = 45.82935 75.88732 60.85833
# Shear Modulus (GPa) = 91.03290 7.15771 49.09530
#
# Velocity S-wave (km/s) = 7.12123 1.99684 5.22969
# Velocity P-wave (km/s) = 9.65123 6.89864 8.38861
#
# Compressibility (1/GPa) = 0.02182008
#
# Stress axis : x y z
#
# Youngs Moduli (GPa) = 32.60394 32.60394 92.48814
#
# Poissons Ratio (x) = 0.31818 0.71254
# Poissons Ratio (y) = 0.31818 0.71254
# Poissons Ratio (z) = 0.25118 0.25118
#
# Static dielectric constant tensor:
#      x y z
#    x 3.179470 0.000000 0.000000 
#    y 0.000000 3.179470 0.000000 
#    z 0.000000 0.000000 3.633490 
# 
# 
# High freq. dielectric constant tensor:
#      x y z
#    x 1.680100 0.000000 0.000000 
#    y 0.000000 1.680100 0.000000 
#    z 0.000000 0.000000 1.715900 
# 
# From -- ./inp_files/5818.got.cif
#   From: 2010.03.12/outbox.cif.g09.slc.cpg/sg115_3_cif.got.tgz:5818.got - 2010.04.14 02:11:21.
