data_PCOD8309372
_publ_section_title
;
Structure prediction by ZEFSAII (Michael W. Deem and Ramdas Pophale) SiO2 
 PCOD8309372
Probable space group: P -4 M 2
;
_chemical_formula_sum "Si O2"
_cell_formula_units_Z 48
_cell_length_a 9.554430
_cell_length_b 9.554430
_cell_length_c 30.205636
_cell_angle_alpha 90.000000
_cell_angle_beta 90.000000
_cell_angle_gamma 90.000000
_cell_volume 2757.385900
_symmetry_space_group_name_H-M "P -4 M 2"
_symmetry_group_IT_number 115
_symmetry_cell_setting 'tetragonal'
loop_
_space_group_symop_operation_xyz
x,y,z
y,-x,-z
-x,-y,z
-y,x,-z
y,x,-z
-y,-x,-z
-x,y,z
x,-y,z
loop_
_atom_site_type_symbol
_atom_site_label
_atom_site_fract_x
_atom_site_fract_y
_atom_site_fract_z
Si Si1 0.162136 0.342463 0.800563
Si Si2 0.155928 0.833850 0.548625
Si Si3 0.337478 0.834722 0.630497
Si Si4 0.658152 0.164327 0.866500
Si Si5 0.662588 0.839702 0.301518
Si Si6 0.841154 0.335334 0.033746
O O1 0.213555 0.500000 0.809959
O O2 0.244174 0.237543 0.831367
O O3 0.189375 0.303795 0.749646
O O4 0.000000 0.327908 0.812031
O O5 0.212072 0.787929 0.500000
O O6 0.263540 0.779583 0.585636
O O7 0.000000 0.772315 0.558001
O O8 0.147070 0.000000 0.549159
O O9 0.500000 0.794061 0.628078
O O10 0.266857 0.758054 0.671590
O O11 0.316524 0.000000 0.636672
O O12 0.500000 0.215984 0.858876
O O13 0.706443 0.201987 0.916301
O O14 0.668933 0.000000 0.858822
O O15 0.500000 0.811185 0.311798
O O16 0.700570 0.000000 0.313740
O O17 0.825533 0.500000 0.027129
O O18 0.000000 0.288317 0.024282
O O19 0.739947 0.260054 0.000000
#
# Coordination Sequence:
#
# PCOD8309372 Si02
#       6
#     8   8   8   8   8   8
#     4   9  19  35  53  74  99 126 161 205 247 289
#     4   8  14  27  48  70  92 124 166 206 241 280
#     4  10  20  32  48  74 105 132 160 198 244 292
#     4   9  19  35  52  72 101 133 163 198 242 292
#     4   9  19  36  54  71  95 129 167 204 243 289
#     4   9  19  35  52  72 100 132 165 202 243 287
#
# _framework density 17.407792000000001
#
# number of rings (size 3 to 8) (size 9 to 14) (size 15 to 20)
#    0.000    3.000    0.000    3.000    0.000    5.000 
#    0.000   10.833    0.000    3.000    0.000    0.000 
#    0.000    0.000    0.000    0.000    0.000    0.000 
#
# Total GULP energy -595093.648661 kJ/mol
# GULP energy per Si atom -12397.784347 kJ/mol
# Density = 1.736817 g / cm^3
# Si number density = 17.407792 Si / 1000 Ang^3
#
#
#
# Elastic Constant Matrix: (Units=GPa)
#
#
# Indices 1 2 3 4 5 6 
#
# 1 64.9810 39.3570 58.9773 0.0000 0.0000 0.0000
# 2 39.3570 64.9787 58.9760 0.0000 0.0000 0.0000
# 3 58.9773 58.9760 117.5996 0.0000 0.0000 0.0000
# 4 0.0000 0.0000 0.0000 69.8549 0.0000 0.0000
# 5 0.0000 0.0000 0.0000 0.0000 69.8593 0.0000
# 6 0.0000 0.0000 0.0000 0.0000 0.0000 25.5915
#
#
#
# Elastic Compliance Matrix: (Units=1/GPa)
#
#
# Indices 1 2 3 4 5 6 
#
# 1 0.030579 -0.008448 -0.011099 0.000000 0.000000 0.000000
# 2 -0.008448 0.030580 -0.011099 0.000000 0.000000 0.000000
# 3 -0.011099 -0.011099 0.019636 0.000000 0.000000 0.000000
# 4 0.000000 0.000000 0.000000 0.014315 0.000000 0.000000
# 5 0.000000 0.000000 0.000000 0.000000 0.014314 0.000000
# 6 0.000000 0.000000 0.000000 0.000000 0.000000 0.039075
#
#
# Mechanical properties :
#
#
# Convention : Reuss Voigt Hill
#
# Bulk Modulus (GPa) = 51.27387 62.46444 56.86915
# Shear Modulus (GPa) = 23.11652 39.07775 31.09713
#
# Velocity S-wave (km/s) = 3.64805 4.74312 4.23116
# Velocity P-wave (km/s) = 6.87480 8.12140 7.52396
#
# Compressibility (1/GPa) = 0.01950311
#
# Stress axis : x y z
#
# Youngs Moduli (GPa) = 32.70167 32.70064 50.92628
#
# Poissons Ratio (x) = 0.27624 0.56525
# Poissons Ratio (y) = 0.27625 0.56525
# Poissons Ratio (z) = 0.36297 0.36296
#
# Static dielectric constant tensor:
#      x y z
#    x 3.120130 0.000000 0.000000 
#    y 0.000000 3.120130 0.000000 
#    z 0.000000 0.000000 3.359760 
# 
# 
# High freq. dielectric constant tensor:
#      x y z
#    x 1.661320 0.000000 0.000000 
#    y 0.000000 1.661320 0.000000 
#    z 0.000000 0.000000 1.682480 
# 
# From -- ./inp_files/6092.got.cif
#   From: 2010.03.12/outbox.cif.g09.slc.cpg/sg115_4_cif.got.tgz:6092.got - 2010.04.14 02:11:21.
