data_PCOD8309642
_publ_section_title
;
Structure prediction by ZEFSAII (Michael W. Deem and Ramdas Pophale) SiO2 
 PCOD8309642
Probable space group: P -4 M 2
;
_chemical_formula_sum "Si O2"
_cell_formula_units_Z 44
_cell_length_a 8.135243
_cell_length_b 8.135243
_cell_length_c 31.484334
_cell_angle_alpha 90.000000
_cell_angle_beta 90.000000
_cell_angle_gamma 90.000000
_cell_volume 2083.701818
_symmetry_space_group_name_H-M "P -4 M 2"
_symmetry_group_IT_number 115
_symmetry_cell_setting 'tetragonal'
loop_
_space_group_symop_operation_xyz
x,y,z
y,-x,-z
-x,-y,z
-y,x,-z
y,x,-z
-y,-x,-z
-x,y,z
x,-y,z
loop_
_atom_site_type_symbol
_atom_site_label
_atom_site_fract_x
_atom_site_fract_y
_atom_site_fract_z
Si Si1 0.500000 0.196422 0.266178
Si Si2 0.189032 0.322015 0.126110
Si Si3 0.195454 0.500000 0.637602
Si Si4 0.685010 0.816887 0.041592
Si Si5 0.312949 0.312949 0.500000
Si Si6 0.815935 0.806648 0.414202
Si Si7 0.191150 0.813964 0.785064
O O1 0.500000 0.260489 0.314345
O O2 0.330609 0.265847 0.244841
O O3 0.500000 0.000000 0.262812
O O4 0.279031 0.500000 0.124262
O O5 0.206185 0.229975 0.081640
O O6 0.250726 0.219257 0.166699
O O7 0.000000 0.352060 0.133576
O O8 0.262474 0.668226 0.615558
O O9 0.000000 0.500000 0.636849
O O10 0.500000 0.801409 0.057782
O O11 0.731324 0.000000 0.027191
O O12 0.705868 0.705868 0.000000
O O13 0.282322 0.500000 0.514492
O O14 0.196412 0.272918 0.460538
O O15 0.000000 0.764801 0.396097
O O16 0.794239 0.000000 0.419101
O O17 0.000000 0.827281 0.776353
O O18 0.266007 0.000000 0.776702
#
# Coordination Sequence:
#
# PCOD8309642 Si02
#       7
#     4   8   4   8   4   8   8
#     4   9  18  32  55  83 113 149 191 241 295 351
#     4  10  21  37  57  81 110 142 180 228 279 334
#     4   9  18  34  53  81 119 151 191 251 301 348
#     4  11  24  39  56  80 110 144 182 223 270 328
#     4  11  22  35  54  80 112 151 196 245 298 356
#     4  10  20  34  55  82 113 153 198 241 296 359
#     4   9  18  33  54  81 111 144 188 240 292 348
#
# _framework density 21.116264000000001
#
# number of rings (size 3 to 8) (size 9 to 14) (size 15 to 20)
#    0.000    2.091    0.909    2.182    1.273    7.273 
#    0.000    3.636    0.000    2.182    0.000    2.545 
#    0.000    0.000    0.000    0.000    0.000    0.000 
#
# Total GULP energy -545281.461829 kJ/mol
# GULP energy per Si atom -12392.760496 kJ/mol
# Density = 2.106820 g / cm^3
# Si number density = 21.116264 Si / 1000 Ang^3
#
#
#
# Elastic Constant Matrix: (Units=GPa)
#
#
# Indices 1 2 3 4 5 6 
#
# 1 75.8912 37.1981 39.8127 0.0000 0.0000 0.0000
# 2 37.1981 75.8912 39.8127 0.0000 0.0000 0.0000
# 3 39.8127 39.8127 155.6021 0.0000 0.0000 0.0000
# 4 0.0000 0.0000 0.0000 21.8906 0.0000 0.0000
# 5 0.0000 0.0000 0.0000 0.0000 21.8906 0.0000
# 6 0.0000 0.0000 0.0000 0.0000 0.0000 13.4550
#
#
#
# Elastic Compliance Matrix: (Units=1/GPa)
#
#
# Indices 1 2 3 4 5 6 
#
# 1 0.018315 -0.007529 -0.002760 0.000000 0.000000 0.000000
# 2 -0.007529 0.018315 -0.002760 0.000000 0.000000 0.000000
# 3 -0.002760 -0.002760 0.007839 0.000000 0.000000 0.000000
# 4 0.000000 0.000000 0.000000 0.045682 0.000000 0.000000
# 5 0.000000 0.000000 0.000000 0.000000 0.045682 0.000000
# 6 0.000000 0.000000 0.000000 0.000000 0.000000 0.074322
#
#
# Mechanical properties :
#
#
# Convention : Reuss Voigt Hill
#
# Bulk Modulus (GPa) = 54.43211 60.11461 57.27336
# Shear Modulus (GPa) = 20.62915 24.15130 22.39023
#
# Velocity S-wave (km/s) = 3.12898 3.38558 3.25980
# Velocity P-wave (km/s) = 6.23597 6.61914 6.43041
#
# Compressibility (1/GPa) = 0.01837151
#
# Stress axis : x y z
#
# Youngs Moduli (GPa) = 54.60004 54.60004 127.57030
#
# Poissons Ratio (x) = 0.41111 0.35205
# Poissons Ratio (y) = 0.41111 0.35205
# Poissons Ratio (z) = 0.15068 0.15068
#
# Static dielectric constant tensor:
#      x y z
#    x 3.910120 0.000000 0.000000 
#    y 0.000000 3.910120 0.000000 
#    z 0.000000 0.000000 3.694460 
# 
# 
# High freq. dielectric constant tensor:
#      x y z
#    x 1.818530 0.000000 0.000000 
#    y 0.000000 1.818530 0.000000 
#    z 0.000000 0.000000 1.819300 
# 
# From -- ./inp_files/5879.got.cif
#   From: 2010.03.12/outbox.cif.g09.slc.cpg/sg115_3_cif.got.tgz:5879.got - 2010.04.14 02:11:21.
