data_PCOD8309908
_publ_section_title
;
Structure prediction by ZEFSAII (Michael W. Deem and Ramdas Pophale) SiO2 
 PCOD8309908
Probable space group: P -4 M 2
;
_chemical_formula_sum "Si O2"
_cell_formula_units_Z 40
_cell_length_a 9.127700
_cell_length_b 9.127700
_cell_length_c 25.886361
_cell_angle_alpha 90.000000
_cell_angle_beta 90.000000
_cell_angle_gamma 90.000000
_cell_volume 2156.719767
_symmetry_space_group_name_H-M "P -4 M 2"
_symmetry_group_IT_number 115
_symmetry_cell_setting 'tetragonal'
loop_
_space_group_symop_operation_xyz
x,y,z
y,-x,-z
-x,-y,z
-y,x,-z
y,x,-z
-y,-x,-z
-x,y,z
x,-y,z
loop_
_atom_site_type_symbol
_atom_site_label
_atom_site_fract_x
_atom_site_fract_y
_atom_site_fract_z
Si Si1 0.669357 0.170757 0.844830
Si Si2 0.172016 0.328288 0.452828
Si Si3 0.832936 0.170711 0.256488
Si Si4 0.328140 0.829867 0.360537
Si Si5 0.674986 0.336576 0.943986
O O1 0.500000 0.211824 0.839268
O O2 0.748985 0.231652 0.793872
O O3 0.737099 0.240921 0.896730
O O4 0.697207 0.000000 0.849839
O O5 0.242145 0.242145 0.500000
O O6 0.203404 0.500000 0.459676
O O7 0.244607 0.272440 0.400492
O O8 0.000000 0.294961 0.451153
O O9 0.730647 0.214006 0.304288
O O10 0.000000 0.220459 0.268384
O O11 0.826038 0.000000 0.244961
O O12 0.500000 0.797395 0.363357
O O13 0.294427 0.000000 0.372914
O O14 0.500000 0.336450 0.944470
O O15 0.735727 0.500000 0.935780
O O16 0.726784 0.273217 0.000000
#
# Coordination Sequence:
#
# PCOD8309908 Si02
#       5
#     8   8   8   8   8
#     4   9  17  29  46  68  93 121 157 202 246 289
#     4  11  24  40  59  84 112 142 177 215 255 302
#     4   9  18  33  51  70  97 134 169 201 245 301
#     4  10  21  37  57  81 108 138 174 215 258 305
#     4   8  14  26  44  64  87 118 155 193 237 293
#
# _framework density 18.546683999999999
#
# number of rings (size 3 to 8) (size 9 to 14) (size 15 to 20)
#    0.000    2.600    0.000    2.400    0.000    6.800 
#    0.000    3.000    0.000    1.200    0.000    0.000 
#    0.000    0.000    0.000    0.000    0.000    0.000 
#
# Total GULP energy -495956.815418 kJ/mol
# GULP energy per Si atom -12398.920385 kJ/mol
# Density = 1.850447 g / cm^3
# Si number density = 18.546684 Si / 1000 Ang^3
#
#
#
# Elastic Constant Matrix: (Units=GPa)
#
#
# Indices 1 2 3 4 5 6 
#
# 1 69.6426 46.9072 67.4696 0.0000 0.0000 0.0000
# 2 46.9072 69.6428 67.4696 0.0000 0.0000 0.0000
# 3 67.4696 67.4696 175.8687 0.0000 0.0000 0.0000
# 4 0.0000 0.0000 0.0000 38.3629 0.0000 0.0000
# 5 0.0000 0.0000 0.0000 0.0000 38.3629 0.0000
# 6 0.0000 0.0000 0.0000 0.0000 0.0000 21.4453
#
#
#
# Elastic Compliance Matrix: (Units=1/GPa)
#
#
# Indices 1 2 3 4 5 6 
#
# 1 0.029710 -0.014274 -0.005922 0.000000 0.000000 0.000000
# 2 -0.014274 0.029710 -0.005922 0.000000 0.000000 0.000000
# 3 -0.005922 -0.005922 0.010230 0.000000 0.000000 0.000000
# 4 0.000000 0.000000 0.000000 0.026067 0.000000 0.000000
# 5 0.000000 0.000000 0.000000 0.000000 0.026067 0.000000
# 6 0.000000 0.000000 0.000000 0.000000 0.000000 0.046630
#
#
# Mechanical properties :
#
#
# Convention : Reuss Voigt Hill
#
# Bulk Modulus (GPa) = 57.42276 75.42743 66.42509
# Shear Modulus (GPa) = 22.07952 28.52142 25.30047
#
# Velocity S-wave (km/s) = 3.45408 3.92576 3.69745
# Velocity P-wave (km/s) = 6.85098 7.82981 7.35670
#
# Compressibility (1/GPa) = 0.01741470
#
# Stress axis : x y z
#
# Youngs Moduli (GPa) = 33.65847 33.65858 97.75370
#
# Poissons Ratio (x) = 0.48044 0.57889
# Poissons Ratio (y) = 0.48044 0.57889
# Poissons Ratio (z) = 0.19932 0.19932
#
# Static dielectric constant tensor:
#      x y z
#    x 3.334450 0.000000 0.000000 
#    y 0.000000 3.334450 0.000000 
#    z 0.000000 0.000000 3.838350 
# 
# 
# High freq. dielectric constant tensor:
#      x y z
#    x 1.704820 0.000000 0.000000 
#    y 0.000000 1.704820 0.000000 
#    z 0.000000 0.000000 1.738970 
# 
# From -- ./inp_files/5119.got.cif
#   From: 2010.03.12/outbox.cif.g09.slc.cpg/sg115_3_cif.got.tgz:5119.got - 2010.04.14 02:11:21.
