data_PCOD8309861
_publ_section_title
;
Structure prediction by ZEFSAII (Michael W. Deem and Ramdas Pophale) SiO2 
 PCOD8309861
Probable space group: P -4 M 2
;
_chemical_formula_sum "Si O2"
_cell_formula_units_Z 44
_cell_length_a 9.037862
_cell_length_b 9.037862
_cell_length_c 28.198077
_cell_angle_alpha 90.000000
_cell_angle_beta 90.000000
_cell_angle_gamma 90.000000
_cell_volume 2303.302100
_symmetry_space_group_name_H-M "P -4 M 2"
_symmetry_group_IT_number 115
_symmetry_cell_setting 'tetragonal'
loop_
_space_group_symop_operation_xyz
x,y,z
y,-x,-z
-x,-y,z
-y,x,-z
y,x,-z
-y,-x,-z
-x,y,z
x,-y,z
loop_
_atom_site_type_symbol
_atom_site_label
_atom_site_fract_x
_atom_site_fract_y
_atom_site_fract_z
Si Si1 0.327996 0.327996 0.500000
Si Si2 0.825687 0.831156 0.688786
Si Si3 0.173908 0.670563 0.129303
Si Si4 0.827670 0.673048 0.956438
Si Si5 0.330160 0.826818 0.593810
Si Si6 0.329706 0.328327 0.773235
O O1 0.293061 0.500000 0.505295
O O2 0.249807 0.263807 0.453090
O O3 0.759540 0.771223 0.639496
O O4 0.770413 0.726924 0.730522
O O5 0.000000 0.820084 0.685539
O O6 0.773422 0.000000 0.698125
O O7 0.211080 0.500000 0.117030
O O8 0.247695 0.777040 0.091271
O O9 0.238170 0.715303 0.180135
O O10 0.000000 0.699078 0.129692
O O11 0.795140 0.500000 0.951691
O O12 0.000000 0.705023 0.965272
O O13 0.735684 0.735684 0.000000
O O14 0.500000 0.780207 0.601522
O O15 0.311345 0.000000 0.586561
O O16 0.500000 0.299301 0.759943
O O17 0.298183 0.500000 0.782863
#
# Coordination Sequence:
#
# PCOD8309861 Si02
#       6
#     4   8   8   8   8   8
#     4   9  18  32  50  73 100 130 168 215 264 315
#     4  10  21  36  54  78 108 142 180 222 270 322
#     4  10  21  38  61  87 113 144 184 227 272 324
#     4  11  24  40  59  85 116 150 188 229 274 324
#     4   9  18  33  52  73 100 136 175 215 263 320
#     4  10  21  37  58  83 110 143 183 225 271 323
#
# _framework density 19.103007000000002
#
# number of rings (size 3 to 8) (size 9 to 14) (size 15 to 20)
#    0.000    2.091    0.000    2.727    0.000    9.091 
#    0.000    1.818    0.000    0.000    0.000    0.000 
#    0.000    0.000    0.000    0.000    0.000    0.000 
#
# Total GULP energy -545803.962846 kJ/mol
# GULP energy per Si atom -12404.635519 kJ/mol
# Density = 1.905953 g / cm^3
# Si number density = 19.103007 Si / 1000 Ang^3
#
#
#
# Elastic Constant Matrix: (Units=GPa)
#
#
# Indices 1 2 3 4 5 6 
#
# 1 74.2358 41.2563 57.6471 0.0000 0.0000 0.0000
# 2 41.2563 74.2358 57.6471 0.0000 0.0000 0.0000
# 3 57.6471 57.6471 147.1378 0.0000 0.0000 0.0000
# 4 0.0000 0.0000 0.0000 55.0655 0.0000 0.0000
# 5 0.0000 0.0000 0.0000 0.0000 55.0655 0.0000
# 6 0.0000 0.0000 0.0000 0.0000 0.0000 27.9736
#
#
#
# Elastic Compliance Matrix: (Units=1/GPa)
#
#
# Indices 1 2 3 4 5 6 
#
# 1 0.022271 -0.008051 -0.005571 0.000000 0.000000 0.000000
# 2 -0.008051 0.022271 -0.005571 0.000000 0.000000 0.000000
# 3 -0.005571 -0.005571 0.011162 0.000000 0.000000 0.000000
# 4 0.000000 0.000000 0.000000 0.018160 0.000000 0.000000
# 5 0.000000 0.000000 0.000000 0.000000 0.018160 0.000000
# 6 0.000000 0.000000 0.000000 0.000000 0.000000 0.035748
#
#
# Mechanical properties :
#
#
# Convention : Reuss Voigt Hill
#
# Bulk Modulus (GPa) = 57.74595 67.63448 62.69021
# Shear Modulus (GPa) = 29.08119 36.89149 32.98634
#
# Velocity S-wave (km/s) = 3.90594 4.39930 4.15994
# Velocity P-wave (km/s) = 7.11591 7.82861 7.48075
#
# Compressibility (1/GPa) = 0.01731723
#
# Stress axis : x y z
#
# Youngs Moduli (GPa) = 44.90103 44.90103 89.58963
#
# Poissons Ratio (x) = 0.36149 0.49914
# Poissons Ratio (y) = 0.36149 0.49914
# Poissons Ratio (z) = 0.25016 0.25016
#
# Static dielectric constant tensor:
#      x y z
#    x 3.496480 0.000000 0.000000 
#    y 0.000000 3.496480 0.000000 
#    z 0.000000 0.000000 3.793950 
# 
# 
# High freq. dielectric constant tensor:
#      x y z
#    x 1.741620 0.000000 0.000000 
#    y 0.000000 1.741620 0.000000 
#    z 0.000000 0.000000 1.757380 
# 
# From -- ./inp_files/5809.got.cif
#   From: 2010.03.12/outbox.cif.g09.slc.cpg/sg115_3_cif.got.tgz:5809.got - 2010.04.14 02:11:21.
