data_PCOD8309367
_publ_section_title
;
Structure prediction by ZEFSAII (Michael W. Deem and Ramdas Pophale) SiO2 
 PCOD8309367
Probable space group: P -4 M 2
;
_chemical_formula_sum "Si O2"
_cell_formula_units_Z 32
_cell_length_a 9.327964
_cell_length_b 9.327964
_cell_length_c 20.463443
_cell_angle_alpha 90.000000
_cell_angle_beta 90.000000
_cell_angle_gamma 90.000000
_cell_volume 1780.542846
_symmetry_space_group_name_H-M "P -4 M 2"
_symmetry_group_IT_number 115
_symmetry_cell_setting 'tetragonal'
loop_
_space_group_symop_operation_xyz
x,y,z
y,-x,-z
-x,-y,z
-y,x,-z
y,x,-z
-y,-x,-z
-x,y,z
x,-y,z
loop_
_atom_site_type_symbol
_atom_site_label
_atom_site_fract_x
_atom_site_fract_y
_atom_site_fract_z
Si Si1 0.166104 0.162805 0.075567
Si Si2 0.665189 0.331185 0.818755
Si Si3 0.329167 0.838564 0.306756
Si Si4 0.340007 0.670816 0.571818
O O1 0.258830 0.273558 0.116605
O O2 0.000000 0.185132 0.092239
O O3 0.212338 0.000000 0.092191
O O4 0.195932 0.195932 0.000000
O O5 0.500000 0.288460 0.809922
O O6 0.684649 0.500000 0.826653
O O7 0.750725 0.273242 0.755727
O O8 0.500000 0.837692 0.308399
O O9 0.267764 0.765146 0.372543
O O10 0.269223 0.000000 0.302702
O O11 0.282552 0.717449 0.500000
O O12 0.500000 0.731737 0.584442
O O13 0.345861 0.500000 0.574352
#
# Coordination Sequence:
#
# PCOD8309367 Si02
#       4
#     8   8   8   8
#     4   9  19  36  55  73  95 126 163 200 240 290
#     4  10  20  32  48  73 103 131 161 201 245 287
#     4   9  16  26  42  65  93 125 160 197 238 285
#     4   8  13  22  38  60  85 114 150 193 240 288
#
# _framework density 17.972048999999998
#
# number of rings (size 3 to 8) (size 9 to 14) (size 15 to 20)
#    0.000    3.000    0.000    3.000    0.000    6.000 
#    0.000    3.750    0.000    1.500    0.000    3.500 
#    0.000    0.000    0.000    0.000    0.000    0.000 
#
# Total GULP energy -396730.889989 kJ/mol
# GULP energy per Si atom -12397.840312 kJ/mol
# Density = 1.793114 g / cm^3
# Si number density = 17.972049 Si / 1000 Ang^3
#
#
#
# Elastic Constant Matrix: (Units=GPa)
#
#
# Indices 1 2 3 4 5 6 
#
# 1 79.6412 39.4878 63.5604 0.0000 0.0000 0.0000
# 2 39.4878 79.6410 63.5603 0.0000 0.0000 0.0000
# 3 63.5604 63.5603 141.7073 0.0000 0.0000 0.0000
# 4 0.0000 0.0000 0.0000 11.1278 0.0000 0.0000
# 5 0.0000 0.0000 0.0000 0.0000 11.1278 0.0000
# 6 0.0000 0.0000 0.0000 0.0000 0.0000 19.7645
#
#
#
# Elastic Compliance Matrix: (Units=1/GPa)
#
#
# Indices 1 2 3 4 5 6 
#
# 1 0.020502 -0.004402 -0.007221 0.000000 0.000000 0.000000
# 2 -0.004402 0.020502 -0.007221 0.000000 0.000000 0.000000
# 3 -0.007221 -0.007221 0.013535 0.000000 0.000000 0.000000
# 4 0.000000 0.000000 0.000000 0.089865 0.000000 0.000000
# 5 0.000000 0.000000 0.000000 0.000000 0.089865 0.000000
# 6 0.000000 0.000000 0.000000 0.000000 0.000000 0.050596
#
#
# Mechanical properties :
#
#
# Convention : Reuss Voigt Hill
#
# Bulk Modulus (GPa) = 59.34913 70.46739 64.90826
# Shear Modulus (GPa) = 15.23590 17.36276 16.29933
#
# Velocity S-wave (km/s) = 2.91478 3.11158 3.01479
# Velocity P-wave (km/s) = 6.66503 7.22522 6.95077
#
# Compressibility (1/GPa) = 0.01684945
#
# Stress axis : x y z
#
# Youngs Moduli (GPa) = 48.77496 48.77480 73.88306
#
# Poissons Ratio (x) = 0.21472 0.53354
# Poissons Ratio (y) = 0.21472 0.53354
# Poissons Ratio (z) = 0.35223 0.35223
#
# Static dielectric constant tensor:
#      x y z
#    x 3.104160 0.000000 0.000000 
#    y 0.000000 3.104160 0.000000 
#    z 0.000000 0.000000 3.533580 
# 
# 
# High freq. dielectric constant tensor:
#      x y z
#    x 1.666370 0.000000 0.000000 
#    y 0.000000 1.666370 0.000000 
#    z 0.000000 0.000000 1.711680 
# 
# From -- ./inp_files/4564.got.cif
#   From: 2010.03.12/outbox.cif.g09.slc.cpg/sg115_3_cif.got.tgz:4564.got - 2010.04.14 02:11:21.
