data_PCOD8309950
_publ_section_title
;
Structure prediction by ZEFSAII (Michael W. Deem and Ramdas Pophale) SiO2 
 PCOD8309950
Probable space group: P -4 M 2
;
_chemical_formula_sum "Si O2"
_cell_formula_units_Z 48
_cell_length_a 9.076315
_cell_length_b 9.076315
_cell_length_c 30.840616
_cell_angle_alpha 90.000000
_cell_angle_beta 90.000000
_cell_angle_gamma 90.000000
_cell_volume 2540.634340
_symmetry_space_group_name_H-M "P -4 M 2"
_symmetry_group_IT_number 115
_symmetry_cell_setting 'tetragonal'
loop_
_space_group_symop_operation_xyz
x,y,z
y,-x,-z
-x,-y,z
-y,x,-z
y,x,-z
-y,-x,-z
-x,y,z
x,-y,z
loop_
_atom_site_type_symbol
_atom_site_label
_atom_site_fract_x
_atom_site_fract_y
_atom_site_fract_z
Si Si1 0.325140 0.168493 0.678788
Si Si2 0.330524 0.826916 0.244401
Si Si3 0.672810 0.330226 0.077790
Si Si4 0.828353 0.171648 0.000000
Si Si5 0.337122 0.824955 0.582762
Si Si6 0.171438 0.670027 0.166915
Si Si7 0.170981 0.829020 0.500000
O O1 0.500000 0.183449 0.683513
O O2 0.245887 0.278769 0.711119
O O3 0.274587 0.216694 0.630304
O O4 0.277762 0.000000 0.688722
O O5 0.500000 0.784196 0.235975
O O6 0.231999 0.769407 0.205236
O O7 0.308409 0.000000 0.248351
O O8 0.500000 0.300850 0.080865
O O9 0.706963 0.500000 0.065918
O O10 0.744369 0.286204 0.123288
O O11 0.740576 0.225657 0.041729
O O12 0.000000 0.203809 0.007146
O O13 0.500000 0.758696 0.577113
O O14 0.239373 0.759093 0.543740
O O15 0.342730 0.000000 0.579967
O O16 0.199134 0.500000 0.179047
O O17 0.000000 0.703289 0.160049
O O18 0.000000 0.793802 0.502394
#
# Coordination Sequence:
#
# PCOD8309950 Si02
#       7
#     8   8   8   4   8   8   4
#     4   9  18  34  56  78  99 130 175 220 261 310
#     4  11  24  38  52  76 110 143 175 214 263 317
#     4  10  21  38  61  87 113 144 183 225 270 319
#     4  11  24  39  56  82 116 153 190 227 270 318
#     4   8  15  29  48  70  97 128 162 203 252 304
#     4  10  21  38  61  86 110 140 180 222 265 317
#     4   9  16  26  44  71  98 126 164 205 244 294
#
# _framework density 18.89292
#
# number of rings (size 3 to 8) (size 9 to 14) (size 15 to 20)
#    0.000    2.333    0.000    3.500    0.000    8.667 
#    0.000    2.500    0.000    3.250    0.000    0.000 
#    0.000    0.000    0.000    0.000    0.000    0.000 
#
# Total GULP energy -595220.017194 kJ/mol
# GULP energy per Si atom -12400.417025 kJ/mol
# Density = 1.884992 g / cm^3
# Si number density = 18.892920 Si / 1000 Ang^3
#
#
#
# Elastic Constant Matrix: (Units=GPa)
#
#
# Indices 1 2 3 4 5 6 
#
# 1 65.4530 43.6489 56.0542 0.0000 0.0000 0.0000
# 2 43.6489 65.4531 56.0542 0.0000 0.0000 0.0000
# 3 56.0542 56.0542 149.6878 0.0000 0.0000 0.0000
# 4 0.0000 0.0000 0.0000 36.6413 0.0000 0.0000
# 5 0.0000 0.0000 0.0000 0.0000 36.6411 0.0000
# 6 0.0000 0.0000 0.0000 0.0000 0.0000 26.6706
#
#
#
# Elastic Compliance Matrix: (Units=1/GPa)
#
#
# Indices 1 2 3 4 5 6 
#
# 1 0.030381 -0.015482 -0.005579 0.000000 0.000000 0.000000
# 2 -0.015482 0.030381 -0.005579 0.000000 0.000000 0.000000
# 3 -0.005579 -0.005579 0.010859 0.000000 0.000000 0.000000
# 4 0.000000 0.000000 0.000000 0.027292 0.000000 0.000000
# 5 0.000000 0.000000 0.000000 0.000000 0.027292 0.000000
# 6 0.000000 0.000000 0.000000 0.000000 0.000000 0.037494
#
#
# Mechanical properties :
#
#
# Convention : Reuss Voigt Hill
#
# Bulk Modulus (GPa) = 54.52644 65.78983 60.15814
# Shear Modulus (GPa) = 22.41225 28.31305 25.36265
#
# Velocity S-wave (km/s) = 3.44797 3.87538 3.66791
# Velocity P-wave (km/s) = 6.69140 7.41100 7.06037
#
# Compressibility (1/GPa) = 0.01833973
#
# Stress axis : x y z
#
# Youngs Moduli (GPa) = 32.91565 32.91563 92.08896
#
# Poissons Ratio (x) = 0.50960 0.51378
# Poissons Ratio (y) = 0.50960 0.51378
# Poissons Ratio (z) = 0.18364 0.18364
#
# Static dielectric constant tensor:
#      x y z
#    x 3.419850 0.000000 0.000000 
#    y 0.000000 3.419850 0.000000 
#    z 0.000000 0.000000 3.947330 
# 
# 
# High freq. dielectric constant tensor:
#      x y z
#    x 1.724010 0.000000 0.000000 
#    y 0.000000 1.724010 0.000000 
#    z 0.000000 0.000000 1.752470 
# 
# From -- ./inp_files/6153.got.cif
#   From: 2010.03.12/outbox.cif.g09.slc.cpg/sg115_4_cif.got.tgz:6153.got - 2010.04.14 02:11:21.
