data_PCOD8309853
_publ_section_title
;
Structure prediction by ZEFSAII (Michael W. Deem and Ramdas Pophale) SiO2 
 PCOD8309853
Probable space group: P -4 M 2
;
_chemical_formula_sum "Si O2"
_cell_formula_units_Z 48
_cell_length_a 9.165893
_cell_length_b 9.165893
_cell_length_c 30.705948
_cell_angle_alpha 90.000000
_cell_angle_beta 90.000000
_cell_angle_gamma 90.000000
_cell_volume 2579.717064
_symmetry_space_group_name_H-M "P -4 M 2"
_symmetry_group_IT_number 115
_symmetry_cell_setting 'tetragonal'
loop_
_space_group_symop_operation_xyz
x,y,z
y,-x,-z
-x,-y,z
-y,x,-z
y,x,-z
-y,-x,-z
-x,y,z
x,-y,z
loop_
_atom_site_type_symbol
_atom_site_label
_atom_site_fract_x
_atom_site_fract_y
_atom_site_fract_z
Si Si1 0.329483 0.329483 0.000000
Si Si2 0.172369 0.167202 0.328575
Si Si3 0.167852 0.332482 0.835322
Si Si4 0.170916 0.332222 0.414199
Si Si5 0.330646 0.669355 0.500000
Si Si6 0.329567 0.331118 0.251366
Si Si7 0.831321 0.170980 0.923036
O O1 0.248793 0.270524 0.042332
O O2 0.296766 0.500000 0.995236
O O3 0.227898 0.239275 0.373359
O O4 0.242803 0.249352 0.288508
O O5 0.000000 0.183413 0.324313
O O6 0.222762 0.000000 0.328209
O O7 0.198861 0.500000 0.848226
O O8 0.266643 0.282065 0.795102
O O9 0.210765 0.231522 0.875755
O O10 0.000000 0.310103 0.821816
O O11 0.214156 0.500000 0.405653
O O12 0.247848 0.271230 0.457503
O O13 0.000000 0.312971 0.421042
O O14 0.500000 0.702256 0.492930
O O15 0.500000 0.305480 0.259369
O O16 0.286941 0.500000 0.252260
O O17 0.000000 0.205142 0.934071
O O18 0.799671 0.000000 0.924017
#
# Coordination Sequence:
#
# PCOD8309853 Si02
#       7
#     4   8   8   8   4   8   8
#     4  11  24  39  56  80 110 145 184 225 268 314
#     4  10  21  36  54  77 105 138 177 220 265 313
#     4   9  18  34  55  78 108 145 180 216 261 312
#     4   9  18  33  51  71  99 134 169 208 258 313
#     4   9  18  32  50  73 100 130 166 209 256 307
#     4  10  21  36  55  80 109 141 177 218 264 314
#     4  10  21  37  58  84 112 142 178 220 266 317
#
# _framework density 18.606691999999999
#
# number of rings (size 3 to 8) (size 9 to 14) (size 15 to 20)
#    0.000    2.333    0.000    2.000    0.000    7.333 
#    0.000    5.000    0.000    0.000    0.000    0.000 
#    0.000    0.000    0.000    0.000    0.000    0.000 
#
# Total GULP energy -595390.557115 kJ/mol
# GULP energy per Si atom -12403.969940 kJ/mol
# Density = 1.856434 g / cm^3
# Si number density = 18.606692 Si / 1000 Ang^3
#
#
#
# Elastic Constant Matrix: (Units=GPa)
#
#
# Indices 1 2 3 4 5 6 
#
# 1 84.7023 50.2408 77.6137 0.0000 0.0000 0.0000
# 2 50.2408 84.7020 77.6138 0.0000 0.0000 0.0000
# 3 77.6137 77.6138 163.6414 0.0000 0.0000 0.0000
# 4 0.0000 0.0000 0.0000 42.0039 0.0000 0.0000
# 5 0.0000 0.0000 0.0000 0.0000 42.0038 0.0000
# 6 0.0000 0.0000 0.0000 0.0000 0.0000 26.9731
#
#
#
# Elastic Compliance Matrix: (Units=1/GPa)
#
#
# Indices 1 2 3 4 5 6 
#
# 1 0.022663 -0.006355 -0.007735 0.000000 0.000000 0.000000
# 2 -0.006355 0.022663 -0.007735 0.000000 0.000000 0.000000
# 3 -0.007735 -0.007735 0.013448 0.000000 0.000000 0.000000
# 4 0.000000 0.000000 0.000000 0.023807 0.000000 0.000000
# 5 0.000000 0.000000 0.000000 0.000000 0.023807 0.000000
# 6 0.000000 0.000000 0.000000 0.000000 0.000000 0.037074
#
#
# Mechanical properties :
#
#
# Convention : Reuss Voigt Hill
#
# Bulk Modulus (GPa) = 66.11592 82.66468 74.39030
# Shear Modulus (GPa) = 26.02093 30.70134 28.36114
#
# Velocity S-wave (km/s) = 3.74367 4.06645 3.90839
# Velocity P-wave (km/s) = 7.36867 8.15916 7.77397
#
# Compressibility (1/GPa) = 0.01512495
#
# Stress axis : x y z
#
# Youngs Moduli (GPa) = 44.12501 44.12471 74.36088
#
# Poissons Ratio (x) = 0.28041 0.57516
# Poissons Ratio (y) = 0.28042 0.57516
# Poissons Ratio (z) = 0.34129 0.34129
#
# Static dielectric constant tensor:
#      x y z
#    x 3.441850 0.000000 0.000000 
#    y 0.000000 3.441860 0.000000 
#    z 0.000000 0.000000 3.561020 
# 
# 
# High freq. dielectric constant tensor:
#      x y z
#    x 1.720480 0.000000 0.000000 
#    y 0.000000 1.720480 0.000000 
#    z 0.000000 0.000000 1.735170 
# 
# From -- ./inp_files/6142.got.cif
#   From: 2010.03.12/outbox.cif.g09.slc.cpg/sg115_4_cif.got.tgz:6142.got - 2010.04.14 02:11:21.
