data_PCOD8309353
_publ_section_title
;
Structure prediction by ZEFSAII (Michael W. Deem and Ramdas Pophale) SiO2 
 PCOD8309353
Probable space group: P -4 M 2
;
_chemical_formula_sum "Si O2"
_cell_formula_units_Z 48
_cell_length_a 9.407940
_cell_length_b 9.407940
_cell_length_c 30.603910
_cell_angle_alpha 90.000000
_cell_angle_beta 90.000000
_cell_angle_gamma 90.000000
_cell_volume 2708.731724
_symmetry_space_group_name_H-M "P -4 M 2"
_symmetry_group_IT_number 115
_symmetry_cell_setting 'tetragonal'
loop_
_space_group_symop_operation_xyz
x,y,z
y,-x,-z
-x,-y,z
-y,x,-z
y,x,-z
-y,-x,-z
-x,y,z
x,-y,z
loop_
_atom_site_type_symbol
_atom_site_label
_atom_site_fract_x
_atom_site_fract_y
_atom_site_fract_z
Si Si1 0.335504 0.832448 0.629829
Si Si2 0.836475 0.667019 0.701590
Si Si3 0.337281 0.336557 0.050614
Si Si4 0.158312 0.831021 0.547825
Si Si5 0.831702 0.162631 0.880150
Si Si6 0.168551 0.656939 0.799425
O O1 0.500000 0.791457 0.627937
O O2 0.264677 0.755496 0.670473
O O3 0.263799 0.775089 0.585232
O O4 0.312094 0.000000 0.635311
O O5 0.817074 0.500000 0.693106
O O6 0.787579 0.706492 0.750850
O O7 0.000000 0.711630 0.693558
O O8 0.500000 0.299354 0.061918
O O9 0.305143 0.500000 0.062010
O O10 0.234984 0.236027 0.077820
O O11 0.306555 0.306555 0.000000
O O12 0.216593 0.783408 0.500000
O O13 0.000000 0.769051 0.556691
O O14 0.150816 0.000000 0.547909
O O15 0.772668 0.234797 0.835749
O O16 0.000000 0.179307 0.883938
O O17 0.783881 0.000000 0.878748
O O18 0.231255 0.500000 0.809287
O O19 0.000000 0.649165 0.801333
#
# Coordination Sequence:
#
# PCOD8309353 Si02
#       6
#     8   8   8   8   8   8
#     4  10  20  32  47  71 103 134 161 193 240 295
#     4   9  18  33  53  75  96 123 165 210 245 283
#     4   9  19  36  55  73  95 128 171 211 243 282
#     4   8  14  27  48  70  91 121 164 208 244 281
#     4  10  20  32  49  77 108 132 157 195 245 297
#     4   8  15  30  51  72  95 126 165 205 242 284
#
# _framework density 17.720469999999999
#
# number of rings (size 3 to 8) (size 9 to 14) (size 15 to 20)
#    0.000    3.000    0.000    3.000    0.000    4.000 
#    0.000    5.833    0.000    4.000    0.000    0.000 
#    0.000    0.000    0.000    0.000    0.000    0.000 
#
# Total GULP energy -595065.952173 kJ/mol
# GULP energy per Si atom -12397.207337 kJ/mol
# Density = 1.768014 g / cm^3
# Si number density = 17.720470 Si / 1000 Ang^3
#
#
#
# Elastic Constant Matrix: (Units=GPa)
#
#
# Indices 1 2 3 4 5 6 
#
# 1 77.8604 45.4158 67.1893 0.0000 0.0000 0.0000
# 2 45.4158 77.8605 67.1894 0.0000 0.0000 0.0000
# 3 67.1893 67.1894 145.4793 0.0000 0.0000 0.0000
# 4 0.0000 0.0000 0.0000 6.0593 0.0000 0.0000
# 5 0.0000 0.0000 0.0000 0.0000 6.0595 0.0000
# 6 0.0000 0.0000 0.0000 0.0000 0.0000 24.9443
#
#
#
# Elastic Compliance Matrix: (Units=1/GPa)
#
#
# Indices 1 2 3 4 5 6 
#
# 1 0.023579 -0.007243 -0.007545 0.000000 0.000000 0.000000
# 2 -0.007243 0.023579 -0.007545 0.000000 0.000000 0.000000
# 3 -0.007545 -0.007545 0.013843 0.000000 0.000000 0.000000
# 4 0.000000 0.000000 0.000000 0.165035 0.000000 0.000000
# 5 0.000000 0.000000 0.000000 0.000000 0.165030 0.000000
# 6 0.000000 0.000000 0.000000 0.000000 0.000000 0.040089
#
#
# Mechanical properties :
#
#
# Convention : Reuss Voigt Hill
#
# Bulk Modulus (GPa) = 61.21450 73.42103 67.31777
# Shear Modulus (GPa) = 10.38927 15.50634 12.94781
#
# Velocity S-wave (km/s) = 2.42396 2.96134 2.70602
# Velocity P-wave (km/s) = 6.51565 7.29490 6.91626
#
# Compressibility (1/GPa) = 0.01633600
#
# Stress axis : x y z
#
# Youngs Moduli (GPa) = 42.41066 42.41076 72.23882
#
# Poissons Ratio (x) = 0.30717 0.54503
# Poissons Ratio (y) = 0.30717 0.54503
# Poissons Ratio (z) = 0.31998 0.31998
#
# Static dielectric constant tensor:
#      x y z
#    x 3.167720 0.000000 0.000000 
#    y 0.000000 3.167720 0.000000 
#    z 0.000000 0.000000 3.541010 
# 
# 
# High freq. dielectric constant tensor:
#      x y z
#    x 1.664340 0.000000 0.000000 
#    y 0.000000 1.664340 0.000000 
#    z 0.000000 0.000000 1.700290 
# 
# From -- ./inp_files/5950.got.cif
#   From: 2010.03.12/outbox.cif.g09.slc.cpg/sg115_3_cif.got.tgz:5950.got - 2010.04.14 02:11:21.
