data_PCOD8309356
_publ_section_title
;
Structure prediction by ZEFSAII (Michael W. Deem and Ramdas Pophale) SiO2 
 PCOD8309356
Probable space group: P -4 M 2
;
_chemical_formula_sum "Si O2"
_cell_formula_units_Z 48
_cell_length_a 9.373877
_cell_length_b 9.373877
_cell_length_c 30.761024
_cell_angle_alpha 90.000000
_cell_angle_beta 90.000000
_cell_angle_gamma 90.000000
_cell_volume 2702.957952
_symmetry_space_group_name_H-M "P -4 M 2"
_symmetry_group_IT_number 115
_symmetry_cell_setting 'tetragonal'
loop_
_space_group_symop_operation_xyz
x,y,z
y,-x,-z
-x,-y,z
-y,x,-z
y,x,-z
-y,-x,-z
-x,y,z
x,-y,z
loop_
_atom_site_type_symbol
_atom_site_label
_atom_site_fract_x
_atom_site_fract_y
_atom_site_fract_z
Si Si1 0.666816 0.835175 0.296355
Si Si2 0.335211 0.667495 0.619701
Si Si3 0.840267 0.830655 0.119355
Si Si4 0.165228 0.161936 0.449690
Si Si5 0.666485 0.167699 0.037045
Si Si6 0.839199 0.830866 0.214979
O O1 0.500000 0.815383 0.289738
O O2 0.722973 0.746819 0.337577
O O3 0.739117 0.769862 0.253036
O O4 0.708612 0.000000 0.303930
O O5 0.500000 0.708547 0.624563
O O6 0.312498 0.500000 0.613679
O O7 0.272420 0.742592 0.577480
O O8 0.729246 0.777669 0.083080
O O9 0.792042 0.773906 0.167124
O O10 0.000000 0.774479 0.108361
O O11 0.843197 0.000000 0.120511
O O12 0.194470 0.194470 0.500000
O O13 0.000000 0.184128 0.438439
O O14 0.211274 0.000000 0.438567
O O15 0.500000 0.203700 0.036170
O O16 0.695320 0.000000 0.030110
O O17 0.745683 0.254318 0.000000
O O18 0.000000 0.781278 0.224648
O O19 0.827646 0.000000 0.215002
#
# Coordination Sequence:
#
# PCOD8309356 Si02
#       6
#     8   8   8   8   8   8
#     4   9  17  29  46  68  94 126 163 201 241 284
#     4  10  21  35  50  71 101 135 169 204 241 284
#     4   8  14  26  45  69  96 123 153 195 245 292
#     4   9  19  36  56  77 100 126 159 201 248 296
#     4  10  20  32  48  71  97 127 163 201 242 288
#     4   8  14  25  43  69  97 122 152 194 242 287
#
# _framework density 17.758320999999999
#
# number of rings (size 3 to 8) (size 9 to 14) (size 15 to 20)
#    0.000    3.000    0.000    2.500    0.000    4.333 
#    0.000    7.500    0.000    1.000    0.000    4.667 
#    0.000    0.000    0.000    0.000    0.000    0.000 
#
# Total GULP energy -595036.541764 kJ/mol
# GULP energy per Si atom -12396.594620 kJ/mol
# Density = 1.771790 g / cm^3
# Si number density = 17.758321 Si / 1000 Ang^3
#
#
#
# Elastic Constant Matrix: (Units=GPa)
#
#
# Indices 1 2 3 4 5 6 
#
# 1 66.9199 43.4078 66.5737 0.0000 0.0000 0.0000
# 2 43.4078 66.9215 66.5739 0.0000 0.0000 0.0000
# 3 66.5737 66.5739 153.2043 0.0000 0.0000 0.0000
# 4 0.0000 0.0000 0.0000 5.5902 0.0000 0.0000
# 5 0.0000 0.0000 0.0000 0.0000 5.5909 0.0000
# 6 0.0000 0.0000 0.0000 0.0000 0.0000 20.0761
#
#
#
# Elastic Compliance Matrix: (Units=1/GPa)
#
#
# Indices 1 2 3 4 5 6 
#
# 1 0.030795 -0.011736 -0.008282 0.000000 0.000000 0.000000
# 2 -0.011736 0.030794 -0.008281 0.000000 0.000000 0.000000
# 3 -0.008282 -0.008281 0.013725 0.000000 0.000000 0.000000
# 4 0.000000 0.000000 0.000000 0.178884 0.000000 0.000000
# 5 0.000000 0.000000 0.000000 0.000000 0.178864 0.000000
# 6 0.000000 0.000000 0.000000 0.000000 0.000000 0.049810
#
#
# Mechanical properties :
#
#
# Convention : Reuss Voigt Hill
#
# Bulk Modulus (GPa) = 53.43363 71.12848 62.28105
# Shear Modulus (GPa) = 9.16242 13.61746 11.38994
#
# Velocity S-wave (km/s) = 2.27392 2.77216 2.53531
# Velocity P-wave (km/s) = 6.08678 7.09838 6.61196
#
# Compressibility (1/GPa) = 0.01871481
#
# Stress axis : x y z
#
# Youngs Moduli (GPa) = 32.47310 32.47437 72.86122
#
# Poissons Ratio (x) = 0.38111 0.60343
# Poissons Ratio (y) = 0.38109 0.60340
# Poissons Ratio (z) = 0.26894 0.26894
#
# Static dielectric constant tensor:
#      x y z
#    x 3.108910 0.000000 0.000000 
#    y 0.000000 3.108910 0.000000 
#    z 0.000000 0.000000 3.695970 
# 
# 
# High freq. dielectric constant tensor:
#      x y z
#    x 1.662790 0.000000 0.000000 
#    y 0.000000 1.662790 0.000000 
#    z 0.000000 0.000000 1.703280 
# 
# From -- ./inp_files/6067.got.cif
#   From: 2010.03.12/outbox.cif.g09.slc.cpg/sg115_4_cif.got.tgz:6067.got - 2010.04.14 02:11:21.
