data_PCOD8309417
_publ_section_title
;
Structure prediction by ZEFSAII (Michael W. Deem and Ramdas Pophale) SiO2 
 PCOD8309417
Probable space group: P -4 M 2
;
_chemical_formula_sum "Si O2"
_cell_formula_units_Z 48
_cell_length_a 9.257589
_cell_length_b 9.257589
_cell_length_c 31.081162
_cell_angle_alpha 90.000000
_cell_angle_beta 90.000000
_cell_angle_gamma 90.000000
_cell_volume 2663.747400
_symmetry_space_group_name_H-M "P -4 M 2"
_symmetry_group_IT_number 115
_symmetry_cell_setting 'tetragonal'
loop_
_space_group_symop_operation_xyz
x,y,z
y,-x,-z
-x,-y,z
-y,x,-z
y,x,-z
-y,-x,-z
-x,y,z
x,-y,z
loop_
_atom_site_type_symbol
_atom_site_label
_atom_site_fract_x
_atom_site_fract_y
_atom_site_fract_z
Si Si1 0.834524 0.165477 0.000000
Si Si2 0.332512 0.831786 0.085617
Si Si3 0.672062 0.662487 0.756386
Si Si4 0.668026 0.331975 0.500000
Si Si5 0.833793 0.328957 0.160144
Si Si6 0.671627 0.837455 0.581138
Si Si7 0.328017 0.837247 0.675767
O O1 0.792743 0.269977 0.961027
O O2 0.000000 0.189782 0.014622
O O3 0.500000 0.787545 0.086906
O O4 0.245457 0.740527 0.120017
O O5 0.310393 0.000000 0.095826
O O6 0.500000 0.661539 0.755053
O O7 0.732696 0.500000 0.760735
O O8 0.726948 0.756793 0.796503
O O9 0.734976 0.732035 0.712464
O O10 0.500000 0.298367 0.496074
O O11 0.739630 0.264140 0.457114
O O12 0.820845 0.500000 0.155791
O O13 0.000000 0.279134 0.161415
O O14 0.500000 0.830111 0.579938
O O15 0.724146 0.783609 0.628403
O O16 0.725748 0.000000 0.573525
O O17 0.500000 0.836908 0.677582
O O18 0.272234 0.000000 0.684277
#
# Coordination Sequence:
#
# PCOD8309417 Si02
#       7
#     4   8   8   4   8   8   8
#     4   9  18  34  54  73  96 128 164 199 234 279
#     4  10  21  36  54  77 104 132 163 201 244 289
#     4   9  16  25  39  62  92 123 154 192 239 286
#     4   9  16  24  36  57  82 104 132 175 220 260
#     4  10  20  33  50  72  99 132 168 204 242 286
#     4   8  14  24  37  54  79 112 145 176 217 271
#     4   8  13  22  36  54  79 112 148 183 221 271
#
# _framework density 18.019725999999999
#
# number of rings (size 3 to 8) (size 9 to 14) (size 15 to 20)
#    0.000    3.000    0.000    2.500    0.000    5.333 
#    0.000    5.000    0.000    0.250    0.000    1.167 
#    0.000    4.000    0.000    0.000    0.000    0.000 
#
# Total GULP energy -595002.357928 kJ/mol
# GULP energy per Si atom -12395.882457 kJ/mol
# Density = 1.797871 g / cm^3
# Si number density = 18.019726 Si / 1000 Ang^3
#
#
#
# Elastic Constant Matrix: (Units=GPa)
#
#
# Indices 1 2 3 4 5 6 
#
# 1 71.8639 32.9120 65.5897 0.0000 0.0000 0.0000
# 2 32.9120 71.8640 65.5901 0.0000 0.0000 0.0000
# 3 65.5897 65.5901 166.7103 0.0000 0.0000 0.0000
# 4 0.0000 0.0000 0.0000 8.8123 0.0000 0.0000
# 5 0.0000 0.0000 0.0000 0.0000 8.8118 0.0000
# 6 0.0000 0.0000 0.0000 0.0000 0.0000 15.3802
#
#
#
# Elastic Compliance Matrix: (Units=1/GPa)
#
#
# Indices 1 2 3 4 5 6 
#
# 1 0.022241 -0.003432 -0.007400 0.000000 0.000000 0.000000
# 2 -0.003432 0.022241 -0.007400 0.000000 0.000000 0.000000
# 3 -0.007400 -0.007400 0.011822 0.000000 0.000000 0.000000
# 4 0.000000 0.000000 0.000000 0.113478 0.000000 0.000000
# 5 0.000000 0.000000 0.000000 0.000000 0.113484 0.000000
# 6 0.000000 0.000000 0.000000 0.000000 0.000000 0.065019
#
#
# Mechanical properties :
#
#
# Convention : Reuss Voigt Hill
#
# Bulk Modulus (GPa) = 50.40551 70.95798 60.68174
# Shear Modulus (GPa) = 12.77588 16.35726 14.56657
#
# Velocity S-wave (km/s) = 2.66558 3.01614 2.84627
# Velocity P-wave (km/s) = 6.12429 7.18282 6.67457
#
# Compressibility (1/GPa) = 0.01983910
#
# Stress axis : x y z
#
# Youngs Moduli (GPa) = 44.96210 44.96184 84.59138
#
# Poissons Ratio (x) = 0.15429 0.62600
# Poissons Ratio (y) = 0.15429 0.62601
# Poissons Ratio (z) = 0.33273 0.33273
#
# Static dielectric constant tensor:
#      x y z
#    x 3.160520 0.000000 0.000000 
#    y 0.000000 3.160520 0.000000 
#    z 0.000000 0.000000 3.702040 
# 
# 
# High freq. dielectric constant tensor:
#      x y z
#    x 1.667300 0.000000 0.000000 
#    y 0.000000 1.667300 0.000000 
#    z 0.000000 0.000000 1.717030 
# 
# From -- ./inp_files/6223.got.cif
#   From: 2010.03.12/outbox.cif.g09.slc.cpg/sg115_4_cif.got.tgz:6223.got - 2010.04.14 02:11:21.
