data_PCOD8309200
_publ_section_title
;
Structure prediction by ZEFSAII (Michael W. Deem and Ramdas Pophale) SiO2 
 PCOD8309200
Probable space group: P -4 M 2
;
_chemical_formula_sum "Si O2"
_cell_formula_units_Z 56
_cell_length_a 14.351886
_cell_length_b 14.351886
_cell_length_c 14.926899
_cell_angle_alpha 90.000000
_cell_angle_beta 90.000000
_cell_angle_gamma 90.000000
_cell_volume 3074.592379
_symmetry_space_group_name_H-M "P -4 M 2"
_symmetry_group_IT_number 115
_symmetry_cell_setting 'tetragonal'
loop_
_space_group_symop_operation_xyz
x,y,z
y,-x,-z
-x,-y,z
-y,x,-z
y,x,-z
-y,-x,-z
-x,y,z
x,-y,z
loop_
_atom_site_type_symbol
_atom_site_label
_atom_site_fract_x
_atom_site_fract_y
_atom_site_fract_z
Si Si1 0.395810 0.647965 0.098543
Si Si2 0.601269 0.712334 0.735434
Si Si3 0.609881 0.899179 0.346868
Si Si4 0.105834 0.391851 0.172993
Si Si5 0.292309 0.389346 0.583083
Si Si6 0.859683 0.394889 0.851369
Si Si7 0.103344 0.260187 0.008481
O O1 0.500000 0.605867 0.093830
O O2 0.332828 0.588673 0.166102
O O3 0.397645 0.750272 0.137588
O O4 0.351017 0.648984 0.000000
O O5 0.500000 0.710785 0.688338
O O6 0.632747 0.820670 0.747664
O O7 0.670033 0.652475 0.675338
O O8 0.500000 0.898573 0.338133
O O9 0.637292 0.817573 0.416919
O O10 0.647513 0.881996 0.246585
O O11 0.646075 0.000000 0.382560
O O12 0.117370 0.500000 0.144067
O O13 0.133183 0.327083 0.089724
O O14 0.000000 0.372779 0.206438
O O15 0.341620 0.341620 0.500000
O O16 0.310405 0.500000 0.581058
O O17 0.900458 0.500000 0.864128
O O18 0.904559 0.323615 0.920657
O O19 0.000000 0.217991 0.025428
O O20 0.176416 0.176416 0.000000
#
# Coordination Sequence:
#
# PCOD8309200 Si02
#       7
#     8   8   8   8   8   8   8
#     4  11  21  31  45  72 112 152 186 221 262 313
#     4  11  21  34  53  76 106 147 187 223 263 318
#     4   9  18  34  56  81 108 136 173 226 278 316
#     4   9  19  36  55  76 103 137 181 233 282 323
#     4  11  23  39  57  82 114 149 183 219 264 323
#     4  10  18  31  52  78 105 135 176 226 275 322
#     4  11  22  33  49  73 104 144 184 223 268 322
#
# _framework density 18.213797
#
# number of rings (size 3 to 8) (size 9 to 14) (size 15 to 20)
#    0.000    1.714    1.429    4.286    0.000    6.429 
#    0.000    0.714    0.000    3.429    0.000    0.000 
#    0.000    1.429    0.000    0.000    0.000    0.000 
#
# Total GULP energy -694092.537729 kJ/mol
# GULP energy per Si atom -12394.509602 kJ/mol
# Density = 1.817234 g / cm^3
# Si number density = 18.213797 Si / 1000 Ang^3
#
#
#
# Elastic Constant Matrix: (Units=GPa)
#
#
# Indices 1 2 3 4 5 6 
#
# 1 108.9268 48.5824 43.0431 0.0000 0.0000 0.0000
# 2 48.5824 108.9264 43.0430 0.0000 0.0000 0.0000
# 3 43.0431 43.0430 82.7920 0.0000 0.0000 0.0000
# 4 0.0000 0.0000 0.0000 20.6945 0.0000 0.0000
# 5 0.0000 0.0000 0.0000 0.0000 20.6945 0.0000
# 6 0.0000 0.0000 0.0000 0.0000 0.0000 19.4860
#
#
#
# Elastic Compliance Matrix: (Units=1/GPa)
#
#
# Indices 1 2 3 4 5 6 
#
# 1 0.012720 -0.003851 -0.004611 0.000000 0.000000 0.000000
# 2 -0.003851 0.012720 -0.004611 0.000000 0.000000 0.000000
# 3 -0.004611 -0.004611 0.016873 0.000000 0.000000 0.000000
# 4 0.000000 0.000000 0.000000 0.048322 0.000000 0.000000
# 5 0.000000 0.000000 0.000000 0.000000 0.048322 0.000000
# 6 0.000000 0.000000 0.000000 0.000000 0.000000 0.051319
#
#
# Mechanical properties :
#
#
# Convention : Reuss Voigt Hill
#
# Bulk Modulus (GPa) = 61.85417 63.33137 62.59277
# Shear Modulus (GPa) = 22.54164 23.24010 22.89087
#
# Velocity S-wave (km/s) = 3.52179 3.57594 3.54897
# Velocity P-wave (km/s) = 7.11134 7.20391 7.15777
#
# Compressibility (1/GPa) = 0.01616706
#
# Stress axis : x y z
#
# Youngs Moduli (GPa) = 78.61496 78.61467 59.26695
#
# Poissons Ratio (x) = 0.30277 0.27327
# Poissons Ratio (y) = 0.30277 0.27327
# Poissons Ratio (z) = 0.36249 0.36248
#
# Static dielectric constant tensor:
#      x y z
#    x 3.528700 0.000000 0.000000 
#    y 0.000000 3.528700 0.000000 
#    z 0.000000 0.000000 3.132010 
# 
# 
# High freq. dielectric constant tensor:
#      x y z
#    x 1.701850 0.000000 0.000000 
#    y 0.000000 1.701850 0.000000 
#    z 0.000000 0.000000 1.680860 
# 
# From -- ./inp_files/3794.got.cif
#   From: 2010.03.12/outbox.cif.g09.slc.cpg/sg115_2_cif.got.tgz:3794.got - 2010.04.14 02:11:21.
