data_PCOD8309035
_publ_section_title
;
Structure prediction by ZEFSAII (Michael W. Deem and Ramdas Pophale) SiO2 
 PCOD8309035
Probable space group: P -4 21 C
;
_chemical_formula_sum "Si O2"
_cell_formula_units_Z 14
_cell_length_a 6.739030
_cell_length_b 6.739030
_cell_length_c 14.667288
_cell_angle_alpha 90.000000
_cell_angle_beta 90.000000
_cell_angle_gamma 90.000000
_cell_volume 666.107923
_symmetry_space_group_name_H-M "P -4 21 C"
_symmetry_group_IT_number 114
_symmetry_cell_setting 'tetragonal'
loop_
_space_group_symop_operation_xyz
x,y,z
y,-x,-z
-x,-y,z
-y,x,-z
1/2+x,1/2-y,1/2-z
1/2-x,1/2+y,1/2-z
1/2-y,1/2-x,1/2+z
1/2+y,1/2+x,1/2+z
loop_
_atom_site_type_symbol
_atom_site_label
_atom_site_fract_x
_atom_site_fract_y
_atom_site_fract_z
Si Si1 0.625735 0.195533 0.351179
Si Si2 0.000000 0.000000 0.703403
Si Si3 0.500000 0.500000 0.500000
O O1 0.619642 0.344139 0.265655
O O2 0.554415 0.306998 0.441567
O O3 0.852338 0.122861 0.361541
O O4 0.500000 0.000000 0.332520
#
# Coordination Sequence:
#
# PCOD8309035 Si02
#       3
#     8   4   2
#     4  11  23  43  69 101 132 175 224 280 329 402
#     4  11  22  41  75  97 128 174 232 271 326 398
#     4  10  28  44  64 102 144 174 220 274 352 396
#
# _framework density 21.017614999999999
#
# number of rings (size 3 to 8) (size 9 to 14) (size 15 to 20)
#    0.000    1.143    5.714    0.000    0.000    4.571 
#    0.000    0.000    0.000    0.000    0.000    0.000 
#    0.000    0.000    0.000    0.000    0.000    0.000 
#
# Total GULP energy -173611.426447 kJ/mol
# GULP energy per Si atom -12400.816175 kJ/mol
# Density = 2.096978 g / cm^3
# Si number density = 21.017615 Si / 1000 Ang^3
#
#
#
# Elastic Constant Matrix: (Units=GPa)
#
#
# Indices 1 2 3 4 5 6 
#
# 1 131.1300 45.2030 23.1567 0.0000 0.0000 0.0000
# 2 45.2030 131.1300 23.1567 0.0000 0.0000 0.0000
# 3 23.1567 23.1567 54.2386 0.0000 0.0000 0.0000
# 4 0.0000 0.0000 0.0000 17.6472 0.0000 0.0000
# 5 0.0000 0.0000 0.0000 0.0000 17.6472 0.0000
# 6 0.0000 0.0000 0.0000 0.0000 0.0000 55.1800
#
#
#
# Elastic Compliance Matrix: (Units=1/GPa)
#
#
# Indices 1 2 3 4 5 6 
#
# 1 0.009013 -0.002625 -0.002727 0.000000 0.000000 0.000000
# 2 -0.002625 0.009013 -0.002727 0.000000 0.000000 0.000000
# 3 -0.002727 -0.002727 0.020766 0.000000 0.000000 0.000000
# 4 0.000000 0.000000 0.000000 0.056666 0.000000 0.000000
# 5 0.000000 0.000000 0.000000 0.000000 0.056666 0.000000
# 6 0.000000 0.000000 0.000000 0.000000 0.000000 0.018123
#
#
# Mechanical properties :
#
#
# Convention : Reuss Voigt Hill
#
# Bulk Modulus (GPa) = 44.18485 55.50350 49.84418
# Shear Modulus (GPa) = 25.78009 33.09370 29.43689
#
# Velocity S-wave (km/s) = 3.50608 3.97239 3.74650
# Velocity P-wave (km/s) = 6.12034 6.89241 6.51781
#
# Compressibility (1/GPa) = 0.02263219
#
# Stress axis : x y z
#
# Youngs Moduli (GPa) = 110.95627 110.95627 48.15655
#
# Poissons Ratio (x) = 0.29128 0.13132
# Poissons Ratio (y) = 0.29128 0.13132
# Poissons Ratio (z) = 0.30258 0.30258
#
# Static dielectric constant tensor:
#      x y z
#    x 4.077470 0.000000 0.000000 
#    y 0.000000 4.077470 0.000000 
#    z 0.000000 0.000000 3.426100 
# 
# 
# High freq. dielectric constant tensor:
#      x y z
#    x 1.843340 0.000000 0.000000 
#    y 0.000000 1.843340 0.000000 
#    z 0.000000 0.000000 1.794010 
# 
# From -- ./inp_files/1124.got.cif
#   From: 2010.03.12/outbox.cif.g09.slc.cpg/sg114_1_cif.got.tgz:1124.got - 2010.04.14 02:08:34.
