data_PCOD8309110
_publ_section_title
;
Structure prediction by ZEFSAII (Michael W. Deem and Ramdas Pophale) SiO2 
 PCOD8309110
Probable space group: P -4 21 C
;
_chemical_formula_sum "Si O2"
_cell_formula_units_Z 44
_cell_length_a 13.872995
_cell_length_b 13.872995
_cell_length_c 9.524211
_cell_angle_alpha 90.000000
_cell_angle_beta 90.000000
_cell_angle_gamma 90.000000
_cell_volume 1833.029556
_symmetry_space_group_name_H-M "P -4 21 C"
_symmetry_group_IT_number 114
_symmetry_cell_setting 'tetragonal'
loop_
_space_group_symop_operation_xyz
x,y,z
y,-x,-z
-x,-y,z
-y,x,-z
1/2+x,1/2-y,1/2-z
1/2-x,1/2+y,1/2-z
1/2-y,1/2-x,1/2+z
1/2+y,1/2+x,1/2+z
loop_
_atom_site_type_symbol
_atom_site_label
_atom_site_fract_x
_atom_site_fract_y
_atom_site_fract_z
Si Si1 0.189010 0.928119 0.871406
Si Si2 0.900914 0.383890 0.537614
Si Si3 0.500000 0.500000 0.000000
Si Si4 0.418137 0.317246 0.838636
Si Si5 0.291499 0.961856 0.137100
Si Si6 0.000000 0.000000 0.000000
Si Si7 0.869416 0.518847 0.778979
O O1 0.094508 0.992454 0.902717
O O2 0.259963 0.991386 0.773472
O O3 0.162781 0.834682 0.780407
O O4 0.241969 0.895671 0.016486
O O5 0.876497 0.270972 0.566813
O O6 0.820371 0.439286 0.445967
O O7 0.927421 0.440789 0.682325
O O8 0.996630 0.383616 0.442863
O O9 0.442060 0.417634 0.915448
O O10 0.514583 0.285865 0.756918
O O11 0.372581 0.907557 0.227370
#
# Coordination Sequence:
#
# PCOD8309110 Si02
#       7
#     8   8   2   8   8   2   8
#     4  11  26  47  76 107 151 209 265 330 393 480
#     4  11  25  46  79 111 154 202 253 330 397 478
#     4  12  30  52  74 108 172 210 264 342 380 474
#     4  12  26  49  74 113 148 218 263 325 399 470
#     4  11  26  45  79 112 154 204 257 333 408 481
#     4  12  22  52  76  98 152 222 280 310 388 474
#     4  11  26  47  76 119 158 196 258 335 415 470
#
# _framework density 24.003976999999999
#
# number of rings (size 3 to 8) (size 9 to 14) (size 15 to 20)
#    0.000    0.727    3.636    2.182    7.636    1.455 
#    3.273    0.000    0.000    0.000    0.000    0.000 
#    0.000    0.000    0.000    0.000    0.000    0.000 
#
# Total GULP energy -545207.040717 kJ/mol
# GULP energy per Si atom -12391.069107 kJ/mol
# Density = 2.394934 g / cm^3
# Si number density = 24.003977 Si / 1000 Ang^3
#
#
#
# Elastic Constant Matrix: (Units=GPa)
#
#
# Indices 1 2 3 4 5 6 
#
# 1 123.1812 30.3120 46.3067 0.0000 0.0000 0.0000
# 2 30.3120 123.1812 46.3067 0.0000 0.0000 0.0000
# 3 46.3067 46.3067 125.7280 0.0000 0.0000 0.0000
# 4 0.0000 0.0000 0.0000 38.2722 0.0000 0.0000
# 5 0.0000 0.0000 0.0000 0.0000 38.2722 0.0000
# 6 0.0000 0.0000 0.0000 0.0000 0.0000 28.8416
#
#
#
# Elastic Compliance Matrix: (Units=1/GPa)
#
#
# Indices 1 2 3 4 5 6 
#
# 1 0.009572 -0.001196 -0.003085 0.000000 0.000000 0.000000
# 2 -0.001196 0.009572 -0.003085 0.000000 0.000000 0.000000
# 3 -0.003085 -0.003085 0.010226 0.000000 0.000000 0.000000
# 4 0.000000 0.000000 0.000000 0.026129 0.000000 0.000000
# 5 0.000000 0.000000 0.000000 0.000000 0.026129 0.000000
# 6 0.000000 0.000000 0.000000 0.000000 0.000000 0.034672
#
#
# Mechanical properties :
#
#
# Convention : Reuss Voigt Hill
#
# Bulk Modulus (GPa) = 68.31246 68.66016 68.48631
# Shear Modulus (GPa) = 36.78869 37.68818 37.23844
#
# Velocity S-wave (km/s) = 3.91910 3.96672 3.94298
# Velocity P-wave (km/s) = 6.99998 7.04596 7.02301
#
# Compressibility (1/GPa) = 0.01463862
#
# Stress axis : x y z
#
# Youngs Moduli (GPa) = 104.47001 104.47001 97.78785
#
# Poissons Ratio (x) = 0.12492 0.30169
# Poissons Ratio (y) = 0.12492 0.30169
# Poissons Ratio (z) = 0.32230 0.32230
#
# Static dielectric constant tensor:
#      x y z
#    x 4.263830 0.000000 0.000000 
#    y 0.000000 4.263830 0.000000 
#    z 0.000000 0.000000 4.619240 
# 
# 
# High freq. dielectric constant tensor:
#      x y z
#    x 1.940570 0.000000 0.000000 
#    y 0.000000 1.940570 0.000000 
#    z 0.000000 0.000000 1.972400 
# 
# From -- ./inp_files/1633.got.cif
#   From: 2010.03.12/outbox.cif.g09.slc.cpg/sg114_1_cif.got.tgz:1633.got - 2010.04.14 02:08:34.
