data_PCOD8309975
_publ_section_title
;
Structure prediction by ZEFSAII (Michael W. Deem and Ramdas Pophale) SiO2 
 PCOD8309975
Probable space group: P -4 M 2
;
_chemical_formula_sum "Si O2"
_cell_formula_units_Z 38
_cell_length_a 7.748302
_cell_length_b 7.748302
_cell_length_c 30.117510
_cell_angle_alpha 90.000000
_cell_angle_beta 90.000000
_cell_angle_gamma 90.000000
_cell_volume 1808.140368
_symmetry_space_group_name_H-M "P -4 M 2"
_symmetry_group_IT_number 115
_symmetry_cell_setting 'tetragonal'
loop_
_space_group_symop_operation_xyz
x,y,z
y,-x,-z
-x,-y,z
-y,x,-z
y,x,-z
-y,-x,-z
-x,y,z
x,-y,z
loop_
_atom_site_type_symbol
_atom_site_label
_atom_site_fract_x
_atom_site_fract_y
_atom_site_fract_z
Si Si1 0.693611 0.706086 0.952416
Si Si2 0.703633 0.187831 0.140521
Si Si3 0.203245 0.310057 0.593970
Si Si4 0.799062 0.799062 0.500000
Si Si5 0.207085 0.000000 0.656048
Si Si6 0.500000 0.000000 0.727127
Si Si7 0.500000 0.292746 0.798237
O O1 0.500000 0.774132 0.946307
O O2 0.696377 0.500000 0.954114
O O3 0.796019 0.778356 0.909637
O O4 0.771579 0.771579 0.000000
O O5 0.500000 0.207505 0.137110
O O6 0.769553 0.333512 0.173934
O O7 0.758455 0.000000 0.159202
O O8 0.254547 0.500000 0.611919
O O9 0.280612 0.287074 0.544395
O O10 0.268632 0.167559 0.628447
O O11 0.000000 0.286469 0.589481
O O12 0.000000 0.760178 0.495453
O O13 0.320608 0.000000 0.700205
O O14 0.000000 0.000000 0.666528
O O15 0.500000 0.820467 0.754022
O O16 0.500000 0.500000 0.787871
#
# Coordination Sequence:
#
# PCOD8309975 Si02
#       7
#     8   8   8   4   4   2   4
#     4   8  12  20  40  71 109 155 198 234 281 344
#     4   9  16  29  54  84 116 155 194 239 300 358
#     4   9  17  32  57  88 122 165 205 243 296 353
#     4   9  14  26  50  81 122 168 210 247 283 340
#     4  10  22  44  64  86 122 160 200 254 306 362
#     4  12  28  44  68  96 112 156 212 252 324 376
#     4  10  22  42  64  88 120 146 196 262 308 358
#
# _framework density 21.016067
#
# number of rings (size 3 to 8) (size 9 to 14) (size 15 to 20)
#    0.000    2.842    2.105    0.632    0.000    1.684 
#    1.895    0.000    2.316    0.000    0.000    0.000 
#    0.000    0.000    0.000    0.000    0.000    0.000 
#
# Total GULP energy -470775.228257 kJ/mol
# GULP energy per Si atom -12388.821796 kJ/mol
# Density = 2.096823 g / cm^3
# Si number density = 21.016067 Si / 1000 Ang^3
#
#
#
# Elastic Constant Matrix: (Units=GPa)
#
#
# Indices 1 2 3 4 5 6 
#
# 1 81.2688 39.9118 59.6067 0.0000 0.0000 0.0000
# 2 39.9118 81.2688 59.6067 0.0000 0.0000 0.0000
# 3 59.6067 59.6067 157.0410 0.0000 0.0000 0.0000
# 4 0.0000 0.0000 0.0000 5.0950 0.0000 0.0000
# 5 0.0000 0.0000 0.0000 0.0000 5.0950 0.0000
# 6 0.0000 0.0000 0.0000 0.0000 0.0000 6.0307
#
#
#
# Elastic Compliance Matrix: (Units=1/GPa)
#
#
# Indices 1 2 3 4 5 6 
#
# 1 0.018675 -0.005505 -0.004999 0.000000 0.000000 0.000000
# 2 -0.005505 0.018675 -0.004999 0.000000 0.000000 0.000000
# 3 -0.004999 -0.004999 0.010162 0.000000 0.000000 0.000000
# 4 0.000000 0.000000 0.000000 0.196270 0.000000 0.000000
# 5 0.000000 0.000000 0.000000 0.000000 0.196270 0.000000
# 6 0.000000 0.000000 0.000000 0.000000 0.000000 0.165818
#
#
# Mechanical properties :
#
#
# Convention : Reuss Voigt Hill
#
# Bulk Modulus (GPa) = 60.58047 70.86987 65.72517
# Shear Modulus (GPa) = 7.78360 13.94105 10.86233
#
# Velocity S-wave (km/s) = 1.92657 2.57836 2.27592
# Velocity P-wave (km/s) = 5.81698 6.53138 6.18450
#
# Compressibility (1/GPa) = 0.01650697
#
# Stress axis : x y z
#
# Youngs Moduli (GPa) = 53.54837 53.54837 98.40200
#
# Poissons Ratio (x) = 0.29478 0.49188
# Poissons Ratio (y) = 0.29478 0.49188
# Poissons Ratio (z) = 0.26767 0.26767
#
# Static dielectric constant tensor:
#      x y z
#    x 3.580070 0.000000 0.000000 
#    y 0.000000 3.580070 0.000000 
#    z 0.000000 0.000000 3.852140 
# 
# 
# High freq. dielectric constant tensor:
#      x y z
#    x 1.800870 0.000000 0.000000 
#    y 0.000000 1.800870 0.000000 
#    z 0.000000 0.000000 1.812810 
# 
# From -- ./inp_files/5226.got.cif
#   From: 2010.03.12/outbox.cif.g09.slc.cpg/sg115_3_cif.got.tgz:5226.got - 2010.04.14 02:11:21.
