data_PCOD8309645
_publ_section_title
;
Structure prediction by ZEFSAII (Michael W. Deem and Ramdas Pophale) SiO2 
 PCOD8309645
Probable space group: P -4 M 2
;
_chemical_formula_sum "Si O2"
_cell_formula_units_Z 48
_cell_length_a 9.104497
_cell_length_b 9.104497
_cell_length_c 30.676194
_cell_angle_alpha 90.000000
_cell_angle_beta 90.000000
_cell_angle_gamma 90.000000
_cell_volume 2542.806951
_symmetry_space_group_name_H-M "P -4 M 2"
_symmetry_group_IT_number 115
_symmetry_cell_setting 'tetragonal'
loop_
_space_group_symop_operation_xyz
x,y,z
y,-x,-z
-x,-y,z
-y,x,-z
y,x,-z
-y,-x,-z
-x,y,z
x,-y,z
loop_
_atom_site_type_symbol
_atom_site_label
_atom_site_fract_x
_atom_site_fract_y
_atom_site_fract_z
Si Si1 0.168428 0.826019 0.717683
Si Si2 0.664170 0.174410 0.633558
Si Si3 0.331290 0.669072 0.050513
Si Si4 0.826761 0.665189 0.462480
Si Si5 0.672189 0.671351 0.796408
Si Si6 0.170615 0.827793 0.124529
O O1 0.224473 0.769161 0.670573
O O2 0.264534 0.749176 0.754075
O O3 0.000000 0.778700 0.723007
O O4 0.187608 0.000000 0.722558
O O5 0.500000 0.234234 0.643416
O O6 0.716769 0.228804 0.585608
O O7 0.659979 0.000000 0.633565
O O8 0.500000 0.705450 0.062030
O O9 0.297645 0.500000 0.062073
O O10 0.224031 0.774054 0.077369
O O11 0.300131 0.699870 0.000000
O O12 0.768244 0.768244 0.500000
O O13 0.771728 0.500000 0.470958
O O14 0.000000 0.673462 0.464076
O O15 0.500000 0.702020 0.798665
O O16 0.708634 0.500000 0.794015
O O17 0.745164 0.736647 0.839213
O O18 0.000000 0.789587 0.130424
O O19 0.199128 0.000000 0.128987
#
# Coordination Sequence:
#
# PCOD8309645 Si02
#       6
#     8   8   8   8   8   8
#     4  10  20  34  55  83 110 135 169 214 263 316
#     4   8  15  30  51  73 100 136 175 214 257 307
#     4   9  19  37  60  85 113 146 185 226 267 315
#     4   9  18  32  50  74 103 135 174 217 260 310
#     4  11  24  40  58  80 106 139 180 221 262 314
#     4  11  24  39  56  82 114 145 180 223 269 317
#
# _framework density 18.876778000000002
#
# number of rings (size 3 to 8) (size 9 to 14) (size 15 to 20)
#    0.000    2.333    0.000    4.000    0.000    9.667 
#    0.000    5.000    0.000    1.000    0.000    0.000 
#    0.000    0.000    0.000    0.000    0.000    0.000 
#
# Total GULP energy -595178.849881 kJ/mol
# GULP energy per Si atom -12399.559373 kJ/mol
# Density = 1.883381 g / cm^3
# Si number density = 18.876778 Si / 1000 Ang^3
#
#
#
# Elastic Constant Matrix: (Units=GPa)
#
#
# Indices 1 2 3 4 5 6 
#
# 1 54.9857 36.5191 39.0399 0.0000 0.0000 0.0000
# 2 36.5191 54.9857 39.0400 0.0000 0.0000 0.0000
# 3 39.0399 39.0400 119.3297 0.0000 0.0000 0.0000
# 4 0.0000 0.0000 0.0000 38.2997 0.0000 0.0000
# 5 0.0000 0.0000 0.0000 0.0000 38.2998 0.0000
# 6 0.0000 0.0000 0.0000 0.0000 0.0000 28.3316
#
#
#
# Elastic Compliance Matrix: (Units=1/GPa)
#
#
# Indices 1 2 3 4 5 6 
#
# 1 0.034656 -0.019496 -0.004960 0.000000 0.000000 0.000000
# 2 -0.019496 0.034656 -0.004960 0.000000 0.000000 0.000000
# 3 -0.004960 -0.004960 0.011626 0.000000 0.000000 0.000000
# 4 0.000000 0.000000 0.000000 0.026110 0.000000 0.000000
# 5 0.000000 0.000000 0.000000 0.000000 0.026110 0.000000
# 6 0.000000 0.000000 0.000000 0.000000 0.000000 0.035296
#
#
# Mechanical properties :
#
#
# Convention : Reuss Voigt Hill
#
# Bulk Modulus (GPa) = 45.23450 50.94434 48.08942
# Shear Modulus (GPa) = 21.30799 28.63303 24.97051
#
# Velocity S-wave (km/s) = 3.36340 3.89889 3.64100
# Velocity P-wave (km/s) = 6.25286 6.87858 6.57317
#
# Compressibility (1/GPa) = 0.02210702
#
# Stress axis : x y z
#
# Youngs Moduli (GPa) = 28.85489 28.85484 86.01742
#
# Poissons Ratio (x) = 0.56254 0.42664
# Poissons Ratio (y) = 0.56254 0.42665
# Poissons Ratio (z) = 0.14312 0.14312
#
# Static dielectric constant tensor:
#      x y z
#    x 3.379200 0.000000 0.000000 
#    y 0.000000 3.379200 0.000000 
#    z 0.000000 0.000000 3.784580 
# 
# 
# High freq. dielectric constant tensor:
#      x y z
#    x 1.723980 0.000000 0.000000 
#    y 0.000000 1.723980 0.000000 
#    z 0.000000 0.000000 1.752060 
# 
# From -- ./inp_files/6091.got.cif
#   From: 2010.03.12/outbox.cif.g09.slc.cpg/sg115_4_cif.got.tgz:6091.got - 2010.04.14 02:11:21.
