data_PCOD8309522
_publ_section_title
;
Structure prediction by ZEFSAII (Michael W. Deem and Ramdas Pophale) SiO2 
 PCOD8309522
Probable space group: P -4 M 2
;
_chemical_formula_sum "Si O2"
_cell_formula_units_Z 48
_cell_length_a 9.054188
_cell_length_b 9.054188
_cell_length_c 30.877454
_cell_angle_alpha 90.000000
_cell_angle_beta 90.000000
_cell_angle_gamma 90.000000
_cell_volume 2531.281815
_symmetry_space_group_name_H-M "P -4 M 2"
_symmetry_group_IT_number 115
_symmetry_cell_setting 'tetragonal'
loop_
_space_group_symop_operation_xyz
x,y,z
y,-x,-z
-x,-y,z
-y,x,-z
y,x,-z
-y,-x,-z
-x,y,z
x,-y,z
loop_
_atom_site_type_symbol
_atom_site_label
_atom_site_fract_x
_atom_site_fract_y
_atom_site_fract_z
Si Si1 0.674319 0.162929 0.036698
Si Si2 0.327375 0.826833 0.460088
Si Si3 0.171557 0.325992 0.381090
Si Si4 0.175255 0.834168 0.294049
Si Si5 0.330143 0.173127 0.133207
Si Si6 0.175222 0.666968 0.210063
O O1 0.500000 0.155780 0.035733
O O2 0.722885 0.215686 0.084632
O O3 0.739500 0.000000 0.027307
O O4 0.726376 0.273625 0.000000
O O5 0.237036 0.762965 0.500000
O O6 0.500000 0.794994 0.467256
O O7 0.273362 0.747394 0.416967
O O8 0.294989 0.000000 0.456165
O O9 0.198124 0.500000 0.380674
O O10 0.224971 0.260734 0.335357
O O11 0.000000 0.288449 0.390348
O O12 0.239732 0.758186 0.250820
O O13 0.000000 0.838354 0.291429
O O14 0.239530 0.000000 0.297727
O O15 0.500000 0.217529 0.140440
O O16 0.229600 0.264042 0.165561
O O17 0.307318 0.000000 0.141279
O O18 0.233164 0.500000 0.213976
O O19 0.000000 0.672065 0.210205
#
# Coordination Sequence:
#
# PCOD8309522 Si02
#       6
#     8   8   8   8   8   8
#     4   9  19  35  53  74 101 132 168 211 258 309
#     4  11  24  40  58  82 111 143 181 223 266 314
#     4  10  20  35  57  84 112 142 177 218 265 316
#     4   9  17  31  53  79 107 141 179 218 262 312
#     4   9  19  36  54  72  99 136 174 212 257 310
#     4  10  20  33  51  78 109 138 172 217 265 312
#
# _framework density 18.962723
#
# number of rings (size 3 to 8) (size 9 to 14) (size 15 to 20)
#    0.000    2.333    0.000    3.500    0.000    9.333 
#    0.000    5.833    0.000    5.000    0.000    0.000 
#    0.000    0.000    0.000    0.000    0.000    0.000 
#
# Total GULP energy -595230.642215 kJ/mol
# GULP energy per Si atom -12400.638379 kJ/mol
# Density = 1.891956 g / cm^3
# Si number density = 18.962723 Si / 1000 Ang^3
#
#
#
# Elastic Constant Matrix: (Units=GPa)
#
#
# Indices 1 2 3 4 5 6 
#
# 1 66.3577 30.4168 48.8687 0.0000 0.0000 0.0000
# 2 30.4168 66.3547 48.8665 0.0000 0.0000 0.0000
# 3 48.8687 48.8665 149.2327 0.0000 0.0000 0.0000
# 4 0.0000 0.0000 0.0000 -652.6275 0.0000 0.0000
# 5 0.0000 0.0000 0.0000 0.0000 -653.1564 0.0000
# 6 0.0000 0.0000 0.0000 0.0000 0.0000 26.7635
#
#
#
# Elastic Compliance Matrix: (Units=1/GPa)
#
#
# Indices 1 2 3 4 5 6 
#
# 1 0.021632 -0.006193 -0.005056 0.000000 0.000000 0.000000
# 2 -0.006193 0.021632 -0.005056 0.000000 0.000000 0.000000
# 3 -0.005056 -0.005056 0.010012 0.000000 0.000000 0.000000
# 4 0.000000 0.000000 0.000000 -0.001532 0.000000 0.000000
# 5 0.000000 0.000000 0.000000 0.000000 -0.001531 0.000000
# 6 0.000000 0.000000 0.000000 0.000000 0.000000 0.037364
#
#
# Mechanical properties :
#
#
# Convention : Reuss Voigt Hill
#
# Bulk Modulus (GPa) = 48.38418 59.80544 54.09481
# Shear Modulus (GPa) = 39.34685 -245.55121 -103.10218
#
# Velocity S-wave (km/s) = 4.56011 -11.39178 -7.38167
# Velocity P-wave (km/s) = 7.30048 11.89215 6.63801
#
# Compressibility (1/GPa) = 0.02066791
#
# Stress axis : x y z
#
# Youngs Moduli (GPa) = 46.22833 46.22692 99.87922
#
# Poissons Ratio (x) = 0.28626 0.50498
# Poissons Ratio (y) = 0.28627 0.50496
# Poissons Ratio (z) = 0.23373 0.23371
#
# Static dielectric constant tensor:
#      x y z
#    x 3.450170 0.000000 0.000000 
#    y 0.000000 3.450150 0.000000 
#    z 0.000000 0.000000 3.737890 
# 
# 
# High freq. dielectric constant tensor:
#      x y z
#    x 1.727740 0.000000 0.000000 
#    y 0.000000 1.727740 0.000000 
#    z 0.000000 0.000000 1.753970 
# 
# From -- ./inp_files/6033.got.cif
#   From: 2010.03.12/outbox.cif.g09.slc.cpg/sg115_4_cif.got.tgz:6033.got - 2010.04.14 02:11:21.
