data_PCOD8309609
_publ_section_title
;
Structure prediction by ZEFSAII (Michael W. Deem and Ramdas Pophale) SiO2 
 PCOD8309609
Probable space group: P -4 M 2
;
_chemical_formula_sum "Si O2"
_cell_formula_units_Z 48
_cell_length_a 9.150207
_cell_length_b 9.150207
_cell_length_c 31.297373
_cell_angle_alpha 90.000000
_cell_angle_beta 90.000000
_cell_angle_gamma 90.000000
_cell_volume 2620.412870
_symmetry_space_group_name_H-M "P -4 M 2"
_symmetry_group_IT_number 115
_symmetry_cell_setting 'tetragonal'
loop_
_space_group_symop_operation_xyz
x,y,z
y,-x,-z
-x,-y,z
-y,x,-z
y,x,-z
-y,-x,-z
-x,y,z
x,-y,z
loop_
_atom_site_type_symbol
_atom_site_label
_atom_site_fract_x
_atom_site_fract_y
_atom_site_fract_z
Si Si1 0.328387 0.171886 0.039027
Si Si2 0.829931 0.328365 0.115387
Si Si3 0.662405 0.326631 0.198528
Si Si4 0.662849 0.325594 0.546574
Si Si5 0.662404 0.673880 0.708355
Si Si6 0.163313 0.325443 0.627580
O O1 0.500000 0.205770 0.037234
O O2 0.263102 0.235021 0.082402
O O3 0.297044 0.000000 0.036342
O O4 0.250457 0.250457 0.000000
O O5 0.800800 0.500000 0.107519
O O6 0.777018 0.278614 0.162348
O O7 0.000000 0.290730 0.110443
O O8 0.500000 0.264900 0.187582
O O9 0.652673 0.500000 0.201618
O O10 0.716871 0.269905 0.245124
O O11 0.724384 0.275617 0.500000
O O12 0.500000 0.264066 0.553880
O O13 0.659527 0.500000 0.547164
O O14 0.761594 0.262992 0.584762
O O15 0.500000 0.739410 0.702857
O O16 0.655545 0.500000 0.705688
O O17 0.759801 0.737956 0.670050
O O18 0.169037 0.500000 0.627640
O O19 0.000000 0.265473 0.627885
#
# Coordination Sequence:
#
# PCOD8309609 Si02
#       6
#     8   8   8   8   8   8
#     4  11  24  40  58  81 107 136 171 208 247 292
#     4  10  20  34  54  80 107 135 168 205 246 292
#     4   8  14  26  45  68  94 126 163 199 233 273
#     4   8  13  21  33  49  71 102 138 171 206 258
#     4   8  13  22  37  56  80 114 152 184 219 269
#     4   9  15  21  31  52  82 109 132 170 226 273
#
# _framework density 18.317723000000001
#
# number of rings (size 3 to 8) (size 9 to 14) (size 15 to 20)
#    0.000    3.000    0.000    3.500    0.000    6.333 
#    0.000    0.833    0.000    3.000    0.000    1.167 
#    0.000    9.667    0.000    0.000    0.000    0.000 
#
# Total GULP energy -594908.364627 kJ/mol
# GULP energy per Si atom -12393.924263 kJ/mol
# Density = 1.827603 g / cm^3
# Si number density = 18.317723 Si / 1000 Ang^3
#
#
#
# Elastic Constant Matrix: (Units=GPa)
#
#
# Indices 1 2 3 4 5 6 
#
# 1 75.1707 39.5759 64.3456 0.0000 0.0000 0.0000
# 2 39.5759 75.1708 64.3457 0.0000 0.0000 0.0000
# 3 64.3456 64.3457 191.0705 0.0000 0.0000 0.0000
# 4 0.0000 0.0000 0.0000 -0.6575 0.0000 0.0000
# 5 0.0000 0.0000 0.0000 0.0000 -0.6575 0.0000
# 6 0.0000 0.0000 0.0000 0.0000 0.0000 13.2839
#
#
#
# Elastic Compliance Matrix: (Units=1/GPa)
#
#
# Indices 1 2 3 4 5 6 
#
# 1 0.021049 -0.007045 -0.004716 0.000000 0.000000 0.000000
# 2 -0.007045 0.021049 -0.004716 0.000000 0.000000 0.000000
# 3 -0.004716 -0.004716 0.008410 0.000000 0.000000 0.000000
# 4 0.000000 0.000000 0.000000 -1.520901 0.000000 0.000000
# 5 0.000000 0.000000 0.000000 0.000000 -1.520857 0.000000
# 6 0.000000 0.000000 0.000000 0.000000 0.000000 0.075279
#
#
# Mechanical properties :
#
#
# Convention : Reuss Voigt Hill
#
# Bulk Modulus (GPa) = 56.96737 75.32737 66.14737
# Shear Modulus (GPa) = -1.73782 13.93676 6.09947
#
# Velocity S-wave (km/s) = -0.97507 2.76132 1.82676
# Velocity P-wave (km/s) = 5.46804 7.16787 6.37487
#
# Compressibility (1/GPa) = 0.01755391
#
# Stress axis : x y z
#
# Youngs Moduli (GPa) = 47.50815 47.50825 118.90517
#
# Poissons Ratio (x) = 0.33469 0.56076
# Poissons Ratio (y) = 0.33469 0.56076
# Poissons Ratio (z) = 0.22405 0.22405
#
# Static dielectric constant tensor:
#      x y z
#    x 3.098760 0.000000 0.000000 
#    y 0.000000 3.098760 0.000000 
#    z 0.000000 0.000000 3.911180 
# 
# 
# High freq. dielectric constant tensor:
#      x y z
#    x 1.669730 0.000000 0.000000 
#    y 0.000000 1.669730 0.000000 
#    z 0.000000 0.000000 1.735430 
# 
# From -- ./inp_files/6071.got.cif
#   From: 2010.03.12/outbox.cif.g09.slc.cpg/sg115_4_cif.got.tgz:6071.got - 2010.04.14 02:11:21.
