data_PCOD8309781
_publ_section_title
;
Structure prediction by ZEFSAII (Michael W. Deem and Ramdas Pophale) SiO2 
 PCOD8309781
Probable space group: P -4 M 2
;
_chemical_formula_sum "Si O2"
_cell_formula_units_Z 48
_cell_length_a 9.222434
_cell_length_b 9.222434
_cell_length_c 30.328415
_cell_angle_alpha 90.000000
_cell_angle_beta 90.000000
_cell_angle_gamma 90.000000
_cell_volume 2579.531442
_symmetry_space_group_name_H-M "P -4 M 2"
_symmetry_group_IT_number 115
_symmetry_cell_setting 'tetragonal'
loop_
_space_group_symop_operation_xyz
x,y,z
y,-x,-z
-x,-y,z
-y,x,-z
y,x,-z
-y,-x,-z
-x,y,z
x,-y,z
loop_
_atom_site_type_symbol
_atom_site_label
_atom_site_fract_x
_atom_site_fract_y
_atom_site_fract_z
Si Si1 0.669814 0.830256 0.539312
Si Si2 0.336356 0.168113 0.285255
Si Si3 0.668789 0.333067 0.125918
Si Si4 0.833075 0.669480 0.212038
Si Si5 0.829571 0.667347 0.961771
Si Si6 0.166810 0.332398 0.613068
O O1 0.750392 0.750392 0.500000
O O2 0.500000 0.797847 0.535752
O O3 0.728009 0.770327 0.585557
O O4 0.703162 0.000000 0.536348
O O5 0.500000 0.220647 0.275577
O O6 0.225419 0.256130 0.255774
O O7 0.297072 0.196694 0.336003
O O8 0.320928 0.000000 0.273803
O O9 0.500000 0.312993 0.135586
O O10 0.708992 0.500000 0.116319
O O11 0.752170 0.272404 0.168535
O O12 0.718962 0.239755 0.084138
O O13 0.805528 0.500000 0.217453
O O14 0.000000 0.709246 0.206639
O O15 0.789924 0.500000 0.971278
O O16 0.000000 0.692024 0.958979
O O17 0.765673 0.765673 0.000000
O O18 0.201451 0.500000 0.602594
O O19 0.000000 0.299260 0.600846
#
# Coordination Sequence:
#
# PCOD8309781 Si02
#       6
#     8   8   8   8   8   8
#     4  11  24  39  56  81 111 142 178 220 265 315
#     4   9  19  36  57  80 107 141 180 221 264 312
#     4   9  18  34  55  76 101 138 182 222 260 308
#     4  10  21  35  52  78 111 143 176 218 266 314
#     4  10  21  36  55  80 108 138 173 215 263 314
#     4   9  19  37  59  82 108 139 178 222 266 314
#
# _framework density 18.608032000000001
#
# number of rings (size 3 to 8) (size 9 to 14) (size 15 to 20)
#    0.000    2.333    0.000    3.000    0.000    8.667 
#    0.000    8.333    0.000    0.000    0.000    0.000 
#    0.000    0.000    0.000    0.000    0.000    0.000 
#
# Total GULP energy -595373.955659 kJ/mol
# GULP energy per Si atom -12403.624076 kJ/mol
# Density = 1.856568 g / cm^3
# Si number density = 18.608032 Si / 1000 Ang^3
#
#
#
# Elastic Constant Matrix: (Units=GPa)
#
#
# Indices 1 2 3 4 5 6 
#
# 1 89.2760 65.7447 72.9761 0.0000 0.0000 0.0000
# 2 65.7447 89.2760 72.9761 0.0000 0.0000 0.0000
# 3 72.9761 72.9761 133.8921 0.0000 0.0000 0.0000
# 4 0.0000 0.0000 0.0000 -0.7600 0.0000 0.0000
# 5 0.0000 0.0000 0.0000 0.0000 -0.7600 0.0000
# 6 0.0000 0.0000 0.0000 0.0000 0.0000 30.3922
#
#
#
# Elastic Compliance Matrix: (Units=1/GPa)
#
#
# Indices 1 2 3 4 5 6 
#
# 1 0.027873 -0.014623 -0.007222 0.000000 0.000000 0.000000
# 2 -0.014623 0.027873 -0.007222 0.000000 0.000000 0.000000
# 3 -0.007222 -0.007222 0.015341 0.000000 0.000000 0.000000
# 4 0.000000 0.000000 0.000000 -1.315874 0.000000 0.000000
# 5 0.000000 0.000000 0.000000 0.000000 -1.315874 0.000000
# 6 0.000000 0.000000 0.000000 0.000000 0.000000 0.032903
#
#
# Mechanical properties :
#
#
# Convention : Reuss Voigt Hill
#
# Bulk Modulus (GPa) = 77.19623 81.75976 79.47800
# Shear Modulus (GPa) = -2.02815 12.49095 5.23140
#
# Velocity S-wave (km/s) = -1.04513 2.59369 1.67853
# Velocity P-wave (km/s) = 6.33396 7.28031 6.82356
#
# Compressibility (1/GPa) = 0.01295400
#
# Stress axis : x y z
#
# Youngs Moduli (GPa) = 35.87666 35.87666 65.18507
#
# Poissons Ratio (x) = 0.52463 0.47075
# Poissons Ratio (y) = 0.52463 0.47075
# Poissons Ratio (z) = 0.25909 0.25909
#
# Static dielectric constant tensor:
#      x y z
#    x 3.479180 0.000000 0.000000 
#    y 0.000000 3.479180 0.000000 
#    z 0.000000 0.000000 3.494580 
# 
# 
# High freq. dielectric constant tensor:
#      x y z
#    x 1.719750 0.000000 0.000000 
#    y 0.000000 1.719750 0.000000 
#    z 0.000000 0.000000 1.734410 
# 
# From -- ./inp_files/5988.got.cif
#   From: 2010.03.12/outbox.cif.g09.slc.cpg/sg115_3_cif.got.tgz:5988.got - 2010.04.14 02:11:21.
