data_PCOD8309801
_publ_section_title
;
Structure prediction by ZEFSAII (Michael W. Deem and Ramdas Pophale) SiO2 
 PCOD8309801
Probable space group: P -4 M 2
;
_chemical_formula_sum "Si O2"
_cell_formula_units_Z 32
_cell_length_a 9.380569
_cell_length_b 9.380569
_cell_length_c 20.573520
_cell_angle_alpha 90.000000
_cell_angle_beta 90.000000
_cell_angle_gamma 90.000000
_cell_volume 1810.368431
_symmetry_space_group_name_H-M "P -4 M 2"
_symmetry_group_IT_number 115
_symmetry_cell_setting 'tetragonal'
loop_
_space_group_symop_operation_xyz
x,y,z
y,-x,-z
-x,-y,z
-y,x,-z
y,x,-z
-y,-x,-z
-x,y,z
x,-y,z
loop_
_atom_site_type_symbol
_atom_site_label
_atom_site_fract_x
_atom_site_fract_y
_atom_site_fract_z
Si Si1 0.342170 0.830555 0.196017
Si Si2 0.166060 0.163225 0.317653
Si Si3 0.161250 0.331000 0.947256
Si Si4 0.834532 0.332227 0.445456
O O1 0.500000 0.768043 0.208350
O O2 0.240979 0.774122 0.253306
O O3 0.285271 0.783806 0.124810
O O4 0.348173 0.000000 0.196670
O O5 0.211680 0.261514 0.377658
O O6 0.000000 0.172979 0.303933
O O7 0.212347 0.000000 0.332424
O O8 0.168398 0.500000 0.953487
O O9 0.000000 0.277118 0.958803
O O10 0.263133 0.263133 0.000000
O O11 0.736078 0.263923 0.500000
O O12 0.805565 0.500000 0.441648
O O13 0.000000 0.299039 0.460957
#
# Coordination Sequence:
#
# PCOD8309801 Si02
#       4
#     8   8   8   8
#     4   8  15  29  48  69  94 124 159 199 241 287
#     4   9  17  30  50  74  97 123 158 199 241 287
#     4   9  18  32  49  71  99 130 165 204 245 290
#     4  10  21  36  53  74 101 132 164 199 241 288
#
# _framework density 17.67596
#
# number of rings (size 3 to 8) (size 9 to 14) (size 15 to 20)
#    0.000    3.000    0.000    2.250    0.000    4.000 
#    0.000    6.250    0.000    4.500    0.000    0.000 
#    0.000    0.000    0.000    0.000    0.000    0.000 
#
# Total GULP energy -396698.029631 kJ/mol
# GULP energy per Si atom -12396.813426 kJ/mol
# Density = 1.763573 g / cm^3
# Si number density = 17.675960 Si / 1000 Ang^3
#
#
#
# Elastic Constant Matrix: (Units=GPa)
#
#
# Indices 1 2 3 4 5 6 
#
# 1 57.5799 35.4332 67.3338 0.0000 0.0000 0.0000
# 2 35.4332 57.5799 67.3323 0.0000 0.0000 0.0000
# 3 67.3338 67.3323 179.5038 0.0000 0.0000 0.0000
# 4 0.0000 0.0000 0.0000 -10.3158 0.0000 0.0000
# 5 0.0000 0.0000 0.0000 0.0000 -10.3124 0.0000
# 6 0.0000 0.0000 0.0000 0.0000 0.0000 21.6336
#
#
#
# Elastic Compliance Matrix: (Units=1/GPa)
#
#
# Indices 1 2 3 4 5 6 
#
# 1 0.034342 -0.010812 -0.008827 0.000000 0.000000 0.000000
# 2 -0.010812 0.034341 -0.008826 0.000000 0.000000 0.000000
# 3 -0.008827 -0.008826 0.012192 0.000000 0.000000 0.000000
# 4 0.000000 0.000000 0.000000 -0.096939 0.000000 0.000000
# 5 0.000000 0.000000 0.000000 0.000000 -0.096971 0.000000
# 6 0.000000 0.000000 0.000000 0.000000 0.000000 0.046224
#
#
# Mechanical properties :
#
#
# Convention : Reuss Voigt Hill
#
# Bulk Modulus (GPa) = 41.75812 70.54024 56.14918
# Shear Modulus (GPa) = -2633.01537 8.50539 -1312.25499
#
# Velocity S-wave (km/s) = -38.63724 2.19597 -27.27649
# Velocity P-wave (km/s) = 44.34831 6.81350 30.98668
#
# Compressibility (1/GPa) = 0.02394744
#
# Stress axis : x y z
#
# Youngs Moduli (GPa) = 29.11860 29.11965 82.01779
#
# Poissons Ratio (x) = 0.31483 0.72394
# Poissons Ratio (y) = 0.31482 0.72387
# Poissons Ratio (z) = 0.25702 0.25700
#
# Static dielectric constant tensor:
#      x y z
#    x 3.223050 0.000000 0.000000 
#    y 0.000000 3.223060 0.000000 
#    z 0.000000 0.000000 3.567690 
# 
# 
# High freq. dielectric constant tensor:
#      x y z
#    x 1.664510 0.000000 0.000000 
#    y 0.000000 1.664510 0.000000 
#    z 0.000000 0.000000 1.698110 
# 
# From -- ./inp_files/4569.got.cif
#   From: 2010.03.12/outbox.cif.g09.slc.cpg/sg115_3_cif.got.tgz:4569.got - 2010.04.14 02:11:21.
