data_PCOD8309436
_publ_section_title
;
Structure prediction by ZEFSAII (Michael W. Deem and Ramdas Pophale) SiO2 
 PCOD8309436
Probable space group: P -4 M 2
;
_chemical_formula_sum "Si O2"
_cell_formula_units_Z 48
_cell_length_a 9.039120
_cell_length_b 9.039120
_cell_length_c 30.941442
_cell_angle_alpha 90.000000
_cell_angle_beta 90.000000
_cell_angle_gamma 90.000000
_cell_volume 2528.091880
_symmetry_space_group_name_H-M "P -4 M 2"
_symmetry_group_IT_number 115
_symmetry_cell_setting 'tetragonal'
loop_
_space_group_symop_operation_xyz
x,y,z
y,-x,-z
-x,-y,z
-y,x,-z
y,x,-z
-y,-x,-z
-x,y,z
x,-y,z
loop_
_atom_site_type_symbol
_atom_site_label
_atom_site_fract_x
_atom_site_fract_y
_atom_site_fract_z
Si Si1 0.169613 0.171929 0.794379
Si Si2 0.170274 0.673887 0.538927
Si Si3 0.823965 0.833584 0.625237
Si Si4 0.673765 0.829362 0.882221
Si Si5 0.333403 0.823717 0.290979
Si Si6 0.826847 0.672053 0.960309
O O1 0.268307 0.216945 0.835194
O O2 0.233041 0.259350 0.753194
O O3 0.000000 0.215064 0.804485
O O4 0.183678 0.000000 0.783349
O O5 0.269608 0.730393 0.500000
O O6 0.188926 0.500000 0.544061
O O7 0.230528 0.747767 0.582771
O O8 0.000000 0.718140 0.530199
O O9 0.758952 0.754167 0.667817
O O10 0.000000 0.832524 0.627216
O O11 0.761878 0.000000 0.623590
O O12 0.500000 0.802463 0.884275
O O13 0.751532 0.724192 0.916412
O O14 0.713943 0.000000 0.892302
O O15 0.500000 0.763651 0.292986
O O16 0.328758 0.000000 0.292070
O O17 0.792911 0.500000 0.967796
O O18 0.000000 0.703625 0.956998
O O19 0.762932 0.762932 0.000000
#
# Coordination Sequence:
#
# PCOD8309436 Si02
#       6
#     8   8   8   8   8   8
#     4   9  17  30  49  73 102 137 176 217 262 311
#     4  10  20  33  50  73 101 133 170 212 259 311
#     4   9  16  27  46  72 101 132 167 210 260 311
#     4  10  21  37  57  81 109 142 181 223 267 315
#     4   9  16  26  43  70 103 135 169 213 262 310
#     4  11  24  40  59  84 112 142 178 219 264 316
#
# _framework density 18.986651999999999
#
# number of rings (size 3 to 8) (size 9 to 14) (size 15 to 20)
#    0.000    2.333    0.000    3.000    0.000   10.000 
#    0.000    1.667    0.000    1.000    0.000    2.333 
#    0.000    0.000    0.000    0.000    0.000    0.000 
#
# Total GULP energy -595326.304498 kJ/mol
# GULP energy per Si atom -12402.631344 kJ/mol
# Density = 1.894344 g / cm^3
# Si number density = 18.986652 Si / 1000 Ang^3
#
#
#
# Elastic Constant Matrix: (Units=GPa)
#
#
# Indices 1 2 3 4 5 6 
#
# 1 78.1903 36.9577 58.6887 0.0000 0.0000 0.0000
# 2 36.9577 78.1916 58.6900 0.0000 0.0000 0.0000
# 3 58.6887 58.6900 158.9352 0.0000 0.0000 0.0000
# 4 0.0000 0.0000 0.0000 -6.2520 0.0000 0.0000
# 5 0.0000 0.0000 0.0000 0.0000 -6.2528 0.0000
# 6 0.0000 0.0000 0.0000 0.0000 0.0000 19.2863
#
#
#
# Elastic Compliance Matrix: (Units=1/GPa)
#
#
# Indices 1 2 3 4 5 6 
#
# 1 0.019090 -0.005163 -0.005143 0.000000 0.000000 0.000000
# 2 -0.005163 0.019089 -0.005143 0.000000 0.000000 0.000000
# 3 -0.005143 -0.005143 0.010090 0.000000 0.000000 0.000000
# 4 0.000000 0.000000 0.000000 -0.159948 0.000000 0.000000
# 5 0.000000 0.000000 0.000000 0.000000 -0.159929 0.000000
# 6 0.000000 0.000000 0.000000 0.000000 0.000000 0.051850
#
#
# Mechanical properties :
#
#
# Convention : Reuss Voigt Hill
#
# Bulk Modulus (GPa) = 57.56176 69.33220 63.44698
# Shear Modulus (GPa) = -27.31182 12.08835 -7.61174
#
# Velocity S-wave (km/s) = -3.79684 2.52598 -2.00442
# Velocity P-wave (km/s) = 3.34088 6.71588 5.30398
#
# Compressibility (1/GPa) = 0.01737264
#
# Stress axis : x y z
#
# Youngs Moduli (GPa) = 52.38476 52.38504 99.10918
#
# Poissons Ratio (x) = 0.27045 0.50968
# Poissons Ratio (y) = 0.27045 0.50969
# Poissons Ratio (z) = 0.26939 0.26940
#
# Static dielectric constant tensor:
#      x y z
#    x 3.355420 0.000000 0.000000 
#    y 0.000000 3.355420 0.000000 
#    z 0.000000 0.000000 3.703180 
# 
# 
# High freq. dielectric constant tensor:
#      x y z
#    x 1.721170 0.000000 0.000000 
#    y 0.000000 1.721170 0.000000 
#    z 0.000000 0.000000 1.755950 
# 
# From -- ./inp_files/6093.got.cif
#   From: 2010.03.12/outbox.cif.g09.slc.cpg/sg115_4_cif.got.tgz:6093.got - 2010.04.14 02:11:21.
