data_PCOD8309235
_publ_section_title
;
Structure prediction by ZEFSAII (Michael W. Deem and Ramdas Pophale) SiO2 
 PCOD8309235
Probable space group: P -4 M 2
;
_chemical_formula_sum "Si O2"
_cell_formula_units_Z 56
_cell_length_a 13.861028
_cell_length_b 13.861028
_cell_length_c 18.063049
_cell_angle_alpha 90.000000
_cell_angle_beta 90.000000
_cell_angle_gamma 90.000000
_cell_volume 3470.419234
_symmetry_space_group_name_H-M "P -4 M 2"
_symmetry_group_IT_number 115
_symmetry_cell_setting 'tetragonal'
loop_
_space_group_symop_operation_xyz
x,y,z
y,-x,-z
-x,-y,z
-y,x,-z
y,x,-z
-y,-x,-z
-x,y,z
x,-y,z
loop_
_atom_site_type_symbol
_atom_site_label
_atom_site_fract_x
_atom_site_fract_y
_atom_site_fract_z
Si Si1 0.606936 0.114201 0.218235
Si Si2 0.392026 0.114066 0.500000
Si Si3 0.393064 0.114201 0.781765
Si Si4 0.732999 0.889190 0.916702
Si Si5 0.270187 0.885777 0.358550
Si Si6 0.729813 0.885777 0.641450
Si Si7 0.267001 0.889190 0.083298
O O1 0.500000 0.159880 0.225492
O O2 0.673747 0.149120 0.285391
O O3 0.651950 0.148204 0.140137
O O4 0.598332 0.000000 0.220990
O O5 0.500000 0.159042 0.500000
O O6 0.334952 0.148213 0.427496
O O7 0.334952 0.148213 0.572504
O O8 0.400877 0.000000 0.500000
O O9 0.500000 0.159880 0.774508
O O10 0.348050 0.148204 0.859863
O O11 0.326253 0.149120 0.714609
O O12 0.401668 0.000000 0.779010
O O13 0.831278 0.831278 0.904334
O O14 0.759394 0.000000 0.900697
O O15 0.692578 0.875054 0.000000
O O16 0.167211 0.832789 0.361879
O O17 0.249854 0.000000 0.359395
O O18 0.750146 0.000000 0.640605
O O19 0.240606 0.000000 0.099303
#
# Coordination Sequence:
#
# PCOD8309235 Si02
#       7
#     8   8   8   8   8   8   8
#     4   9  17  29  44  61  83 113 148 186 225 257
#     4   9  17  30  47  65  87 117 151 185 219 250
#     4   9  17  29  44  61  83 113 148 186 225 257
#     4   9  17  28  42  62  89 119 148 177 210 254
#     4  10  19  30  45  66  93 122 149 177 210 254
#     4  10  19  30  45  66  93 122 149 177 210 254
#     4   9  17  28  42  62  89 119 148 177 210 254
#
# _framework density 16.136379000000002
#
# number of rings (size 3 to 8) (size 9 to 14) (size 15 to 20)
#    0.000    2.714    0.000    2.143    0.000    4.571 
#    0.000    4.286    0.000    7.714    0.000    0.000 
#    0.000   43.429    0.000   12.571    0.000    1.143 
#
# Total GULP energy -694273.294257 kJ/mol
# GULP energy per Si atom -12397.737397 kJ/mol
# Density = 1.609965 g / cm^3
# Si number density = 16.136379 Si / 1000 Ang^3
#
#
#
# Elastic Constant Matrix: (Units=GPa)
#
#
# Indices 1 2 3 4 5 6 
#
# 1 75.5671 42.7057 48.1476 0.0000 0.0000 0.0000
# 2 42.7057 75.5671 48.1476 0.0000 0.0000 0.0000
# 3 48.1476 48.1476 135.2557 0.0000 0.0000 0.0000
# 4 0.0000 0.0000 0.0000 20.5051 0.0000 0.0000
# 5 0.0000 0.0000 0.0000 0.0000 20.5051 0.0000
# 6 0.0000 0.0000 0.0000 0.0000 0.0000 5.2942
#
#
#
# Elastic Compliance Matrix: (Units=1/GPa)
#
#
# Indices 1 2 3 4 5 6 
#
# 1 0.021168 -0.009263 -0.004238 0.000000 0.000000 0.000000
# 2 -0.009263 0.021168 -0.004238 0.000000 0.000000 0.000000
# 3 -0.004238 -0.004238 0.010411 0.000000 0.000000 0.000000
# 4 0.000000 0.000000 0.000000 0.048768 0.000000 0.000000
# 5 0.000000 0.000000 0.000000 0.000000 0.048768 0.000000
# 6 0.000000 0.000000 0.000000 0.000000 0.000000 0.188885
#
#
# Mechanical properties :
#
#
# Convention : Reuss Voigt Hill
#
# Bulk Modulus (GPa) = 57.90545 62.71020 60.30783
# Shear Modulus (GPa) = 13.14396 19.08681 16.11539
#
# Velocity S-wave (km/s) = 2.85714 3.44298 3.16365
# Velocity P-wave (km/s) = 6.84450 7.39949 7.12740
#
# Compressibility (1/GPa) = 0.01726953
#
# Stress axis : x y z
#
# Youngs Moduli (GPa) = 47.24067 47.24067 96.05503
#
# Poissons Ratio (x) = 0.43757 0.40709
# Poissons Ratio (y) = 0.43757 0.40709
# Poissons Ratio (z) = 0.20021 0.20021
#
# Static dielectric constant tensor:
#      x y z
#    x 2.887230 0.000000 0.000000 
#    y 0.000000 2.887230 0.000000 
#    z 0.000000 0.000000 3.391470 
# 
# 
# High freq. dielectric constant tensor:
#      x y z
#    x 1.590610 0.000000 0.000000 
#    y 0.000000 1.590610 0.000000 
#    z 0.000000 0.000000 1.644490 
# 
# From -- ./inp_files/4916.got.cif
#   From: 2010.03.12/outbox.cif.g09.slc.cpg/sg115_3_cif.got.tgz:4916.got - 2010.04.14 02:11:21.
