data_PCOD8309133
_publ_section_title
;
Structure prediction by ZEFSAII (Michael W. Deem and Ramdas Pophale) SiO2 
 PCOD8309133
Probable space group: P -4 21 C
;
_chemical_formula_sum "Si O2"
_cell_formula_units_Z 32
_cell_length_a 8.532300
_cell_length_b 8.532300
_cell_length_c 19.115812
_cell_angle_alpha 90.000000
_cell_angle_beta 90.000000
_cell_angle_gamma 90.000000
_cell_volume 1391.633853
_symmetry_space_group_name_H-M "P -4 21 C"
_symmetry_group_IT_number 114
_symmetry_cell_setting 'tetragonal'
loop_
_space_group_symop_operation_xyz
x,y,z
y,-x,-z
-x,-y,z
-y,x,-z
1/2+x,1/2-y,1/2-z
1/2-x,1/2+y,1/2-z
1/2-y,1/2-x,1/2+z
1/2+y,1/2+x,1/2+z
loop_
_atom_site_type_symbol
_atom_site_label
_atom_site_fract_x
_atom_site_fract_y
_atom_site_fract_z
Si Si1 0.626028 0.374327 0.808609
Si Si2 0.798183 0.169187 0.922457
Si Si3 0.669271 0.319315 0.580117
Si Si4 0.389102 0.865390 0.201314
O O1 0.500000 0.500000 0.835381
O O2 0.704781 0.291179 0.875057
O O3 0.745373 0.485840 0.764405
O O4 0.566341 0.237972 0.756326
O O5 0.982660 0.176508 0.909038
O O6 0.749939 0.988589 0.907238
O O7 0.758864 0.211865 0.002777
O O8 0.729096 0.196653 0.638183
O O9 0.500000 0.000000 0.169892
#
# Coordination Sequence:
#
# PCOD8309133 Si02
#       4
#     8   8   8   8
#     4  12  26  42  64 103 140 180 225 289 343 402
#     4   9  19  41  69 100 126 169 232 281 341 404
#     4   9  19  40  73  95 123 176 230 281 331 419
#     4  12  24  43  67  94 134 184 230 274 343 412
#
# _framework density 22.994555999999999
#
# number of rings (size 3 to 8) (size 9 to 14) (size 15 to 20)
#    0.000    1.500    2.500    4.500    3.500    0.000 
#    4.500    1.250    0.000    0.000    0.000    0.000 
#    0.000    0.000    0.000    0.000    0.000    0.000 
#
# Total GULP energy -396445.870337 kJ/mol
# GULP energy per Si atom -12388.933448 kJ/mol
# Density = 2.294222 g / cm^3
# Si number density = 22.994556 Si / 1000 Ang^3
#
#
#
# Elastic Constant Matrix: (Units=GPa)
#
#
# Indices 1 2 3 4 5 6 
#
# 1 104.4314 59.6164 51.2277 0.0000 0.0000 0.0000
# 2 59.6164 104.4314 51.2277 0.0000 0.0000 0.0000
# 3 51.2277 51.2277 122.2869 0.0000 0.0000 0.0000
# 4 0.0000 0.0000 0.0000 28.4703 0.0000 0.0000
# 5 0.0000 0.0000 0.0000 0.0000 28.4703 0.0000
# 6 0.0000 0.0000 0.0000 0.0000 0.0000 49.5515
#
#
#
# Elastic Compliance Matrix: (Units=1/GPa)
#
#
# Indices 1 2 3 4 5 6 
#
# 1 0.015285 -0.007029 -0.003458 0.000000 0.000000 0.000000
# 2 -0.007029 0.015285 -0.003458 0.000000 0.000000 0.000000
# 3 -0.003458 -0.003458 0.011075 0.000000 0.000000 0.000000
# 4 0.000000 0.000000 0.000000 0.035124 0.000000 0.000000
# 5 0.000000 0.000000 0.000000 0.000000 0.035124 0.000000
# 6 0.000000 0.000000 0.000000 0.000000 0.000000 0.020181
#
#
# Mechanical properties :
#
#
# Convention : Reuss Voigt Hill
#
# Bulk Modulus (GPa) = 72.71261 72.81037 72.76149
# Shear Modulus (GPa) = 30.38577 32.57028 31.47803
#
# Velocity S-wave (km/s) = 3.63910 3.76764 3.70392
# Velocity P-wave (km/s) = 7.02479 7.11756 7.07133
#
# Compressibility (1/GPa) = 0.01375277
#
# Stress axis : x y z
#
# Youngs Moduli (GPa) = 65.42422 65.42422 90.29283
#
# Poissons Ratio (x) = 0.45987 0.31227
# Poissons Ratio (y) = 0.45987 0.31227
# Poissons Ratio (z) = 0.22627 0.22627
#
# Static dielectric constant tensor:
#      x y z
#    x 4.363290 0.000000 0.000000 
#    y 0.000000 4.363290 0.000000 
#    z 0.000000 0.000000 4.070730 
# 
# 
# High freq. dielectric constant tensor:
#      x y z
#    x 1.904710 0.000000 0.000000 
#    y 0.000000 1.904710 0.000000 
#    z 0.000000 0.000000 1.899230 
# 
# From -- ./inp_files/2852.got.cif
#   From: 2010.03.12/outbox.cif.g09.slc.cpg/sg114_2_cif.got.tgz:2852.got - 2010.04.14 02:08:34.
