data_PCOD8309440
_publ_section_title
;
Structure prediction by ZEFSAII (Michael W. Deem and Ramdas Pophale) SiO2 
 PCOD8309440
Probable space group: P -4 M 2
;
_chemical_formula_sum "Si O2"
_cell_formula_units_Z 48
_cell_length_a 9.322973
_cell_length_b 9.322973
_cell_length_c 30.969423
_cell_angle_alpha 90.000000
_cell_angle_beta 90.000000
_cell_angle_gamma 90.000000
_cell_volume 2691.794906
_symmetry_space_group_name_H-M "P -4 M 2"
_symmetry_group_IT_number 115
_symmetry_cell_setting 'tetragonal'
loop_
_space_group_symop_operation_xyz
x,y,z
y,-x,-z
-x,-y,z
-y,x,-z
y,x,-z
-y,-x,-z
-x,y,z
x,-y,z
loop_
_atom_site_type_symbol
_atom_site_label
_atom_site_fract_x
_atom_site_fract_y
_atom_site_fract_z
Si Si1 0.167189 0.832812 0.000000
Si Si2 0.670312 0.658421 0.335883
Si Si3 0.830593 0.165904 0.166785
Si Si4 0.666998 0.667519 0.760551
Si Si5 0.832967 0.666277 0.583402
Si Si6 0.170400 0.662238 0.083689
Si Si7 0.833139 0.833139 0.500000
O O1 0.223817 0.742837 0.040784
O O2 0.000000 0.805035 0.990404
O O3 0.500000 0.654914 0.337282
O O4 0.731963 0.500000 0.344836
O O5 0.716142 0.709437 0.288067
O O6 0.730353 0.761731 0.373226
O O7 0.757875 0.231369 0.208760
O O8 0.771810 0.251306 0.125093
O O9 0.000000 0.184298 0.171614
O O10 0.787408 0.000000 0.161776
O O11 0.500000 0.701812 0.769578
O O12 0.697458 0.500000 0.767708
O O13 0.795249 0.500000 0.576902
O O14 0.773640 0.750134 0.541799
O O15 0.000000 0.693366 0.588996
O O16 0.231288 0.500000 0.084564
O O17 0.000000 0.661311 0.084319
O O18 0.000000 0.801542 0.492703
#
# Coordination Sequence:
#
# PCOD8309440 Si02
#       7
#     4   8   8   8   8   8   4
#     4   9  16  28  48  71  92 116 152 197 238 280
#     4   8  15  29  48  69  93 120 151 189 233 280
#     4  10  20  33  50  74 102 131 166 206 244 285
#     4   9  18  33  52  73  98 129 163 199 243 294
#     4   9  17  29  46  67  88 113 149 189 225 267
#     4   9  17  30  49  71  95 126 161 196 239 289
#     4   9  18  32  46  61  88 124 152 179 226 280
#
# _framework density 17.831966000000001
#
# number of rings (size 3 to 8) (size 9 to 14) (size 15 to 20)
#    0.000    3.000    0.000    2.000    0.000    4.667 
#    0.000    3.333    0.000    6.250    0.000    0.000 
#    0.000    0.000    0.000    0.000    0.000    0.000 
#
# Total GULP energy -595093.262569 kJ/mol
# GULP energy per Si atom -12397.776304 kJ/mol
# Density = 1.779138 g / cm^3
# Si number density = 17.831966 Si / 1000 Ang^3
#
#
#
# Elastic Constant Matrix: (Units=GPa)
#
#
# Indices 1 2 3 4 5 6 
#
# 1 65.8413 37.7825 68.9729 0.0000 0.0000 0.0000
# 2 37.7825 65.8419 68.9729 0.0000 0.0000 0.0000
# 3 68.9729 68.9729 188.0760 0.0000 0.0000 0.0000
# 4 0.0000 0.0000 0.0000 33.6933 0.0000 0.0000
# 5 0.0000 0.0000 0.0000 0.0000 33.6933 0.0000
# 6 0.0000 0.0000 0.0000 0.0000 0.0000 19.9099
#
#
#
# Elastic Compliance Matrix: (Units=1/GPa)
#
#
# Indices 1 2 3 4 5 6 
#
# 1 0.027247 -0.008392 -0.006915 0.000000 0.000000 0.000000
# 2 -0.008392 0.027247 -0.006915 0.000000 0.000000 0.000000
# 3 -0.006915 -0.006915 0.010389 0.000000 0.000000 0.000000
# 4 0.000000 0.000000 0.000000 0.029680 0.000000 0.000000
# 5 0.000000 0.000000 0.000000 0.000000 0.029679 0.000000
# 6 0.000000 0.000000 0.000000 0.000000 0.000000 0.050226
#
#
# Mechanical properties :
#
#
# Convention : Reuss Voigt Hill
#
# Bulk Modulus (GPa) = 48.92325 74.57952 61.75139
# Shear Modulus (GPa) = 22.15087 27.06136 24.60611
#
# Velocity S-wave (km/s) = 3.52831 3.89983 3.71871
# Velocity P-wave (km/s) = 6.64032 7.88623 7.28994
#
# Compressibility (1/GPa) = 0.02044018
#
# Stress axis : x y z
#
# Youngs Moduli (GPa) = 36.70075 36.70124 96.25841
#
# Poissons Ratio (x) = 0.30799 0.66561
# Poissons Ratio (y) = 0.30799 0.66560
# Poissons Ratio (z) = 0.25378 0.25378
#
# Static dielectric constant tensor:
#      x y z
#    x 3.161510 0.000000 0.000000 
#    y 0.000000 3.161510 0.000000 
#    z 0.000000 0.000000 3.600630 
# 
# 
# High freq. dielectric constant tensor:
#      x y z
#    x 1.668490 0.000000 0.000000 
#    y 0.000000 1.668490 0.000000 
#    z 0.000000 0.000000 1.706030 
# 
# From -- ./inp_files/6222.got.cif
#   From: 2010.03.12/outbox.cif.g09.slc.cpg/sg115_4_cif.got.tgz:6222.got - 2010.04.14 02:11:21.
