data_PCOD8309628
_publ_section_title
;
Structure prediction by ZEFSAII (Michael W. Deem and Ramdas Pophale) SiO2 
 PCOD8309628
Probable space group: P -4 M 2
;
_chemical_formula_sum "Si O2"
_cell_formula_units_Z 48
_cell_length_a 9.013729
_cell_length_b 9.013729
_cell_length_c 31.036360
_cell_angle_alpha 90.000000
_cell_angle_beta 90.000000
_cell_angle_gamma 90.000000
_cell_volume 2521.620777
_symmetry_space_group_name_H-M "P -4 M 2"
_symmetry_group_IT_number 115
_symmetry_cell_setting 'tetragonal'
loop_
_space_group_symop_operation_xyz
x,y,z
y,-x,-z
-x,-y,z
-y,x,-z
y,x,-z
-y,-x,-z
-x,y,z
x,-y,z
loop_
_atom_site_type_symbol
_atom_site_label
_atom_site_fract_x
_atom_site_fract_y
_atom_site_fract_z
Si Si1 0.172904 0.326410 0.460201
Si Si2 0.672310 0.327689 0.125491
Si Si3 0.174454 0.330493 0.038752
Si Si4 0.825106 0.328320 0.618712
Si Si5 0.167281 0.676913 0.789286
Si Si6 0.666515 0.676165 0.705536
O O1 0.265298 0.265298 0.500000
O O2 0.204876 0.500000 0.455294
O O3 0.225115 0.244840 0.417376
O O4 0.000000 0.294154 0.468144
O O5 0.500000 0.293856 0.118244
O O6 0.702397 0.500000 0.134018
O O7 0.757009 0.270396 0.083241
O O8 0.735788 0.240552 0.166712
O O9 0.224656 0.500000 0.030766
O O10 0.000000 0.315526 0.042100
O O11 0.230763 0.230763 0.000000
O O12 0.784213 0.500000 0.609543
O O13 0.759971 0.273445 0.664133
O O14 0.000000 0.305078 0.619570
O O15 0.172101 0.500000 0.788482
O O16 0.256660 0.741475 0.748408
O O17 0.000000 0.736455 0.786745
O O18 0.500000 0.740108 0.702082
O O19 0.663165 0.500000 0.708368
#
# Coordination Sequence:
#
# PCOD8309628 Si02
#       6
#     8   8   8   8   8   8
#     4  11  24  40  58  81 108 139 177 219 263 313
#     4   9  17  30  49  72  98 129 165 206 254 308
#     4  10  21  36  54  76 102 133 170 212 259 311
#     4  10  20  34  54  81 111 142 177 217 263 315
#     4   9  16  26  43  70 102 133 168 213 261 308
#     4   9  16  27  46  73 105 139 174 215 264 313
#
# _framework density 19.035374999999998
#
# number of rings (size 3 to 8) (size 9 to 14) (size 15 to 20)
#    0.000    2.333    0.000    3.000    0.000   10.000 
#    0.000    1.667    0.000    1.000    0.000    2.333 
#    0.000    0.000    0.000    0.000    0.000    0.000 
#
# Total GULP energy -595312.078477 kJ/mol
# GULP energy per Si atom -12402.334968 kJ/mol
# Density = 1.899205 g / cm^3
# Si number density = 19.035375 Si / 1000 Ang^3
#
#
#
# Elastic Constant Matrix: (Units=GPa)
#
#
# Indices 1 2 3 4 5 6 
#
# 1 73.4061 31.9325 52.0392 0.0000 0.0000 0.0000
# 2 31.9325 73.4061 52.0392 0.0000 0.0000 0.0000
# 3 52.0392 52.0392 166.1054 0.0000 0.0000 0.0000
# 4 0.0000 0.0000 0.0000 -8.2911 0.0000 0.0000
# 5 0.0000 0.0000 0.0000 0.0000 -8.2911 0.0000
# 6 0.0000 0.0000 0.0000 0.0000 0.0000 19.1182
#
#
#
# Elastic Compliance Matrix: (Units=1/GPa)
#
#
# Indices 1 2 3 4 5 6 
#
# 1 0.018930 -0.005181 -0.004307 0.000000 0.000000 0.000000
# 2 -0.005181 0.018930 -0.004307 0.000000 0.000000 0.000000
# 3 -0.004307 -0.004307 0.008719 0.000000 0.000000 0.000000
# 4 0.000000 0.000000 0.000000 -0.120611 0.000000 0.000000
# 5 0.000000 0.000000 0.000000 0.000000 -0.120611 0.000000
# 6 0.000000 0.000000 0.000000 0.000000 0.000000 0.052306
#
#
# Mechanical properties :
#
#
# Convention : Reuss Voigt Hill
#
# Bulk Modulus (GPa) = 52.66583 64.99325 58.82954
# Shear Modulus (GPa) = -46.11924 12.30098 -16.90913
#
# Velocity S-wave (km/s) = -4.92755 2.54484 -2.98367
# Velocity P-wave (km/s) = 2.15568 6.54618 4.37067
#
# Compressibility (1/GPa) = 0.01898764
#
# Stress axis : x y z
#
# Youngs Moduli (GPa) = 52.82505 52.82505 114.68875
#
# Poissons Ratio (x) = 0.27370 0.49402
# Poissons Ratio (y) = 0.27370 0.49402
# Poissons Ratio (z) = 0.22754 0.22754
#
# Static dielectric constant tensor:
#      x y z
#    x 3.361280 0.000000 0.000000 
#    y 0.000000 3.361280 0.000000 
#    z 0.000000 0.000000 3.814400 
# 
# 
# High freq. dielectric constant tensor:
#      x y z
#    x 1.722410 0.000000 0.000000 
#    y 0.000000 1.722410 0.000000 
#    z 0.000000 0.000000 1.759050 
# 
# From -- ./inp_files/6032.got.cif
#   From: 2010.03.12/outbox.cif.g09.slc.cpg/sg115_4_cif.got.tgz:6032.got - 2010.04.14 02:11:21.
