data_PCOD8309806
_publ_section_title
;
Structure prediction by ZEFSAII (Michael W. Deem and Ramdas Pophale) SiO2 
 PCOD8309806
Probable space group: P -4 M 2
;
_chemical_formula_sum "Si O2"
_cell_formula_units_Z 48
_cell_length_a 9.039423
_cell_length_b 9.039423
_cell_length_c 30.975840
_cell_angle_alpha 90.000000
_cell_angle_beta 90.000000
_cell_angle_gamma 90.000000
_cell_volume 2531.072072
_symmetry_space_group_name_H-M "P -4 M 2"
_symmetry_group_IT_number 115
_symmetry_cell_setting 'tetragonal'
loop_
_space_group_symop_operation_xyz
x,y,z
y,-x,-z
-x,-y,z
-y,x,-z
y,x,-z
-y,-x,-z
-x,y,z
x,-y,z
loop_
_atom_site_type_symbol
_atom_site_label
_atom_site_fract_x
_atom_site_fract_y
_atom_site_fract_z
Si Si1 0.169088 0.826467 0.124639
Si Si2 0.169899 0.673950 0.961048
Si Si3 0.671938 0.173856 0.380846
Si Si4 0.674777 0.828939 0.696218
Si Si5 0.674006 0.827733 0.539902
Si Si6 0.175622 0.663255 0.207842
O O1 0.259345 0.766991 0.083540
O O2 0.238368 0.763248 0.169024
O O3 0.000000 0.775298 0.118537
O O4 0.183769 0.000000 0.128353
O O5 0.187043 0.500000 0.958565
O O6 0.000000 0.722504 0.968145
O O7 0.266389 0.733611 0.000000
O O8 0.500000 0.211199 0.388241
O O9 0.722165 0.233111 0.334534
O O10 0.769869 0.254310 0.416425
O O11 0.701094 0.000000 0.383684
O O12 0.500000 0.805395 0.689498
O O13 0.722908 0.780816 0.744701
O O14 0.715691 0.000000 0.687062
O O15 0.739065 0.739065 0.500000
O O16 0.500000 0.799799 0.542128
O O17 0.711206 0.000000 0.534165
O O18 0.241971 0.500000 0.201275
O O19 0.000000 0.657731 0.205757
#
# Coordination Sequence:
#
# PCOD8309806 Si02
#       6
#     8   8   8   8   8   8
#     4   9  17  30  50  75 101 131 169 211 255 307
#     4  10  21  36  53  74 101 134 171 212 260 312
#     4  11  24  39  55  80 113 147 185 226 268 317
#     4   9  18  34  56  81 108 140 180 223 266 314
#     4  11  24  41  62  88 115 144 181 223 267 318
#     4   8  15  29  50  76 104 133 169 214 260 308
#
# _framework density 18.964295
#
# number of rings (size 3 to 8) (size 9 to 14) (size 15 to 20)
#    0.000    2.333    0.000    3.500    0.000    9.333 
#    0.000    4.167    0.000    3.000    0.000    0.000 
#    0.000    0.000    0.000    0.000    0.000    0.000 
#
# Total GULP energy -595190.845629 kJ/mol
# GULP energy per Si atom -12399.809284 kJ/mol
# Density = 1.892113 g / cm^3
# Si number density = 18.964295 Si / 1000 Ang^3
#
#
#
# Elastic Constant Matrix: (Units=GPa)
#
#
# Indices 1 2 3 4 5 6 
#
# 1 59.9671 39.3358 44.4577 0.0000 0.0000 0.0000
# 2 39.3358 59.9684 44.4590 0.0000 0.0000 0.0000
# 3 44.4577 44.4590 150.7887 0.0000 0.0000 0.0000
# 4 0.0000 0.0000 0.0000 509.8666 0.0000 0.0000
# 5 0.0000 0.0000 0.0000 0.0000 509.5937 0.0000
# 6 0.0000 0.0000 0.0000 0.0000 0.0000 25.3843
#
#
#
# Elastic Compliance Matrix: (Units=1/GPa)
#
#
# Indices 1 2 3 4 5 6 
#
# 1 0.031076 -0.017393 -0.004034 0.000000 0.000000 0.000000
# 2 -0.017393 0.031075 -0.004034 0.000000 0.000000 0.000000
# 3 -0.004034 -0.004034 0.009011 0.000000 0.000000 0.000000
# 4 0.000000 0.000000 0.000000 0.001961 0.000000 0.000000
# 5 0.000000 0.000000 0.000000 0.000000 0.001962 0.000000
# 6 0.000000 0.000000 0.000000 0.000000 0.000000 0.039394
#
#
# Mechanical properties :
#
#
# Convention : Reuss Voigt Hill
#
# Bulk Modulus (GPa) = 49.40992 58.58102 53.99547
# Shear Modulus (GPa) = 29.04477 218.46704 123.75590
#
# Velocity S-wave (km/s) = 3.91775 10.74473 8.08696
# Velocity P-wave (km/s) = 6.82464 13.59741 10.75791
#
# Compressibility (1/GPa) = 0.02023885
#
# Stress axis : x y z
#
# Youngs Moduli (GPa) = 32.17965 32.18006 110.98058
#
# Poissons Ratio (x) = 0.55971 0.44769
# Poissons Ratio (y) = 0.55970 0.44772
# Poissons Ratio (z) = 0.12981 0.12982
#
# Static dielectric constant tensor:
#      x y z
#    x 3.009030 0.000000 0.000000 
#    y 0.000000 3.008830 0.000000 
#    z 0.000000 0.000000 3.867170 
# 
# 
# High freq. dielectric constant tensor:
#      x y z
#    x 1.725350 0.000000 0.000000 
#    y 0.000000 1.725350 0.000000 
#    z 0.000000 0.000000 1.757420 
# 
# From -- ./inp_files/6080.got.cif
#   From: 2010.03.12/outbox.cif.g09.slc.cpg/sg115_4_cif.got.tgz:6080.got - 2010.04.14 02:11:21.
