data_PCOD8309631
_publ_section_title
;
Structure prediction by ZEFSAII (Michael W. Deem and Ramdas Pophale) SiO2 
 PCOD8309631
Probable space group: P -4 M 2
;
_chemical_formula_sum "Si O2"
_cell_formula_units_Z 48
_cell_length_a 8.857512
_cell_length_b 8.857512
_cell_length_c 30.772541
_cell_angle_alpha 90.000000
_cell_angle_beta 90.000000
_cell_angle_gamma 90.000000
_cell_volume 2414.275670
_symmetry_space_group_name_H-M "P -4 M 2"
_symmetry_group_IT_number 115
_symmetry_cell_setting 'tetragonal'
loop_
_space_group_symop_operation_xyz
x,y,z
y,-x,-z
-x,-y,z
-y,x,-z
y,x,-z
-y,-x,-z
-x,y,z
x,-y,z
loop_
_atom_site_type_symbol
_atom_site_label
_atom_site_fract_x
_atom_site_fract_y
_atom_site_fract_z
Si Si1 0.177249 0.674405 0.866347
Si Si2 0.820835 0.167858 0.952835
Si Si3 0.824126 0.676038 0.214065
Si Si4 0.324738 0.824715 0.458714
Si Si5 0.675479 0.824300 0.623416
Si Si6 0.675938 0.824043 0.295100
O O1 0.215679 0.500000 0.858384
O O2 0.231128 0.719574 0.914747
O O3 0.272116 0.777114 0.833728
O O4 0.000000 0.706781 0.859718
O O5 0.000000 0.157188 0.954519
O O6 0.754171 0.000000 0.943935
O O7 0.767594 0.232407 0.000000
O O8 0.788466 0.500000 0.220255
O O9 0.725774 0.772233 0.247603
O O10 0.000000 0.710092 0.221505
O O11 0.249980 0.750021 0.500000
O O12 0.500000 0.788746 0.460598
O O13 0.262334 0.762408 0.413940
O O14 0.288907 0.000000 0.460589
O O15 0.500000 0.788208 0.618816
O O16 0.730659 0.770365 0.670098
O O17 0.709695 0.000000 0.618505
O O18 0.500000 0.789911 0.301569
O O19 0.711150 0.000000 0.300910
#
# Coordination Sequence:
#
# PCOD8309631 Si02
#       6
#     8   8   8   8   8   8
#     4  10  20  34  54  81 111 144 183 226 275 332
#     4   8  14  27  49  75 103 139 183 228 273 322
#     4  11  24  40  58  82 111 145 187 232 279 333
#     4  11  24  41  62  90 122 157 200 246 292 345
#     4  11  24  41  62  90 122 156 196 239 284 338
#     4  11  24  41  62  89 118 149 188 232 280 337
#
# _framework density 19.881740000000001
#
# number of rings (size 3 to 8) (size 9 to 14) (size 15 to 20)
#    0.000    1.667    0.000    5.000    0.000   14.333 
#    0.000    0.833    0.000    3.000    0.000    0.000 
#    0.000    0.000    0.000    0.000    0.000    0.000 
#
# Total GULP energy -595379.176134 kJ/mol
# GULP energy per Si atom -12403.732836 kJ/mol
# Density = 1.983649 g / cm^3
# Si number density = 19.881740 Si / 1000 Ang^3
#
#
#
# Elastic Constant Matrix: (Units=GPa)
#
#
# Indices 1 2 3 4 5 6 
#
# 1 74.8939 75.3525 37.2893 0.0000 0.0000 0.0000
# 2 75.3525 74.8891 37.2931 0.0000 0.0000 0.0000
# 3 37.2893 37.2931 123.5626 0.0000 0.0000 0.0000
# 4 0.0000 0.0000 0.0000 46.3278 0.0000 0.0000
# 5 0.0000 0.0000 0.0000 0.0000 46.3274 0.0000
# 6 0.0000 0.0000 0.0000 0.0000 0.0000 28.3559
#
#
#
# Elastic Compliance Matrix: (Units=1/GPa)
#
#
# Indices 1 2 3 4 5 6 
#
# 1 -1.080667 1.088555 -0.002414 0.000000 0.000000 0.000000
# 2 1.088555 -1.080787 -0.002311 0.000000 0.000000 0.000000
# 3 -0.002414 -0.002311 0.009519 0.000000 0.000000 0.000000
# 4 0.000000 0.000000 0.000000 0.021585 0.000000 0.000000
# 5 0.000000 0.000000 0.000000 0.000000 0.021586 0.000000
# 6 0.000000 0.000000 0.000000 0.000000 0.000000 0.035266
#
#
# Mechanical properties :
#
#
# Convention : Reuss Voigt Hill
#
# Bulk Modulus (GPa) = 63.58981 63.69060 63.64021
# Shear Modulus (GPa) = -1.18038 32.42959 15.62461
#
# Velocity S-wave (km/s) = -0.77136 4.04310 2.80639
# Velocity P-wave (km/s) = 5.59108 7.34165 6.52533
#
# Compressibility (1/GPa) = 0.01572579
#
# Stress axis : x y z
#
# Youngs Moduli (GPa) = -0.92535 -0.92525 105.05090
#
# Poissons Ratio (x) = 1.00719 0.25359
# Poissons Ratio (y) = 1.00730 0.24282
# Poissons Ratio (z) = -0.00223 -0.00214
#
# Static dielectric constant tensor:
#      x y z
#    x 3.622300 0.000000 0.000000 
#    y 0.000000 3.622290 0.000000 
#    z 0.000000 0.000000 1.739090 
# 
# 
# High freq. dielectric constant tensor:
#      x y z
#    x 1.774150 0.000000 0.000000 
#    y 0.000000 1.774150 0.000000 
#    z 0.000000 0.000000 1.795920 
# 
# From -- ./inp_files/5967.got.cif
#   From: 2010.03.12/outbox.cif.g09.slc.cpg/sg115_3_cif.got.tgz:5967.got - 2010.04.14 02:11:21.
