data_PCOD8309502
_publ_section_title
;
Structure prediction by ZEFSAII (Michael W. Deem and Ramdas Pophale) SiO2 
 PCOD8309502
Probable space group: P -4 M 2
;
_chemical_formula_sum "Si O2"
_cell_formula_units_Z 44
_cell_length_a 9.355336
_cell_length_b 9.355336
_cell_length_c 27.985741
_cell_angle_alpha 90.000000
_cell_angle_beta 90.000000
_cell_angle_gamma 90.000000
_cell_volume 2449.376746
_symmetry_space_group_name_H-M "P -4 M 2"
_symmetry_group_IT_number 115
_symmetry_cell_setting 'tetragonal'
loop_
_space_group_symop_operation_xyz
x,y,z
y,-x,-z
-x,-y,z
-y,x,-z
y,x,-z
-y,-x,-z
-x,y,z
x,-y,z
loop_
_atom_site_type_symbol
_atom_site_label
_atom_site_fract_x
_atom_site_fract_y
_atom_site_fract_z
Si Si1 0.161721 0.669779 0.407627
Si Si2 0.330767 0.340058 0.052872
Si Si3 0.334697 0.331247 0.316005
Si Si4 0.835790 0.166527 0.237830
Si Si5 0.832489 0.840231 0.871242
Si Si6 0.666606 0.666606 0.500000
O O1 0.160468 0.500000 0.406806
O O2 0.247644 0.727347 0.361744
O O3 0.242952 0.722568 0.454983
O O4 0.000000 0.730602 0.406925
O O5 0.500000 0.338490 0.056559
O O6 0.272361 0.500000 0.061308
O O7 0.269843 0.239178 0.093311
O O8 0.285288 0.285288 0.000000
O O9 0.500000 0.288853 0.322336
O O10 0.316273 0.500000 0.310374
O O11 0.272001 0.258396 0.269120
O O12 0.800343 0.205590 0.183149
O O13 0.000000 0.206131 0.249824
O O14 0.809027 0.000000 0.247669
O O15 0.000000 0.830765 0.879211
O O16 0.777910 0.000000 0.882590
O O17 0.694054 0.500000 0.510853
#
# Coordination Sequence:
#
# PCOD8309502 Si02
#       6
#     8   8   8   8   8   4
#     4   9  17  30  49  72  98 129 164 202 245 293
#     4   9  19  35  52  72 101 134 166 203 248 296
#     4  10  20  33  51  77 105 132 167 209 250 295
#     4   9  19  36  54  72  99 134 168 204 250 300
#     4   9  19  35  53  74 100 130 166 207 249 296
#     4   9  16  28  48  71  94 122 158 201 246 290
#
# _framework density 17.963751999999999
#
# number of rings (size 3 to 8) (size 9 to 14) (size 15 to 20)
#    0.000    2.818    0.000    2.727    0.000    6.545 
#    0.000    9.091    0.000    3.545    0.000    0.000 
#    0.000    0.000    0.000    0.000    0.000    0.000 
#
# Total GULP energy -545566.933658 kJ/mol
# GULP energy per Si atom -12399.248492 kJ/mol
# Density = 1.792287 g / cm^3
# Si number density = 17.963752 Si / 1000 Ang^3
#
#
#
# Elastic Constant Matrix: (Units=GPa)
#
#
# Indices 1 2 3 4 5 6 
#
# 1 69.0061 36.8539 61.5871 0.0000 0.0000 0.0000
# 2 36.8539 69.0061 61.5871 0.0000 0.0000 0.0000
# 3 61.5871 61.5871 140.8306 0.0000 0.0000 0.0000
# 4 0.0000 0.0000 0.0000 -2.7370 0.0000 0.0000
# 5 0.0000 0.0000 0.0000 0.0000 -2.7370 0.0000
# 6 0.0000 0.0000 0.0000 0.0000 0.0000 27.5378
#
#
#
# Elastic Compliance Matrix: (Units=1/GPa)
#
#
# Indices 1 2 3 4 5 6 
#
# 1 0.025167 -0.005935 -0.008411 0.000000 0.000000 0.000000
# 2 -0.005935 0.025167 -0.008411 0.000000 0.000000 0.000000
# 3 -0.008411 -0.008411 0.014457 0.000000 0.000000 0.000000
# 4 0.000000 0.000000 0.000000 -0.365364 0.000000 0.000000
# 5 0.000000 0.000000 0.000000 0.000000 -0.365364 0.000000
# 6 0.000000 0.000000 0.000000 0.000000 0.000000 0.036314
#
#
# Mechanical properties :
#
#
# Convention : Reuss Voigt Hill
#
# Bulk Modulus (GPa) = 51.86826 66.54435 59.20631
# Shear Modulus (GPa) = -8.65527 12.33374 1.83923
#
# Velocity S-wave (km/s) = -2.19742 2.62313 1.01296
# Velocity P-wave (km/s) = 4.74324 6.80430 5.86502
#
# Compressibility (1/GPa) = 0.01927961
#
# Stress axis : x y z
#
# Youngs Moduli (GPa) = 39.73382 39.73382 69.17048
#
# Poissons Ratio (x) = 0.23580 0.58178
# Poissons Ratio (y) = 0.23580 0.58178
# Poissons Ratio (z) = 0.33419 0.33419
#
# Static dielectric constant tensor:
#      x y z
#    x 3.211180 0.000000 0.000000 
#    y 0.000000 3.211180 0.000000 
#    z 0.000000 0.000000 3.424810 
# 
# 
# High freq. dielectric constant tensor:
#      x y z
#    x 1.682910 0.000000 0.000000 
#    y 0.000000 1.682910 0.000000 
#    z 0.000000 0.000000 1.707390 
# 
# From -- ./inp_files/5724.got.cif
#   From: 2010.03.12/outbox.cif.g09.slc.cpg/sg115_3_cif.got.tgz:5724.got - 2010.04.14 02:11:21.
