data_PCOD8309054
_publ_section_title
;
Structure prediction by ZEFSAII (Michael W. Deem and Ramdas Pophale) SiO2 
 PCOD8309054
Probable space group: P -4 21 C
;
_chemical_formula_sum "Si O2"
_cell_formula_units_Z 40
_cell_length_a 9.034028
_cell_length_b 9.034028
_cell_length_c 22.339338
_cell_angle_alpha 90.000000
_cell_angle_beta 90.000000
_cell_angle_gamma 90.000000
_cell_volume 1823.195179
_symmetry_space_group_name_H-M "P -4 21 C"
_symmetry_group_IT_number 114
_symmetry_cell_setting 'tetragonal'
loop_
_space_group_symop_operation_xyz
x,y,z
y,-x,-z
-x,-y,z
-y,x,-z
1/2+x,1/2-y,1/2-z
1/2-x,1/2+y,1/2-z
1/2-y,1/2-x,1/2+z
1/2+y,1/2+x,1/2+z
loop_
_atom_site_type_symbol
_atom_site_label
_atom_site_fract_x
_atom_site_fract_y
_atom_site_fract_z
Si Si1 0.267584 0.440028 0.498791
Si Si2 0.102465 0.362624 0.873178
Si Si3 0.840821 0.942884 0.208275
Si Si4 0.773941 0.380957 0.165433
Si Si5 0.610049 0.175292 0.372801
O O1 0.327958 0.600789 0.516151
O O2 0.167069 0.451140 0.440244
O O3 0.172918 0.385434 0.555101
O O4 0.283776 0.354648 0.869604
O O5 0.000000 0.500000 0.851481
O O6 0.082230 0.238855 0.821786
O O7 0.754873 0.871519 0.263630
O O8 0.835240 0.830213 0.152742
O O9 0.000000 0.000000 0.229741
O O10 0.768055 0.553249 0.146227
O O11 0.943968 0.340834 0.151542
#
# Coordination Sequence:
#
# PCOD8309054 Si02
#       5
#     8   8   8   8   8
#     4  11  21  43  73 102 136 183 251 303 353 434
#     4  12  27  42  71 110 140 185 244 300 363 440
#     4  12  24  46  70 101 139 193 243 293 361 448
#     4  11  26  42  68 103 147 184 235 299 377 427
#     4  11  24  44  72 101 140 191 239 304 369 429
#
# _framework density 21.939503999999999
#
# number of rings (size 3 to 8) (size 9 to 14) (size 15 to 20)
#    0.000    0.600    6.000    1.200    8.400    0.000 
#    0.000    0.000    0.000    0.000    0.000    0.000 
#    0.000    0.000    0.000    0.000    0.000    0.000 
#
# Total GULP energy -495644.733735 kJ/mol
# GULP energy per Si atom -12391.118343 kJ/mol
# Density = 2.188957 g / cm^3
# Si number density = 21.939504 Si / 1000 Ang^3
#
#
#
# Elastic Constant Matrix: (Units=GPa)
#
#
# Indices 1 2 3 4 5 6 
#
# 1 83.4075 31.5150 28.5034 0.0000 0.0000 0.0000
# 2 31.5150 83.4075 28.5034 0.0000 0.0000 0.0000
# 3 28.5034 28.5034 139.4336 0.0000 0.0000 0.0000
# 4 0.0000 0.0000 0.0000 21.3855 0.0000 0.0000
# 5 0.0000 0.0000 0.0000 0.0000 21.3855 0.0000
# 6 0.0000 0.0000 0.0000 0.0000 0.0000 43.6248
#
#
#
# Elastic Compliance Matrix: (Units=1/GPa)
#
#
# Indices 1 2 3 4 5 6 
#
# 1 0.014477 -0.004794 -0.001980 0.000000 0.000000 0.000000
# 2 -0.004794 0.014477 -0.001980 0.000000 0.000000 0.000000
# 3 -0.001980 -0.001980 0.007981 0.000000 0.000000 0.000000
# 4 0.000000 0.000000 0.000000 0.046761 0.000000 0.000000
# 5 0.000000 0.000000 0.000000 0.000000 0.046761 0.000000
# 6 0.000000 0.000000 0.000000 0.000000 0.000000 0.022923
#
#
# Mechanical properties :
#
#
# Convention : Reuss Voigt Hill
#
# Bulk Modulus (GPa) = 51.46677 53.69913 52.58295
# Shear Modulus (GPa) = 28.19103 31.79426 29.99264
#
# Velocity S-wave (km/s) = 3.58850 3.81094 3.70139
# Velocity P-wave (km/s) = 6.37802 6.62521 6.50279
#
# Compressibility (1/GPa) = 0.01943001
#
# Stress axis : x y z
#
# Youngs Moduli (GPa) = 69.07492 69.07492 125.29458
#
# Poissons Ratio (x) = 0.33112 0.24802
# Poissons Ratio (y) = 0.33112 0.24802
# Poissons Ratio (z) = 0.13674 0.13674
#
# Static dielectric constant tensor:
#      x y z
#    x 4.056930 0.000000 0.000000 
#    y 0.000000 4.056930 0.000000 
#    z 0.000000 0.000000 3.846830 
# 
# 
# High freq. dielectric constant tensor:
#      x y z
#    x 1.857330 0.000000 0.000000 
#    y 0.000000 1.857330 0.000000 
#    z 0.000000 0.000000 1.871300 
# 
# From -- ./inp_files/3373.got.cif
#   From: 2010.03.12/outbox.cif.g09.slc.cpg/sg114_2_cif.got.tgz:3373.got - 2010.04.14 02:08:34.
