data_PCOD8309815
_publ_section_title
;
Structure prediction by ZEFSAII (Michael W. Deem and Ramdas Pophale) SiO2 
 PCOD8309815
Probable space group: P -4 M 2
;
_chemical_formula_sum "Si O2"
_cell_formula_units_Z 48
_cell_length_a 9.058746
_cell_length_b 9.058746
_cell_length_c 30.989549
_cell_angle_alpha 90.000000
_cell_angle_beta 90.000000
_cell_angle_gamma 90.000000
_cell_volume 2543.029634
_symmetry_space_group_name_H-M "P -4 M 2"
_symmetry_group_IT_number 115
_symmetry_cell_setting 'tetragonal'
loop_
_space_group_symop_operation_xyz
x,y,z
y,-x,-z
-x,-y,z
-y,x,-z
y,x,-z
-y,-x,-z
-x,y,z
x,-y,z
loop_
_atom_site_type_symbol
_atom_site_label
_atom_site_fract_x
_atom_site_fract_y
_atom_site_fract_z
Si Si1 0.830837 0.169164 0.000000
Si Si2 0.675851 0.331272 0.592912
Si Si3 0.828646 0.170785 0.330048
Si Si4 0.325634 0.169070 0.835320
Si Si5 0.828004 0.670925 0.912827
Si Si6 0.328615 0.671385 0.500000
Si Si7 0.327042 0.828851 0.243046
O O1 0.787103 0.274086 0.960524
O O2 0.000000 0.194684 0.014187
O O3 0.500000 0.326651 0.594365
O O4 0.730061 0.500000 0.600258
O O5 0.739146 0.225204 0.628980
O O6 0.731962 0.266522 0.545961
O O7 0.742829 0.226522 0.287799
O O8 0.000000 0.201903 0.322417
O O9 0.795092 0.000000 0.338731
O O10 0.500000 0.182961 0.835560
O O11 0.265648 0.235388 0.879462
O O12 0.264518 0.259855 0.795335
O O13 0.273770 0.000000 0.831383
O O14 0.785103 0.500000 0.908733
O O15 0.000000 0.696678 0.902964
O O16 0.500000 0.703990 0.497203
O O17 0.500000 0.799275 0.245067
O O18 0.290091 0.000000 0.234889
#
# Coordination Sequence:
#
# PCOD8309815 Si02
#       7
#     4   8   8   8   8   4   8
#     4   9  18  34  56  81 110 146 186 225 264 309
#     4   9  17  31  53  78 102 132 172 217 263 310
#     4  10  21  36  53  75 105 140 175 212 258 312
#     4  11  24  39  56  81 112 144 178 218 265 316
#     4  10  21  37  58  84 113 146 184 224 267 317
#     4   7  12  26  48  73 100 130 168 213 258 307
#     4  10  21  38  60  82 103 133 176 221 264 314
#
# _framework density 18.875125000000001
#
# number of rings (size 3 to 8) (size 9 to 14) (size 15 to 20)
#    0.000    2.333    0.000    3.500    0.000    8.000 
#    0.000    2.500    0.000    4.000    0.000    0.000 
#    0.000    0.000    0.000    0.000    0.000    0.000 
#
# Total GULP energy -595123.078037 kJ/mol
# GULP energy per Si atom -12398.397459 kJ/mol
# Density = 1.883216 g / cm^3
# Si number density = 18.875125 Si / 1000 Ang^3
#
#
#
# Elastic Constant Matrix: (Units=GPa)
#
#
# Indices 1 2 3 4 5 6 
#
# 1 66.1650 35.5253 47.2676 0.0000 0.0000 0.0000
# 2 35.5253 66.1644 47.2678 0.0000 0.0000 0.0000
# 3 47.2676 47.2678 131.8315 0.0000 0.0000 0.0000
# 4 0.0000 0.0000 0.0000 35.4860 0.0000 0.0000
# 5 0.0000 0.0000 0.0000 0.0000 35.4859 0.0000
# 6 0.0000 0.0000 0.0000 0.0000 0.0000 27.9901
#
#
#
# Elastic Compliance Matrix: (Units=1/GPa)
#
#
# Indices 1 2 3 4 5 6 
#
# 1 0.023694 -0.008944 -0.005289 0.000000 0.000000 0.000000
# 2 -0.008944 0.023694 -0.005289 0.000000 0.000000 0.000000
# 3 -0.005289 -0.005289 0.011378 0.000000 0.000000 0.000000
# 4 0.000000 0.000000 0.000000 0.028180 0.000000 0.000000
# 5 0.000000 0.000000 0.000000 0.000000 0.028180 0.000000
# 6 0.000000 0.000000 0.000000 0.000000 0.000000 0.035727
#
#
# Mechanical properties :
#
#
# Convention : Reuss Voigt Hill
#
# Bulk Modulus (GPa) = 50.69982 58.25360 54.47671
# Shear Modulus (GPa) = 25.44915 28.73239 27.09077
#
# Velocity S-wave (km/s) = 3.67589 3.90582 3.79260
# Velocity P-wave (km/s) = 6.70337 7.16032 6.93561
#
# Compressibility (1/GPa) = 0.01972393
#
# Stress axis : x y z
#
# Youngs Moduli (GPa) = 42.20497 42.20431 87.88938
#
# Poissons Ratio (x) = 0.37746 0.46481
# Poissons Ratio (y) = 0.37747 0.46483
# Poissons Ratio (z) = 0.22321 0.22321
#
# Static dielectric constant tensor:
#      x y z
#    x 3.379850 0.000000 0.000000 
#    y 0.000000 3.379860 0.000000 
#    z 0.000000 0.000000 3.753010 
# 
# 
# High freq. dielectric constant tensor:
#      x y z
#    x 1.722880 0.000000 0.000000 
#    y 0.000000 1.722880 0.000000 
#    z 0.000000 0.000000 1.754620 
# 
# From -- ./inp_files/6273.got.cif
#   From: 2010.03.12/outbox.cif.g09.slc.cpg/sg115_4_cif.got.tgz:6273.got - 2010.04.14 02:11:21.
