data_PCOD8309980
_publ_section_title
;
Structure prediction by ZEFSAII (Michael W. Deem and Ramdas Pophale) SiO2 
 PCOD8309980
Probable space group: P -4 M 2
;
_chemical_formula_sum "Si O2"
_cell_formula_units_Z 26
_cell_length_a 7.783524
_cell_length_b 7.783524
_cell_length_c 22.162538
_cell_angle_alpha 90.000000
_cell_angle_beta 90.000000
_cell_angle_gamma 90.000000
_cell_volume 1342.678489
_symmetry_space_group_name_H-M "P -4 M 2"
_symmetry_group_IT_number 115
_symmetry_cell_setting 'tetragonal'
loop_
_space_group_symop_operation_xyz
x,y,z
y,-x,-z
-x,-y,z
-y,x,-z
y,x,-z
-y,-x,-z
-x,y,z
x,-y,z
loop_
_atom_site_type_symbol
_atom_site_label
_atom_site_fract_x
_atom_site_fract_y
_atom_site_fract_z
Si Si1 0.000000 0.191546 0.615076
Si Si2 0.200869 0.806619 0.816294
Si Si3 0.797555 0.500000 0.904831
Si Si4 0.500000 0.500000 0.000000
Si Si5 0.000000 0.000000 0.500000
Si Si6 0.796170 0.684853 0.314911
O O1 0.170708 0.285486 0.640495
O O2 0.000000 0.172180 0.541872
O O3 0.000000 0.000000 0.644158
O O4 0.250793 0.671842 0.867949
O O5 0.286312 0.743852 0.754378
O O6 0.000000 0.805883 0.804265
O O7 0.262054 0.000000 0.834689
O O8 0.000000 0.500000 0.922897
O O9 0.676695 0.500000 0.962745
O O10 0.721281 0.500000 0.335014
O O11 0.000000 0.683839 0.321239
#
# Coordination Sequence:
#
# PCOD8309980 Si02
#       6
#     4   8   4   1   1   8
#     4   8  14  26  40  71 103 144 189 218 268 324
#     4   9  17  33  57  84 112 141 175 232 287 331
#     4  10  24  42  58  84 114 148 186 229 278 333
#     4  12  28  44  60  80 116 156 188 234 252 364
#     4   8  16  24  44  64 104 164 188 222 276 324
#     4   9  15  24  45  77 108 135 172 230 275 322
#
# _framework density 19.364277000000001
#
# number of rings (size 3 to 8) (size 9 to 14) (size 15 to 20)
#    0.462    2.462    1.538    0.000    2.154    1.231 
#    0.000    0.000    0.000    0.000    8.000    0.000 
#    0.000    0.000    0.000    0.000    0.000    0.000 
#
# Total GULP energy -322100.770488 kJ/mol
# GULP energy per Si atom -12388.491173 kJ/mol
# Density = 1.932020 g / cm^3
# Si number density = 19.364277 Si / 1000 Ang^3
#
#
#
# Elastic Constant Matrix: (Units=GPa)
#
#
# Indices 1 2 3 4 5 6 
#
# 1 97.4580 28.7346 65.4652 0.0000 0.0000 0.0000
# 2 28.7346 97.4580 65.4652 0.0000 0.0000 0.0000
# 3 65.4652 65.4652 133.2214 0.0000 0.0000 0.0000
# 4 0.0000 0.0000 0.0000 5.6438 0.0000 0.0000
# 5 0.0000 0.0000 0.0000 0.0000 5.6438 0.0000
# 6 0.0000 0.0000 0.0000 0.0000 0.0000 6.6101
#
#
#
# Elastic Compliance Matrix: (Units=1/GPa)
#
#
# Indices 1 2 3 4 5 6 
#
# 1 0.015359 0.000808 -0.007945 0.000000 0.000000 0.000000
# 2 0.000808 0.015359 -0.007945 0.000000 0.000000 0.000000
# 3 -0.007945 -0.007945 0.015314 0.000000 0.000000 0.000000
# 4 0.000000 0.000000 0.000000 0.177187 0.000000 0.000000
# 5 0.000000 0.000000 0.000000 0.000000 0.177187 0.000000
# 6 0.000000 0.000000 0.000000 0.000000 0.000000 0.151283
#
#
# Mechanical properties :
#
#
# Convention : Reuss Voigt Hill
#
# Bulk Modulus (GPa) = 63.01047 71.94081 67.47564
# Shear Modulus (GPa) = 8.51583 14.81102 11.66342
#
# Velocity S-wave (km/s) = 2.09934 2.76862 2.45688
# Velocity P-wave (km/s) = 6.20375 6.88856 6.55510
#
# Compressibility (1/GPa) = 0.01587038
#
# Stress axis : x y z
#
# Youngs Moduli (GPa) = 65.10754 65.10754 65.29840
#
# Poissons Ratio (x) = -0.05261 0.51877
# Poissons Ratio (y) = -0.05261 0.51877
# Poissons Ratio (z) = 0.51726 0.51726
#
# Static dielectric constant tensor:
#      x y z
#    x 3.665610 0.000000 0.000000 
#    y 0.000000 3.665610 0.000000 
#    z 0.000000 0.000000 3.230200 
# 
# 
# High freq. dielectric constant tensor:
#      x y z
#    x 1.742830 0.000000 0.000000 
#    y 0.000000 1.742830 0.000000 
#    z 0.000000 0.000000 1.723340 
# 
# From -- ./inp_files/4096.got.cif
#   From: 2010.03.12/outbox.cif.g09.slc.cpg/sg115_3_cif.got.tgz:4096.got - 2010.04.14 02:11:21.
