data_PCOD8309403
_publ_section_title
;
Structure prediction by ZEFSAII (Michael W. Deem and Ramdas Pophale) SiO2 
 PCOD8309403
Probable space group: P -4 M 2
;
_chemical_formula_sum "Si O2"
_cell_formula_units_Z 44
_cell_length_a 9.006841
_cell_length_b 9.006841
_cell_length_c 28.901078
_cell_angle_alpha 90.000000
_cell_angle_beta 90.000000
_cell_angle_gamma 90.000000
_cell_volume 2344.547491
_symmetry_space_group_name_H-M "P -4 M 2"
_symmetry_group_IT_number 115
_symmetry_cell_setting 'tetragonal'
loop_
_space_group_symop_operation_xyz
x,y,z
y,-x,-z
-x,-y,z
-y,x,-z
y,x,-z
-y,-x,-z
-x,y,z
x,-y,z
loop_
_atom_site_type_symbol
_atom_site_label
_atom_site_fract_x
_atom_site_fract_y
_atom_site_fract_z
Si Si1 0.827114 0.172887 0.500000
Si Si2 0.332988 0.323940 0.232046
Si Si3 0.176649 0.830045 0.148776
Si Si4 0.833062 0.323535 0.322186
Si Si5 0.177064 0.164461 0.951368
Si Si6 0.325080 0.328440 0.415288
O O1 0.772813 0.262530 0.544282
O O2 0.000000 0.205144 0.491976
O O3 0.500000 0.261005 0.232322
O O4 0.333543 0.500000 0.233941
O O5 0.250640 0.275914 0.185804
O O6 0.248181 0.258684 0.276830
O O7 0.242016 0.782682 0.097730
O O8 0.000000 0.810015 0.150009
O O9 0.219340 0.000000 0.159631
O O10 0.834671 0.500000 0.319973
O O11 0.745715 0.270570 0.367587
O O12 0.000000 0.259763 0.323804
O O13 0.000000 0.156078 0.955410
O O14 0.244532 0.000000 0.948335
O O15 0.238329 0.238329 0.000000
O O16 0.500000 0.307402 0.411832
O O17 0.283336 0.500000 0.425025
#
# Coordination Sequence:
#
# PCOD8309403 Si02
#       6
#     4   8   8   8   8   8
#     4  11  24  39  54  76 108 143 176 209 246 288
#     4  10  20  33  49  70  98 133 171 207 244 292
#     4   9  17  29  47  72  98 123 156 201 251 300
#     4   9  17  31  53  78 102 130 165 207 254 299
#     4   7  10  19  38  64  91 117 148 191 243 295
#     4  10  20  35  57  83 107 132 166 207 250 298
#
# _framework density 18.766947999999999
#
# number of rings (size 3 to 8) (size 9 to 14) (size 15 to 20)
#    0.000    2.818    0.000    3.818    0.000    6.545 
#    0.000    0.909    0.000    6.545    0.000    6.364 
#    0.000    0.000    0.000    0.000    0.000    0.000 
#
# Total GULP energy -545216.322160 kJ/mol
# GULP energy per Si atom -12391.280049 kJ/mol
# Density = 1.872423 g / cm^3
# Si number density = 18.766948 Si / 1000 Ang^3
#
#
#
# Elastic Constant Matrix: (Units=GPa)
#
#
# Indices 1 2 3 4 5 6 
#
# 1 50.2650 19.9350 37.9006 0.0000 0.0000 0.0000
# 2 19.9350 50.2649 37.9009 0.0000 0.0000 0.0000
# 3 37.9006 37.9009 176.4956 0.0000 0.0000 0.0000
# 4 0.0000 0.0000 0.0000 41.4261 0.0000 0.0000
# 5 0.0000 0.0000 0.0000 0.0000 41.4198 0.0000
# 6 0.0000 0.0000 0.0000 0.0000 0.0000 20.1188
#
#
#
# Elastic Compliance Matrix: (Units=1/GPa)
#
#
# Indices 1 2 3 4 5 6 
#
# 1 0.025758 -0.007213 -0.003982 0.000000 0.000000 0.000000
# 2 -0.007213 0.025758 -0.003982 0.000000 0.000000 0.000000
# 3 -0.003982 -0.003982 0.007376 0.000000 0.000000 0.000000
# 4 0.000000 0.000000 0.000000 0.024139 0.000000 0.000000
# 5 0.000000 0.000000 0.000000 0.000000 0.024143 0.000000
# 6 0.000000 0.000000 0.000000 0.000000 0.000000 0.049705
#
#
# Mechanical properties :
#
#
# Convention : Reuss Voigt Hill
#
# Bulk Modulus (GPa) = 35.04224 52.05539 43.54882
# Shear Modulus (GPa) = 25.41336 32.67887 29.04612
#
# Velocity S-wave (km/s) = 3.68388 4.17741 3.93838
# Velocity P-wave (km/s) = 6.06691 7.14603 6.62847
#
# Compressibility (1/GPa) = 0.02853699
#
# Stress axis : x y z
#
# Youngs Moduli (GPa) = 38.82304 38.82285 135.57070
#
# Poissons Ratio (x) = 0.28002 0.53989
# Poissons Ratio (y) = 0.28002 0.53990
# Poissons Ratio (z) = 0.15461 0.15461
#
# Static dielectric constant tensor:
#      x y z
#    x 3.176520 0.000000 0.000000 
#    y 0.000000 3.176530 0.000000 
#    z 0.000000 0.000000 3.911200 
# 
# 
# High freq. dielectric constant tensor:
#      x y z
#    x 1.694900 0.000000 0.000000 
#    y 0.000000 1.694900 0.000000 
#    z 0.000000 0.000000 1.758470 
# 
# From -- ./inp_files/5737.got.cif
#   From: 2010.03.12/outbox.cif.g09.slc.cpg/sg115_3_cif.got.tgz:5737.got - 2010.04.14 02:11:21.
