data_PCOD8309155
_publ_section_title
;
Structure prediction by ZEFSAII (Michael W. Deem and Ramdas Pophale) SiO2 
 PCOD8309155
Probable space group: P -4 M 2
;
_chemical_formula_sum "Si O2"
_cell_formula_units_Z 64
_cell_length_a 26.685902
_cell_length_b 26.685902
_cell_length_c 5.296900
_cell_angle_alpha 90.000000
_cell_angle_beta 90.000000
_cell_angle_gamma 90.000000
_cell_volume 3772.120412
_symmetry_space_group_name_H-M "P -4 M 2"
_symmetry_group_IT_number 115
_symmetry_cell_setting 'tetragonal'
loop_
_space_group_symop_operation_xyz
x,y,z
y,-x,-z
-x,-y,z
-y,x,-z
y,x,-z
-y,-x,-z
-x,y,z
x,-y,z
loop_
_atom_site_type_symbol
_atom_site_label
_atom_site_fract_x
_atom_site_fract_y
_atom_site_fract_z
Si Si1 0.387100 0.904036 0.009668
Si Si2 0.365060 0.788384 0.017540
Si Si3 0.273804 0.058561 0.012463
Si Si4 0.441598 0.701040 0.999904
Si Si5 0.058417 0.384586 0.490284
Si Si6 0.782604 0.699229 0.481961
Si Si7 0.894224 0.275542 0.487576
Si Si8 0.558401 0.360160 0.499826
O O1 0.384752 0.844693 0.002775
O O2 0.332822 0.930491 0.015812
O O3 0.415510 0.923988 0.261450
O O4 0.415420 0.925509 0.760868
O O5 0.338311 0.778753 0.283250
O O6 0.413149 0.753371 0.998821
O O7 0.328681 0.777317 0.784392
O O8 0.249096 0.082793 0.263384
O O9 0.262990 0.000000 0.008570
O O10 0.249151 0.083761 0.763844
O O11 0.500000 0.713971 0.000183
O O12 0.426470 0.670629 0.749239
O O13 0.426449 0.670400 0.249763
O O14 0.091043 0.333935 0.484346
O O15 0.000000 0.371731 0.494979
O O16 0.737748 0.737748 0.500000
O O17 0.834523 0.729565 0.492308
O O18 0.587685 0.412316 0.500000
O O19 0.500000 0.373739 0.500024
#
# Coordination Sequence:
#
# PCOD8309155 Si02
#       8
#     8   8   8   8   8   8   8   8
#     4  10  16  27  41  62  90 116 145 192 246 273
#     4  12  21  37  51  67  96 128 163 209 232 282
#     4  10  16  25  44  63  87 119 152 190 252 292
#     4  10  23  39  58  79 104 134 164 200 240 279
#     4  10  16  25  43  63  90 118 149 189 249 295
#     4  12  23  34  47  68  95 135 167 195 237 280
#     4  10  16  29  38  58  92 117 150 197 236 276
#     4  10  21  39  61  85 110 131 155 193 239 289
#
# _framework density 16.966584000000001
#
# number of rings (size 3 to 8) (size 9 to 14) (size 15 to 20)
#    0.000    1.500    5.000    5.250    0.000    3.125 
#    0.000    0.000    0.000    2.250    0.000    0.000 
#    0.000    5.500    0.000    0.000    0.000    0.000 
#
# Total GULP energy -793319.099357 kJ/mol
# GULP energy per Si atom -12395.610927 kJ/mol
# Density = 1.692797 g / cm^3
# Si number density = 16.966584 Si / 1000 Ang^3
#
#
#
# Elastic Constant Matrix: (Units=GPa)
#
#
# Indices 1 2 3 4 5 6 
#
# 1 45.5280 36.4634 20.9117 0.0000 0.0000 0.0000
# 2 36.4634 45.5245 20.9110 0.0000 0.0000 0.0000
# 3 20.9117 20.9110 162.2203 0.0000 0.0000 0.0000
# 4 0.0000 0.0000 0.0000 12.8759 0.0000 0.0000
# 5 0.0000 0.0000 0.0000 0.0000 12.8792 0.0000
# 6 0.0000 0.0000 0.0000 0.0000 0.0000 -0.1944
#
#
#
# Elastic Compliance Matrix: (Units=1/GPa)
#
#
# Indices 1 2 3 4 5 6 
#
# 1 0.061695 -0.048643 -0.001683 0.000000 0.000000 0.000000
# 2 -0.048643 0.061700 -0.001683 0.000000 0.000000 0.000000
# 3 -0.001683 -0.001683 0.006598 0.000000 0.000000 0.000000
# 4 0.000000 0.000000 0.000000 0.077664 0.000000 0.000000
# 5 0.000000 0.000000 0.000000 0.000000 0.077644 0.000000
# 6 0.000000 0.000000 0.000000 0.000000 0.000000 -5.144167
#
#
# Mechanical properties :
#
#
# Convention : Reuss Voigt Hill
#
# Bulk Modulus (GPa) = 38.49566 45.53834 42.01700
# Shear Modulus (GPa) = -1.05348 16.77793 7.86223
#
# Velocity S-wave (km/s) = -0.78884 3.14806 2.15500
# Velocity P-wave (km/s) = 4.68067 6.33340 5.56869
#
# Compressibility (1/GPa) = 0.02597695
#
# Stress axis : x y z
#
# Youngs Moduli (GPa) = 16.20869 16.20739 151.55348
#
# Poissons Ratio (x) = 0.78837 0.25503
# Poissons Ratio (y) = 0.78843 0.25506
# Poissons Ratio (z) = 0.02728 0.02728
#
# Static dielectric constant tensor:
#      x y z
#    x 2.859020 0.000000 0.000000 
#    y 0.000000 2.859020 0.000000 
#    z 0.000000 0.000000 7.279230 
# 
# 
# High freq. dielectric constant tensor:
#      x y z
#    x 1.615230 0.000000 0.000000 
#    y 0.000000 1.615230 0.000000 
#    z 0.000000 0.000000 1.700240 
# 
# From -- ./inp_files/818.got.cif
#   From: 2010.03.12/outbox.cif.g09.slc.cpg/sg115_1_cif.got.tgz:818.got - 2010.04.14 02:11:21.
