data_PCOD8309508
_publ_section_title
;
Structure prediction by ZEFSAII (Michael W. Deem and Ramdas Pophale) SiO2 
 PCOD8309508
Probable space group: P -4 M 2
;
_chemical_formula_sum "Si O2"
_cell_formula_units_Z 40
_cell_length_a 9.243219
_cell_length_b 9.243219
_cell_length_c 25.487381
_cell_angle_alpha 90.000000
_cell_angle_beta 90.000000
_cell_angle_gamma 90.000000
_cell_volume 2177.567855
_symmetry_space_group_name_H-M "P -4 M 2"
_symmetry_group_IT_number 115
_symmetry_cell_setting 'tetragonal'
loop_
_space_group_symop_operation_xyz
x,y,z
y,-x,-z
-x,-y,z
-y,x,-z
y,x,-z
-y,-x,-z
-x,y,z
x,-y,z
loop_
_atom_site_type_symbol
_atom_site_label
_atom_site_fract_x
_atom_site_fract_y
_atom_site_fract_z
Si Si1 0.166098 0.829373 0.647516
Si Si2 0.331972 0.335593 0.439605
Si Si3 0.832801 0.832182 0.149970
Si Si4 0.663348 0.172144 0.748447
Si Si5 0.833249 0.669876 0.954926
O O1 0.225767 0.759996 0.594668
O O2 0.253435 0.767700 0.697521
O O3 0.000000 0.785146 0.654876
O O4 0.185305 0.000000 0.642599
O O5 0.299493 0.299493 0.500000
O O6 0.500000 0.313910 0.427031
O O7 0.285244 0.500000 0.426865
O O8 0.771963 0.741718 0.199068
O O9 0.740682 0.785243 0.099737
O O10 0.000000 0.796165 0.138220
O O11 0.811961 0.000000 0.163714
O O12 0.500000 0.231703 0.747537
O O13 0.667248 0.000000 0.747869
O O14 0.807205 0.500000 0.950963
O O15 0.000000 0.707520 0.967403
O O16 0.733456 0.733456 0.000000
#
# Coordination Sequence:
#
# PCOD8309508 Si02
#       5
#     8   8   8   8   8
#     4  10  20  33  51  77 107 136 169 211 256 302
#     4   9  19  36  55  74  99 133 172 212 255 306
#     4   9  17  31  52  75  99 129 167 212 259 305
#     4   9  17  30  50  75 101 132 172 214 255 301
#     4  10  21  36  54  77 105 137 173 212 255 305
#
# _framework density 18.369118
#
# number of rings (size 3 to 8) (size 9 to 14) (size 15 to 20)
#    0.000    2.600    0.000    2.400    0.000    6.800 
#    0.000    6.000    0.000    3.600    0.000    0.000 
#    0.000    0.000    0.000    0.000    0.000    0.000 
#
# Total GULP energy -496093.159738 kJ/mol
# GULP energy per Si atom -12402.328993 kJ/mol
# Density = 1.832731 g / cm^3
# Si number density = 18.369118 Si / 1000 Ang^3
#
#
#
# Elastic Constant Matrix: (Units=GPa)
#
#
# Indices 1 2 3 4 5 6 
#
# 1 83.2152 47.8089 71.0636 0.0000 0.0000 0.0000
# 2 47.8089 83.2152 71.0636 0.0000 0.0000 0.0000
# 3 71.0636 71.0636 149.6556 0.0000 0.0000 0.0000
# 4 0.0000 0.0000 0.0000 10.3538 0.0000 0.0000
# 5 0.0000 0.0000 0.0000 0.0000 10.3538 0.0000
# 6 0.0000 0.0000 0.0000 0.0000 0.0000 23.8798
#
#
#
# Elastic Compliance Matrix: (Units=1/GPa)
#
#
# Indices 1 2 3 4 5 6 
#
# 1 0.021991 -0.006252 -0.007474 0.000000 0.000000 0.000000
# 2 -0.006252 0.021991 -0.007474 0.000000 0.000000 0.000000
# 3 -0.007474 -0.007474 0.013780 0.000000 0.000000 0.000000
# 4 0.000000 0.000000 0.000000 0.096583 0.000000 0.000000
# 5 0.000000 0.000000 0.000000 0.000000 0.096583 0.000000
# 6 0.000000 0.000000 0.000000 0.000000 0.000000 0.041876
#
#
# Mechanical properties :
#
#
# Convention : Reuss Voigt Hill
#
# Bulk Modulus (GPa) = 65.09009 77.32871 71.20940
# Shear Modulus (GPa) = 14.69186 17.32748 16.00967
#
# Velocity S-wave (km/s) = 2.83116 3.07464 2.95541
# Velocity P-wave (km/s) = 6.79697 7.40223 7.10605
#
# Compressibility (1/GPa) = 0.01536332
#
# Stress axis : x y z
#
# Youngs Moduli (GPa) = 45.47224 45.47224 72.56992
#
# Poissons Ratio (x) = 0.28430 0.54237
# Poissons Ratio (y) = 0.28430 0.54237
# Poissons Ratio (z) = 0.33985 0.33985
#
# Static dielectric constant tensor:
#      x y z
#    x 3.263180 0.000000 0.000000 
#    y 0.000000 3.263180 0.000000 
#    z 0.000000 0.000000 3.480140 
# 
# 
# High freq. dielectric constant tensor:
#      x y z
#    x 1.699430 0.000000 0.000000 
#    y 0.000000 1.699430 0.000000 
#    z 0.000000 0.000000 1.724860 
# 
# From -- ./inp_files/5098.got.cif
#   From: 2010.03.12/outbox.cif.g09.slc.cpg/sg115_3_cif.got.tgz:5098.got - 2010.04.14 02:11:21.
