data_PCOD8309365
_publ_section_title
;
Structure prediction by ZEFSAII (Michael W. Deem and Ramdas Pophale) SiO2 
 PCOD8309365
Probable space group: P -4 M 2
;
_chemical_formula_sum "Si O2"
_cell_formula_units_Z 48
_cell_length_a 9.406936
_cell_length_b 9.406936
_cell_length_c 30.597622
_cell_angle_alpha 90.000000
_cell_angle_beta 90.000000
_cell_angle_gamma 90.000000
_cell_volume 2707.597184
_symmetry_space_group_name_H-M "P -4 M 2"
_symmetry_group_IT_number 115
_symmetry_cell_setting 'tetragonal'
loop_
_space_group_symop_operation_xyz
x,y,z
y,-x,-z
-x,-y,z
-y,x,-z
y,x,-z
-y,-x,-z
-x,y,z
x,-y,z
loop_
_atom_site_type_symbol
_atom_site_label
_atom_site_fract_x
_atom_site_fract_y
_atom_site_fract_z
Si Si1 0.841451 0.333981 0.533865
Si Si2 0.841758 0.669123 0.132119
Si Si3 0.832052 0.339461 0.034993
Si Si4 0.662291 0.166886 0.366756
Si Si5 0.332999 0.834801 0.703814
Si Si6 0.669200 0.660144 0.787766
O O1 0.736971 0.263030 0.500000
O O2 0.839017 0.500000 0.524707
O O3 0.792241 0.302844 0.583308
O O4 0.000000 0.273901 0.526645
O O5 0.848643 0.500000 0.134557
O O6 0.789673 0.713896 0.083695
O O7 0.733042 0.730171 0.168193
O O8 0.000000 0.729646 0.141557
O O9 0.777530 0.500000 0.027493
O O10 0.000000 0.332256 0.029431
O O11 0.762226 0.237775 0.000000
O O12 0.500000 0.209848 0.355166
O O13 0.772727 0.253658 0.337934
O O14 0.684021 0.000000 0.358960
O O15 0.500000 0.812501 0.696871
O O16 0.278014 0.751084 0.746466
O O17 0.294733 0.000000 0.709588
O O18 0.500000 0.658001 0.789284
O O19 0.729830 0.500000 0.784451
#
# Coordination Sequence:
#
# PCOD8309365 Si02
#       6
#     8   8   8   8   8   8
#     4   9  19  35  53  74 100 129 162 200 242 289
#     4   8  14  26  43  63  90 122 154 192 239 288
#     4   9  18  31  47  69  96 126 160 197 239 287
#     4   9  19  36  54  71  96 131 166 200 242 290
#     4  10  20  32  48  73 102 130 162 201 243 287
#     4   9  16  26  43  68  96 125 158 197 242 290
#
# _framework density 17.727896000000001
#
# number of rings (size 3 to 8) (size 9 to 14) (size 15 to 20)
#    0.000    3.000    0.000    3.000    0.000    6.000 
#    0.000    6.667    0.000    1.000    0.000    4.667 
#    0.000    0.000    0.000    0.000    0.000    0.000 
#
# Total GULP energy -595073.029734 kJ/mol
# GULP energy per Si atom -12397.354786 kJ/mol
# Density = 1.768755 g / cm^3
# Si number density = 17.727896 Si / 1000 Ang^3
#
#
#
# Elastic Constant Matrix: (Units=GPa)
#
#
# Indices 1 2 3 4 5 6 
#
# 1 66.0071 35.3917 63.1298 0.0000 0.0000 0.0000
# 2 35.3917 66.0072 63.1301 0.0000 0.0000 0.0000
# 3 63.1298 63.1301 147.8540 0.0000 0.0000 0.0000
# 4 0.0000 0.0000 0.0000 1.9129 0.0000 0.0000
# 5 0.0000 0.0000 0.0000 0.0000 1.9101 0.0000
# 6 0.0000 0.0000 0.0000 0.0000 0.0000 23.8901
#
#
#
# Elastic Compliance Matrix: (Units=1/GPa)
#
#
# Indices 1 2 3 4 5 6 
#
# 1 0.026860 -0.005803 -0.008991 0.000000 0.000000 0.000000
# 2 -0.005803 0.026860 -0.008991 0.000000 0.000000 0.000000
# 3 -0.008991 -0.008991 0.014441 0.000000 0.000000 0.000000
# 4 0.000000 0.000000 0.000000 0.522754 0.000000 0.000000
# 5 0.000000 0.000000 0.000000 0.000000 0.523524 0.000000
# 6 0.000000 0.000000 0.000000 0.000000 0.000000 0.041858
#
#
# Mechanical properties :
#
#
# Convention : Reuss Voigt Hill
#
# Bulk Modulus (GPa) = 48.56208 67.01907 57.79058
# Shear Modulus (GPa) = 4.12973 13.42375 8.77674
#
# Velocity S-wave (km/s) = 1.52793 2.75473 2.22745
# Velocity P-wave (km/s) = 5.52859 6.92852 6.26776
#
# Compressibility (1/GPa) = 0.02059220
#
# Stress axis : x y z
#
# Youngs Moduli (GPa) = 37.22962 37.22950 69.24580
#
# Poissons Ratio (x) = 0.21604 0.62259
# Poissons Ratio (y) = 0.21604 0.62259
# Poissons Ratio (z) = 0.33473 0.33473
#
# Static dielectric constant tensor:
#      x y z
#    x 3.164480 0.000000 0.000000 
#    y 0.000000 3.164470 0.000000 
#    z 0.000000 0.000000 3.449800 
# 
# 
# High freq. dielectric constant tensor:
#      x y z
#    x 1.664950 0.000000 0.000000 
#    y 0.000000 1.664950 0.000000 
#    z 0.000000 0.000000 1.699110 
# 
# From -- ./inp_files/6108.got.cif
#   From: 2010.03.12/outbox.cif.g09.slc.cpg/sg115_4_cif.got.tgz:6108.got - 2010.04.14 02:11:21.
