data_PCOD8309052
_publ_section_title
;
Structure prediction by ZEFSAII (Michael W. Deem and Ramdas Pophale) SiO2 
 PCOD8309052
Probable space group: P -4 21 C
;
_chemical_formula_sum "Si O2"
_cell_formula_units_Z 56
_cell_length_a 14.283494
_cell_length_b 14.283494
_cell_length_c 12.951284
_cell_angle_alpha 90.000000
_cell_angle_beta 90.000000
_cell_angle_gamma 90.000000
_cell_volume 2642.297660
_symmetry_space_group_name_H-M "P -4 21 C"
_symmetry_group_IT_number 114
_symmetry_cell_setting 'tetragonal'
loop_
_space_group_symop_operation_xyz
x,y,z
y,-x,-z
-x,-y,z
-y,x,-z
1/2+x,1/2-y,1/2-z
1/2-x,1/2+y,1/2-z
1/2-y,1/2-x,1/2+z
1/2+y,1/2+x,1/2+z
loop_
_atom_site_type_symbol
_atom_site_label
_atom_site_fract_x
_atom_site_fract_y
_atom_site_fract_z
Si Si1 0.118619 0.024838 0.561606
Si Si2 0.301441 0.093704 0.992713
Si Si3 0.670183 0.693459 0.681667
Si Si4 0.618078 0.187387 0.472106
Si Si5 0.800360 0.487511 0.041491
Si Si6 0.480706 0.655877 0.780806
Si Si7 0.197921 0.211401 0.845020
O O1 0.231666 0.023587 0.559743
O O2 0.073188 0.067695 0.665351
O O3 0.081537 0.081577 0.457857
O O4 0.271439 0.141269 0.099166
O O5 0.403183 0.128024 0.958295
O O6 0.231049 0.114238 0.897526
O O7 0.303219 0.985031 0.015855
O O8 0.747163 0.625499 0.629673
O O9 0.578213 0.633050 0.719171
O O10 0.721262 0.749242 0.772252
O O11 0.690900 0.216016 0.560498
O O12 0.638608 0.080042 0.449914
O O13 0.735210 0.488335 0.140705
O O14 0.403165 0.698562 0.705235
#
# Coordination Sequence:
#
# PCOD8309052 Si02
#       7
#     8   8   8   8   8   8   8
#     4   9  21  37  62 101 131 162 221 289 346 383
#     4  11  24  44  67 100 139 183 221 285 352 410
#     4  11  23  44  71  96 133 186 229 277 350 420
#     4  11  25  44  68  99 142 176 228 283 353 412
#     4  11  22  41  72  97 135 173 227 290 347 406
#     4  11  21  43  67 100 135 176 234 284 342 424
#     4  11  23  43  69  96 132 182 229 279 342 417
#
# _framework density 21.193674999999999
#
# number of rings (size 3 to 8) (size 9 to 14) (size 15 to 20)
#    0.000    1.286    4.286    1.286    6.000    1.143 
#   15.429    0.000    0.000    0.000    0.000    0.000 
#    0.000    0.000    0.000    0.000    0.000    0.000 
#
# Total GULP energy -693968.428762 kJ/mol
# GULP energy per Si atom -12392.293371 kJ/mol
# Density = 2.114544 g / cm^3
# Si number density = 21.193675 Si / 1000 Ang^3
#
#
#
# Elastic Constant Matrix: (Units=GPa)
#
#
# Indices 1 2 3 4 5 6 
#
# 1 105.2003 33.3839 36.6161 0.0000 0.0000 0.0000
# 2 33.3839 105.2003 36.6161 0.0000 0.0000 0.0000
# 3 36.6161 36.6161 97.7804 0.0000 0.0000 0.0000
# 4 0.0000 0.0000 0.0000 22.0906 0.0000 0.0000
# 5 0.0000 0.0000 0.0000 0.0000 22.0906 0.0000
# 6 0.0000 0.0000 0.0000 0.0000 0.0000 25.1134
#
#
#
# Elastic Compliance Matrix: (Units=1/GPa)
#
#
# Indices 1 2 3 4 5 6 
#
# 1 0.011460 -0.002464 -0.003369 0.000000 0.000000 0.000000
# 2 -0.002464 0.011460 -0.003369 0.000000 0.000000 0.000000
# 3 -0.003369 -0.003369 0.012750 0.000000 0.000000 0.000000
# 4 0.000000 0.000000 0.000000 0.045268 0.000000 0.000000
# 5 0.000000 0.000000 0.000000 0.000000 0.045268 0.000000
# 6 0.000000 0.000000 0.000000 0.000000 0.000000 0.039819
#
#
# Mechanical properties :
#
#
# Convention : Reuss Voigt Hill
#
# Bulk Modulus (GPa) = 57.91404 57.93480 57.92442
# Shear Modulus (GPa) = 26.29021 27.29660 26.79341
#
# Velocity S-wave (km/s) = 3.52586 3.59271 3.55944
# Velocity P-wave (km/s) = 6.63031 6.67872 6.65456
#
# Compressibility (1/GPa) = 0.01726697
#
# Stress axis : x y z
#
# Youngs Moduli (GPa) = 87.25863 87.25863 78.43134
#
# Poissons Ratio (x) = 0.21502 0.26422
# Poissons Ratio (y) = 0.21502 0.26422
# Poissons Ratio (z) = 0.29395 0.29395
#
# Static dielectric constant tensor:
#      x y z
#    x 3.940630 0.000000 0.000000 
#    y 0.000000 3.940630 0.000000 
#    z 0.000000 0.000000 3.927030 
# 
# 
# High freq. dielectric constant tensor:
#      x y z
#    x 1.831940 0.000000 0.000000 
#    y 0.000000 1.831940 0.000000 
#    z 0.000000 0.000000 1.828310 
# 
# From -- ./inp_files/1757.got.cif
#   From: 2010.03.12/outbox.cif.g09.slc.cpg/sg114_1_cif.got.tgz:1757.got - 2010.04.14 02:08:34.
