data_PCOD8309289
_publ_section_title
;
Structure prediction by ZEFSAII (Michael W. Deem and Ramdas Pophale) SiO2 
 PCOD8309289
Probable space group: P -4 M 2
;
_chemical_formula_sum "Si O2"
_cell_formula_units_Z 25
_cell_length_a 8.169154
_cell_length_b 8.169154
_cell_length_c 18.669919
_cell_angle_alpha 90.000000
_cell_angle_beta 90.000000
_cell_angle_gamma 90.000000
_cell_volume 1245.938483
_symmetry_space_group_name_H-M "P -4 M 2"
_symmetry_group_IT_number 115
_symmetry_cell_setting 'tetragonal'
loop_
_space_group_symop_operation_xyz
x,y,z
y,-x,-z
-x,-y,z
-y,x,-z
y,x,-z
-y,-x,-z
-x,y,z
x,-y,z
loop_
_atom_site_type_symbol
_atom_site_label
_atom_site_fract_x
_atom_site_fract_y
_atom_site_fract_z
Si Si1 0.679107 0.810517 0.708093
Si Si2 0.817745 0.000000 0.363284
Si Si3 0.810228 0.810228 0.000000
Si Si4 0.000000 0.000000 0.500000
Si Si5 0.812410 0.688514 0.849551
O O1 0.500000 0.733162 0.687954
O O2 0.832471 0.728221 0.664086
O O3 0.706744 0.789918 0.792830
O O4 0.671475 0.000000 0.687852
O O5 0.836551 0.000000 0.450099
O O6 0.000000 0.000000 0.327974
O O7 0.717221 0.743865 0.070353
O O8 0.000000 0.773345 0.012116
O O9 0.797428 0.500000 0.828939
O O10 0.000000 0.749975 0.845677
#
# Coordination Sequence:
#
# PCOD8309289 Si02
#       5
#     8   4   4   1   8
#     4  10  19  32  55  82 107 142 183 228 277 332
#     4   8  16  32  55  84 112 139 175 220 269 326
#     4   9  18  32  50  71 100 144 194 241 291 330
#     4   8  16  32  60  88 108 150 160 212 280 312
#     4  10  20  33  50  73 107 147 188 238 293 342
#
# _framework density 20.065194999999999
#
# number of rings (size 3 to 8) (size 9 to 14) (size 15 to 20)
#    0.480    2.080    1.600    0.960    0.000    3.200 
#    0.000    3.200    0.000    3.840    0.000    0.000 
#    0.000    0.000    0.000    0.000    0.000    0.000 
#
# Total GULP energy -309748.070460 kJ/mol
# GULP energy per Si atom -12389.922818 kJ/mol
# Density = 2.001953 g / cm^3
# Si number density = 20.065195 Si / 1000 Ang^3
#
#
#
# Elastic Constant Matrix: (Units=GPa)
#
#
# Indices 1 2 3 4 5 6 
#
# 1 80.2324 16.7030 35.0755 0.0000 0.0000 0.0000
# 2 16.7030 80.2324 35.0755 0.0000 0.0000 0.0000
# 3 35.0755 35.0755 124.8192 0.0000 0.0000 0.0000
# 4 0.0000 0.0000 0.0000 7.2591 0.0000 0.0000
# 5 0.0000 0.0000 0.0000 0.0000 7.2591 0.0000
# 6 0.0000 0.0000 0.0000 0.0000 0.0000 10.3879
#
#
#
# Elastic Compliance Matrix: (Units=1/GPa)
#
#
# Indices 1 2 3 4 5 6 
#
# 1 0.014345 -0.001396 -0.003639 0.000000 0.000000 0.000000
# 2 -0.001396 0.014345 -0.003639 0.000000 0.000000 0.000000
# 3 -0.003639 -0.003639 0.010057 0.000000 0.000000 0.000000
# 4 0.000000 0.000000 0.000000 0.137757 0.000000 0.000000
# 5 0.000000 0.000000 0.000000 0.000000 0.137757 0.000000
# 6 0.000000 0.000000 0.000000 0.000000 0.000000 0.096266
#
#
# Mechanical properties :
#
#
# Convention : Reuss Voigt Hill
#
# Bulk Modulus (GPa) = 46.72872 50.99911 48.86392
# Shear Modulus (GPa) = 11.49403 18.20990 14.85196
#
# Velocity S-wave (km/s) = 2.39599 3.01580 2.72359
# Velocity P-wave (km/s) = 5.56717 6.13177 5.85628
#
# Compressibility (1/GPa) = 0.02140011
#
# Stress axis : x y z
#
# Youngs Moduli (GPa) = 69.70981 69.70981 99.43545
#
# Poissons Ratio (x) = 0.09728 0.36184
# Poissons Ratio (y) = 0.09728 0.36184
# Poissons Ratio (z) = 0.25367 0.25367
#
# Static dielectric constant tensor:
#      x y z
#    x 3.602550 0.000000 0.000000 
#    y 0.000000 3.602550 0.000000 
#    z 0.000000 0.000000 3.433570 
# 
# 
# High freq. dielectric constant tensor:
#      x y z
#    x 1.759080 0.000000 0.000000 
#    y 0.000000 1.759080 0.000000 
#    z 0.000000 0.000000 1.763320 
# 
# From -- ./inp_files/4065.got.cif
#   From: 2010.03.12/outbox.cif.g09.slc.cpg/sg115_3_cif.got.tgz:4065.got - 2010.04.14 02:11:21.
