data_PCOD8309064
_publ_section_title
;
Structure prediction by ZEFSAII (Michael W. Deem and Ramdas Pophale) SiO2 
 PCOD8309064
Probable space group: P -4 21 C
;
_chemical_formula_sum "Si O2"
_cell_formula_units_Z 26
_cell_length_a 7.628484
_cell_length_b 7.628484
_cell_length_c 21.429280
_cell_angle_alpha 90.000000
_cell_angle_beta 90.000000
_cell_angle_gamma 90.000000
_cell_volume 1247.050552
_symmetry_space_group_name_H-M "P -4 21 C"
_symmetry_group_IT_number 114
_symmetry_cell_setting 'tetragonal'
loop_
_space_group_symop_operation_xyz
x,y,z
y,-x,-z
-x,-y,z
-y,x,-z
1/2+x,1/2-y,1/2-z
1/2-x,1/2+y,1/2-z
1/2-y,1/2-x,1/2+z
1/2+y,1/2+x,1/2+z
loop_
_atom_site_type_symbol
_atom_site_label
_atom_site_fract_x
_atom_site_fract_y
_atom_site_fract_z
Si Si1 0.691245 0.015999 0.092527
Si Si2 0.302915 0.793296 0.322825
Si Si3 0.000000 0.000000 0.000000
Si Si4 0.712279 0.811505 0.315703
O O1 0.728381 0.829131 0.123474
O O2 0.835206 0.061447 0.040901
O O3 0.500000 0.000000 0.060730
O O4 0.680497 0.171309 0.143718
O O5 0.509891 0.785455 0.329714
O O6 0.245834 0.717911 0.256724
O O7 0.229493 0.990222 0.332372
#
# Coordination Sequence:
#
# PCOD8309064 Si02
#       4
#     8   8   2   8
#     4  12  26  46  72 100 134 188 234 281 346 412
#     4  11  22  38  66 104 142 178 223 285 353 410
#     4  12  28  52  68  96 148 188 236 282 336 420
#     4  11  22  38  66 104 142 178 223 285 353 410
#
# _framework density 20.849195000000002
#
# number of rings (size 3 to 8) (size 9 to 14) (size 15 to 20)
#    0.000    0.615    6.154    1.846    0.000    6.154 
#    0.000    0.000    0.000    0.000    0.000    0.000 
#    0.000    0.000    0.000    0.000    0.000    0.000 
#
# Total GULP energy -322507.866982 kJ/mol
# GULP energy per Si atom -12404.148730 kJ/mol
# Density = 2.080174 g / cm^3
# Si number density = 20.849195 Si / 1000 Ang^3
#
#
#
# Elastic Constant Matrix: (Units=GPa)
#
#
# Indices 1 2 3 4 5 6 
#
# 1 106.2432 11.2009 12.8299 0.0000 0.0000 0.0000
# 2 11.2009 106.2432 12.8299 0.0000 0.0000 0.0000
# 3 12.8299 12.8299 63.6772 0.0000 0.0000 0.0000
# 4 0.0000 0.0000 0.0000 -1.7357 0.0000 0.0000
# 5 0.0000 0.0000 0.0000 0.0000 -1.7357 0.0000
# 6 0.0000 0.0000 0.0000 0.0000 0.0000 24.6065
#
#
#
# Elastic Compliance Matrix: (Units=1/GPa)
#
#
# Indices 1 2 3 4 5 6 
#
# 1 0.009714 -0.000807 -0.001795 0.000000 0.000000 0.000000
# 2 -0.000807 0.009714 -0.001795 0.000000 0.000000 0.000000
# 3 -0.001795 -0.001795 0.016427 0.000000 0.000000 0.000000
# 4 0.000000 0.000000 0.000000 -0.576148 0.000000 0.000000
# 5 0.000000 0.000000 0.000000 0.000000 -0.576148 0.000000
# 6 0.000000 0.000000 0.000000 0.000000 0.000000 0.040640
#
#
# Mechanical properties :
#
#
# Convention : Reuss Voigt Hill
#
# Bulk Modulus (GPa) = 36.95132 38.87612 37.91372
# Shear Modulus (GPa) = -4.72596 20.18057 7.72730
#
# Velocity S-wave (km/s) = -1.50720 3.11453 1.92726
# Velocity P-wave (km/s) = 3.83833 5.62322 4.81421
#
# Compressibility (1/GPa) = 0.02706263
#
# Stress axis : x y z
#
# Youngs Moduli (GPa) = 102.94205 102.94205 60.87410
#
# Poissons Ratio (x) = 0.08312 0.10924
# Poissons Ratio (y) = 0.08312 0.10924
# Poissons Ratio (z) = 0.18474 0.18474
#
# Static dielectric constant tensor:
#      x y z
#    x 4.199900 0.000000 0.000000 
#    y 0.000000 4.199900 0.000000 
#    z 0.000000 0.000000 3.538590 
# 
# 
# High freq. dielectric constant tensor:
#      x y z
#    x 1.832650 0.000000 0.000000 
#    y 0.000000 1.832650 0.000000 
#    z 0.000000 0.000000 1.790330 
# 
# From -- ./inp_files/2376.got.cif
#   From: 2010.03.12/outbox.cif.g09.slc.cpg/sg114_2_cif.got.tgz:2376.got - 2010.04.14 02:08:34.
