data_PCOD8309638
_publ_section_title
;
Structure prediction by ZEFSAII (Michael W. Deem and Ramdas Pophale) SiO2 
 PCOD8309638
Probable space group: P -4 M 2
;
_chemical_formula_sum "Si O2"
_cell_formula_units_Z 48
_cell_length_a 9.057515
_cell_length_b 9.057515
_cell_length_c 30.865909
_cell_angle_alpha 90.000000
_cell_angle_beta 90.000000
_cell_angle_gamma 90.000000
_cell_volume 2532.195282
_symmetry_space_group_name_H-M "P -4 M 2"
_symmetry_group_IT_number 115
_symmetry_cell_setting 'tetragonal'
loop_
_space_group_symop_operation_xyz
x,y,z
y,-x,-z
-x,-y,z
-y,x,-z
y,x,-z
-y,-x,-z
-x,y,z
x,-y,z
loop_
_atom_site_type_symbol
_atom_site_label
_atom_site_fract_x
_atom_site_fract_y
_atom_site_fract_z
Si Si1 0.826785 0.170273 0.127086
Si Si2 0.327540 0.830513 0.038345
Si Si3 0.325231 0.164304 0.462567
Si Si4 0.335789 0.824498 0.367750
Si Si5 0.168468 0.175093 0.283720
Si Si6 0.673082 0.329126 0.794713
O O1 0.755627 0.218008 0.081777
O O2 0.760030 0.272322 0.163903
O O3 0.000000 0.198822 0.124248
O O4 0.790855 0.000000 0.137907
O O5 0.500000 0.805656 0.045804
O O6 0.290902 0.000000 0.026663
O O7 0.273290 0.726710 0.000000
O O8 0.270251 0.270251 0.500000
O O9 0.500000 0.159298 0.463821
O O10 0.276747 0.226502 0.415138
O O11 0.260609 0.000000 0.470062
O O12 0.500000 0.760405 0.358488
O O13 0.224450 0.769109 0.330638
O O14 0.344824 0.000000 0.368245
O O15 0.269993 0.247832 0.247821
O O16 0.000000 0.226526 0.277661
O O17 0.182938 0.000000 0.279341
O O18 0.500000 0.304366 0.789456
O O19 0.714079 0.500000 0.800821
#
# Coordination Sequence:
#
# PCOD8309638 Si02
#       6
#     8   8   8   8   8   8
#     4  10  21  38  61  86 110 140 181 226 270 317
#     4  10  21  37  58  84 113 146 183 222 266 315
#     4   9  18  32  50  74 103 134 171 213 257 309
#     4   8  15  30  51  73  99 133 172 214 258 305
#     4  10  20  34  55  82 107 133 171 217 264 316
#     4  11  24  39  55  78 109 144 180 217 261 315
#
# _framework density 18.955884999999999
#
# number of rings (size 3 to 8) (size 9 to 14) (size 15 to 20)
#    0.000    2.333    0.000    3.500    0.000    8.000 
#    0.000    2.500    0.000    1.000    0.000    0.000 
#    0.000    0.000    0.000    0.000    0.000    0.000 
#
# Total GULP energy -595232.452234 kJ/mol
# GULP energy per Si atom -12400.676088 kJ/mol
# Density = 1.891274 g / cm^3
# Si number density = 18.955885 Si / 1000 Ang^3
#
#
#
# Elastic Constant Matrix: (Units=GPa)
#
#
# Indices 1 2 3 4 5 6 
#
# 1 61.0574 29.7562 47.3892 0.0000 0.0000 0.0000
# 2 29.7562 61.0574 47.3892 0.0000 0.0000 0.0000
# 3 47.3892 47.3892 146.7789 0.0000 0.0000 0.0000
# 4 0.0000 0.0000 0.0000 91.0428 0.0000 0.0000
# 5 0.0000 0.0000 0.0000 0.0000 91.0428 0.0000
# 6 0.0000 0.0000 0.0000 0.0000 0.0000 27.0525
#
#
#
# Elastic Compliance Matrix: (Units=1/GPa)
#
#
# Indices 1 2 3 4 5 6 
#
# 1 0.024278 -0.007670 -0.005362 0.000000 0.000000 0.000000
# 2 -0.007670 0.024278 -0.005362 0.000000 0.000000 0.000000
# 3 -0.005362 -0.005362 0.010275 0.000000 0.000000 0.000000
# 4 0.000000 0.000000 0.000000 0.010984 0.000000 0.000000
# 5 0.000000 0.000000 0.000000 0.000000 0.010984 0.000000
# 6 0.000000 0.000000 0.000000 0.000000 0.000000 0.036965
#
#
# Mechanical properties :
#
#
# Convention : Reuss Voigt Hill
#
# Bulk Modulus (GPa) = 45.36646 57.55142 51.45894
# Shear Modulus (GPa) = 30.88344 51.45155 41.16750
#
# Velocity S-wave (km/s) = 4.04075 5.21553 4.66526
# Velocity P-wave (km/s) = 6.76423 8.16674 7.49835
#
# Compressibility (1/GPa) = 0.02204272
#
# Stress axis : x y z
#
# Youngs Moduli (GPa) = 41.19010 41.19010 97.32081
#
# Poissons Ratio (x) = 0.31593 0.52183
# Poissons Ratio (y) = 0.31593 0.52183
# Poissons Ratio (z) = 0.22086 0.22086
#
# Static dielectric constant tensor:
#      x y z
#    x 3.377970 0.000000 0.000000 
#    y 0.000000 3.377970 0.000000 
#    z 0.000000 0.000000 3.816950 
# 
# 
# High freq. dielectric constant tensor:
#      x y z
#    x 1.726220 0.000000 0.000000 
#    y 0.000000 1.726220 0.000000 
#    z 0.000000 0.000000 1.754050 
# 
# From -- ./inp_files/6122.got.cif
#   From: 2010.03.12/outbox.cif.g09.slc.cpg/sg115_4_cif.got.tgz:6122.got - 2010.04.14 02:11:21.
