data_PCOD8309933
_publ_section_title
;
Structure prediction by ZEFSAII (Michael W. Deem and Ramdas Pophale) SiO2 
 PCOD8309933
Probable space group: P -4 M 2
;
_chemical_formula_sum "Si O2"
_cell_formula_units_Z 48
_cell_length_a 8.945895
_cell_length_b 8.945895
_cell_length_c 31.185991
_cell_angle_alpha 90.000000
_cell_angle_beta 90.000000
_cell_angle_gamma 90.000000
_cell_volume 2495.784839
_symmetry_space_group_name_H-M "P -4 M 2"
_symmetry_group_IT_number 115
_symmetry_cell_setting 'tetragonal'
loop_
_space_group_symop_operation_xyz
x,y,z
y,-x,-z
-x,-y,z
-y,x,-z
y,x,-z
-y,-x,-z
-x,y,z
x,-y,z
loop_
_atom_site_type_symbol
_atom_site_label
_atom_site_fract_x
_atom_site_fract_y
_atom_site_fract_z
Si Si1 0.174687 0.671043 0.538768
Si Si2 0.826479 0.826784 0.294817
Si Si3 0.165223 0.178095 0.045036
Si Si4 0.324021 0.328806 0.626652
Si Si5 0.178418 0.170545 0.137907
Si Si6 0.674699 0.327862 0.215814
O O1 0.225566 0.774435 0.500000
O O2 0.217751 0.500000 0.528296
O O3 0.256179 0.725717 0.581748
O O4 0.000000 0.691034 0.546114
O O5 0.776899 0.736828 0.336434
O O6 0.735987 0.773484 0.253749
O O7 0.000000 0.796570 0.286115
O O8 0.792472 0.000000 0.302676
O O9 0.244142 0.216843 0.090536
O O10 0.000000 0.247094 0.048081
O O11 0.155807 0.000000 0.040906
O O12 0.239842 0.239842 0.000000
O O13 0.500000 0.310565 0.624073
O O14 0.277533 0.500000 0.636355
O O15 0.248631 0.283836 0.171427
O O16 0.000000 0.184252 0.138644
O O17 0.224731 0.000000 0.149016
O O18 0.500000 0.299090 0.211513
O O19 0.710968 0.500000 0.226111
#
# Coordination Sequence:
#
# PCOD8309933 Si02
#       6
#     8   8   8   8   8   8
#     4  10  21  37  58  84 114 150 190 230 273 318
#     4  11  24  40  59  84 111 138 172 216 266 319
#     4   7  10  19  39  69 102 131 160 201 254 307
#     4  10  21  38  61  87 114 146 184 223 265 317
#     4   9  17  30  51  79 106 132 168 214 262 312
#     4  11  24  39  54  74 102 138 179 218 259 312
#
# _framework density 19.232426
#
# number of rings (size 3 to 8) (size 9 to 14) (size 15 to 20)
#    0.000    2.333    0.000    4.500    0.000    9.667 
#    0.000    0.000    0.000    1.000    0.000    5.833 
#    0.000    0.000    0.000    0.000    0.000    0.000 
#
# Total GULP energy -594976.558648 kJ/mol
# GULP energy per Si atom -12395.344972 kJ/mol
# Density = 1.918865 g / cm^3
# Si number density = 19.232426 Si / 1000 Ang^3
#
#
#
# Elastic Constant Matrix: (Units=GPa)
#
#
# Indices 1 2 3 4 5 6 
#
# 1 52.2019 26.5807 34.7679 0.0000 0.0000 0.0000
# 2 26.5807 52.2012 34.7671 0.0000 0.0000 0.0000
# 3 34.7679 34.7671 143.6789 0.0000 0.0000 0.0000
# 4 0.0000 0.0000 0.0000 71.0057 0.0000 0.0000
# 5 0.0000 0.0000 0.0000 0.0000 70.9993 0.0000
# 6 0.0000 0.0000 0.0000 0.0000 0.0000 27.3347
#
#
#
# Elastic Compliance Matrix: (Units=1/GPa)
#
#
# Indices 1 2 3 4 5 6 
#
# 1 0.027585 -0.011445 -0.003906 0.000000 0.000000 0.000000
# 2 -0.011445 0.027586 -0.003906 0.000000 0.000000 0.000000
# 3 -0.003906 -0.003906 0.008850 0.000000 0.000000 0.000000
# 4 0.000000 0.000000 0.000000 0.014083 0.000000 0.000000
# 5 0.000000 0.000000 0.000000 0.000000 0.014085 0.000000
# 6 0.000000 0.000000 0.000000 0.000000 0.000000 0.036584
#
#
# Mechanical properties :
#
#
# Convention : Reuss Voigt Hill
#
# Bulk Modulus (GPa) = 39.20282 48.92372 44.06327
# Shear Modulus (GPa) = 28.44324 43.99901 36.22112
#
# Velocity S-wave (km/s) = 3.84985 4.78823 4.34445
# Velocity P-wave (km/s) = 6.33954 7.48752 6.93731
#
# Compressibility (1/GPa) = 0.02550837
#
# Stress axis : x y z
#
# Youngs Moduli (GPa) = 36.25094 36.25067 112.99221
#
# Poissons Ratio (x) = 0.41489 0.44132
# Poissons Ratio (y) = 0.41490 0.44130
# Poissons Ratio (z) = 0.14159 0.14158
#
# Static dielectric constant tensor:
#      x y z
#    x 3.326910 0.000000 0.000000 
#    y 0.000000 3.326910 0.000000 
#    z 0.000000 0.000000 3.964600 
# 
# 
# High freq. dielectric constant tensor:
#      x y z
#    x 1.727820 0.000000 0.000000 
#    y 0.000000 1.727820 0.000000 
#    z 0.000000 0.000000 1.774670 
# 
# From -- ./inp_files/6101.got.cif
#   From: 2010.03.12/outbox.cif.g09.slc.cpg/sg115_4_cif.got.tgz:6101.got - 2010.04.14 02:11:21.
