data_PCOD8309978
_publ_section_title
;
Structure prediction by ZEFSAII (Michael W. Deem and Ramdas Pophale) SiO2 
 PCOD8309978
Probable space group: P -4 M 2
;
_chemical_formula_sum "Si O2"
_cell_formula_units_Z 33
_cell_length_a 11.715420
_cell_length_b 11.715420
_cell_length_c 11.719740
_cell_angle_alpha 90.000000
_cell_angle_beta 90.000000
_cell_angle_gamma 90.000000
_cell_volume 1608.546806
_symmetry_space_group_name_H-M "P -4 M 2"
_symmetry_group_IT_number 115
_symmetry_cell_setting 'tetragonal'
loop_
_space_group_symop_operation_xyz
x,y,z
y,-x,-z
-x,-y,z
-y,x,-z
y,x,-z
-y,-x,-z
-x,y,z
x,-y,z
loop_
_atom_site_type_symbol
_atom_site_label
_atom_site_fract_x
_atom_site_fract_y
_atom_site_fract_z
Si Si1 0.740657 0.000000 0.559526
Si Si2 0.366151 0.366151 0.500000
Si Si3 0.633870 0.219574 0.930885
Si Si4 0.745097 0.779848 0.686867
Si Si5 0.630837 0.000000 0.061900
Si Si6 0.726703 0.000000 0.305556
Si Si7 0.000000 0.000000 0.500000
O O1 0.693968 0.110508 0.623566
O O2 0.879247 0.000000 0.565690
O O3 0.679700 0.000000 0.435111
O O4 0.343306 0.500000 0.477339
O O5 0.291425 0.329399 0.610832
O O6 0.500000 0.212954 0.916313
O O7 0.689490 0.228153 0.808688
O O8 0.666604 0.333397 0.000000
O O9 0.684903 0.112108 0.002820
O O10 0.881834 0.796992 0.702488
O O11 0.500000 0.000000 0.029711
O O12 0.639022 0.000000 0.199860
#
# Coordination Sequence:
#
# PCOD8309978 Si02
#       7
#     4   4   8   8   4   4   1
#     4  12  21  38  62  97 134 169 206 260 324 389
#     4  11  25  44  65  93 130 168 214 275 327 378
#     4  11  24  43  67  93 128 170 217 271 327 386
#     4  12  23  42  66  97 133 170 215 263 329 394
#     4  10  23  43  63  91 129 169 218 276 320 371
#     4  12  20  38  69  95 124 171 211 263 319 385
#     4  12  16  32  56  88 130 164 204 244 300 370
#
# _framework density 20.515412000000001
#
# number of rings (size 3 to 8) (size 9 to 14) (size 15 to 20)
#    0.000    0.606    7.273    1.455    0.000    2.182 
#    0.000    1.818    0.000    0.364    0.000    0.000 
#    0.000    0.000    0.000    0.000    0.000    0.000 
#
# Total GULP energy -408900.277608 kJ/mol
# GULP energy per Si atom -12390.917503 kJ/mol
# Density = 2.046872 g / cm^3
# Si number density = 20.515412 Si / 1000 Ang^3
#
#
#
# Elastic Constant Matrix: (Units=GPa)
#
#
# Indices 1 2 3 4 5 6 
#
# 1 96.4781 30.3064 53.1588 0.0000 0.0000 0.0000
# 2 30.3064 96.4760 53.1581 0.0000 0.0000 0.0000
# 3 53.1588 53.1581 189.0462 0.0000 0.0000 0.0000
# 4 0.0000 0.0000 0.0000 29.0275 0.0000 0.0000
# 5 0.0000 0.0000 0.0000 0.0000 29.0285 0.0000
# 6 0.0000 0.0000 0.0000 0.0000 0.0000 21.3561
#
#
#
# Elastic Compliance Matrix: (Units=1/GPa)
#
#
# Indices 1 2 3 4 5 6 
#
# 1 0.012717 -0.002396 -0.002902 0.000000 0.000000 0.000000
# 2 -0.002396 0.012717 -0.002902 0.000000 0.000000 0.000000
# 3 -0.002902 -0.002902 0.006922 0.000000 0.000000 0.000000
# 4 0.000000 0.000000 0.000000 0.034450 0.000000 0.000000
# 5 0.000000 0.000000 0.000000 0.000000 0.034449 0.000000
# 6 0.000000 0.000000 0.000000 0.000000 0.000000 0.046825
#
#
# Mechanical properties :
#
#
# Convention : Reuss Voigt Hill
#
# Bulk Modulus (GPa) = 62.67508 72.80522 67.74015
# Shear Modulus (GPa) = 29.44670 32.24088 30.84379
#
# Velocity S-wave (km/s) = 3.79271 3.96857 3.88163
# Velocity P-wave (km/s) = 7.05663 7.52094 7.29248
#
# Compressibility (1/GPa) = 0.01595530
#
# Stress axis : x y z
#
# Youngs Moduli (GPa) = 78.63682 78.63513 144.46910
#
# Poissons Ratio (x) = 0.18838 0.41928
# Poissons Ratio (y) = 0.18838 0.41929
# Poissons Ratio (z) = 0.22822 0.22822
#
# Static dielectric constant tensor:
#      x y z
#    x 4.169240 0.000000 0.000000 
#    y 0.000000 4.169260 0.000000 
#    z 0.000000 0.000000 3.830820 
# 
# 
# High freq. dielectric constant tensor:
#      x y z
#    x 1.796020 0.000000 0.000000 
#    y 0.000000 1.796020 0.000000 
#    z 0.000000 0.000000 1.818020 
# 
# From -- ./inp_files/2689.got.cif
#   From: 2010.03.12/outbox.cif.g09.slc.cpg/sg115_2_cif.got.tgz:2689.got - 2010.04.14 02:11:21.
