data_PCOD8309070
_publ_section_title
;
Structure prediction by ZEFSAII (Michael W. Deem and Ramdas Pophale) SiO2 
 PCOD8309070
Probable space group: P -4 21 C
;
_chemical_formula_sum "Si O2"
_cell_formula_units_Z 40
_cell_length_a 13.544973
_cell_length_b 13.544973
_cell_length_c 10.231577
_cell_angle_alpha 90.000000
_cell_angle_beta 90.000000
_cell_angle_gamma 90.000000
_cell_volume 1877.149510
_symmetry_space_group_name_H-M "P -4 21 C"
_symmetry_group_IT_number 114
_symmetry_cell_setting 'tetragonal'
loop_
_space_group_symop_operation_xyz
x,y,z
y,-x,-z
-x,-y,z
-y,x,-z
1/2+x,1/2-y,1/2-z
1/2-x,1/2+y,1/2-z
1/2-y,1/2-x,1/2+z
1/2+y,1/2+x,1/2+z
loop_
_atom_site_type_symbol
_atom_site_label
_atom_site_fract_x
_atom_site_fract_y
_atom_site_fract_z
Si Si1 0.263885 0.091427 0.755143
Si Si2 0.550528 0.650903 0.001387
Si Si3 0.253164 0.884228 0.159680
Si Si4 0.603239 0.729921 0.729937
Si Si5 0.614422 0.215366 0.368999
O O1 0.221476 0.041974 0.624883
O O2 0.183116 0.156305 0.830893
O O3 0.356324 0.159062 0.713588
O O4 0.297823 0.002527 0.848171
O O5 0.617185 0.557852 0.043351
O O6 0.601511 0.708564 0.883910
O O7 0.327011 0.862720 0.279619
O O8 0.219802 0.997521 0.162693
O O9 0.306699 0.862268 0.021225
O O10 0.673515 0.649018 0.662878
#
# Coordination Sequence:
#
# PCOD8309070 Si02
#       5
#     8   8   8   8   8
#     4  11  25  41  68  95 134 172 216 272 329 388
#     4  11  22  42  68 101 129 174 228 281 329 392
#     4  11  26  45  66  97 130 171 217 272 328 396
#     4  11  25  41  68  95 134 172 216 272 329 388
#     4  11  26  45  66  97 130 171 217 272 328 396
#
# _framework density 21.308903999999998
#
# number of rings (size 3 to 8) (size 9 to 14) (size 15 to 20)
#    0.000    1.000    4.000    1.200   16.800    1.600 
#    0.000    4.000    0.000    0.000    0.000    0.000 
#    0.000    0.000    0.000    0.000    0.000    0.000 
#
# Total GULP energy -496256.511565 kJ/mol
# GULP energy per Si atom -12406.412789 kJ/mol
# Density = 2.126040 g / cm^3
# Si number density = 21.308904 Si / 1000 Ang^3
#
#
#
# Elastic Constant Matrix: (Units=GPa)
#
#
# Indices 1 2 3 4 5 6 
#
# 1 78.8350 0.7076 -4.7207 0.0000 0.0000 0.0000
# 2 0.7076 78.8350 -4.7207 0.0000 0.0000 0.0000
# 3 -4.7207 -4.7207 114.3326 0.0000 0.0000 0.0000
# 4 0.0000 0.0000 0.0000 33.0144 0.0000 0.0000
# 5 0.0000 0.0000 0.0000 0.0000 33.0144 0.0000
# 6 0.0000 0.0000 0.0000 0.0000 0.0000 16.1817
#
#
#
# Elastic Compliance Matrix: (Units=1/GPa)
#
#
# Indices 1 2 3 4 5 6 
#
# 1 0.012717 -0.000083 0.000522 0.000000 0.000000 0.000000
# 2 -0.000083 0.012717 0.000522 0.000000 0.000000 0.000000
# 3 0.000522 0.000522 0.008789 0.000000 0.000000 0.000000
# 4 0.000000 0.000000 0.000000 0.030290 0.000000 0.000000
# 5 0.000000 0.000000 0.000000 0.000000 0.030290 0.000000
# 6 0.000000 0.000000 0.000000 0.000000 0.000000 0.061798
#
#
# Mechanical properties :
#
#
# Convention : Reuss Voigt Hill
#
# Bulk Modulus (GPa) = 27.66740 28.28168 27.97454
# Shear Modulus (GPa) = 29.98899 35.15785 32.57342
#
# Velocity S-wave (km/s) = 3.75553 4.06632 3.91401
# Velocity P-wave (km/s) = 5.64070 5.94539 5.79505
#
# Compressibility (1/GPa) = 0.03614362
#
# Stress axis : x y z
#
# Youngs Moduli (GPa) = 78.63676 78.63676 113.77229
#
# Poissons Ratio (x) = 0.00652 -0.05935
# Poissons Ratio (y) = 0.00652 -0.05935
# Poissons Ratio (z) = -0.04102 -0.04102
#
# Static dielectric constant tensor:
#      x y z
#    x 3.767820 0.000000 0.000000 
#    y 0.000000 3.767820 0.000000 
#    z 0.000000 0.000000 3.867440 
# 
# 
# High freq. dielectric constant tensor:
#      x y z
#    x 1.832010 0.000000 0.000000 
#    y 0.000000 1.832010 0.000000 
#    z 0.000000 0.000000 1.846670 
# 
# From -- ./inp_files/782.got.cif
#   From: 2010.03.12/outbox.cif.g09.slc.cpg/sg114_1_cif.got.tgz:782.got - 2010.04.14 02:08:34.
