data_PCOD8309071
_publ_section_title
;
Structure prediction by ZEFSAII (Michael W. Deem and Ramdas Pophale) SiO2 
 PCOD8309071
Probable space group: P -4 21 C
;
_chemical_formula_sum "Si O2"
_cell_formula_units_Z 34
_cell_length_a 12.535689
_cell_length_b 12.535689
_cell_length_c 9.621183
_cell_angle_alpha 90.000000
_cell_angle_beta 90.000000
_cell_angle_gamma 90.000000
_cell_volume 1511.906358
_symmetry_space_group_name_H-M "P -4 21 C"
_symmetry_group_IT_number 114
_symmetry_cell_setting 'tetragonal'
loop_
_space_group_symop_operation_xyz
x,y,z
y,-x,-z
-x,-y,z
-y,x,-z
1/2+x,1/2-y,1/2-z
1/2-x,1/2+y,1/2-z
1/2-y,1/2-x,1/2+z
1/2+y,1/2+x,1/2+z
loop_
_atom_site_type_symbol
_atom_site_label
_atom_site_fract_x
_atom_site_fract_y
_atom_site_fract_z
Si Si1 0.796118 0.124005 0.603456
Si Si2 0.789362 0.444044 0.555234
Si Si3 0.462454 0.115723 0.164301
Si Si4 0.000000 0.000000 0.500000
Si Si5 0.319659 0.724429 0.413581
O O1 0.779925 0.203799 0.471898
O O2 0.799069 0.189140 0.749043
O O3 0.906043 0.055905 0.590713
O O4 0.689342 0.054265 0.601099
O O5 0.820551 0.407219 0.709648
O O6 0.879365 0.402130 0.454829
O O7 0.781955 0.570651 0.549535
O O8 0.681743 0.386404 0.501522
O O9 0.500000 0.000000 0.220188
#
# Coordination Sequence:
#
# PCOD8309071 Si02
#       5
#     8   8   8   2   8
#     4  11  26  46  75 104 150 196 254 306 388 451
#     4  11  24  40  67  98 142 181 247 303 373 442
#     4  11  22  42  70 103 135 190 244 308 360 444
#     4  12  28  52  76 118 160 200 244 326 392 452
#     4  11  25  44  67 107 139 198 243 312 371 456
#
# _framework density 22.488166
#
# number of rings (size 3 to 8) (size 9 to 14) (size 15 to 20)
#    0.000    0.941    2.353    3.529    3.294    8.000 
#    0.000    0.000    0.000    1.412    0.000    0.000 
#    0.000    0.000    0.000    0.000    0.000    0.000 
#
# Total GULP energy -421346.516150 kJ/mol
# GULP energy per Si atom -12392.544593 kJ/mol
# Density = 2.243698 g / cm^3
# Si number density = 22.488166 Si / 1000 Ang^3
#
#
#
# Elastic Constant Matrix: (Units=GPa)
#
#
# Indices 1 2 3 4 5 6 
#
# 1 92.6166 37.1974 39.1397 0.0000 0.0000 0.0000
# 2 37.1974 92.6166 39.1397 0.0000 0.0000 0.0000
# 3 39.1397 39.1397 139.3904 0.0000 0.0000 0.0000
# 4 0.0000 0.0000 0.0000 33.7587 0.0000 0.0000
# 5 0.0000 0.0000 0.0000 0.0000 33.7587 0.0000
# 6 0.0000 0.0000 0.0000 0.0000 0.0000 45.4781
#
#
#
# Elastic Compliance Matrix: (Units=1/GPa)
#
#
# Indices 1 2 3 4 5 6 
#
# 1 0.013659 -0.004385 -0.002604 0.000000 0.000000 0.000000
# 2 -0.004385 0.013659 -0.002604 0.000000 0.000000 0.000000
# 3 -0.002604 -0.002604 0.008636 0.000000 0.000000 0.000000
# 4 0.000000 0.000000 0.000000 0.029622 0.000000 0.000000
# 5 0.000000 0.000000 0.000000 0.000000 0.029622 0.000000
# 6 0.000000 0.000000 0.000000 0.000000 0.000000 0.021989
#
#
# Mechanical properties :
#
#
# Convention : Reuss Voigt Hill
#
# Bulk Modulus (GPa) = 59.63830 61.73082 60.68456
# Shear Modulus (GPa) = 35.22054 36.54221 35.88138
#
# Velocity S-wave (km/s) = 3.96179 4.03544 3.99879
# Velocity P-wave (km/s) = 6.89240 7.01591 6.95443
#
# Compressibility (1/GPa) = 0.01676775
#
# Stress axis : x y z
#
# Youngs Moduli (GPa) = 73.21228 73.21228 115.78870
#
# Poissons Ratio (x) = 0.32106 0.30151
# Poissons Ratio (y) = 0.32106 0.30151
# Poissons Ratio (z) = 0.19064 0.19064
#
# Static dielectric constant tensor:
#      x y z
#    x 4.222330 0.000000 0.000000 
#    y 0.000000 4.222330 0.000000 
#    z 0.000000 0.000000 4.258440 
# 
# 
# High freq. dielectric constant tensor:
#      x y z
#    x 1.892780 0.000000 0.000000 
#    y 0.000000 1.892780 0.000000 
#    z 0.000000 0.000000 1.893010 
# 
# From -- ./inp_files/1492.got.cif
#   From: 2010.03.12/outbox.cif.g09.slc.cpg/sg114_1_cif.got.tgz:1492.got - 2010.04.14 02:08:34.
