data_PCOD8309213
_publ_section_title
;
Structure prediction by ZEFSAII (Michael W. Deem and Ramdas Pophale) SiO2 
 PCOD8309213
Probable space group: P -4 M 2
;
_chemical_formula_sum "Si O2"
_cell_formula_units_Z 64
_cell_length_a 16.955480
_cell_length_b 16.955480
_cell_length_c 11.858233
_cell_angle_alpha 90.000000
_cell_angle_beta 90.000000
_cell_angle_gamma 90.000000
_cell_volume 3409.103270
_symmetry_space_group_name_H-M "P -4 M 2"
_symmetry_group_IT_number 115
_symmetry_cell_setting 'tetragonal'
loop_
_space_group_symop_operation_xyz
x,y,z
y,-x,-z
-x,-y,z
-y,x,-z
y,x,-z
-y,-x,-z
-x,y,z
x,-y,z
loop_
_atom_site_type_symbol
_atom_site_label
_atom_site_fract_x
_atom_site_fract_y
_atom_site_fract_z
Si Si1 0.231434 0.589298 0.483782
Si Si2 0.591564 0.908483 0.136862
Si Si3 0.683552 0.666058 0.676054
Si Si4 0.701653 0.910313 0.542783
Si Si5 0.654677 0.410227 0.113257
Si Si6 0.735380 0.088454 0.288257
Si Si7 0.175227 0.232365 0.256349
Si Si8 0.198482 0.676070 0.047889
O O1 0.211251 0.500000 0.466773
O O2 0.303224 0.612868 0.402342
O O3 0.259293 0.605472 0.611704
O O4 0.150092 0.630059 0.448231
O O5 0.500000 0.880977 0.155794
O O6 0.644478 0.893896 0.248938
O O7 0.591882 0.000000 0.101606
O O8 0.636119 0.859842 0.040027
O O9 0.647073 0.623591 0.786515
O O10 0.737518 0.739731 0.704933
O O11 0.743477 0.898918 0.422506
O O12 0.761742 0.889804 0.644815
O O13 0.671259 0.000000 0.556313
O O14 0.641431 0.500000 0.149414
O O15 0.747999 0.394393 0.097793
O O16 0.606312 0.393689 0.000000
O O17 0.803681 0.141083 0.228895
O O18 0.757000 0.000000 0.252990
O O19 0.147168 0.281353 0.146224
O O20 0.257950 0.742051 0.000000
#
# Coordination Sequence:
#
# PCOD8309213 Si02
#       8
#     8   8   8   8   8   8   8   8
#     4  10  19  33  56  77 101 138 178 228 275 321
#     4  10  21  36  55  83 119 151 184 237 296 340
#     4   9  19  35  52  74 101 134 186 226 264 330
#     4  10  21  34  53  83 115 146 178 222 278 337
#     4  10  21  34  50  72 100 135 177 230 285 333
#     4  10  19  33  54  82 114 148 184 226 281 334
#     4  10  18  35  57  77 111 147 189 228 268 331
#     4  10  19  34  56  79 107 146 197 235 271 337
#
# _framework density 18.773264000000001
#
# number of rings (size 3 to 8) (size 9 to 14) (size 15 to 20)
#    0.000    2.125    2.500    1.125    0.000    1.875 
#    0.000    1.875    0.000    6.375    0.000    1.750 
#    0.000    0.250    0.000    0.000    0.000    0.000 
#
# Total GULP energy -793175.171408 kJ/mol
# GULP energy per Si atom -12393.362053 kJ/mol
# Density = 1.873053 g / cm^3
# Si number density = 18.773264 Si / 1000 Ang^3
#
#
#
# Elastic Constant Matrix: (Units=GPa)
#
#
# Indices 1 2 3 4 5 6 
#
# 1 79.7991 38.5834 30.2408 0.0000 0.0000 0.0000
# 2 38.5834 79.7990 30.2409 0.0000 0.0000 0.0000
# 3 30.2408 30.2409 90.9987 0.0000 0.0000 0.0000
# 4 0.0000 0.0000 0.0000 25.6654 0.0000 0.0000
# 5 0.0000 0.0000 0.0000 0.0000 25.6652 0.0000
# 6 0.0000 0.0000 0.0000 0.0000 0.0000 21.1091
#
#
#
# Elastic Compliance Matrix: (Units=1/GPa)
#
#
# Indices 1 2 3 4 5 6 
#
# 1 0.017219 -0.007044 -0.003381 0.000000 0.000000 0.000000
# 2 -0.007044 0.017219 -0.003381 0.000000 0.000000 0.000000
# 3 -0.003381 -0.003381 0.013236 0.000000 0.000000 0.000000
# 4 0.000000 0.000000 0.000000 0.038963 0.000000 0.000000
# 5 0.000000 0.000000 0.000000 0.000000 0.038963 0.000000
# 6 0.000000 0.000000 0.000000 0.000000 0.000000 0.047373
#
#
# Mechanical properties :
#
#
# Convention : Reuss Voigt Hill
#
# Bulk Modulus (GPa) = 49.84844 49.85855 49.85349
# Shear Modulus (GPa) = 24.12277 24.59005 24.35641
#
# Velocity S-wave (km/s) = 3.58851 3.62310 3.60585
# Velocity P-wave (km/s) = 6.61668 6.64217 6.62944
#
# Compressibility (1/GPa) = 0.02006081
#
# Stress axis : x y z
#
# Youngs Moduli (GPa) = 58.07654 58.07644 75.54869
#
# Poissons Ratio (x) = 0.40909 0.25545
# Poissons Ratio (y) = 0.40909 0.25545
# Poissons Ratio (z) = 0.19637 0.19637
#
# Static dielectric constant tensor:
#      x y z
#    x 3.356510 0.000000 0.000000 
#    y 0.000000 3.356510 0.000000 
#    z 0.000000 0.000000 3.676560 
# 
# 
# High freq. dielectric constant tensor:
#      x y z
#    x 1.710520 0.000000 0.000000 
#    y 0.000000 1.710520 0.000000 
#    z 0.000000 0.000000 1.736210 
# 
# From -- ./inp_files/3233.got.cif
#   From: 2010.03.12/outbox.cif.g09.slc.cpg/sg115_2_cif.got.tgz:3233.got - 2010.04.14 02:11:21.
