data_PCOD8309856
_publ_section_title
;
Structure prediction by ZEFSAII (Michael W. Deem and Ramdas Pophale) SiO2 
 PCOD8309856
Probable space group: P -4 M 2
;
_chemical_formula_sum "Si O2"
_cell_formula_units_Z 48
_cell_length_a 9.163861
_cell_length_b 9.163861
_cell_length_c 30.596670
_cell_angle_alpha 90.000000
_cell_angle_beta 90.000000
_cell_angle_gamma 90.000000
_cell_volume 2569.396621
_symmetry_space_group_name_H-M "P -4 M 2"
_symmetry_group_IT_number 115
_symmetry_cell_setting 'tetragonal'
loop_
_space_group_symop_operation_xyz
x,y,z
y,-x,-z
-x,-y,z
-y,x,-z
y,x,-z
-y,-x,-z
-x,y,z
x,-y,z
loop_
_atom_site_type_symbol
_atom_site_label
_atom_site_fract_x
_atom_site_fract_y
_atom_site_fract_z
Si Si1 0.667405 0.171390 0.209530
Si Si2 0.829162 0.668120 0.461998
Si Si3 0.167634 0.328964 0.134134
Si Si4 0.669279 0.330121 0.373120
Si Si5 0.161542 0.672184 0.036121
Si Si6 0.827191 0.167026 0.704368
O O1 0.500000 0.215796 0.217586
O O2 0.724074 0.245351 0.165779
O O3 0.761641 0.227763 0.250522
O O4 0.685455 0.000000 0.203486
O O5 0.771482 0.771482 0.500000
O O6 0.796005 0.500000 0.474041
O O7 0.746552 0.714025 0.418083
O O8 0.000000 0.695365 0.455043
O O9 0.191544 0.500000 0.140539
O O10 0.209299 0.280140 0.084869
O O11 0.000000 0.286975 0.144241
O O12 0.500000 0.287240 0.376460
O O13 0.690708 0.500000 0.363003
O O14 0.743448 0.240036 0.335023
O O15 0.159974 0.500000 0.033795
O O16 0.000000 0.733541 0.026159
O O17 0.271523 0.728478 0.000000
O O18 0.000000 0.177760 0.700377
O O19 0.773164 0.000000 0.702905
#
# Coordination Sequence:
#
# PCOD8309856 Si02
#       6
#     8   8   8   8   8   8
#     4  10  21  36  54  78 107 138 174 217 264 314
#     4  10  21  37  57  81 109 142 180 221 265 313
#     4   9  19  36  55  75 102 137 175 215 260 310
#     4  10  21  37  58  83 110 142 180 221 266 316
#     4   9  19  35  53  75 104 136 172 214 259 310
#     4  10  21  37  57  80 107 141 179 218 263 315
#
# _framework density 18.681429000000001
#
# number of rings (size 3 to 8) (size 9 to 14) (size 15 to 20)
#    0.000    2.333    0.000    3.000    0.000    7.333 
#    0.000    5.000    0.000    0.000    0.000    0.000 
#    0.000    0.000    0.000    0.000    0.000    0.000 
#
# Total GULP energy -595308.110984 kJ/mol
# GULP energy per Si atom -12402.252312 kJ/mol
# Density = 1.863891 g / cm^3
# Si number density = 18.681429 Si / 1000 Ang^3
#
#
#
# Elastic Constant Matrix: (Units=GPa)
#
#
# Indices 1 2 3 4 5 6 
#
# 1 77.2382 40.9033 61.0389 0.0000 0.0000 0.0000
# 2 40.9033 77.2399 61.0397 0.0000 0.0000 0.0000
# 3 61.0389 61.0397 143.5020 0.0000 0.0000 0.0000
# 4 0.0000 0.0000 0.0000 39.2729 0.0000 0.0000
# 5 0.0000 0.0000 0.0000 0.0000 39.2729 0.0000
# 6 0.0000 0.0000 0.0000 0.0000 0.0000 32.4907
#
#
#
# Elastic Compliance Matrix: (Units=1/GPa)
#
#
# Indices 1 2 3 4 5 6 
#
# 1 0.021312 -0.006209 -0.006424 0.000000 0.000000 0.000000
# 2 -0.006209 0.021311 -0.006424 0.000000 0.000000 0.000000
# 3 -0.006424 -0.006424 0.012433 0.000000 0.000000 0.000000
# 4 0.000000 0.000000 0.000000 0.025463 0.000000 0.000000
# 5 0.000000 0.000000 0.000000 0.000000 0.025463 0.000000
# 6 0.000000 0.000000 0.000000 0.000000 0.000000 0.030778
#
#
# Mechanical properties :
#
#
# Convention : Reuss Voigt Hill
#
# Bulk Modulus (GPa) = 59.02306 69.32710 64.17508
# Shear Modulus (GPa) = 27.69746 31.20717 29.45231
#
# Velocity S-wave (km/s) = 3.85466 4.09160 3.97489
# Velocity P-wave (km/s) = 7.17456 7.71442 7.44938
#
# Compressibility (1/GPa) = 0.01694253
#
# Stress axis : x y z
#
# Youngs Moduli (GPa) = 46.92228 46.92314 80.42901
#
# Poissons Ratio (x) = 0.29137 0.51666
# Poissons Ratio (y) = 0.29136 0.51666
# Poissons Ratio (z) = 0.30142 0.30142
#
# Static dielectric constant tensor:
#      x y z
#    x 3.421540 0.000000 0.000000 
#    y 0.000000 3.421540 0.000000 
#    z 0.000000 0.000000 3.554470 
# 
# 
# High freq. dielectric constant tensor:
#      x y z
#    x 1.724350 0.000000 0.000000 
#    y 0.000000 1.724350 0.000000 
#    z 0.000000 0.000000 1.737640 
# 
# From -- ./inp_files/5909.got.cif
#   From: 2010.03.12/outbox.cif.g09.slc.cpg/sg115_3_cif.got.tgz:5909.got - 2010.04.14 02:11:21.
