data_PCOD8309069
_publ_section_title
;
Structure prediction by ZEFSAII (Michael W. Deem and Ramdas Pophale) SiO2 
 PCOD8309069
Probable space group: P -4 21 C
;
_chemical_formula_sum "Si O2"
_cell_formula_units_Z 40
_cell_length_a 8.884949
_cell_length_b 8.884949
_cell_length_c 23.003074
_cell_angle_alpha 90.000000
_cell_angle_beta 90.000000
_cell_angle_gamma 90.000000
_cell_volume 1815.916000
_symmetry_space_group_name_H-M "P -4 21 C"
_symmetry_group_IT_number 114
_symmetry_cell_setting 'tetragonal'
loop_
_space_group_symop_operation_xyz
x,y,z
y,-x,-z
-x,-y,z
-y,x,-z
1/2+x,1/2-y,1/2-z
1/2-x,1/2+y,1/2-z
1/2-y,1/2-x,1/2+z
1/2+y,1/2+x,1/2+z
loop_
_atom_site_type_symbol
_atom_site_label
_atom_site_fract_x
_atom_site_fract_y
_atom_site_fract_z
Si Si1 0.175734 0.773879 0.125055
Si Si2 0.321329 0.027532 0.186131
Si Si3 0.470992 0.321782 0.809187
Si Si4 0.676925 0.330471 0.499303
Si Si5 0.322185 0.784370 0.375726
O O1 0.222198 0.946585 0.135968
O O2 0.285787 0.700271 0.173414
O O3 0.215311 0.731724 0.057860
O O4 0.997866 0.749643 0.136207
O O5 0.251475 0.984424 0.248214
O O6 0.500000 0.000000 0.184605
O O7 0.286530 0.200045 0.170465
O O8 0.500000 0.500000 0.809844
O O9 0.545823 0.222774 0.860962
O O10 0.504414 0.296522 0.513594
O O11 0.728351 0.239794 0.442490
#
# Coordination Sequence:
#
# PCOD8309069 Si02
#       5
#     8   8   8   8   8
#     4  11  22  42  66  97 127 174 223 277 333 397
#     4  12  24  42  68  98 132 172 225 274 333 401
#     4  12  26  44  62  94 136 178 217 276 341 397
#     4   9  18  38  67  94 124 164 219 268 319 390
#     4  11  22  42  66  97 127 174 223 277 333 397
#
# _framework density 22.027452
#
# number of rings (size 3 to 8) (size 9 to 14) (size 15 to 20)
#    0.000    1.000    2.000    6.000    0.000    0.000 
#    7.200    0.000    0.000    0.000    0.000    0.000 
#    0.000    0.000    0.000    0.000    0.000    0.000 
#
# Total GULP energy -495730.321974 kJ/mol
# GULP energy per Si atom -12393.258049 kJ/mol
# Density = 2.197732 g / cm^3
# Si number density = 22.027452 Si / 1000 Ang^3
#
#
#
# Elastic Constant Matrix: (Units=GPa)
#
#
# Indices 1 2 3 4 5 6 
#
# 1 79.4405 14.7051 40.2234 0.0000 0.0000 0.0000
# 2 14.7051 79.4405 40.2234 0.0000 0.0000 0.0000
# 3 40.2234 40.2234 157.7842 0.0000 0.0000 0.0000
# 4 0.0000 0.0000 0.0000 32.9211 0.0000 0.0000
# 5 0.0000 0.0000 0.0000 0.0000 32.9211 0.0000
# 6 0.0000 0.0000 0.0000 0.0000 0.0000 41.6235
#
#
#
# Elastic Compliance Matrix: (Units=1/GPa)
#
#
# Indices 1 2 3 4 5 6 
#
# 1 0.014514 -0.000934 -0.003462 0.000000 0.000000 0.000000
# 2 -0.000934 0.014514 -0.003462 0.000000 0.000000 0.000000
# 3 -0.003462 -0.003462 0.008103 0.000000 0.000000 0.000000
# 4 0.000000 0.000000 0.000000 0.030376 0.000000 0.000000
# 5 0.000000 0.000000 0.000000 0.000000 0.030376 0.000000
# 6 0.000000 0.000000 0.000000 0.000000 0.000000 0.024025
#
#
# Mechanical properties :
#
#
# Convention : Reuss Voigt Hill
#
# Bulk Modulus (GPa) = 46.69572 56.32992 51.51282
# Shear Modulus (GPa) = 34.53989 36.26067 35.40028
#
# Velocity S-wave (km/s) = 3.96414 4.06169 4.01321
# Velocity P-wave (km/s) = 6.49596 6.90105 6.70157
#
# Compressibility (1/GPa) = 0.02141524
#
# Stress axis : x y z
#
# Youngs Moduli (GPa) = 68.90011 68.90011 123.41355
#
# Poissons Ratio (x) = 0.06433 0.42725
# Poissons Ratio (y) = 0.06433 0.42725
# Poissons Ratio (z) = 0.23853 0.23853
#
# Static dielectric constant tensor:
#      x y z
#    x 3.771900 0.000000 0.000000 
#    y 0.000000 3.771900 0.000000 
#    z 0.000000 0.000000 3.740010 
# 
# 
# High freq. dielectric constant tensor:
#      x y z
#    x 1.861020 0.000000 0.000000 
#    y 0.000000 1.861020 0.000000 
#    z 0.000000 0.000000 1.883360 
# 
# From -- ./inp_files/3359.got.cif
#   From: 2010.03.12/outbox.cif.g09.slc.cpg/sg114_2_cif.got.tgz:3359.got - 2010.04.14 02:08:34.
