data_PCOD8309463
_publ_section_title
;
Structure prediction by ZEFSAII (Michael W. Deem and Ramdas Pophale) SiO2 
 PCOD8309463
Probable space group: P -4 M 2
;
_chemical_formula_sum "Si O2"
_cell_formula_units_Z 44
_cell_length_a 9.335408
_cell_length_b 9.335408
_cell_length_c 28.161788
_cell_angle_alpha 90.000000
_cell_angle_beta 90.000000
_cell_angle_gamma 90.000000
_cell_volume 2454.295389
_symmetry_space_group_name_H-M "P -4 M 2"
_symmetry_group_IT_number 115
_symmetry_cell_setting 'tetragonal'
loop_
_space_group_symop_operation_xyz
x,y,z
y,-x,-z
-x,-y,z
-y,x,-z
y,x,-z
-y,-x,-z
-x,y,z
x,-y,z
loop_
_atom_site_type_symbol
_atom_site_label
_atom_site_fract_x
_atom_site_fract_y
_atom_site_fract_z
Si Si1 0.333933 0.831293 0.040703
Si Si2 0.666966 0.165387 0.592307
Si Si3 0.665927 0.332154 0.315411
Si Si4 0.833037 0.834016 0.763836
Si Si5 0.158082 0.169766 0.130053
Si Si6 0.833965 0.166036 0.500000
O O1 0.500000 0.791029 0.038884
O O2 0.272617 0.777135 0.091312
O O3 0.308115 0.000000 0.033787
O O4 0.251410 0.748590 0.000000
O O5 0.500000 0.189545 0.583176
O O6 0.722288 0.256559 0.636917
O O7 0.748704 0.221548 0.545834
O O8 0.703473 0.000000 0.602662
O O9 0.500000 0.292224 0.319395
O O10 0.691177 0.500000 0.308558
O O11 0.732318 0.254444 0.270451
O O12 0.779340 0.797484 0.817250
O O13 0.000000 0.799543 0.757797
O O14 0.802045 0.000000 0.752106
O O15 0.000000 0.230327 0.116907
O O16 0.150204 0.000000 0.130750
O O17 0.000000 0.197060 0.509431
#
# Coordination Sequence:
#
# PCOD8309463 Si02
#       6
#     8   8   8   8   8   4
#     4  10  20  33  51  75 101 131 167 205 247 296
#     4   9  18  33  51  69  93 128 165 200 243 295
#     4  10  21  35  50  72 103 137 172 207 245 293
#     4   9  18  33  54  79 103 128 163 207 253 300
#     4   8  15  30  52  76 100 127 163 207 251 295
#     4   9  18  32  50  73  98 122 154 201 252 297
#
# _framework density 17.927752000000002
#
# number of rings (size 3 to 8) (size 9 to 14) (size 15 to 20)
#    0.000    2.818    0.000    2.182    0.000    4.727 
#    0.000    4.545    0.000    1.091    0.000    0.000 
#    0.000    0.000    0.000    0.000    0.000    0.000 
#
# Total GULP energy -545582.090881 kJ/mol
# GULP energy per Si atom -12399.592975 kJ/mol
# Density = 1.788695 g / cm^3
# Si number density = 17.927752 Si / 1000 Ang^3
#
#
#
# Elastic Constant Matrix: (Units=GPa)
#
#
# Indices 1 2 3 4 5 6 
#
# 1 68.4687 45.8452 71.3288 0.0000 0.0000 0.0000
# 2 45.8452 68.4646 71.3276 0.0000 0.0000 0.0000
# 3 71.3288 71.3276 170.9070 0.0000 0.0000 0.0000
# 4 0.0000 0.0000 0.0000 -5.6358 0.0000 0.0000
# 5 0.0000 0.0000 0.0000 0.0000 -5.6406 0.0000
# 6 0.0000 0.0000 0.0000 0.0000 0.0000 24.4304
#
#
#
# Elastic Compliance Matrix: (Units=1/GPa)
#
#
# Indices 1 2 3 4 5 6 
#
# 1 0.031230 -0.012975 -0.007619 0.000000 0.000000 0.000000
# 2 -0.012975 0.031233 -0.007620 0.000000 0.000000 0.000000
# 3 -0.007619 -0.007620 0.012211 0.000000 0.000000 0.000000
# 4 0.000000 0.000000 0.000000 -0.177436 0.000000 0.000000
# 5 0.000000 0.000000 0.000000 0.000000 -0.177286 0.000000
# 6 0.000000 0.000000 0.000000 0.000000 0.000000 0.040933
#
#
# Mechanical properties :
#
#
# Convention : Reuss Voigt Hill
#
# Bulk Modulus (GPa) = 54.80422 76.09372 65.44897
# Shear Modulus (GPa) = -28.31154 10.58671 -8.86242
#
# Velocity S-wave (km/s) = -3.97823 2.43270 -2.22579
# Velocity P-wave (km/s) = 3.08774 7.10123 5.47547
#
# Compressibility (1/GPa) = 0.01824677
#
# Stress axis : x y z
#
# Youngs Moduli (GPa) = 32.02038 32.01783 81.89246
#
# Poissons Ratio (x) = 0.41542 0.62395
# Poissons Ratio (y) = 0.41545 0.62401
# Poissons Ratio (z) = 0.24397 0.24397
#
# Static dielectric constant tensor:
#      x y z
#    x 3.223250 0.000000 0.000000 
#    y 0.000000 3.223250 0.000000 
#    z 0.000000 0.000000 3.559120 
# 
# 
# High freq. dielectric constant tensor:
#      x y z
#    x 1.679530 0.000000 0.000000 
#    y 0.000000 1.679530 0.000000 
#    z 0.000000 0.000000 1.707700 
# 
# From -- ./inp_files/5787.got.cif
#   From: 2010.03.12/outbox.cif.g09.slc.cpg/sg115_3_cif.got.tgz:5787.got - 2010.04.14 02:11:21.
