data_PCOD8309602
_publ_section_title
;
Structure prediction by ZEFSAII (Michael W. Deem and Ramdas Pophale) SiO2 
 PCOD8309602
Probable space group: P -4 M 2
;
_chemical_formula_sum "Si O2"
_cell_formula_units_Z 48
_cell_length_a 9.156311
_cell_length_b 9.156311
_cell_length_c 30.448519
_cell_angle_alpha 90.000000
_cell_angle_beta 90.000000
_cell_angle_gamma 90.000000
_cell_volume 2552.743884
_symmetry_space_group_name_H-M "P -4 M 2"
_symmetry_group_IT_number 115
_symmetry_cell_setting 'tetragonal'
loop_
_space_group_symop_operation_xyz
x,y,z
y,-x,-z
-x,-y,z
-y,x,-z
y,x,-z
-y,-x,-z
-x,y,z
x,-y,z
loop_
_atom_site_type_symbol
_atom_site_label
_atom_site_fract_x
_atom_site_fract_y
_atom_site_fract_z
Si Si1 0.662657 0.673799 0.547947
Si Si2 0.830573 0.328978 0.289273
Si Si3 0.169900 0.670734 0.039434
Si Si4 0.332349 0.168106 0.215189
Si Si5 0.167055 0.326939 0.632293
Si Si6 0.667937 0.832220 0.113573
O O1 0.723433 0.723433 0.500000
O O2 0.500000 0.737168 0.556480
O O3 0.655583 0.500000 0.547874
O O4 0.768833 0.731492 0.586105
O O5 0.800934 0.500000 0.291564
O O6 0.773605 0.270564 0.242816
O O7 0.743963 0.254049 0.328293
O O8 0.000000 0.290477 0.293721
O O9 0.201173 0.500000 0.036285
O O10 0.228018 0.728172 0.085860
O O11 0.000000 0.707071 0.035815
O O12 0.251585 0.748416 0.000000
O O13 0.500000 0.208178 0.225525
O O14 0.296787 0.195842 0.164383
O O15 0.303352 0.000000 0.227767
O O16 0.183969 0.500000 0.636168
O O17 0.000000 0.277439 0.634969
O O18 0.500000 0.794240 0.103185
O O19 0.699180 0.000000 0.101056
#
# Coordination Sequence:
#
# PCOD8309602 Si02
#       6
#     8   8   8   8   8   8
#     4   8  14  27  49  75 102 134 172 213 257 306
#     4  11  24  38  52  75 107 141 178 221 267 313
#     4  11  24  39  56  81 112 145 183 226 269 315
#     4   9  19  37  60  84 109 139 176 217 262 315
#     4  10  20  34  54  79 105 136 176 218 261 313
#     4   9  19  37  60  85 112 141 176 218 263 315
#
# _framework density 18.803296
#
# number of rings (size 3 to 8) (size 9 to 14) (size 15 to 20)
#    0.000    2.333    0.000    4.000    0.000    9.667 
#    0.000    5.833    0.000    3.000    0.000    0.000 
#    0.000    0.000    0.000    0.000    0.000    0.000 
#
# Total GULP energy -595271.587088 kJ/mol
# GULP energy per Si atom -12401.491398 kJ/mol
# Density = 1.876050 g / cm^3
# Si number density = 18.803296 Si / 1000 Ang^3
#
#
#
# Elastic Constant Matrix: (Units=GPa)
#
#
# Indices 1 2 3 4 5 6 
#
# 1 74.1997 52.2242 50.9353 0.0000 0.0000 0.0000
# 2 52.2242 74.2051 50.9379 0.0000 0.0000 0.0000
# 3 50.9353 50.9379 116.4780 0.0000 0.0000 0.0000
# 4 0.0000 0.0000 0.0000 -13.2075 0.0000 0.0000
# 5 0.0000 0.0000 0.0000 0.0000 -13.2051 0.0000
# 6 0.0000 0.0000 0.0000 0.0000 0.0000 28.5081
#
#
#
# Elastic Compliance Matrix: (Units=1/GPa)
#
#
# Indices 1 2 3 4 5 6 
#
# 1 0.028857 -0.016643 -0.005341 0.000000 0.000000 0.000000
# 2 -0.016643 0.028856 -0.005341 0.000000 0.000000 0.000000
# 3 -0.005341 -0.005341 0.013257 0.000000 0.000000 0.000000
# 4 0.000000 0.000000 0.000000 -0.075715 0.000000 0.000000
# 5 0.000000 0.000000 0.000000 0.000000 -0.075728 0.000000
# 6 0.000000 0.000000 0.000000 0.000000 0.000000 0.035078
#
#
# Mechanical properties :
#
#
# Convention : Reuss Voigt Hill
#
# Bulk Modulus (GPa) = 61.27651 63.67529 62.47590
# Shear Modulus (GPa) = 340.26164 7.80480 174.03322
#
# Velocity S-wave (km/s) = 13.46668 2.03955 9.63097
# Velocity P-wave (km/s) = 16.56686 6.28361 12.52886
#
# Compressibility (1/GPa) = 0.01631947
#
# Stress axis : x y z
#
# Youngs Moduli (GPa) = 34.65322 34.65528 75.43380
#
# Poissons Ratio (x) = 0.57677 0.40288
# Poissons Ratio (y) = 0.57673 0.40290
# Poissons Ratio (z) = 0.18508 0.18510
#
# Static dielectric constant tensor:
#      x y z
#    x 3.437080 0.000000 0.000000 
#    y 0.000000 3.437080 0.000000 
#    z 0.000000 0.000000 3.657790 
# 
# 
# High freq. dielectric constant tensor:
#      x y z
#    x 1.720720 0.000000 0.000000 
#    y 0.000000 1.720720 0.000000 
#    z 0.000000 0.000000 1.748040 
# 
# From -- ./inp_files/6083.got.cif
#   From: 2010.03.12/outbox.cif.g09.slc.cpg/sg115_4_cif.got.tgz:6083.got - 2010.04.14 02:11:21.
