data_PCOD8309355
_publ_section_title
;
Structure prediction by ZEFSAII (Michael W. Deem and Ramdas Pophale) SiO2 
 PCOD8309355
Probable space group: P -4 M 2
;
_chemical_formula_sum "Si O2"
_cell_formula_units_Z 40
_cell_length_a 9.454651
_cell_length_b 9.454651
_cell_length_c 25.984485
_cell_angle_alpha 90.000000
_cell_angle_beta 90.000000
_cell_angle_gamma 90.000000
_cell_volume 2322.764171
_symmetry_space_group_name_H-M "P -4 M 2"
_symmetry_group_IT_number 115
_symmetry_cell_setting 'tetragonal'
loop_
_space_group_symop_operation_xyz
x,y,z
y,-x,-z
-x,-y,z
-y,x,-z
y,x,-z
-y,-x,-z
-x,y,z
x,-y,z
loop_
_atom_site_type_symbol
_atom_site_label
_atom_site_fract_x
_atom_site_fract_y
_atom_site_fract_z
Si Si1 0.657594 0.331452 0.443786
Si Si2 0.835695 0.334976 0.348304
Si Si3 0.665683 0.166229 0.956987
Si Si4 0.167655 0.840485 0.253205
Si Si5 0.841944 0.167751 0.860182
O O1 0.716388 0.283613 0.500000
O O2 0.500000 0.271200 0.434234
O O3 0.653751 0.500000 0.443494
O O4 0.758509 0.273374 0.398813
O O5 0.807108 0.500000 0.341463
O O6 0.770541 0.260777 0.297536
O O7 0.000000 0.300057 0.355219
O O8 0.500000 0.200723 0.957645
O O9 0.728845 0.218368 0.902388
O O10 0.694575 0.000000 0.966191
O O11 0.744290 0.255711 0.000000
O O12 0.224845 0.796076 0.196423
O O13 0.000000 0.827507 0.253121
O O14 0.215324 0.000000 0.265487
O O15 0.000000 0.223679 0.874121
O O16 0.846303 0.000000 0.858302
#
# Coordination Sequence:
#
# PCOD8309355 Si02
#       5
#     8   8   8   8   8
#     4   8  14  26  43  59  77 107 144 175 206 251
#     4   9  16  25  40  63  86 106 134 176 218 251
#     4  10  20  32  48  71  96 122 153 189 229 272
#     4   8  14  25  41  62  89 118 143 170 212 262
#     4   8  14  26  45  67  89 115 149 186 219 255
#
# _framework density 17.220862
#
# number of rings (size 3 to 8) (size 9 to 14) (size 15 to 20)
#    0.000    3.400    0.000    2.400    0.000    2.000 
#    0.000    5.000    0.000    3.000    0.000    5.600 
#    0.000    0.000    0.000    0.000    0.000    0.000 
#
# Total GULP energy -495671.744213 kJ/mol
# GULP energy per Si atom -12391.793605 kJ/mol
# Density = 1.718167 g / cm^3
# Si number density = 17.220862 Si / 1000 Ang^3
#
#
#
# Elastic Constant Matrix: (Units=GPa)
#
#
# Indices 1 2 3 4 5 6 
#
# 1 54.1115 33.1125 65.6916 0.0000 0.0000 0.0000
# 2 33.1125 54.1129 65.6915 0.0000 0.0000 0.0000
# 3 65.6916 65.6915 193.0144 0.0000 0.0000 0.0000
# 4 0.0000 0.0000 0.0000 12.5624 0.0000 0.0000
# 5 0.0000 0.0000 0.0000 0.0000 12.5634 0.0000
# 6 0.0000 0.0000 0.0000 0.0000 0.0000 12.3957
#
#
#
# Elastic Compliance Matrix: (Units=1/GPa)
#
#
# Indices 1 2 3 4 5 6 
#
# 1 0.035573 -0.012048 -0.008007 0.000000 0.000000 0.000000
# 2 -0.012048 0.035571 -0.008006 0.000000 0.000000 0.000000
# 3 -0.008007 -0.008006 0.010631 0.000000 0.000000 0.000000
# 4 0.000000 0.000000 0.000000 0.079603 0.000000 0.000000
# 5 0.000000 0.000000 0.000000 0.000000 0.079596 0.000000
# 6 0.000000 0.000000 0.000000 0.000000 0.000000 0.080673
#
#
# Mechanical properties :
#
#
# Convention : Reuss Voigt Hill
#
# Bulk Modulus (GPa) = 38.98035 70.02557 54.50296
# Shear Modulus (GPa) = 12.94265 16.62050 14.78157
#
# Velocity S-wave (km/s) = 2.74445 3.11004 2.93294
# Velocity P-wave (km/s) = 5.72078 7.32448 6.57173
#
# Compressibility (1/GPa) = 0.02565395
#
# Stress axis : x y z
#
# Youngs Moduli (GPa) = 28.11129 28.11254 94.06585
#
# Poissons Ratio (x) = 0.33869 0.75316
# Poissons Ratio (y) = 0.33868 0.75310
# Poissons Ratio (z) = 0.22508 0.22507
#
# Static dielectric constant tensor:
#      x y z
#    x 2.973930 0.000000 0.000000 
#    y 0.000000 2.973930 0.000000 
#    z 0.000000 0.000000 3.871640 
# 
# 
# High freq. dielectric constant tensor:
#      x y z
#    x 1.627130 0.000000 0.000000 
#    y 0.000000 1.627130 0.000000 
#    z 0.000000 0.000000 1.685260 
# 
# From -- ./inp_files/5470.got.cif
#   From: 2010.03.12/outbox.cif.g09.slc.cpg/sg115_3_cif.got.tgz:5470.got - 2010.04.14 02:11:21.
