data_PCOD8309741
_publ_section_title
;
Structure prediction by ZEFSAII (Michael W. Deem and Ramdas Pophale) SiO2 
 PCOD8309741
Probable space group: P -4 M 2
;
_chemical_formula_sum "Si O2"
_cell_formula_units_Z 48
_cell_length_a 9.512931
_cell_length_b 9.512931
_cell_length_c 30.414294
_cell_angle_alpha 90.000000
_cell_angle_beta 90.000000
_cell_angle_gamma 90.000000
_cell_volume 2752.367577
_symmetry_space_group_name_H-M "P -4 M 2"
_symmetry_group_IT_number 115
_symmetry_cell_setting 'tetragonal'
loop_
_space_group_symop_operation_xyz
x,y,z
y,-x,-z
-x,-y,z
-y,x,-z
y,x,-z
-y,-x,-z
-x,y,z
x,-y,z
loop_
_atom_site_type_symbol
_atom_site_label
_atom_site_fract_x
_atom_site_fract_y
_atom_site_fract_z
Si Si1 0.661596 0.836426 0.633530
Si Si2 0.663867 0.662203 0.213091
Si Si3 0.333075 0.155464 0.867997
Si Si4 0.834017 0.660215 0.034520
Si Si5 0.657463 0.163945 0.532863
Si Si6 0.163522 0.335112 0.702263
O O1 0.500000 0.794783 0.643819
O O2 0.698470 0.803145 0.583045
O O3 0.768888 0.745252 0.661584
O O4 0.684913 0.000000 0.644079
O O5 0.500000 0.679119 0.204197
O O6 0.703909 0.500000 0.222942
O O7 0.740144 0.721751 0.169665
O O8 0.713958 0.756682 0.253756
O O9 0.500000 0.148986 0.867691
O O10 0.286294 0.207490 0.916430
O O11 0.272024 0.000000 0.858384
O O12 0.784306 0.500000 0.027322
O O13 0.000000 0.672447 0.027995
O O14 0.758609 0.758609 0.000000
O O15 0.761591 0.238409 0.500000
O O16 0.500000 0.217685 0.523641
O O17 0.668277 0.000000 0.523660
O O18 0.184810 0.500000 0.694248
O O19 0.000000 0.295301 0.706439
#
# Coordination Sequence:
#
# PCOD8309741 Si02
#       6
#     8   8   8   8   8   8
#     4   9  19  36  55  74  98 130 168 207 244 285
#     4   9  17  30  49  71  94 123 160 199 240 288
#     4   8  15  29  48  69  93 121 156 199 242 284
#     4   9  18  32  49  71  99 129 162 200 242 289
#     4   9  19  35  53  75 103 132 164 203 245 290
#     4  10  21  35  50  72 103 134 162 197 244 294
#
# _framework density 17.439530999999999
#
# number of rings (size 3 to 8) (size 9 to 14) (size 15 to 20)
#    0.000    3.000    0.000    2.500    0.000    4.667 
#    0.000    9.167    0.000    3.000    0.000    0.000 
#    0.000    0.000    0.000    0.000    0.000    0.000 
#
# Total GULP energy -595100.554048 kJ/mol
# GULP energy per Si atom -12397.928209 kJ/mol
# Density = 1.739984 g / cm^3
# Si number density = 17.439531 Si / 1000 Ang^3
#
#
#
# Elastic Constant Matrix: (Units=GPa)
#
#
# Indices 1 2 3 4 5 6 
#
# 1 63.8272 39.8622 65.2998 0.0000 0.0000 0.0000
# 2 39.8622 63.8296 65.3009 0.0000 0.0000 0.0000
# 3 65.2998 65.3009 141.7449 0.0000 0.0000 0.0000
# 4 0.0000 0.0000 0.0000 -85.4444 0.0000 0.0000
# 5 0.0000 0.0000 0.0000 0.0000 -85.4332 0.0000
# 6 0.0000 0.0000 0.0000 0.0000 0.0000 27.6034
#
#
#
# Elastic Compliance Matrix: (Units=1/GPa)
#
#
# Indices 1 2 3 4 5 6 
#
# 1 0.032351 -0.009375 -0.010585 0.000000 0.000000 0.000000
# 2 -0.009375 0.032350 -0.010584 0.000000 0.000000 0.000000
# 3 -0.010585 -0.010584 0.016807 0.000000 0.000000 0.000000
# 4 0.000000 0.000000 0.000000 -0.011704 0.000000 0.000000
# 5 0.000000 0.000000 0.000000 0.000000 -0.011705 0.000000
# 6 0.000000 0.000000 0.000000 0.000000 0.000000 0.036227
#
#
# Mechanical properties :
#
#
# Convention : Reuss Voigt Hill
#
# Bulk Modulus (GPa) = 48.97121 67.81415 58.39268
# Shear Modulus (GPa) = 30.82196 -22.05889 4.38154
#
# Velocity S-wave (km/s) = 4.20856 -3.56037 1.58678
# Velocity P-wave (km/s) = 7.19427 4.69767 6.07559
#
# Compressibility (1/GPa) = 0.02042016
#
# Stress axis : x y z
#
# Youngs Moduli (GPa) = 30.91081 30.91208 59.49768
#
# Poissons Ratio (x) = 0.28980 0.62977
# Poissons Ratio (y) = 0.28978 0.62975
# Poissons Ratio (z) = 0.32718 0.32719
#
# Static dielectric constant tensor:
#      x y z
#    x 3.228260 0.000000 0.000000 
#    y 0.000000 3.228260 0.000000 
#    z 0.000000 0.000000 3.387090 
# 
# 
# High freq. dielectric constant tensor:
#      x y z
#    x 1.661590 0.000000 0.000000 
#    y 0.000000 1.661590 0.000000 
#    z 0.000000 0.000000 1.684130 
# 
# From -- ./inp_files/5899.got.cif
#   From: 2010.03.12/outbox.cif.g09.slc.cpg/sg115_3_cif.got.tgz:5899.got - 2010.04.14 02:11:21.
