data_PCOD8309767
_publ_section_title
;
Structure prediction by ZEFSAII (Michael W. Deem and Ramdas Pophale) SiO2 
 PCOD8309767
Probable space group: P -4 M 2
;
_chemical_formula_sum "Si O2"
_cell_formula_units_Z 44
_cell_length_a 9.357505
_cell_length_b 9.357505
_cell_length_c 28.042265
_cell_angle_alpha 90.000000
_cell_angle_beta 90.000000
_cell_angle_gamma 90.000000
_cell_volume 2455.462041
_symmetry_space_group_name_H-M "P -4 M 2"
_symmetry_group_IT_number 115
_symmetry_cell_setting 'tetragonal'
loop_
_space_group_symop_operation_xyz
x,y,z
y,-x,-z
-x,-y,z
-y,x,-z
y,x,-z
-y,-x,-z
-x,y,z
x,-y,z
loop_
_atom_site_type_symbol
_atom_site_label
_atom_site_fract_x
_atom_site_fract_y
_atom_site_fract_z
Si Si1 0.666413 0.834130 0.224760
Si Si2 0.333979 0.338107 0.944984
Si Si3 0.669967 0.661555 0.316147
Si Si4 0.834814 0.332855 0.592928
Si Si5 0.164902 0.167179 0.131555
Si Si6 0.165421 0.834580 0.500000
O O1 0.500000 0.804658 0.215130
O O2 0.725314 0.743558 0.269319
O O3 0.752398 0.781340 0.178664
O O4 0.694764 0.000000 0.236060
O O5 0.500000 0.319163 0.933160
O O6 0.285680 0.500000 0.933161
O O7 0.245293 0.226730 0.914335
O O8 0.303386 0.303386 0.000000
O O9 0.500000 0.664234 0.316453
O O10 0.729131 0.500000 0.315871
O O11 0.727062 0.742599 0.362990
O O12 0.809750 0.500000 0.584982
O O13 0.781066 0.253335 0.545633
O O14 0.000000 0.298488 0.603791
O O15 0.000000 0.208249 0.137556
O O16 0.187311 0.000000 0.123530
O O17 0.000000 0.804489 0.489514
#
# Coordination Sequence:
#
# PCOD8309767 Si02
#       6
#     8   8   8   8   8   4
#     4   9  17  31  51  71  93 127 168 203 237 284
#     4   9  19  36  56  77 101 131 169 210 250 295
#     4   9  17  29  47  72  97 120 153 198 242 283
#     4   9  17  30  48  68  91 121 155 190 230 278
#     4  10  21  35  51  75 106 136 167 205 249 297
#     4   9  18  32  48  67  92 122 156 191 228 274
#
# _framework density 17.919233999999999
#
# number of rings (size 3 to 8) (size 9 to 14) (size 15 to 20)
#    0.000    2.818    0.000    1.636    0.000    5.818 
#    0.000    5.455    0.000    5.455    0.000    0.000 
#    0.000    0.000    0.000    0.000    0.000    0.000 
#
# Total GULP energy -545676.102602 kJ/mol
# GULP energy per Si atom -12401.729605 kJ/mol
# Density = 1.787845 g / cm^3
# Si number density = 17.919234 Si / 1000 Ang^3
#
#
#
# Elastic Constant Matrix: (Units=GPa)
#
#
# Indices 1 2 3 4 5 6 
#
# 1 72.7628 40.8580 70.4954 0.0000 0.0000 0.0000
# 2 40.8580 72.7632 70.4953 0.0000 0.0000 0.0000
# 3 70.4954 70.4953 157.4066 0.0000 0.0000 0.0000
# 4 0.0000 0.0000 0.0000 26.5192 0.0000 0.0000
# 5 0.0000 0.0000 0.0000 0.0000 26.5203 0.0000
# 6 0.0000 0.0000 0.0000 0.0000 0.0000 21.0828
#
#
#
# Elastic Compliance Matrix: (Units=1/GPa)
#
#
# Indices 1 2 3 4 5 6 
#
# 1 0.025577 -0.005766 -0.008872 0.000000 0.000000 0.000000
# 2 -0.005766 0.025577 -0.008872 0.000000 0.000000 0.000000
# 3 -0.008872 -0.008872 0.014300 0.000000 0.000000 0.000000
# 4 0.000000 0.000000 0.000000 0.037709 0.000000 0.000000
# 5 0.000000 0.000000 0.000000 0.000000 0.037707 0.000000
# 6 0.000000 0.000000 0.000000 0.000000 0.000000 0.047432
#
#
# Mechanical properties :
#
#
# Convention : Reuss Voigt Hill
#
# Bulk Modulus (GPa) = 54.25303 74.07000 64.16151
# Shear Modulus (GPa) = 20.70674 22.89670 21.80172
#
# Velocity S-wave (km/s) = 3.40304 3.57847 3.49186
# Velocity P-wave (km/s) = 6.76632 7.64847 7.22088
#
# Compressibility (1/GPa) = 0.01843215
#
# Stress axis : x y z
#
# Youngs Moduli (GPa) = 39.09757 39.09799 69.92989
#
# Poissons Ratio (x) = 0.22544 0.62045
# Poissons Ratio (y) = 0.22544 0.62044
# Poissons Ratio (z) = 0.34689 0.34689
#
# Static dielectric constant tensor:
#      x y z
#    x 3.201940 0.000000 0.000000 
#    y 0.000000 3.201930 0.000000 
#    z 0.000000 0.000000 3.425150 
# 
# 
# High freq. dielectric constant tensor:
#      x y z
#    x 1.679390 0.000000 0.000000 
#    y 0.000000 1.679390 0.000000 
#    z 0.000000 0.000000 1.704790 
# 
# From -- ./inp_files/5721.got.cif
#   From: 2010.03.12/outbox.cif.g09.slc.cpg/sg115_3_cif.got.tgz:5721.got - 2010.04.14 02:11:21.
