data_PCOD8309100
_publ_section_title
;
Structure prediction by ZEFSAII (Michael W. Deem and Ramdas Pophale) SiO2 
 PCOD8309100
Probable space group: P -4 21 C
;
_chemical_formula_sum "Si O2"
_cell_formula_units_Z 34
_cell_length_a 8.432249
_cell_length_b 8.432249
_cell_length_c 20.079705
_cell_angle_alpha 90.000000
_cell_angle_beta 90.000000
_cell_angle_gamma 90.000000
_cell_volume 1427.723714
_symmetry_space_group_name_H-M "P -4 21 C"
_symmetry_group_IT_number 114
_symmetry_cell_setting 'tetragonal'
loop_
_space_group_symop_operation_xyz
x,y,z
y,-x,-z
-x,-y,z
-y,x,-z
1/2+x,1/2-y,1/2-z
1/2-x,1/2+y,1/2-z
1/2-y,1/2-x,1/2+z
1/2+y,1/2+x,1/2+z
loop_
_atom_site_type_symbol
_atom_site_label
_atom_site_fract_x
_atom_site_fract_y
_atom_site_fract_z
Si Si1 0.500000 0.500000 0.500000
Si Si2 0.338964 0.101287 0.032959
Si Si3 0.500294 0.318250 0.289408
Si Si4 0.896804 0.341063 0.611993
Si Si5 0.324429 0.315674 0.159217
O O1 0.667198 0.488406 0.458459
O O2 0.358394 0.223361 0.092154
O O3 0.500000 0.000000 0.035383
O O4 0.330460 0.193015 0.962068
O O5 0.500000 0.500000 0.309073
O O6 0.363668 0.244519 0.335826
O O7 0.466359 0.291885 0.211144
O O8 0.667334 0.239435 0.303220
O O9 0.000000 0.500000 0.608292
O O10 0.000192 0.193565 0.638522
#
# Coordination Sequence:
#
# PCOD8309100 Si02
#       5
#     2   8   8   8   8
#     4  12  24  48  84 120 156 220 276 322 432 488
#     4  11  25  45  76 122 156 207 269 336 399 493
#     4  11  24  45  72 103 147 201 258 320 399 485
#     4   9  21  44  66 100 152 191 252 325 391 472
#     4  11  25  47  70 111 152 204 255 335 406 484
#
# _framework density 23.814131
#
# number of rings (size 3 to 8) (size 9 to 14) (size 15 to 20)
#    0.000    1.412    0.000    5.647    6.588    4.706 
#   12.706    0.000    0.000    0.000    0.000    0.000 
#    0.000    0.000    0.000    0.000    0.000    0.000 
#
# Total GULP energy -421424.471799 kJ/mol
# GULP energy per Si atom -12394.837406 kJ/mol
# Density = 2.375993 g / cm^3
# Si number density = 23.814131 Si / 1000 Ang^3
#
#
#
# Elastic Constant Matrix: (Units=GPa)
#
#
# Indices 1 2 3 4 5 6 
#
# 1 112.6722 28.1994 50.2525 0.0000 0.0000 0.0000
# 2 28.1994 112.6722 50.2525 0.0000 0.0000 0.0000
# 3 50.2525 50.2525 191.7222 0.0000 0.0000 0.0000
# 4 0.0000 0.0000 0.0000 -169.1162 0.0000 0.0000
# 5 0.0000 0.0000 0.0000 0.0000 -169.1162 0.0000
# 6 0.0000 0.0000 0.0000 0.0000 0.0000 22.9885
#
#
#
# Elastic Compliance Matrix: (Units=1/GPa)
#
#
# Indices 1 2 3 4 5 6 
#
# 1 0.010285 -0.001553 -0.002289 0.000000 0.000000 0.000000
# 2 -0.001553 0.010285 -0.002289 0.000000 0.000000 0.000000
# 3 -0.002289 -0.002289 0.006416 0.000000 0.000000 0.000000
# 4 0.000000 0.000000 0.000000 -0.005913 0.000000 0.000000
# 5 0.000000 0.000000 0.000000 0.000000 -0.005913 0.000000
# 6 0.000000 0.000000 0.000000 0.000000 0.000000 0.043500
#
#
# Mechanical properties :
#
#
# Convention : Reuss Voigt Hill
#
# Bulk Modulus (GPa) = 67.91581 74.94172 71.42877
# Shear Modulus (GPa) = 65.93849 -43.82462 11.05693
#
# Velocity S-wave (km/s) = 5.26772 -4.29450 2.15710
# Velocity P-wave (km/s) = 8.09812 2.63580 6.02192
#
# Compressibility (1/GPa) = 0.01472411
#
# Stress axis : x y z
#
# Youngs Moduli (GPa) = 97.23087 97.23087 155.86951
#
# Poissons Ratio (x) = 0.15103 0.35673
# Poissons Ratio (y) = 0.15103 0.35673
# Poissons Ratio (z) = 0.22252 0.22252
#
# Static dielectric constant tensor:
#      x y z
#    x 4.555700 0.000000 0.000000 
#    y 0.000000 4.555700 0.000000 
#    z 0.000000 0.000000 4.561360 
# 
# 
# High freq. dielectric constant tensor:
#      x y z
#    x 1.940280 0.000000 0.000000 
#    y 0.000000 1.940280 0.000000 
#    z 0.000000 0.000000 1.959800 
# 
# From -- ./inp_files/2928.got.cif
#   From: 2010.03.12/outbox.cif.g09.slc.cpg/sg114_2_cif.got.tgz:2928.got - 2010.04.14 02:08:34.
