data_PCOD8309841
_publ_section_title
;
Structure prediction by ZEFSAII (Michael W. Deem and Ramdas Pophale) SiO2 
 PCOD8309841
Probable space group: P -4 M 2
;
_chemical_formula_sum "Si O2"
_cell_formula_units_Z 40
_cell_length_a 9.387749
_cell_length_b 9.387749
_cell_length_c 25.098782
_cell_angle_alpha 90.000000
_cell_angle_beta 90.000000
_cell_angle_gamma 90.000000
_cell_volume 2211.951423
_symmetry_space_group_name_H-M "P -4 M 2"
_symmetry_group_IT_number 115
_symmetry_cell_setting 'tetragonal'
loop_
_space_group_symop_operation_xyz
x,y,z
y,-x,-z
-x,-y,z
-y,x,-z
y,x,-z
-y,-x,-z
-x,y,z
x,-y,z
loop_
_atom_site_type_symbol
_atom_site_label
_atom_site_fract_x
_atom_site_fract_y
_atom_site_fract_z
Si Si1 0.164696 0.337325 0.542589
Si Si2 0.834561 0.666646 0.250055
Si Si3 0.161404 0.835004 0.061764
Si Si4 0.664434 0.667010 0.146062
Si Si5 0.337038 0.167519 0.336784
O O1 0.244061 0.244061 0.500000
O O2 0.197504 0.500000 0.529084
O O3 0.214101 0.302894 0.602717
O O4 0.000000 0.302364 0.537041
O O5 0.810872 0.500000 0.259784
O O6 0.751287 0.718716 0.197671
O O7 0.772943 0.748730 0.300414
O O8 0.000000 0.704852 0.242917
O O9 0.274236 0.744138 0.094461
O O10 0.000000 0.787444 0.075614
O O11 0.181979 0.000000 0.075881
O O12 0.192997 0.807004 0.000000
O O13 0.500000 0.709412 0.153864
O O14 0.683430 0.500000 0.136981
O O15 0.500000 0.207844 0.322280
O O16 0.313587 0.000000 0.329163
#
# Coordination Sequence:
#
# PCOD8309841 Si02
#       5
#     8   8   8   8   8
#     4   9  19  35  53  75 104 136 171 211 254 303
#     4  10  21  36  54  77 104 135 172 213 258 307
#     4   9  19  36  56  78 105 137 173 212 254 302
#     4  10  21  36  54  77 105 137 173 212 255 305
#     4   9  19  36  55  75 102 136 172 211 256 305
#
# _framework density 18.083579
#
# number of rings (size 3 to 8) (size 9 to 14) (size 15 to 20)
#    0.000    2.600    0.000    3.000    0.000    6.800 
#    0.000    9.000    0.000    0.000    0.000    0.000 
#    0.000    0.000    0.000    0.000    0.000    0.000 
#
# Total GULP energy -496058.479964 kJ/mol
# GULP energy per Si atom -12401.461999 kJ/mol
# Density = 1.804242 g / cm^3
# Si number density = 18.083579 Si / 1000 Ang^3
#
#
#
# Elastic Constant Matrix: (Units=GPa)
#
#
# Indices 1 2 3 4 5 6 
#
# 1 88.4005 54.7943 66.6936 0.0000 0.0000 0.0000
# 2 54.7943 88.4006 66.6937 0.0000 0.0000 0.0000
# 3 66.6936 66.6937 115.4010 0.0000 0.0000 0.0000
# 4 0.0000 0.0000 0.0000 40.5994 0.0000 0.0000
# 5 0.0000 0.0000 0.0000 0.0000 40.5993 0.0000
# 6 0.0000 0.0000 0.0000 0.0000 0.0000 36.1108
#
#
#
# Elastic Compliance Matrix: (Units=1/GPa)
#
#
# Indices 1 2 3 4 5 6 
#
# 1 0.022442 -0.007315 -0.008742 0.000000 0.000000 0.000000
# 2 -0.007315 0.022442 -0.008742 0.000000 0.000000 0.000000
# 3 -0.008742 -0.008742 0.018770 0.000000 0.000000 0.000000
# 4 0.000000 0.000000 0.000000 0.024631 0.000000 0.000000
# 5 0.000000 0.000000 0.000000 0.000000 0.024631 0.000000
# 6 0.000000 0.000000 0.000000 0.000000 0.000000 0.027693
#
#
# Mechanical properties :
#
#
# Convention : Reuss Voigt Hill
#
# Bulk Modulus (GPa) = 71.14889 74.28505 72.71697
# Shear Modulus (GPa) = 25.65518 30.39659 28.02588
#
# Velocity S-wave (km/s) = 3.77065 4.10432 3.94102
# Velocity P-wave (km/s) = 7.64114 7.97675 7.81074
#
# Compressibility (1/GPa) = 0.01405503
#
# Stress axis : x y z
#
# Youngs Moduli (GPa) = 44.55973 44.55980 53.27522
#
# Poissons Ratio (x) = 0.32594 0.46575
# Poissons Ratio (y) = 0.32594 0.46575
# Poissons Ratio (z) = 0.38956 0.38956
#
# Static dielectric constant tensor:
#      x y z
#    x 3.270080 0.000000 0.000000 
#    y 0.000000 3.270080 0.000000 
#    z 0.000000 0.000000 3.335170 
# 
# 
# High freq. dielectric constant tensor:
#      x y z
#    x 1.699330 0.000000 0.000000 
#    y 0.000000 1.699330 0.000000 
#    z 0.000000 0.000000 1.708870 
# 
# From -- ./inp_files/5073.got.cif
#   From: 2010.03.12/outbox.cif.g09.slc.cpg/sg115_3_cif.got.tgz:5073.got - 2010.04.14 02:11:21.
