data_PCOD8309809
_publ_section_title
;
Structure prediction by ZEFSAII (Michael W. Deem and Ramdas Pophale) SiO2 
 PCOD8309809
Probable space group: P -4 M 2
;
_chemical_formula_sum "Si O2"
_cell_formula_units_Z 44
_cell_length_a 9.321380
_cell_length_b 9.321380
_cell_length_c 28.201560
_cell_angle_alpha 90.000000
_cell_angle_beta 90.000000
_cell_angle_gamma 90.000000
_cell_volume 2450.380673
_symmetry_space_group_name_H-M "P -4 M 2"
_symmetry_group_IT_number 115
_symmetry_cell_setting 'tetragonal'
loop_
_space_group_symop_operation_xyz
x,y,z
y,-x,-z
-x,-y,z
-y,x,-z
y,x,-z
-y,-x,-z
-x,y,z
x,-y,z
loop_
_atom_site_type_symbol
_atom_site_label
_atom_site_fract_x
_atom_site_fract_y
_atom_site_fract_z
Si Si1 0.335718 0.664283 0.500000
Si Si2 0.666554 0.831559 0.674276
Si Si3 0.670620 0.158987 0.143283
Si Si4 0.829783 0.661777 0.961021
Si Si5 0.168480 0.665384 0.594040
Si Si6 0.332462 0.335324 0.767344
O O1 0.500000 0.689085 0.515850
O O2 0.233509 0.706537 0.543255
O O3 0.500000 0.796338 0.664469
O O4 0.760749 0.767679 0.632444
O O5 0.718540 0.758982 0.723001
O O6 0.694466 0.000000 0.677927
O O7 0.500000 0.153497 0.143860
O O8 0.717444 0.217498 0.091413
O O9 0.728229 0.259579 0.185320
O O10 0.733399 0.000000 0.151853
O O11 0.774181 0.500000 0.969672
O O12 0.000000 0.666798 0.964585
O O13 0.764902 0.764902 0.000000
O O14 0.203288 0.500000 0.606518
O O15 0.000000 0.694663 0.592513
O O16 0.500000 0.321165 0.775767
O O17 0.287128 0.500000 0.757765
#
# Coordination Sequence:
#
# PCOD8309809 Si02
#       6
#     4   8   8   8   8   8
#     4   9  18  34  56  79 104 136 172 209 248 293
#     4  10  21  36  53  74 103 138 171 205 249 298
#     4   8  15  29  48  69  94 124 159 201 247 294
#     4   9  18  32  49  71  99 130 165 204 247 296
#     4  10  21  36  55  80 107 135 170 210 250 295
#     4   9  17  30  50  74  97 124 162 206 249 295
#
# _framework density 17.956392000000001
#
# number of rings (size 3 to 8) (size 9 to 14) (size 15 to 20)
#    0.000    2.818    0.000    2.182    0.000    4.727 
#    0.000    6.364    0.000    3.273    0.000    0.000 
#    0.000    0.000    0.000    0.000    0.000    0.000 
#
# Total GULP energy -545552.529519 kJ/mol
# GULP energy per Si atom -12398.921125 kJ/mol
# Density = 1.791552 g / cm^3
# Si number density = 17.956392 Si / 1000 Ang^3
#
#
#
# Elastic Constant Matrix: (Units=GPa)
#
#
# Indices 1 2 3 4 5 6 
#
# 1 64.9721 40.3801 69.7427 0.0000 0.0000 0.0000
# 2 40.3801 64.9718 69.7429 0.0000 0.0000 0.0000
# 3 69.7427 69.7429 167.9161 0.0000 0.0000 0.0000
# 4 0.0000 0.0000 0.0000 -8.9117 0.0000 0.0000
# 5 0.0000 0.0000 0.0000 0.0000 -8.9128 0.0000
# 6 0.0000 0.0000 0.0000 0.0000 0.0000 22.4866
#
#
#
# Elastic Compliance Matrix: (Units=1/GPa)
#
#
# Indices 1 2 3 4 5 6 
#
# 1 0.030876 -0.009787 -0.008759 0.000000 0.000000 0.000000
# 2 -0.009787 0.030877 -0.008759 0.000000 0.000000 0.000000
# 3 -0.008759 -0.008759 0.013232 0.000000 0.000000 0.000000
# 4 0.000000 0.000000 0.000000 -0.112212 0.000000 0.000000
# 5 0.000000 0.000000 0.000000 0.000000 -0.112199 0.000000
# 6 0.000000 0.000000 0.000000 0.000000 0.000000 0.044471
#
#
# Mechanical properties :
#
#
# Convention : Reuss Voigt Hill
#
# Bulk Modulus (GPa) = 49.08477 73.06572 61.07525
# Shear Modulus (GPa) = -114.80493 8.79871 -53.00311
#
# Velocity S-wave (km/s) = -8.00464 2.21601 -5.43891
# Velocity P-wave (km/s) = 7.61823 6.87943 2.31418
#
# Compressibility (1/GPa) = 0.02037292
#
# Stress axis : x y z
#
# Youngs Moduli (GPa) = 32.38720 32.38682 75.57700
#
# Poissons Ratio (x) = 0.31698 0.66199
# Poissons Ratio (y) = 0.31699 0.66200
# Poissons Ratio (z) = 0.28368 0.28369
#
# Static dielectric constant tensor:
#      x y z
#    x 3.262810 0.000000 0.000000 
#    y 0.000000 3.262820 0.000000 
#    z 0.000000 0.000000 3.554920 
# 
# 
# High freq. dielectric constant tensor:
#      x y z
#    x 1.679920 0.000000 0.000000 
#    y 0.000000 1.679920 0.000000 
#    z 0.000000 0.000000 1.708610 
# 
# From -- ./inp_files/5812.got.cif
#   From: 2010.03.12/outbox.cif.g09.slc.cpg/sg115_3_cif.got.tgz:5812.got - 2010.04.14 02:11:21.
