data_PCOD8309737
_publ_section_title
;
Structure prediction by ZEFSAII (Michael W. Deem and Ramdas Pophale) SiO2 
 PCOD8309737
Probable space group: P -4 M 2
;
_chemical_formula_sum "Si O2"
_cell_formula_units_Z 48
_cell_length_a 9.550716
_cell_length_b 9.550716
_cell_length_c 30.305747
_cell_angle_alpha 90.000000
_cell_angle_beta 90.000000
_cell_angle_gamma 90.000000
_cell_volume 2764.374356
_symmetry_space_group_name_H-M "P -4 M 2"
_symmetry_group_IT_number 115
_symmetry_cell_setting 'tetragonal'
loop_
_space_group_symop_operation_xyz
x,y,z
y,-x,-z
-x,-y,z
-y,x,-z
y,x,-z
-y,-x,-z
-x,y,z
x,-y,z
loop_
_atom_site_type_symbol
_atom_site_label
_atom_site_fract_x
_atom_site_fract_y
_atom_site_fract_z
Si Si1 0.339704 0.339891 0.116285
Si Si2 0.163065 0.161353 0.049422
Si Si3 0.666552 0.344253 0.451842
Si Si4 0.340326 0.336571 0.217879
Si Si5 0.661698 0.162949 0.370414
Si Si6 0.163144 0.163886 0.285417
O O1 0.500000 0.313753 0.103352
O O2 0.297967 0.500000 0.108508
O O3 0.244717 0.247363 0.085482
O O4 0.314184 0.298955 0.166978
O O5 0.000000 0.188904 0.056391
O O6 0.199967 0.000000 0.056584
O O7 0.207476 0.207476 0.000000
O O8 0.714181 0.285820 0.500000
O O9 0.500000 0.350177 0.452130
O O10 0.727288 0.500000 0.443239
O O11 0.720490 0.242844 0.413323
O O12 0.500000 0.297681 0.231126
O O13 0.313763 0.500000 0.226752
O O14 0.229392 0.246933 0.244944
O O15 0.500000 0.201595 0.360179
O O16 0.756526 0.210837 0.329566
O O17 0.678752 0.000000 0.380307
O O18 0.000000 0.202391 0.290058
O O19 0.184815 0.000000 0.276480
#
# Coordination Sequence:
#
# PCOD8309737 Si02
#       6
#     8   8   8   8   8   8
#     4   9  19  35  53  75 102 129 160 201 247 293
#     4   9  19  35  52  72 101 135 169 204 241 284
#     4   8  14  26  45  68  92 118 151 192 236 282
#     4   9  19  36  55  74  98 128 162 201 245 293
#     4   9  17  30  48  68  91 122 159 196 235 282
#     4  10  21  35  50  71 100 131 163 201 244 290
#
# _framework density 17.363786000000001
#
# number of rings (size 3 to 8) (size 9 to 14) (size 15 to 20)
#    0.000    3.000    0.000    2.500    0.000    4.667 
#    0.000   10.000    0.000    1.000    0.000    0.000 
#    0.000    0.000    0.000    0.000    0.000    0.000 
#
# Total GULP energy -595109.533457 kJ/mol
# GULP energy per Si atom -12398.115280 kJ/mol
# Density = 1.732427 g / cm^3
# Si number density = 17.363786 Si / 1000 Ang^3
#
#
#
# Elastic Constant Matrix: (Units=GPa)
#
#
# Indices 1 2 3 4 5 6 
#
# 1 73.4320 46.4867 68.4355 0.0000 0.0000 0.0000
# 2 46.4867 73.4321 68.4355 0.0000 0.0000 0.0000
# 3 68.4355 68.4355 131.8230 0.0000 0.0000 0.0000
# 4 0.0000 0.0000 0.0000 80.4832 0.0000 0.0000
# 5 0.0000 0.0000 0.0000 0.0000 80.4848 0.0000
# 6 0.0000 0.0000 0.0000 0.0000 0.0000 28.7870
#
#
#
# Elastic Compliance Matrix: (Units=1/GPa)
#
#
# Indices 1 2 3 4 5 6 
#
# 1 0.028789 -0.008323 -0.010625 0.000000 0.000000 0.000000
# 2 -0.008323 0.028789 -0.010625 0.000000 0.000000 0.000000
# 3 -0.010625 -0.010625 0.018617 0.000000 0.000000 0.000000
# 4 0.000000 0.000000 0.000000 0.012425 0.000000 0.000000
# 5 0.000000 0.000000 0.000000 0.000000 0.012425 0.000000
# 6 0.000000 0.000000 0.000000 0.000000 0.000000 0.034738
#
#
# Mechanical properties :
#
#
# Convention : Reuss Voigt Hill
#
# Bulk Modulus (GPa) = 58.65101 71.71138 65.18119
# Shear Modulus (GPa) = 24.92386 44.30631 34.61509
#
# Velocity S-wave (km/s) = 3.79277 5.05687 4.46973
# Velocity P-wave (km/s) = 7.28225 8.68821 8.01611
#
# Compressibility (1/GPa) = 0.01705000
#
# Stress axis : x y z
#
# Youngs Moduli (GPa) = 34.73564 34.73574 53.71326
#
# Poissons Ratio (x) = 0.28912 0.57068
# Poissons Ratio (y) = 0.28912 0.57068
# Poissons Ratio (z) = 0.36905 0.36905
#
# Static dielectric constant tensor:
#      x y z
#    x 3.120110 0.000000 0.000000 
#    y 0.000000 3.120110 0.000000 
#    z 0.000000 0.000000 3.354600 
# 
# 
# High freq. dielectric constant tensor:
#      x y z
#    x 1.659230 0.000000 0.000000 
#    y 0.000000 1.659230 0.000000 
#    z 0.000000 0.000000 1.680720 
# 
# From -- ./inp_files/5946.got.cif
#   From: 2010.03.12/outbox.cif.g09.slc.cpg/sg115_3_cif.got.tgz:5946.got - 2010.04.14 02:11:21.
