data_PCOD8309177
_publ_section_title
;
Structure prediction by ZEFSAII (Michael W. Deem and Ramdas Pophale) SiO2 
 PCOD8309177
Probable space group: P -4 M 2
;
_chemical_formula_sum "Si O2"
_cell_formula_units_Z 48
_cell_length_a 13.687373
_cell_length_b 13.687373
_cell_length_c 16.192012
_cell_angle_alpha 90.000000
_cell_angle_beta 90.000000
_cell_angle_gamma 90.000000
_cell_volume 3033.479205
_symmetry_space_group_name_H-M "P -4 M 2"
_symmetry_group_IT_number 115
_symmetry_cell_setting 'tetragonal'
loop_
_space_group_symop_operation_xyz
x,y,z
y,-x,-z
-x,-y,z
-y,x,-z
y,x,-z
-y,-x,-z
-x,y,z
x,-y,z
loop_
_atom_site_type_symbol
_atom_site_label
_atom_site_fract_x
_atom_site_fract_y
_atom_site_fract_z
Si Si1 0.893504 0.614821 0.834158
Si Si2 0.213623 0.387896 0.676254
Si Si3 0.771767 0.386707 0.494595
Si Si4 0.708522 0.388080 0.246404
Si Si5 0.615898 0.696065 0.085065
Si Si6 0.107127 0.386405 0.340173
O O1 0.906099 0.500000 0.826119
O O2 0.859136 0.658455 0.745041
O O3 0.811695 0.638443 0.903543
O O4 0.000000 0.660568 0.857448
O O5 0.226274 0.500000 0.699909
O O6 0.173475 0.373454 0.583436
O O7 0.322040 0.343617 0.684890
O O8 0.670283 0.329718 0.500000
O O9 0.746699 0.500000 0.478170
O O10 0.841555 0.343196 0.422978
O O11 0.683118 0.500000 0.266794
O O12 0.673342 0.363829 0.154708
O O13 0.825307 0.369200 0.259042
O O14 0.500000 0.674447 0.090177
O O15 0.659889 0.659889 0.000000
O O16 0.092179 0.500000 0.356328
O O17 0.000000 0.337421 0.326741
#
# Coordination Sequence:
#
# PCOD8309177 Si02
#       6
#     8   8   8   8   8   8
#     4   8  15  29  46  64  89 119 150 187 227 260
#     4   9  17  26  41  65  90 118 152 187 222 265
#     4  10  18  28  41  62  93 125 155 188 224 266
#     4  10  18  29  44  62  89 124 155 187 221 264
#     4  10  20  32  47  70  97 124 151 183 222 272
#     4   9  18  31  44  59  85 123 161 194 228 265
#
# _framework density 15.823415000000001
#
# number of rings (size 3 to 8) (size 9 to 14) (size 15 to 20)
#    0.000    2.667    1.667    2.000    0.000    3.000 
#    0.000    5.833    0.000    4.000    0.000    0.000 
#    0.000   22.000    0.000    0.000    0.000    0.000 
#
# Total GULP energy -594632.506468 kJ/mol
# GULP energy per Si atom -12388.177218 kJ/mol
# Density = 1.578740 g / cm^3
# Si number density = 15.823415 Si / 1000 Ang^3
#
#
#
# Elastic Constant Matrix: (Units=GPa)
#
#
# Indices 1 2 3 4 5 6 
#
# 1 85.1220 31.7423 43.9039 0.0000 0.0000 0.0000
# 2 31.7423 85.1207 43.9050 0.0000 0.0000 0.0000
# 3 43.9039 43.9050 107.0206 0.0000 0.0000 0.0000
# 4 0.0000 0.0000 0.0000 15.2794 0.0000 0.0000
# 5 0.0000 0.0000 0.0000 0.0000 15.2796 0.0000
# 6 0.0000 0.0000 0.0000 0.0000 0.0000 2.3013
#
#
#
# Elastic Compliance Matrix: (Units=1/GPa)
#
#
# Indices 1 2 3 4 5 6 
#
# 1 0.015552 -0.003182 -0.005075 0.000000 0.000000 0.000000
# 2 -0.003182 0.015552 -0.005075 0.000000 0.000000 0.000000
# 3 -0.005075 -0.005075 0.013508 0.000000 0.000000 0.000000
# 4 0.000000 0.000000 0.000000 0.065447 0.000000 0.000000
# 5 0.000000 0.000000 0.000000 0.000000 0.065447 0.000000
# 6 0.000000 0.000000 0.000000 0.000000 0.000000 0.434542
#
#
# Mechanical properties :
#
#
# Convention : Reuss Voigt Hill
#
# Bulk Modulus (GPa) = 55.71373 57.37399 56.54386
# Shear Modulus (GPa) = 7.77976 17.08621 12.43298
#
# Velocity S-wave (km/s) = 2.21975 3.28960 2.80613
# Velocity P-wave (km/s) = 6.46961 7.12505 6.80522
#
# Compressibility (1/GPa) = 0.01794890
#
# Stress axis : x y z
#
# Youngs Moduli (GPa) = 64.30155 64.29948 74.03170
#
# Poissons Ratio (x) = 0.20460 0.37568
# Poissons Ratio (y) = 0.20461 0.37570
# Poissons Ratio (z) = 0.32630 0.32631
#
# Static dielectric constant tensor:
#      x y z
#    x 3.060790 0.000000 0.000000 
#    y 0.000000 3.060790 0.000000 
#    z 0.000000 0.000000 3.107400 
# 
# 
# High freq. dielectric constant tensor:
#      x y z
#    x 1.580520 0.000000 0.000000 
#    y 0.000000 1.580520 0.000000 
#    z 0.000000 0.000000 1.611040 
# 
# From -- ./inp_files/3739.got.cif
#   From: 2010.03.12/outbox.cif.g09.slc.cpg/sg115_2_cif.got.tgz:3739.got - 2010.04.14 02:11:21.
