data_PCOD8309411
_publ_section_title
;
Structure prediction by ZEFSAII (Michael W. Deem and Ramdas Pophale) SiO2 
 PCOD8309411
Probable space group: P -4 M 2
;
_chemical_formula_sum "Si O2"
_cell_formula_units_Z 40
_cell_length_a 9.341856
_cell_length_b 9.341856
_cell_length_c 26.113246
_cell_angle_alpha 90.000000
_cell_angle_beta 90.000000
_cell_angle_gamma 90.000000
_cell_volume 2278.910121
_symmetry_space_group_name_H-M "P -4 M 2"
_symmetry_group_IT_number 115
_symmetry_cell_setting 'tetragonal'
loop_
_space_group_symop_operation_xyz
x,y,z
y,-x,-z
-x,-y,z
-y,x,-z
y,x,-z
-y,-x,-z
-x,y,z
x,-y,z
loop_
_atom_site_type_symbol
_atom_site_label
_atom_site_fract_x
_atom_site_fract_y
_atom_site_fract_z
Si Si1 0.841462 0.670479 0.149074
Si Si2 0.671136 0.340871 0.944254
Si Si3 0.166700 0.331263 0.456311
Si Si4 0.839242 0.830226 0.644054
Si Si5 0.339748 0.171103 0.738858
O O1 0.846108 0.500000 0.145579
O O2 0.750573 0.736146 0.102410
O O3 0.776310 0.712639 0.204818
O O4 0.000000 0.734635 0.143380
O O5 0.500000 0.341973 0.943087
O O6 0.731519 0.500000 0.936645
O O7 0.720133 0.279868 0.000000
O O8 0.264615 0.264615 0.500000
O O9 0.194755 0.500000 0.451966
O O10 0.216839 0.257306 0.403766
O O11 0.000000 0.298792 0.468015
O O12 0.767425 0.767914 0.695757
O O13 0.000000 0.767696 0.638397
O O14 0.844851 0.000000 0.647444
O O15 0.500000 0.227946 0.727081
O O16 0.342338 0.000000 0.738765
#
# Coordination Sequence:
#
# PCOD8309411 Si02
#       5
#     8   8   8   8   8
#     4   8  13  21  35  55  77 102 134 171 208 248
#     4   8  13  21  34  53  76 101 131 169 210 249
#     4  10  20  33  50  72  97 124 153 187 227 269
#     4   9  16  26  43  67  92 117 147 183 220 260
#     4   8  13  22  37  58  83 109 139 176 215 254
#
# _framework density 17.552250999999998
#
# number of rings (size 3 to 8) (size 9 to 14) (size 15 to 20)
#    0.000    3.400    0.000    3.000    0.000    3.600 
#    0.000    0.000    0.000    2.400    0.000    2.800 
#    0.000    0.000    0.000    0.000    0.000    0.000 
#
# Total GULP energy -495654.934409 kJ/mol
# GULP energy per Si atom -12391.373360 kJ/mol
# Density = 1.751230 g / cm^3
# Si number density = 17.552251 Si / 1000 Ang^3
#
#
#
# Elastic Constant Matrix: (Units=GPa)
#
#
# Indices 1 2 3 4 5 6 
#
# 1 60.2227 25.1523 59.8943 0.0000 0.0000 0.0000
# 2 25.1523 60.2228 59.8943 0.0000 0.0000 0.0000
# 3 59.8943 59.8943 194.5158 0.0000 0.0000 0.0000
# 4 0.0000 0.0000 0.0000 26.1009 0.0000 0.0000
# 5 0.0000 0.0000 0.0000 0.0000 26.1009 0.0000
# 6 0.0000 0.0000 0.0000 0.0000 0.0000 10.6848
#
#
#
# Elastic Compliance Matrix: (Units=1/GPa)
#
#
# Indices 1 2 3 4 5 6 
#
# 1 0.024568 -0.003946 -0.006350 0.000000 0.000000 0.000000
# 2 -0.003946 0.024568 -0.006350 0.000000 0.000000 0.000000
# 3 -0.006350 -0.006350 0.009051 0.000000 0.000000 0.000000
# 4 0.000000 0.000000 0.000000 0.038313 0.000000 0.000000
# 5 0.000000 0.000000 0.000000 0.000000 0.038313 0.000000
# 6 0.000000 0.000000 0.000000 0.000000 0.000000 0.093591
#
#
# Mechanical properties :
#
#
# Convention : Reuss Voigt Hill
#
# Bulk Modulus (GPa) = 40.16595 67.20478 53.68537
# Shear Modulus (GPa) = 18.51887 23.91201 21.21544
#
# Velocity S-wave (km/s) = 3.25171 3.69498 3.48041
# Velocity P-wave (km/s) = 6.08535 7.52166 6.84130
#
# Compressibility (1/GPa) = 0.02489671
#
# Stress axis : x y z
#
# Youngs Moduli (GPa) = 40.70271 40.70284 110.47896
#
# Poissons Ratio (x) = 0.16060 0.70154
# Poissons Ratio (y) = 0.16060 0.70154
# Poissons Ratio (z) = 0.25846 0.25846
#
# Static dielectric constant tensor:
#      x y z
#    x 2.991590 0.000000 0.000000 
#    y 0.000000 2.991590 0.000000 
#    z 0.000000 0.000000 3.710980 
# 
# 
# High freq. dielectric constant tensor:
#      x y z
#    x 1.631050 0.000000 0.000000 
#    y 0.000000 1.631050 0.000000 
#    z 0.000000 0.000000 1.701760 
# 
# From -- ./inp_files/5471.got.cif
#   From: 2010.03.12/outbox.cif.g09.slc.cpg/sg115_3_cif.got.tgz:5471.got - 2010.04.14 02:11:21.
