data_PCOD8309694
_publ_section_title
;
Structure prediction by ZEFSAII (Michael W. Deem and Ramdas Pophale) SiO2 
 PCOD8309694
Probable space group: P -4 M 2
;
_chemical_formula_sum "Si O2"
_cell_formula_units_Z 29
_cell_length_a 8.314115
_cell_length_b 8.314115
_cell_length_c 21.219156
_cell_angle_alpha 90.000000
_cell_angle_beta 90.000000
_cell_angle_gamma 90.000000
_cell_volume 1466.763724
_symmetry_space_group_name_H-M "P -4 M 2"
_symmetry_group_IT_number 115
_symmetry_cell_setting 'tetragonal'
loop_
_space_group_symop_operation_xyz
x,y,z
y,-x,-z
-x,-y,z
-y,x,-z
y,x,-z
-y,-x,-z
-x,y,z
x,-y,z
loop_
_atom_site_type_symbol
_atom_site_label
_atom_site_fract_x
_atom_site_fract_y
_atom_site_fract_z
Si Si1 0.324772 0.500000 0.878742
Si Si2 0.688924 0.177544 0.436882
Si Si3 0.500000 0.500000 0.000000
Si Si4 0.813716 0.178968 0.818557
Si Si5 0.686569 0.686837 0.693956
O O1 0.500000 0.500000 0.845461
O O2 0.245216 0.668720 0.859368
O O3 0.341899 0.500000 0.955077
O O4 0.728067 0.271934 0.500000
O O5 0.500000 0.166529 0.430874
O O6 0.754760 0.269386 0.375263
O O7 0.765953 0.000000 0.439532
O O8 0.782308 0.210243 0.745028
O O9 0.000000 0.168941 0.831235
O O10 0.740456 0.000000 0.836476
O O11 0.500000 0.713378 0.705640
O O12 0.735168 0.500000 0.701526
#
# Coordination Sequence:
#
# PCOD8309694 Si02
#       5
#     4   8   1   8   8
#     4  10  21  43  68  96 129 168 215 258 304 369
#     4  10  21  36  54  76 108 153 202 257 320 382
#     4   8  24  44  72 100 128 172 218 240 308 356
#     4  11  23  38  62  97 135 173 212 264 326 382
#     4  10  20  35  58  87 116 155 208 265 322 382
#
# _framework density 19.771418000000001
#
# number of rings (size 3 to 8) (size 9 to 14) (size 15 to 20)
#    0.414    1.379    1.379    2.897    0.000    6.069 
#    0.000    2.759    0.000    1.655    0.000    0.000 
#    0.000    0.000    0.000    0.000    0.000    0.000 
#
# Total GULP energy -359345.315794 kJ/mol
# GULP energy per Si atom -12391.217786 kJ/mol
# Density = 1.972642 g / cm^3
# Si number density = 19.771418 Si / 1000 Ang^3
#
#
#
# Elastic Constant Matrix: (Units=GPa)
#
#
# Indices 1 2 3 4 5 6 
#
# 1 90.9653 46.0259 41.6850 0.0000 0.0000 0.0000
# 2 46.0259 90.9634 41.6848 0.0000 0.0000 0.0000
# 3 41.6850 41.6848 138.4343 0.0000 0.0000 0.0000
# 4 0.0000 0.0000 0.0000 1.1752 0.0000 0.0000
# 5 0.0000 0.0000 0.0000 0.0000 1.1753 0.0000
# 6 0.0000 0.0000 0.0000 0.0000 0.0000 22.8822
#
#
#
# Elastic Compliance Matrix: (Units=1/GPa)
#
#
# Indices 1 2 3 4 5 6 
#
# 1 0.015595 -0.006658 -0.002691 0.000000 0.000000 0.000000
# 2 -0.006658 0.015595 -0.002691 0.000000 0.000000 0.000000
# 3 -0.002691 -0.002691 0.008844 0.000000 0.000000 0.000000
# 4 0.000000 0.000000 0.000000 0.850925 0.000000 0.000000
# 5 0.000000 0.000000 0.000000 0.000000 0.850873 0.000000
# 6 0.000000 0.000000 0.000000 0.000000 0.000000 0.043702
#
#
# Mechanical properties :
#
#
# Convention : Reuss Voigt Hill
#
# Bulk Modulus (GPa) = 62.67780 64.35050 63.51415
# Shear Modulus (GPa) = 2.75492 17.77769 10.26630
#
# Velocity S-wave (km/s) = 1.18170 3.00185 2.28118
# Velocity P-wave (km/s) = 5.79930 6.68077 6.25558
#
# Compressibility (1/GPa) = 0.01595461
#
# Stress axis : x y z
#
# Youngs Moduli (GPa) = 64.12318 64.12168 113.06560
#
# Poissons Ratio (x) = 0.42689 0.30429
# Poissons Ratio (y) = 0.42690 0.30430
# Poissons Ratio (z) = 0.17257 0.17257
#
# Static dielectric constant tensor:
#      x y z
#    x 3.870240 0.000000 0.000000 
#    y 0.000000 3.870240 0.000000 
#    z 0.000000 0.000000 3.523740 
# 
# 
# High freq. dielectric constant tensor:
#      x y z
#    x 1.769690 0.000000 0.000000 
#    y 0.000000 1.769690 0.000000 
#    z 0.000000 0.000000 1.760890 
# 
# From -- ./inp_files/4607.got.cif
#   From: 2010.03.12/outbox.cif.g09.slc.cpg/sg115_3_cif.got.tgz:4607.got - 2010.04.14 02:11:21.
