data_PCOD8309855
_publ_section_title
;
Structure prediction by ZEFSAII (Michael W. Deem and Ramdas Pophale) SiO2 
 PCOD8309855
Probable space group: P -4 M 2
;
_chemical_formula_sum "Si O2"
_cell_formula_units_Z 48
_cell_length_a 9.160142
_cell_length_b 9.160142
_cell_length_c 30.727190
_cell_angle_alpha 90.000000
_cell_angle_beta 90.000000
_cell_angle_gamma 90.000000
_cell_volume 2578.263249
_symmetry_space_group_name_H-M "P -4 M 2"
_symmetry_group_IT_number 115
_symmetry_cell_setting 'tetragonal'
loop_
_space_group_symop_operation_xyz
x,y,z
y,-x,-z
-x,-y,z
-y,x,-z
y,x,-z
-y,-x,-z
-x,y,z
x,-y,z
loop_
_atom_site_type_symbol
_atom_site_label
_atom_site_fract_x
_atom_site_fract_y
_atom_site_fract_z
Si Si1 0.329165 0.670836 0.000000
Si Si2 0.333341 0.170226 0.835456
Si Si3 0.329647 0.667804 0.250466
Si Si4 0.667893 0.171600 0.586907
Si Si5 0.169457 0.828652 0.077514
Si Si6 0.171590 0.668180 0.663322
Si Si7 0.331444 0.331444 0.500000
O O1 0.268840 0.751312 0.042164
O O2 0.500000 0.703580 0.995563
O O3 0.500000 0.216819 0.845701
O O4 0.273376 0.250691 0.792692
O O5 0.232747 0.216943 0.875692
O O6 0.321608 0.000000 0.826147
O O7 0.500000 0.689524 0.242827
O O8 0.288070 0.500000 0.259307
O O9 0.274545 0.760237 0.291591
O O10 0.500000 0.214559 0.595968
O O11 0.767278 0.235587 0.624547
O O12 0.720465 0.237880 0.541175
O O13 0.690499 0.000000 0.584883
O O14 0.000000 0.793317 0.067778
O O15 0.199756 0.000000 0.076401
O O16 0.215449 0.500000 0.655249
O O17 0.000000 0.689561 0.666013
O O18 0.302102 0.500000 0.511142
#
# Coordination Sequence:
#
# PCOD8309855 Si02
#       7
#     4   8   8   8   8   8   4
#     4  11  24  39  56  80 108 139 178 223 268 314
#     4   9  18  33  53  77 106 140 176 215 260 310
#     4   9  18  33  53  76 103 137 177 220 263 308
#     4  10  21  36  55  80 108 138 174 216 262 314
#     4  10  21  37  57  81 109 142 179 217 261 316
#     4  10  21  36  54  77 106 141 180 221 265 313
#     4   9  18  34  56  79 104 138 178 217 258 309
#
# _framework density 18.617183000000001
#
# number of rings (size 3 to 8) (size 9 to 14) (size 15 to 20)
#    0.000    2.333    0.000    2.000    0.000    7.333 
#    0.000    5.000    0.000    0.000    0.000    0.000 
#    0.000    0.000    0.000    0.000    0.000    0.000 
#
# Total GULP energy -595397.769875 kJ/mol
# GULP energy per Si atom -12404.120206 kJ/mol
# Density = 1.857481 g / cm^3
# Si number density = 18.617183 Si / 1000 Ang^3
#
#
#
# Elastic Constant Matrix: (Units=GPa)
#
#
# Indices 1 2 3 4 5 6 
#
# 1 77.0075 48.0130 74.7643 0.0000 0.0000 0.0000
# 2 48.0130 77.0068 74.7641 0.0000 0.0000 0.0000
# 3 74.7643 74.7641 173.1633 0.0000 0.0000 0.0000
# 4 0.0000 0.0000 0.0000 346.0247 0.0000 0.0000
# 5 0.0000 0.0000 0.0000 0.0000 345.5833 0.0000
# 6 0.0000 0.0000 0.0000 0.0000 0.0000 25.0173
#
#
#
# Elastic Compliance Matrix: (Units=1/GPa)
#
#
# Indices 1 2 3 4 5 6 
#
# 1 0.025515 -0.008975 -0.007141 0.000000 0.000000 0.000000
# 2 -0.008975 0.025515 -0.007141 0.000000 0.000000 0.000000
# 3 -0.007141 -0.007141 0.011941 0.000000 0.000000 0.000000
# 4 0.000000 0.000000 0.000000 0.002890 0.000000 0.000000
# 5 0.000000 0.000000 0.000000 0.000000 0.002894 0.000000
# 6 0.000000 0.000000 0.000000 0.000000 0.000000 0.039972
#
#
# Mechanical properties :
#
#
# Convention : Reuss Voigt Hill
#
# Bulk Modulus (GPa) = 60.76691 80.25114 70.50903
# Shear Modulus (GPa) = 31.10875 151.96747 91.53811
#
# Velocity S-wave (km/s) = 4.09218 9.04460 7.01964
# Velocity P-wave (km/s) = 7.41883 12.33988 10.18115
#
# Compressibility (1/GPa) = 0.01645632
#
# Stress axis : x y z
#
# Youngs Moduli (GPa) = 39.19333 39.19287 83.74273
#
# Poissons Ratio (x) = 0.35175 0.59801
# Poissons Ratio (y) = 0.35176 0.59802
# Poissons Ratio (z) = 0.27988 0.27988
#
# Static dielectric constant tensor:
#      x y z
#    x 3.381630 0.000000 0.000000 
#    y 0.000000 3.381620 0.000000 
#    z 0.000000 0.000000 3.584180 
# 
# 
# High freq. dielectric constant tensor:
#      x y z
#    x 1.718870 0.000000 0.000000 
#    y 0.000000 1.718870 0.000000 
#    z 0.000000 0.000000 1.735640 
# 
# From -- ./inp_files/6168.got.cif
#   From: 2010.03.12/outbox.cif.g09.slc.cpg/sg115_4_cif.got.tgz:6168.got - 2010.04.14 02:11:21.
