data_PCOD8309510
_publ_section_title
;
Structure prediction by ZEFSAII (Michael W. Deem and Ramdas Pophale) SiO2 
 PCOD8309510
Probable space group: P -4 M 2
;
_chemical_formula_sum "Si O2"
_cell_formula_units_Z 40
_cell_length_a 9.197351
_cell_length_b 9.197351
_cell_length_c 25.594973
_cell_angle_alpha 90.000000
_cell_angle_beta 90.000000
_cell_angle_gamma 90.000000
_cell_volume 2165.111154
_symmetry_space_group_name_H-M "P -4 M 2"
_symmetry_group_IT_number 115
_symmetry_cell_setting 'tetragonal'
loop_
_space_group_symop_operation_xyz
x,y,z
y,-x,-z
-x,-y,z
-y,x,-z
y,x,-z
-y,-x,-z
-x,y,z
x,-y,z
loop_
_atom_site_type_symbol
_atom_site_label
_atom_site_fract_x
_atom_site_fract_y
_atom_site_fract_z
Si Si1 0.167047 0.169808 0.647334
Si Si2 0.672602 0.165878 0.157018
Si Si3 0.670227 0.336108 0.440358
Si Si4 0.169497 0.669808 0.248983
Si Si5 0.661976 0.327146 0.942818
O O1 0.221752 0.248859 0.595743
O O2 0.258854 0.223119 0.697099
O O3 0.000000 0.211000 0.657360
O O4 0.188532 0.000000 0.638101
O O5 0.500000 0.177882 0.161150
O O6 0.740736 0.260211 0.202586
O O7 0.729588 0.229203 0.101796
O O8 0.725588 0.000000 0.161532
O O9 0.705511 0.294490 0.500000
O O10 0.500000 0.325364 0.429593
O O11 0.724741 0.500000 0.428468
O O12 0.204487 0.500000 0.251562
O O13 0.000000 0.701077 0.239536
O O14 0.500000 0.263623 0.932240
O O15 0.653461 0.500000 0.942562
O O16 0.721558 0.278443 0.000000
#
# Coordination Sequence:
#
# PCOD8309510 Si02
#       5
#     8   8   8   8   8
#     4  10  21  36  54  77 105 136 170 210 257 308
#     4  10  20  33  51  77 107 137 169 208 256 307
#     4   9  19  36  56  78 105 137 173 212 253 298
#     4  10  21  37  56  76  99 133 176 216 257 307
#     4   8  14  27  48  71  96 130 171 212 252 295
#
# _framework density 18.474800999999999
#
# number of rings (size 3 to 8) (size 9 to 14) (size 15 to 20)
#    0.000    2.600    0.000    3.000    0.000    5.600 
#    0.000    4.000    0.000    3.600    0.000    0.000 
#    0.000    0.000    0.000    0.000    0.000    0.000 
#
# Total GULP energy -496015.410921 kJ/mol
# GULP energy per Si atom -12400.385273 kJ/mol
# Density = 1.843275 g / cm^3
# Si number density = 18.474801 Si / 1000 Ang^3
#
#
#
# Elastic Constant Matrix: (Units=GPa)
#
#
# Indices 1 2 3 4 5 6 
#
# 1 75.6329 39.1283 62.7500 0.0000 0.0000 0.0000
# 2 39.1283 75.6332 62.7501 0.0000 0.0000 0.0000
# 3 62.7500 62.7501 151.6133 0.0000 0.0000 0.0000
# 4 0.0000 0.0000 0.0000 -19.7551 0.0000 0.0000
# 5 0.0000 0.0000 0.0000 0.0000 -19.7530 0.0000
# 6 0.0000 0.0000 0.0000 0.0000 0.0000 27.3502
#
#
#
# Elastic Compliance Matrix: (Units=1/GPa)
#
#
# Indices 1 2 3 4 5 6 
#
# 1 0.021656 -0.005737 -0.006588 0.000000 0.000000 0.000000
# 2 -0.005737 0.021656 -0.006588 0.000000 0.000000 0.000000
# 3 -0.006588 -0.006588 0.012049 0.000000 0.000000 0.000000
# 4 0.000000 0.000000 0.000000 -0.050620 0.000000 0.000000
# 5 0.000000 0.000000 0.000000 0.000000 -0.050625 0.000000
# 6 0.000000 0.000000 0.000000 0.000000 0.000000 0.036563
#
#
# Mechanical properties :
#
#
# Convention : Reuss Voigt Hill
#
# Bulk Modulus (GPa) = 57.03537 70.23735 63.63636
# Shear Modulus (GPa) = 145.54939 6.78517 76.16728
#
# Velocity S-wave (km/s) = 8.88559 1.91850 6.42784
# Velocity P-wave (km/s) = 11.67093 6.55805 9.46622
#
# Compressibility (1/GPa) = 0.01753298
#
# Stress axis : x y z
#
# Youngs Moduli (GPa) = 46.17603 46.17622 82.99145
#
# Poissons Ratio (x) = 0.26494 0.54679
# Poissons Ratio (y) = 0.26493 0.54679
# Poissons Ratio (z) = 0.30423 0.30423
#
# Static dielectric constant tensor:
#      x y z
#    x 3.382390 0.000000 0.000000 
#    y 0.000000 3.382390 0.000000 
#    z 0.000000 0.000000 3.637620 
# 
# 
# High freq. dielectric constant tensor:
#      x y z
#    x 1.704310 0.000000 0.000000 
#    y 0.000000 1.704310 0.000000 
#    z 0.000000 0.000000 1.731520 
# 
# From -- ./inp_files/5118.got.cif
#   From: 2010.03.12/outbox.cif.g09.slc.cpg/sg115_3_cif.got.tgz:5118.got - 2010.04.14 02:11:21.
