data_PCOD8309214
_publ_section_title
;
Structure prediction by ZEFSAII (Michael W. Deem and Ramdas Pophale) SiO2 
 PCOD8309214
Probable space group: P -4 M 2
;
_chemical_formula_sum "Si O2"
_cell_formula_units_Z 26
_cell_length_a 7.608765
_cell_length_b 7.608765
_cell_length_c 22.266965
_cell_angle_alpha 90.000000
_cell_angle_beta 90.000000
_cell_angle_gamma 90.000000
_cell_volume 1289.108192
_symmetry_space_group_name_H-M "P -4 M 2"
_symmetry_group_IT_number 115
_symmetry_cell_setting 'tetragonal'
loop_
_space_group_symop_operation_xyz
x,y,z
y,-x,-z
-x,-y,z
-y,x,-z
y,x,-z
-y,-x,-z
-x,y,z
x,-y,z
loop_
_atom_site_type_symbol
_atom_site_label
_atom_site_fract_x
_atom_site_fract_y
_atom_site_fract_z
Si Si1 0.699754 0.792982 0.682548
Si Si2 0.000000 0.000000 0.500000
Si Si3 0.500000 0.790798 0.901855
Si Si4 0.000000 0.692440 0.593980
Si Si5 0.791973 0.804108 0.187101
Si Si6 0.500000 0.500000 0.000000
O O1 0.500000 0.744141 0.666034
O O2 0.826254 0.707760 0.634027
O O3 0.744503 0.716234 0.748456
O O4 0.731633 0.000000 0.681629
O O5 0.000000 0.828049 0.540173
O O6 0.328625 0.730751 0.864547
O O7 0.500000 0.000000 0.915943
O O8 0.500000 0.680116 0.962515
O O9 0.000000 0.500000 0.564354
O O10 0.000000 0.798784 0.191274
O O11 0.723854 0.000000 0.171368
#
# Coordination Sequence:
#
# PCOD8309214 Si02
#       6
#     8   1   4   4   8   1
#     4  10  18  35  66 100 135 169 206 269 339 388
#     4  12  28  52  68  88 140 188 228 266 312 396
#     4  10  22  42  60  86 126 168 212 265 316 376
#     4  12  26  44  68  98 128 176 228 267 320 392
#     4   9  16  31  62  96 126 161 206 261 327 386
#     4  12  28  44  60  88 124 180 228 250 308 400
#
# _framework density 20.168983999999998
#
# number of rings (size 3 to 8) (size 9 to 14) (size 15 to 20)
#    0.000    1.846    4.615    0.000    0.000    3.077 
#    2.769    0.000    0.000    0.000    0.000    0.000 
#    0.000    0.000    0.000    0.000    0.000    0.000 
#
# Total GULP energy -322388.180165 kJ/mol
# GULP energy per Si atom -12399.545391 kJ/mol
# Density = 2.012308 g / cm^3
# Si number density = 20.168984 Si / 1000 Ang^3
#
#
#
# Elastic Constant Matrix: (Units=GPa)
#
#
# Indices 1 2 3 4 5 6 
#
# 1 131.5317 45.6365 67.1962 0.0000 0.0000 0.0000
# 2 45.6365 131.5317 67.1962 0.0000 0.0000 0.0000
# 3 67.1962 67.1962 146.1968 0.0000 0.0000 0.0000
# 4 0.0000 0.0000 0.0000 129.7420 0.0000 0.0000
# 5 0.0000 0.0000 0.0000 0.0000 129.7420 0.0000
# 6 0.0000 0.0000 0.0000 0.0000 0.0000 8.1481
#
#
#
# Elastic Compliance Matrix: (Units=1/GPa)
#
#
# Indices 1 2 3 4 5 6 
#
# 1 0.010154 -0.001488 -0.003983 0.000000 0.000000 0.000000
# 2 -0.001488 0.010154 -0.003983 0.000000 0.000000 0.000000
# 3 -0.003983 -0.003983 0.010501 0.000000 0.000000 0.000000
# 4 0.000000 0.000000 0.000000 0.007708 0.000000 0.000000
# 5 0.000000 0.000000 0.000000 0.000000 0.007708 0.000000
# 6 0.000000 0.000000 0.000000 0.000000 0.000000 0.122728
#
#
# Mechanical properties :
#
#
# Convention : Reuss Voigt Hill
#
# Bulk Modulus (GPa) = 84.02739 85.47979 84.75359
# Shear Modulus (GPa) = 26.06501 68.80851 47.43676
#
# Velocity S-wave (km/s) = 3.59880 5.84723 4.85497
# Velocity P-wave (km/s) = 7.68249 9.38406 8.57558
#
# Compressibility (1/GPa) = 0.01190088
#
# Stress axis : x y z
#
# Youngs Moduli (GPa) = 98.48444 98.48444 95.22456
#
# Poissons Ratio (x) = 0.14656 0.37928
# Poissons Ratio (y) = 0.14656 0.37928
# Poissons Ratio (z) = 0.39226 0.39226
#
# Static dielectric constant tensor:
#      x y z
#    x 3.645730 0.000000 0.000000 
#    y 0.000000 3.645730 0.000000 
#    z 0.000000 0.000000 3.507750 
# 
# 
# High freq. dielectric constant tensor:
#      x y z
#    x 1.790160 0.000000 0.000000 
#    y 0.000000 1.790160 0.000000 
#    z 0.000000 0.000000 1.766970 
# 
# From -- ./inp_files/4083.got.cif
#   From: 2010.03.12/outbox.cif.g09.slc.cpg/sg115_3_cif.got.tgz:4083.got - 2010.04.14 02:11:21.
