data_PCOD8309703
_publ_section_title
;
Structure prediction by ZEFSAII (Michael W. Deem and Ramdas Pophale) SiO2 
 PCOD8309703
Probable space group: P -4 M 2
;
_chemical_formula_sum "Si O2"
_cell_formula_units_Z 33
_cell_length_a 11.949243
_cell_length_b 11.949243
_cell_length_c 11.670468
_cell_angle_alpha 90.000000
_cell_angle_beta 90.000000
_cell_angle_gamma 90.000000
_cell_volume 1666.360868
_symmetry_space_group_name_H-M "P -4 M 2"
_symmetry_group_IT_number 115
_symmetry_cell_setting 'tetragonal'
loop_
_space_group_symop_operation_xyz
x,y,z
y,-x,-z
-x,-y,z
-y,x,-z
y,x,-z
-y,-x,-z
-x,y,z
x,-y,z
loop_
_atom_site_type_symbol
_atom_site_label
_atom_site_fract_x
_atom_site_fract_y
_atom_site_fract_z
Si Si1 0.000000 0.244856 0.597432
Si Si2 0.220998 0.375856 0.226678
Si Si3 0.873436 0.697090 0.000007
Si Si4 0.175184 0.629089 0.748239
Si Si5 0.000000 0.632027 0.359035
Si Si6 0.000000 0.000000 0.500000
O O1 0.107906 0.287824 0.665790
O O2 0.000000 0.299171 0.474113
O O3 0.000000 0.109788 0.582738
O O4 0.251689 0.500000 0.266813
O O5 0.197318 0.375793 0.090470
O O6 0.329176 0.302609 0.257816
O O7 0.110032 0.331323 0.289633
O O8 0.000000 0.706533 0.042341
O O9 0.821945 0.821945 0.000000
O O10 0.870176 0.637831 0.877100
O O11 0.165963 0.500000 0.707238
O O12 0.000000 0.500000 0.383716
#
# Coordination Sequence:
#
# PCOD8309703 Si02
#       6
#     4   8   8   8   4   1
#     4  12  24  43  63  88 118 156 192 247 306 362
#     4  10  21  37  60  88 120 159 201 247 296 354
#     4  10  20  36  57  88 122 159 198 245 300 359
#     4  11  23  38  60  89 121 158 200 244 294 359
#     4  10  20  37  64  89 115 155 205 250 298 359
#     4  12  28  44  64  88 122 156 192 256 308 370
#
# _framework density 19.803636000000001
#
# number of rings (size 3 to 8) (size 9 to 14) (size 15 to 20)
#    0.000    1.455    2.424    3.273    0.000    1.697 
#    2.182    0.000    0.000    4.364    0.000    3.394 
#    0.000    0.000    0.000    0.000    0.000    0.000 
#
# Total GULP energy -409195.109664 kJ/mol
# GULP energy per Si atom -12399.851808 kJ/mol
# Density = 1.975856 g / cm^3
# Si number density = 19.803636 Si / 1000 Ang^3
#
#
#
# Elastic Constant Matrix: (Units=GPa)
#
#
# Indices 1 2 3 4 5 6 
#
# 1 111.4465 64.9706 31.9279 0.0000 0.0000 0.0000
# 2 64.9706 111.4465 31.9279 0.0000 0.0000 0.0000
# 3 31.9279 31.9279 109.8564 0.0000 0.0000 0.0000
# 4 0.0000 0.0000 0.0000 25.9258 0.0000 0.0000
# 5 0.0000 0.0000 0.0000 0.0000 25.9258 0.0000
# 6 0.0000 0.0000 0.0000 0.0000 0.0000 25.6414
#
#
#
# Elastic Compliance Matrix: (Units=1/GPa)
#
#
# Indices 1 2 3 4 5 6 
#
# 1 0.013926 -0.007591 -0.001841 0.000000 0.000000 0.000000
# 2 -0.007591 0.013926 -0.001841 0.000000 0.000000 0.000000
# 3 -0.001841 -0.001841 0.010173 0.000000 0.000000 0.000000
# 4 0.000000 0.000000 0.000000 0.038572 0.000000 0.000000
# 5 0.000000 0.000000 0.000000 0.000000 0.038572 0.000000
# 6 0.000000 0.000000 0.000000 0.000000 0.000000 0.038999
#
#
# Mechanical properties :
#
#
# Convention : Reuss Voigt Hill
#
# Bulk Modulus (GPa) = 64.60722 65.60022 65.10372
# Shear Modulus (GPa) = 27.49177 29.09345 28.29261
#
# Velocity S-wave (km/s) = 3.72992 3.83704 3.78386
# Velocity P-wave (km/s) = 7.15853 7.26827 7.21361
#
# Compressibility (1/GPa) = 0.01547815
#
# Stress axis : x y z
#
# Youngs Moduli (GPa) = 71.80987 71.80987 98.29984
#
# Poissons Ratio (x) = 0.54510 0.18098
# Poissons Ratio (y) = 0.54510 0.18098
# Poissons Ratio (z) = 0.13221 0.13221
#
# Static dielectric constant tensor:
#      x y z
#    x 3.629630 0.000000 0.000000 
#    y 0.000000 3.629630 0.000000 
#    z 0.000000 0.000000 3.647460 
# 
# 
# High freq. dielectric constant tensor:
#      x y z
#    x 1.770480 0.000000 0.000000 
#    y 0.000000 1.770480 0.000000 
#    z 0.000000 0.000000 1.774000 
# 
# From -- ./inp_files/2587.got.cif
#   From: 2010.03.12/outbox.cif.g09.slc.cpg/sg115_2_cif.got.tgz:2587.got - 2010.04.14 02:11:21.
