data_PCOD8309563
_publ_section_title
;
Structure prediction by ZEFSAII (Michael W. Deem and Ramdas Pophale) SiO2 
 PCOD8309563
Probable space group: P -4 M 2
;
_chemical_formula_sum "Si O2"
_cell_formula_units_Z 48
_cell_length_a 8.994651
_cell_length_b 8.994651
_cell_length_c 31.094190
_cell_angle_alpha 90.000000
_cell_angle_beta 90.000000
_cell_angle_gamma 90.000000
_cell_volume 2515.636469
_symmetry_space_group_name_H-M "P -4 M 2"
_symmetry_group_IT_number 115
_symmetry_cell_setting 'tetragonal'
loop_
_space_group_symop_operation_xyz
x,y,z
y,-x,-z
-x,-y,z
-y,x,-z
y,x,-z
-y,-x,-z
-x,y,z
x,-y,z
loop_
_atom_site_type_symbol
_atom_site_label
_atom_site_fract_x
_atom_site_fract_y
_atom_site_fract_z
Si Si1 0.674538 0.828627 0.960914
Si Si2 0.823372 0.668993 0.210084
Si Si3 0.174671 0.328700 0.539153
Si Si4 0.832421 0.176734 0.874674
Si Si5 0.323336 0.667531 0.374979
Si Si6 0.326715 0.173714 0.289359
O O1 0.500000 0.809608 0.954597
O O2 0.753128 0.767445 0.917970
O O3 0.717611 0.000000 0.969803
O O4 0.728813 0.728813 0.000000
O O5 0.765624 0.500000 0.212253
O O6 0.761458 0.742759 0.166343
O O7 0.762004 0.760701 0.249738
O O8 0.000000 0.675374 0.211312
O O9 0.229966 0.229966 0.500000
O O10 0.219433 0.500000 0.530843
O O11 0.250265 0.265476 0.582374
O O12 0.000000 0.310606 0.544686
O O13 0.000000 0.239803 0.873375
O O14 0.832489 0.000000 0.873633
O O15 0.500000 0.670245 0.374769
O O16 0.261016 0.500000 0.374721
O O17 0.263873 0.751703 0.332816
O O18 0.500000 0.208943 0.283009
O O19 0.295298 0.000000 0.292601
#
# Coordination Sequence:
#
# PCOD8309563 Si02
#       6
#     8   8   8   8   8   8
#     4  10  20  34  53  77 104 134 169 210 256 307
#     4  10  20  34  53  78 108 141 177 218 264 314
#     4  10  20  34  53  77 104 134 169 210 256 307
#     4   9  17  31  53  78 103 134 173 216 261 310
#     4   9  17  31  53  78 103 134 173 216 261 310
#     4  10  20  34  53  78 108 141 177 218 264 314
#
# _framework density 19.080656999999999
#
# number of rings (size 3 to 8) (size 9 to 14) (size 15 to 20)
#    0.000    2.333    0.000    3.000    0.000    8.000 
#    0.000    1.667    0.000   10.000    0.000    0.000 
#    0.000    0.000    0.000    0.000    0.000    0.000 
#
# Total GULP energy -595320.102398 kJ/mol
# GULP energy per Si atom -12402.502133 kJ/mol
# Density = 1.903723 g / cm^3
# Si number density = 19.080657 Si / 1000 Ang^3
#
#
#
# Elastic Constant Matrix: (Units=GPa)
#
#
# Indices 1 2 3 4 5 6 
#
# 1 65.9186 23.2833 41.3814 0.0000 0.0000 0.0000
# 2 23.2833 65.9186 41.3814 0.0000 0.0000 0.0000
# 3 41.3814 41.3814 165.2772 0.0000 0.0000 0.0000
# 4 0.0000 0.0000 0.0000 34.5225 0.0000 0.0000
# 5 0.0000 0.0000 0.0000 0.0000 34.5225 0.0000
# 6 0.0000 0.0000 0.0000 0.0000 0.0000 23.1389
#
#
#
# Elastic Compliance Matrix: (Units=1/GPa)
#
#
# Indices 1 2 3 4 5 6 
#
# 1 0.019029 -0.004426 -0.003656 0.000000 0.000000 0.000000
# 2 -0.004426 0.019029 -0.003656 0.000000 0.000000 0.000000
# 3 -0.003656 -0.003656 0.007881 0.000000 0.000000 0.000000
# 4 0.000000 0.000000 0.000000 0.028967 0.000000 0.000000
# 5 0.000000 0.000000 0.000000 0.000000 0.028967 0.000000
# 6 0.000000 0.000000 0.000000 0.000000 0.000000 0.043217
#
#
# Mechanical properties :
#
#
# Convention : Reuss Voigt Hill
#
# Bulk Modulus (GPa) = 44.51940 56.57851 50.54896
# Shear Modulus (GPa) = 28.08144 31.17464 29.62804
#
# Velocity S-wave (km/s) = 3.84047 4.04646 3.94481
# Velocity P-wave (km/s) = 6.56113 7.17972 6.87739
#
# Compressibility (1/GPa) = 0.02246212
#
# Stress axis : x y z
#
# Youngs Moduli (GPa) = 52.55196 52.55196 126.88287
#
# Poissons Ratio (x) = 0.23259 0.46391
# Poissons Ratio (y) = 0.23259 0.46391
# Poissons Ratio (z) = 0.19214 0.19214
#
# Static dielectric constant tensor:
#      x y z
#    x 3.323490 0.000000 0.000000 
#    y 0.000000 3.323490 0.000000 
#    z 0.000000 0.000000 3.699770 
# 
# 
# High freq. dielectric constant tensor:
#      x y z
#    x 1.726490 0.000000 0.000000 
#    y 0.000000 1.726490 0.000000 
#    z 0.000000 0.000000 1.760920 
# 
# From -- ./inp_files/6038.got.cif
#   From: 2010.03.12/outbox.cif.g09.slc.cpg/sg115_4_cif.got.tgz:6038.got - 2010.04.14 02:11:21.
