data_PCOD8309406
_publ_section_title
;
Structure prediction by ZEFSAII (Michael W. Deem and Ramdas Pophale) SiO2 
 PCOD8309406
Probable space group: P -4 M 2
;
_chemical_formula_sum "Si O2"
_cell_formula_units_Z 40
_cell_length_a 9.481450
_cell_length_b 9.481450
_cell_length_c 25.880461
_cell_angle_alpha 90.000000
_cell_angle_beta 90.000000
_cell_angle_gamma 90.000000
_cell_volume 2326.598942
_symmetry_space_group_name_H-M "P -4 M 2"
_symmetry_group_IT_number 115
_symmetry_cell_setting 'tetragonal'
loop_
_space_group_symop_operation_xyz
x,y,z
y,-x,-z
-x,-y,z
-y,x,-z
y,x,-z
-y,-x,-z
-x,y,z
x,-y,z
loop_
_atom_site_type_symbol
_atom_site_label
_atom_site_fract_x
_atom_site_fract_y
_atom_site_fract_z
Si Si1 0.156765 0.167316 0.140154
Si Si2 0.843826 0.167596 0.746879
Si Si3 0.667190 0.159931 0.540639
Si Si4 0.834634 0.334427 0.957215
Si Si5 0.832453 0.655923 0.344820
O O1 0.205410 0.222925 0.196802
O O2 0.270224 0.214717 0.097618
O O3 0.000000 0.225706 0.125755
O O4 0.148055 0.000000 0.143921
O O5 0.751690 0.233462 0.700545
O O6 0.000000 0.232643 0.741441
O O7 0.851166 0.000000 0.741911
O O8 0.737164 0.262837 0.500000
O O9 0.500000 0.172640 0.536216
O O10 0.715605 0.206355 0.598363
O O11 0.715711 0.000000 0.529341
O O12 0.801401 0.500000 0.957286
O O13 0.000000 0.304729 0.967392
O O14 0.742562 0.257439 0.000000
O O15 0.768525 0.500000 0.337737
O O16 0.000000 0.648818 0.339998
#
# Coordination Sequence:
#
# PCOD8309406 Si02
#       5
#     8   8   8   8   8
#     4   8  14  26  45  68  92 117 147 185 225 264
#     4   8  13  22  39  63  87 112 145 182 220 265
#     4   9  18  31  46  66  92 121 155 193 231 274
#     4  10  20  33  50  71  94 123 158 192 228 272
#     4   8  14  25  40  60  88 117 143 179 227 270
#
# _framework density 17.192477
#
# number of rings (size 3 to 8) (size 9 to 14) (size 15 to 20)
#    0.000    3.400    0.000    3.000    0.000    2.400 
#    0.000    3.000    0.000    4.800    0.000    2.800 
#    0.000    0.000    0.000    0.000    0.000    0.000 
#
# Total GULP energy -495669.737874 kJ/mol
# GULP energy per Si atom -12391.743447 kJ/mol
# Density = 1.715335 g / cm^3
# Si number density = 17.192477 Si / 1000 Ang^3
#
#
#
# Elastic Constant Matrix: (Units=GPa)
#
#
# Indices 1 2 3 4 5 6 
#
# 1 52.2262 28.2893 57.4619 0.0000 0.0000 0.0000
# 2 28.2893 52.2247 57.4602 0.0000 0.0000 0.0000
# 3 57.4619 57.4602 172.3302 0.0000 0.0000 0.0000
# 4 0.0000 0.0000 0.0000 0.4364 0.0000 0.0000
# 5 0.0000 0.0000 0.0000 0.0000 0.4379 0.0000
# 6 0.0000 0.0000 0.0000 0.0000 0.0000 16.6046
#
#
#
# Elastic Compliance Matrix: (Units=1/GPa)
#
#
# Indices 1 2 3 4 5 6 
#
# 1 0.032738 -0.009039 -0.007902 0.000000 0.000000 0.000000
# 2 -0.009039 0.032739 -0.007902 0.000000 0.000000 0.000000
# 3 -0.007902 -0.007902 0.011073 0.000000 0.000000 0.000000
# 4 0.000000 0.000000 0.000000 2.291506 0.000000 0.000000
# 5 0.000000 0.000000 0.000000 0.000000 2.283602 0.000000
# 6 0.000000 0.000000 0.000000 0.000000 0.000000 0.060224
#
#
# Mechanical properties :
#
#
# Convention : Reuss Voigt Hill
#
# Bulk Modulus (GPa) = 37.22695 62.57822 49.90258
# Shear Modulus (GPa) = 1.04810 12.40042 6.72426
#
# Velocity S-wave (km/s) = 0.78163 2.68856 1.97981
# Velocity P-wave (km/s) = 4.74496 6.79083 5.85790
#
# Compressibility (1/GPa) = 0.02686226
#
# Stress axis : x y z
#
# Youngs Moduli (GPa) = 30.54531 30.54487 90.31355
#
# Poissons Ratio (x) = 0.27610 0.71368
# Poissons Ratio (y) = 0.27611 0.71366
# Poissons Ratio (z) = 0.24138 0.24137
#
# Static dielectric constant tensor:
#      x y z
#    x 2.999500 0.000000 0.000000 
#    y 0.000000 2.999510 0.000000 
#    z 0.000000 0.000000 3.632090 
# 
# 
# High freq. dielectric constant tensor:
#      x y z
#    x 1.625890 0.000000 0.000000 
#    y 0.000000 1.625890 0.000000 
#    z 0.000000 0.000000 1.682900 
# 
# From -- ./inp_files/5434.got.cif
#   From: 2010.03.12/outbox.cif.g09.slc.cpg/sg115_3_cif.got.tgz:5434.got - 2010.04.14 02:11:21.
