data_PCOD8309830
_publ_section_title
;
Structure prediction by ZEFSAII (Michael W. Deem and Ramdas Pophale) SiO2 
 PCOD8309830
Probable space group: P -4 M 2
;
_chemical_formula_sum "Si O2"
_cell_formula_units_Z 44
_cell_length_a 9.253194
_cell_length_b 9.253194
_cell_length_c 28.355143
_cell_angle_alpha 90.000000
_cell_angle_beta 90.000000
_cell_angle_gamma 90.000000
_cell_volume 2427.812689
_symmetry_space_group_name_H-M "P -4 M 2"
_symmetry_group_IT_number 115
_symmetry_cell_setting 'tetragonal'
loop_
_space_group_symop_operation_xyz
x,y,z
y,-x,-z
-x,-y,z
-y,x,-z
y,x,-z
-y,-x,-z
-x,y,z
x,-y,z
loop_
_atom_site_type_symbol
_atom_site_label
_atom_site_fract_x
_atom_site_fract_y
_atom_site_fract_z
Si Si1 0.333062 0.830863 0.906382
Si Si2 0.833459 0.670063 0.824427
Si Si3 0.661202 0.672379 0.448331
Si Si4 0.666655 0.331549 0.731315
Si Si5 0.833625 0.833625 0.000000
Si Si6 0.837841 0.672125 0.360173
O O1 0.500000 0.784362 0.905844
O O2 0.248314 0.746843 0.866490
O O3 0.266223 0.787230 0.956561
O O4 0.313690 0.000000 0.896946
O O5 0.816334 0.500000 0.831651
O O6 0.761415 0.719320 0.775512
O O7 0.000000 0.718111 0.824086
O O8 0.720278 0.720278 0.500000
O O9 0.500000 0.733497 0.439711
O O10 0.656657 0.500000 0.446903
O O11 0.763728 0.735295 0.407400
O O12 0.500000 0.293317 0.742148
O O13 0.685813 0.500000 0.720624
O O14 0.726178 0.247160 0.685863
O O15 0.000000 0.807484 0.985645
O O16 0.835117 0.500000 0.361878
O O17 0.000000 0.732499 0.357798
#
# Coordination Sequence:
#
# PCOD8309830 Si02
#       6
#     8   8   8   8   4   8
#     4  10  21  36  55  80 108 137 170 208 249 295
#     4  10  21  36  54  76 102 133 169 209 252 298
#     4   8  13  22  38  60  85 115 152 190 228 276
#     4   9  17  30  48  69  95 127 160 196 242 293
#     4   9  18  34  54  75 104 142 178 209 244 289
#     4   9  16  25  40  65  94 120 150 193 240 282
#
# _framework density 18.123308000000002
#
# number of rings (size 3 to 8) (size 9 to 14) (size 15 to 20)
#    0.000    2.818    0.000    2.182    0.000    5.818 
#    0.000    3.636    0.000    1.091    0.000    5.091 
#    0.000    0.000    0.000    0.000    0.000    0.000 
#
# Total GULP energy -545582.508532 kJ/mol
# GULP energy per Si atom -12399.602467 kJ/mol
# Density = 1.808206 g / cm^3
# Si number density = 18.123308 Si / 1000 Ang^3
#
#
#
# Elastic Constant Matrix: (Units=GPa)
#
#
# Indices 1 2 3 4 5 6 
#
# 1 80.0966 37.9358 77.9691 0.0000 0.0000 0.0000
# 2 37.9358 80.0966 77.9691 0.0000 0.0000 0.0000
# 3 77.9691 77.9691 188.4294 0.0000 0.0000 0.0000
# 4 0.0000 0.0000 0.0000 -5.0376 0.0000 0.0000
# 5 0.0000 0.0000 0.0000 0.0000 -5.0376 0.0000
# 6 0.0000 0.0000 0.0000 0.0000 0.0000 17.8724
#
#
#
# Elastic Compliance Matrix: (Units=1/GPa)
#
#
# Indices 1 2 3 4 5 6 
#
# 1 0.021204 -0.002515 -0.007733 0.000000 0.000000 0.000000
# 2 -0.002515 0.021204 -0.007733 0.000000 0.000000 0.000000
# 3 -0.007733 -0.007733 0.011707 0.000000 0.000000 0.000000
# 4 0.000000 0.000000 0.000000 -0.198509 0.000000 0.000000
# 5 0.000000 0.000000 0.000000 0.000000 -0.198509 0.000000
# 6 0.000000 0.000000 0.000000 0.000000 0.000000 0.055952
#
#
# Mechanical properties :
#
#
# Convention : Reuss Voigt Hill
#
# Bulk Modulus (GPa) = 55.09071 81.81897 68.45484
# Shear Modulus (GPa) = -20.41330 11.87604 -4.26863
#
# Velocity S-wave (km/s) = -3.35976 2.56264 -1.53637
# Velocity P-wave (km/s) = 3.92594 7.34846 5.89122
#
# Compressibility (1/GPa) = 0.01815188
#
# Stress axis : x y z
#
# Youngs Moduli (GPa) = 47.16134 47.16134 85.42073
#
# Poissons Ratio (x) = 0.11861 0.66057
# Poissons Ratio (y) = 0.11861 0.66057
# Poissons Ratio (z) = 0.36471 0.36471
#
# Static dielectric constant tensor:
#      x y z
#    x 3.237660 0.000000 0.000000 
#    y 0.000000 3.237660 0.000000 
#    z 0.000000 0.000000 3.579470 
# 
# 
# High freq. dielectric constant tensor:
#      x y z
#    x 1.679170 0.000000 0.000000 
#    y 0.000000 1.679170 0.000000 
#    z 0.000000 0.000000 1.718720 
# 
# From -- ./inp_files/5836.got.cif
#   From: 2010.03.12/outbox.cif.g09.slc.cpg/sg115_3_cif.got.tgz:5836.got - 2010.04.14 02:11:21.
