data_PCOD8309592
_publ_section_title
;
Structure prediction by ZEFSAII (Michael W. Deem and Ramdas Pophale) SiO2 
 PCOD8309592
Probable space group: P -4 M 2
;
_chemical_formula_sum "Si O2"
_cell_formula_units_Z 40
_cell_length_a 9.174661
_cell_length_b 9.174661
_cell_length_c 25.752028
_cell_angle_alpha 90.000000
_cell_angle_beta 90.000000
_cell_angle_gamma 90.000000
_cell_volume 2167.661621
_symmetry_space_group_name_H-M "P -4 M 2"
_symmetry_group_IT_number 115
_symmetry_cell_setting 'tetragonal'
loop_
_space_group_symop_operation_xyz
x,y,z
y,-x,-z
-x,-y,z
-y,x,-z
y,x,-z
-y,-x,-z
-x,y,z
x,-y,z
loop_
_atom_site_type_symbol
_atom_site_label
_atom_site_fract_x
_atom_site_fract_y
_atom_site_fract_z
Si Si1 0.828971 0.331900 0.397551
Si Si2 0.330849 0.669152 0.500000
Si Si3 0.164605 0.826506 0.703312
Si Si4 0.667393 0.332608 0.000000
Si Si5 0.827130 0.332991 0.195584
Si Si6 0.169013 0.669818 0.896080
O O1 0.788560 0.500000 0.387524
O O2 0.753287 0.272129 0.449543
O O3 0.767761 0.240338 0.348989
O O4 0.000000 0.310011 0.404482
O O5 0.500000 0.701634 0.491070
O O6 0.253343 0.767578 0.752836
O O7 0.000000 0.766376 0.706092
O O8 0.166943 0.000000 0.703128
O O9 0.712413 0.230506 0.047669
O O10 0.500000 0.306786 0.983526
O O11 0.775251 0.500000 0.197445
O O12 0.761452 0.255279 0.145935
O O13 0.000000 0.321511 0.192037
O O14 0.194234 0.500000 0.884768
O O15 0.000000 0.712533 0.893971
#
# Coordination Sequence:
#
# PCOD8309592 Si02
#       6
#     8   4   8   4   8   8
#     4   9  17  30  48  68  91 122 160 199 240 291
#     4   9  18  32  48  67  94 126 158 195 242 294
#     4   9  17  30  49  73 100 129 163 206 253 298
#     4   9  18  34  54  73  98 136 176 209 246 299
#     4  10  20  34  54  78 103 135 175 214 253 303
#     4  10  21  36  54  78 108 138 169 210 258 304
#
# _framework density 18.453063
#
# number of rings (size 3 to 8) (size 9 to 14) (size 15 to 20)
#    0.000    2.600    0.000    1.800    0.000    6.400 
#    0.000    3.000    0.000    3.600    0.000    0.000 
#    0.000    0.000    0.000    0.000    0.000    0.000 
#
# Total GULP energy -496084.180796 kJ/mol
# GULP energy per Si atom -12402.104520 kJ/mol
# Density = 1.841106 g / cm^3
# Si number density = 18.453063 Si / 1000 Ang^3
#
#
#
# Elastic Constant Matrix: (Units=GPa)
#
#
# Indices 1 2 3 4 5 6 
#
# 1 79.7393 37.6330 68.0037 0.0000 0.0000 0.0000
# 2 37.6330 79.7394 68.0033 0.0000 0.0000 0.0000
# 3 68.0037 68.0033 161.9529 0.0000 0.0000 0.0000
# 4 0.0000 0.0000 0.0000 31.9866 0.0000 0.0000
# 5 0.0000 0.0000 0.0000 0.0000 31.9858 0.0000
# 6 0.0000 0.0000 0.0000 0.0000 0.0000 22.0542
#
#
#
# Elastic Compliance Matrix: (Units=1/GPa)
#
#
# Indices 1 2 3 4 5 6 
#
# 1 0.020172 -0.003578 -0.006968 0.000000 0.000000 0.000000
# 2 -0.003578 0.020172 -0.006968 0.000000 0.000000 0.000000
# 3 -0.006968 -0.006968 0.012026 0.000000 0.000000 0.000000
# 4 0.000000 0.000000 0.000000 0.031263 0.000000 0.000000
# 5 0.000000 0.000000 0.000000 0.000000 0.031264 0.000000
# 6 0.000000 0.000000 0.000000 0.000000 0.000000 0.045343
#
#
# Mechanical properties :
#
#
# Convention : Reuss Voigt Hill
#
# Bulk Modulus (GPa) = 57.66043 74.30131 65.98087
# Shear Modulus (GPa) = 24.86987 27.05807 25.96397
#
# Velocity S-wave (km/s) = 3.67514 3.83341 3.75511
# Velocity P-wave (km/s) = 7.02309 7.74247 7.39153
#
# Compressibility (1/GPa) = 0.01734292
#
# Stress axis : x y z
#
# Youngs Moduli (GPa) = 49.57443 49.57482 83.15275
#
# Poissons Ratio (x) = 0.17737 0.57939
# Poissons Ratio (y) = 0.17737 0.57938
# Poissons Ratio (z) = 0.34542 0.34542
#
# Static dielectric constant tensor:
#      x y z
#    x 3.435690 0.000000 0.000000 
#    y 0.000000 3.435690 0.000000 
#    z 0.000000 0.000000 3.572680 
# 
# 
# High freq. dielectric constant tensor:
#      x y z
#    x 1.703210 0.000000 0.000000 
#    y 0.000000 1.703210 0.000000 
#    z 0.000000 0.000000 1.730400 
# 
# From -- ./inp_files/5533.got.cif
#   From: 2010.03.12/outbox.cif.g09.slc.cpg/sg115_3_cif.got.tgz:5533.got - 2010.04.14 02:11:21.
