data_PCOD8309504
_publ_section_title
;
Structure prediction by ZEFSAII (Michael W. Deem and Ramdas Pophale) SiO2 
 PCOD8309504
Probable space group: P -4 M 2
;
_chemical_formula_sum "Si O2"
_cell_formula_units_Z 48
_cell_length_a 9.297818
_cell_length_b 9.297818
_cell_length_c 30.850449
_cell_angle_alpha 90.000000
_cell_angle_beta 90.000000
_cell_angle_gamma 90.000000
_cell_volume 2667.003409
_symmetry_space_group_name_H-M "P -4 M 2"
_symmetry_group_IT_number 115
_symmetry_cell_setting 'tetragonal'
loop_
_space_group_symop_operation_xyz
x,y,z
y,-x,-z
-x,-y,z
-y,x,-z
y,x,-z
-y,-x,-z
-x,y,z
x,-y,z
loop_
_atom_site_type_symbol
_atom_site_label
_atom_site_fract_x
_atom_site_fract_y
_atom_site_fract_z
Si Si1 0.334514 0.669708 0.379213
Si Si2 0.339538 0.328523 0.952429
Si Si3 0.328742 0.838480 0.128207
Si Si4 0.671067 0.162611 0.704033
Si Si5 0.833347 0.836576 0.550103
Si Si6 0.332109 0.667056 0.787812
O O1 0.500000 0.713528 0.373031
O O2 0.316343 0.500000 0.383716
O O3 0.246369 0.729777 0.337996
O O4 0.274163 0.740048 0.422593
O O5 0.500000 0.267535 0.944298
O O6 0.344682 0.500000 0.950886
O O7 0.235831 0.266136 0.915176
O O8 0.281361 0.281361 0.000000
O O9 0.500000 0.837224 0.126597
O O10 0.275467 0.751837 0.170198
O O11 0.268232 0.000000 0.130569
O O12 0.500000 0.164362 0.703639
O O13 0.726446 0.243182 0.746970
O O14 0.730954 0.000000 0.703476
O O15 0.803148 0.803148 0.500000
O O16 0.000000 0.813858 0.561106
O O17 0.787314 0.000000 0.561085
O O18 0.500000 0.693503 0.796250
O O19 0.300698 0.500000 0.778471
#
# Coordination Sequence:
#
# PCOD8309504 Si02
#       6
#     8   8   8   8   8   8
#     4  10  20  33  51  77 106 132 161 200 245 292
#     4   8  13  22  38  60  84 111 146 185 221 261
#     4   9  16  25  39  62  91 118 144 180 227 273
#     4   9  17  30  49  71  94 123 160 199 237 278
#     4   9  19  36  55  74  99 133 171 207 243 286
#     4   9  16  27  45  67  90 117 150 188 230 276
#
# _framework density 17.997726
#
# number of rings (size 3 to 8) (size 9 to 14) (size 15 to 20)
#    0.000    3.000    0.000    2.500    0.000    6.000 
#    0.000    3.333    0.000    4.500    0.000    4.667 
#    0.000    0.000    0.000    0.000    0.000    0.000 
#
# Total GULP energy -595123.369901 kJ/mol
# GULP energy per Si atom -12398.403540 kJ/mol
# Density = 1.795676 g / cm^3
# Si number density = 17.997726 Si / 1000 Ang^3
#
#
#
# Elastic Constant Matrix: (Units=GPa)
#
#
# Indices 1 2 3 4 5 6 
#
# 1 74.1934 35.7266 63.8645 0.0000 0.0000 0.0000
# 2 35.7266 74.1934 63.8645 0.0000 0.0000 0.0000
# 3 63.8645 63.8645 158.4280 0.0000 0.0000 0.0000
# 4 0.0000 0.0000 0.0000 8.8083 0.0000 0.0000
# 5 0.0000 0.0000 0.0000 0.0000 8.8083 0.0000
# 6 0.0000 0.0000 0.0000 0.0000 0.0000 15.9612
#
#
#
# Elastic Compliance Matrix: (Units=1/GPa)
#
#
# Indices 1 2 3 4 5 6 
#
# 1 0.021555 -0.004441 -0.006899 0.000000 0.000000 0.000000
# 2 -0.004441 0.021555 -0.006899 0.000000 0.000000 0.000000
# 3 -0.006899 -0.006899 0.011874 0.000000 0.000000 0.000000
# 4 0.000000 0.000000 0.000000 0.113529 0.000000 0.000000
# 5 0.000000 0.000000 0.000000 0.000000 0.113529 0.000000
# 6 0.000000 0.000000 0.000000 0.000000 0.000000 0.062652
#
#
# Mechanical properties :
#
#
# Convention : Reuss Voigt Hill
#
# Bulk Modulus (GPa) = 54.03434 70.41397 62.22416
# Shear Modulus (GPa) = 12.90849 16.27285 14.59067
#
# Velocity S-wave (km/s) = 2.68102 3.01019 2.85036
# Velocity P-wave (km/s) = 6.29856 7.16173 6.74397
#
# Compressibility (1/GPa) = 0.01850675
#
# Stress axis : x y z
#
# Youngs Moduli (GPa) = 46.39214 46.39214 84.21634
#
# Poissons Ratio (x) = 0.20603 0.58101
# Poissons Ratio (y) = 0.20603 0.58101
# Poissons Ratio (z) = 0.32006 0.32006
#
# Static dielectric constant tensor:
#      x y z
#    x 3.105140 0.000000 0.000000 
#    y 0.000000 3.105140 0.000000 
#    z 0.000000 0.000000 3.544150 
# 
# 
# High freq. dielectric constant tensor:
#      x y z
#    x 1.666290 0.000000 0.000000 
#    y 0.000000 1.666290 0.000000 
#    z 0.000000 0.000000 1.713510 
# 
# From -- ./inp_files/6121.got.cif
#   From: 2010.03.12/outbox.cif.g09.slc.cpg/sg115_4_cif.got.tgz:6121.got - 2010.04.14 02:11:21.
