data_PCOD8309912
_publ_section_title
;
Structure prediction by ZEFSAII (Michael W. Deem and Ramdas Pophale) SiO2 
 PCOD8309912
Probable space group: P -4 M 2
;
_chemical_formula_sum "Si O2"
_cell_formula_units_Z 48
_cell_length_a 9.004408
_cell_length_b 9.004408
_cell_length_c 31.029377
_cell_angle_alpha 90.000000
_cell_angle_beta 90.000000
_cell_angle_gamma 90.000000
_cell_volume 2515.842135
_symmetry_space_group_name_H-M "P -4 M 2"
_symmetry_group_IT_number 115
_symmetry_cell_setting 'tetragonal'
loop_
_space_group_symop_operation_xyz
x,y,z
y,-x,-z
-x,-y,z
-y,x,-z
y,x,-z
-y,-x,-z
-x,y,z
x,-y,z
loop_
_atom_site_type_symbol
_atom_site_label
_atom_site_fract_x
_atom_site_fract_y
_atom_site_fract_z
Si Si1 0.677408 0.334383 0.046885
Si Si2 0.676897 0.166142 0.129616
Si Si3 0.668596 0.326562 0.214607
Si Si4 0.674891 0.172421 0.540062
Si Si5 0.673285 0.172929 0.698169
Si Si6 0.174828 0.327571 0.619946
O O1 0.500000 0.336342 0.047355
O O2 0.739327 0.500000 0.053850
O O3 0.742646 0.236194 0.085767
O O4 0.728795 0.271206 0.000000
O O5 0.500000 0.174497 0.128285
O O6 0.734965 0.250496 0.171948
O O7 0.736798 0.000000 0.132339
O O8 0.500000 0.273355 0.224461
O O9 0.671592 0.500000 0.205696
O O10 0.773663 0.282377 0.254225
O O11 0.739265 0.260736 0.500000
O O12 0.500000 0.197630 0.541793
O O13 0.744360 0.233053 0.583650
O O14 0.715442 0.000000 0.535046
O O15 0.500000 0.203167 0.688837
O O16 0.771325 0.268784 0.665805
O O17 0.711937 0.000000 0.693215
O O18 0.217502 0.500000 0.615028
O O19 0.000000 0.303574 0.615542
#
# Coordination Sequence:
#
# PCOD8309912 Si02
#       6
#     8   8   8   8   8   8
#     4   8  13  22  38  60  85 115 153 195 239 291
#     4   9  16  25  40  65  95 123 155 200 249 294
#     4   9  17  30  49  72  99 132 167 204 251 306
#     4  11  24  41  62  89 119 151 189 230 272 320
#     4  10  21  37  57  81 108 139 177 220 266 317
#     4  11  24  40  59  85 115 147 185 226 268 318
#
# _framework density 19.079098999999999
#
# number of rings (size 3 to 8) (size 9 to 14) (size 15 to 20)
#    0.000    2.333    0.000    3.500    0.000   10.333 
#    0.000    1.667    0.000    1.000    0.000    4.667 
#    0.000    0.000    0.000    0.000    0.000    0.000 
#
# Total GULP energy -595208.416748 kJ/mol
# GULP energy per Si atom -12400.175349 kJ/mol
# Density = 1.903567 g / cm^3
# Si number density = 19.079099 Si / 1000 Ang^3
#
#
#
# Elastic Constant Matrix: (Units=GPa)
#
#
# Indices 1 2 3 4 5 6 
#
# 1 48.9250 28.6255 31.5487 0.0000 0.0000 0.0000
# 2 28.6255 48.9185 31.5460 0.0000 0.0000 0.0000
# 3 31.5487 31.5460 128.7731 0.0000 0.0000 0.0000
# 4 0.0000 0.0000 0.0000 1020.3810 0.0000 0.0000
# 5 0.0000 0.0000 0.0000 0.0000 1017.0294 0.0000
# 6 0.0000 0.0000 0.0000 0.0000 0.0000 19.5571
#
#
#
# Elastic Compliance Matrix: (Units=1/GPa)
#
#
# Indices 1 2 3 4 5 6 
#
# 1 0.032686 -0.016582 -0.003946 0.000000 0.000000 0.000000
# 2 -0.016582 0.032690 -0.003946 0.000000 0.000000 0.000000
# 3 -0.003946 -0.003946 0.009699 0.000000 0.000000 0.000000
# 4 0.000000 0.000000 0.000000 0.000980 0.000000 0.000000
# 5 0.000000 0.000000 0.000000 0.000000 0.000983 0.000000
# 6 0.000000 0.000000 0.000000 0.000000 0.000000 0.051132
#
#
# Mechanical properties :
#
#
# Convention : Reuss Voigt Hill
#
# Bulk Modulus (GPa) = 38.27369 45.56187 41.91778
# Shear Modulus (GPa) = 26.90683 420.38659 223.64671
#
# Velocity S-wave (km/s) = 3.75944 14.85992 10.83860
# Velocity P-wave (km/s) = 6.24088 17.84251 13.36607
#
# Compressibility (1/GPa) = 0.02612761
#
# Stress axis : x y z
#
# Youngs Moduli (GPa) = 30.59427 30.59044 103.10527
#
# Poissons Ratio (x) = 0.50726 0.40682
# Poissons Ratio (y) = 0.50732 0.40681
# Poissons Ratio (z) = 0.12071 0.12070
#
# Static dielectric constant tensor:
#      x y z
#    x 3.045710 0.000000 0.000000 
#    y 0.000000 3.044530 0.000000 
#    z 0.000000 0.000000 3.855390 
# 
# 
# High freq. dielectric constant tensor:
#      x y z
#    x 1.723700 0.000000 0.000000 
#    y 0.000000 1.723700 0.000000 
#    z 0.000000 0.000000 1.762890 
# 
# From -- ./inp_files/6074.got.cif
#   From: 2010.03.12/outbox.cif.g09.slc.cpg/sg115_4_cif.got.tgz:6074.got - 2010.04.14 02:11:21.
