data_PCOD8309081
_publ_section_title
;
Structure prediction by ZEFSAII (Michael W. Deem and Ramdas Pophale) SiO2 
 PCOD8309081
Probable space group: P -4 21 C
;
_chemical_formula_sum "Si O2"
_cell_formula_units_Z 48
_cell_length_a 8.830092
_cell_length_b 8.830092
_cell_length_c 28.397045
_cell_angle_alpha 90.000000
_cell_angle_beta 90.000000
_cell_angle_gamma 90.000000
_cell_volume 2214.132499
_symmetry_space_group_name_H-M "P -4 21 C"
_symmetry_group_IT_number 114
_symmetry_cell_setting 'tetragonal'
loop_
_space_group_symop_operation_xyz
x,y,z
y,-x,-z
-x,-y,z
-y,x,-z
1/2+x,1/2-y,1/2-z
1/2-x,1/2+y,1/2-z
1/2-y,1/2-x,1/2+z
1/2+y,1/2+x,1/2+z
loop_
_atom_site_type_symbol
_atom_site_label
_atom_site_fract_x
_atom_site_fract_y
_atom_site_fract_z
Si Si1 0.652938 0.417737 0.794455
Si Si2 0.477373 0.678595 0.375778
Si Si3 0.161495 0.436455 0.717833
Si Si4 0.166422 0.484193 0.967647
Si Si5 0.784996 0.360473 0.062794
Si Si6 0.828436 0.156900 0.396379
O O1 0.500000 0.500000 0.778050
O O2 0.792302 0.500539 0.768847
O O3 0.677770 0.433584 0.850419
O O4 0.649207 0.243499 0.779274
O O5 0.500000 0.500000 0.383593
O O6 0.496943 0.717925 0.320654
O O7 0.590101 0.772275 0.408202
O O8 0.313448 0.732786 0.391665
O O9 0.000000 0.500000 0.702297
O O10 0.230216 0.315691 0.961570
O O11 0.291402 0.586938 0.942893
O O12 0.000000 0.500000 0.943960
O O13 0.147474 0.533571 0.021790
O O14 0.704420 0.477103 0.098891
#
# Coordination Sequence:
#
# PCOD8309081 Si02
#       6
#     8   8   8   8   8   8
#     4  11  23  42  67  99 134 181 233 291 349 428
#     4  11  24  45  69 100 138 183 229 294 356 430
#     4  11  24  42  69 100 139 183 236 288 362 429
#     4  12  25  41  64  99 131 180 233 291 348 418
#     4  12  24  44  69  96 140 181 237 290 355 423
#     4  11  24  44  68  98 136 182 234 287 359 412
#
# _framework density 21.678920999999999
#
# number of rings (size 3 to 8) (size 9 to 14) (size 15 to 20)
#    0.000    0.667    1.667    7.500    0.000    3.333 
#    0.000    0.000    0.000    0.000    0.000    0.000 
#    0.000    0.000    0.000    0.000    0.000    0.000 
#
# Total GULP energy -595296.463272 kJ/mol
# GULP energy per Si atom -12402.009652 kJ/mol
# Density = 2.162958 g / cm^3
# Si number density = 21.678921 Si / 1000 Ang^3
#
#
#
# Elastic Constant Matrix: (Units=GPa)
#
#
# Indices 1 2 3 4 5 6 
#
# 1 94.8347 20.2339 32.4388 0.0000 0.0000 0.0000
# 2 20.2339 94.8347 32.4388 0.0000 0.0000 0.0000
# 3 32.4388 32.4388 122.2553 0.0000 0.0000 0.0000
# 4 0.0000 0.0000 0.0000 48.6369 0.0000 0.0000
# 5 0.0000 0.0000 0.0000 0.0000 48.6369 0.0000
# 6 0.0000 0.0000 0.0000 0.0000 0.0000 41.7643
#
#
#
# Elastic Compliance Matrix: (Units=1/GPa)
#
#
# Indices 1 2 3 4 5 6 
#
# 1 0.011812 -0.001593 -0.002712 0.000000 0.000000 0.000000
# 2 -0.001593 0.011812 -0.002712 0.000000 0.000000 0.000000
# 3 -0.002712 -0.002712 0.009619 0.000000 0.000000 0.000000
# 4 0.000000 0.000000 0.000000 0.020561 0.000000 0.000000
# 5 0.000000 0.000000 0.000000 0.000000 0.020561 0.000000
# 6 0.000000 0.000000 0.000000 0.000000 0.000000 0.023944
#
#
# Mechanical properties :
#
#
# Convention : Reuss Voigt Hill
#
# Bulk Modulus (GPa) = 52.05373 53.57197 52.81285
# Shear Modulus (GPa) = 42.10787 42.92851 42.51819
#
# Velocity S-wave (km/s) = 4.41198 4.45477 4.43343
# Velocity P-wave (km/s) = 7.07230 7.15717 7.11486
#
# Compressibility (1/GPa) = 0.01921092
#
# Stress axis : x y z
#
# Youngs Moduli (GPa) = 84.65983 84.65983 103.96579
#
# Poissons Ratio (x) = 0.13484 0.28191
# Poissons Ratio (y) = 0.13484 0.28191
# Poissons Ratio (z) = 0.22956 0.22956
#
# Static dielectric constant tensor:
#      x y z
#    x 3.953460 0.000000 0.000000 
#    y 0.000000 3.953460 0.000000 
#    z 0.000000 0.000000 3.976210 
# 
# 
# High freq. dielectric constant tensor:
#      x y z
#    x 1.858500 0.000000 0.000000 
#    y 0.000000 1.858500 0.000000 
#    z 0.000000 0.000000 1.859340 
# 
# From -- ./inp_files/3917.got.cif
#   From: 2010.03.12/outbox.cif.g09.slc.cpg/sg114_2_cif.got.tgz:3917.got - 2010.04.14 02:08:34.
