data_PCOD8309808
_publ_section_title
;
Structure prediction by ZEFSAII (Michael W. Deem and Ramdas Pophale) SiO2 
 PCOD8309808
Probable space group: P -4 M 2
;
_chemical_formula_sum "Si O2"
_cell_formula_units_Z 44
_cell_length_a 9.299427
_cell_length_b 9.299427
_cell_length_c 28.261266
_cell_angle_alpha 90.000000
_cell_angle_beta 90.000000
_cell_angle_gamma 90.000000
_cell_volume 2444.015703
_symmetry_space_group_name_H-M "P -4 M 2"
_symmetry_group_IT_number 115
_symmetry_cell_setting 'tetragonal'
loop_
_space_group_symop_operation_xyz
x,y,z
y,-x,-z
-x,-y,z
-y,x,-z
y,x,-z
-y,-x,-z
-x,y,z
x,-y,z
loop_
_atom_site_type_symbol
_atom_site_label
_atom_site_fract_x
_atom_site_fract_y
_atom_site_fract_z
Si Si1 0.670993 0.840636 0.856907
Si Si2 0.834112 0.669830 0.675047
Si Si3 0.832402 0.666646 0.406178
Si Si4 0.331549 0.665129 0.232727
Si Si5 0.835212 0.164789 0.500000
Si Si6 0.338019 0.829388 0.960918
O O1 0.500000 0.846564 0.856590
O O2 0.727945 0.739049 0.815041
O O3 0.718368 0.782051 0.908646
O O4 0.733944 0.000000 0.848182
O O5 0.817740 0.500000 0.669061
O O6 0.752602 0.743089 0.632189
O O7 0.760966 0.722557 0.723623
O O8 0.000000 0.717709 0.675316
O O9 0.787434 0.500000 0.405432
O O10 0.793517 0.731130 0.457173
O O11 0.000000 0.687040 0.394966
O O12 0.500000 0.678987 0.225514
O O13 0.285859 0.500000 0.242333
O O14 0.000000 0.188987 0.516060
O O15 0.500000 0.772953 0.969474
O O16 0.333893 0.000000 0.964317
O O17 0.234677 0.765324 0.000000
#
# Coordination Sequence:
#
# PCOD8309808 Si02
#       6
#     8   8   8   8   4   8
#     4   8  15  29  48  69  94 124 159 201 247 294
#     4  10  21  36  53  74 103 138 171 205 249 298
#     4  10  21  36  55  80 107 135 170 210 250 295
#     4   9  17  30  49  72  97 126 162 204 249 296
#     4   9  18  34  54  75 104 140 172 205 248 295
#     4   9  18  32  49  71  99 130 165 204 247 296
#
# _framework density 18.003156000000001
#
# number of rings (size 3 to 8) (size 9 to 14) (size 15 to 20)
#    0.000    2.818    0.000    2.182    0.000    4.727 
#    0.000    6.364    0.000    3.273    0.000    0.000 
#    0.000    0.000    0.000    0.000    0.000    0.000 
#
# Total GULP energy -545536.943925 kJ/mol
# GULP energy per Si atom -12398.566907 kJ/mol
# Density = 1.796218 g / cm^3
# Si number density = 18.003156 Si / 1000 Ang^3
#
#
#
# Elastic Constant Matrix: (Units=GPa)
#
#
# Indices 1 2 3 4 5 6 
#
# 1 66.8084 36.0914 66.3572 0.0000 0.0000 0.0000
# 2 36.0914 66.8062 66.3569 0.0000 0.0000 0.0000
# 3 66.3572 66.3569 161.2911 0.0000 0.0000 0.0000
# 4 0.0000 0.0000 0.0000 192.3230 0.0000 0.0000
# 5 0.0000 0.0000 0.0000 0.0000 192.2310 0.0000
# 6 0.0000 0.0000 0.0000 0.0000 0.0000 24.0339
#
#
#
# Elastic Compliance Matrix: (Units=1/GPa)
#
#
# Indices 1 2 3 4 5 6 
#
# 1 0.026630 -0.005926 -0.008518 0.000000 0.000000 0.000000
# 2 -0.005926 0.026631 -0.008518 0.000000 0.000000 0.000000
# 3 -0.008518 -0.008518 0.013209 0.000000 0.000000 0.000000
# 4 0.000000 0.000000 0.000000 0.005200 0.000000 0.000000
# 5 0.000000 0.000000 0.000000 0.000000 0.005202 0.000000
# 6 0.000000 0.000000 0.000000 0.000000 0.000000 0.041608
#
#
# Mechanical properties :
#
#
# Convention : Reuss Voigt Hill
#
# Bulk Modulus (GPa) = 48.67222 70.27964 59.47593
# Shear Modulus (GPa) = 29.19670 90.12426 59.66048
#
# Velocity S-wave (km/s) = 4.03147 7.08300 5.76288
# Velocity P-wave (km/s) = 6.98315 10.29631 8.79711
#
# Compressibility (1/GPa) = 0.02054560
#
# Stress axis : x y z
#
# Youngs Moduli (GPa) = 37.55187 37.55000 75.70666
#
# Poissons Ratio (x) = 0.22252 0.64486
# Poissons Ratio (y) = 0.22253 0.64490
# Poissons Ratio (z) = 0.31986 0.31986
#
# Static dielectric constant tensor:
#      x y z
#    x 2.071130 0.000000 0.000000 
#    y 0.000000 2.070360 0.000000 
#    z 0.000000 0.000000 3.572570 
# 
# 
# High freq. dielectric constant tensor:
#      x y z
#    x 1.683370 0.000000 0.000000 
#    y 0.000000 1.683370 0.000000 
#    z 0.000000 0.000000 1.711280 
# 
# From -- ./inp_files/5726.got.cif
#   From: 2010.03.12/outbox.cif.g09.slc.cpg/sg115_3_cif.got.tgz:5726.got - 2010.04.14 02:11:21.
