data_PCOD8309754
_publ_section_title
;
Structure prediction by ZEFSAII (Michael W. Deem and Ramdas Pophale) SiO2 
 PCOD8309754
Probable space group: P -4 M 2
;
_chemical_formula_sum "Si O2"
_cell_formula_units_Z 48
_cell_length_a 9.315701
_cell_length_b 9.315701
_cell_length_c 30.840959
_cell_angle_alpha 90.000000
_cell_angle_beta 90.000000
_cell_angle_gamma 90.000000
_cell_volume 2676.448897
_symmetry_space_group_name_H-M "P -4 M 2"
_symmetry_group_IT_number 115
_symmetry_cell_setting 'tetragonal'
loop_
_space_group_symop_operation_xyz
x,y,z
y,-x,-z
-x,-y,z
-y,x,-z
y,x,-z
-y,-x,-z
-x,y,z
x,-y,z
loop_
_atom_site_type_symbol
_atom_site_label
_atom_site_fract_x
_atom_site_fract_y
_atom_site_fract_z
Si Si1 0.167266 0.666393 0.794623
Si Si2 0.170935 0.160174 0.547648
Si Si3 0.829150 0.837711 0.710883
Si Si4 0.332210 0.334386 0.120454
Si Si5 0.167166 0.837496 0.049844
Si Si6 0.828641 0.338067 0.628608
O O1 0.198090 0.500000 0.784402
O O2 0.224720 0.758289 0.754144
O O3 0.252079 0.720666 0.836697
O O4 0.000000 0.693802 0.803302
O O5 0.217693 0.217693 0.500000
O O6 0.231067 0.266385 0.584478
O O7 0.000000 0.153704 0.549197
O O8 0.232181 0.000000 0.556171
O O9 0.768965 0.752326 0.669297
O O10 0.000000 0.837863 0.709617
O O11 0.769222 0.000000 0.710152
O O12 0.500000 0.310187 0.113428
O O13 0.291990 0.500000 0.125978
O O14 0.253991 0.273751 0.078521
O O15 0.000000 0.820282 0.060027
O O16 0.216683 0.000000 0.060236
O O17 0.199526 0.800475 0.000000
O O18 0.769440 0.500000 0.631598
O O19 0.000000 0.337877 0.628787
#
# Coordination Sequence:
#
# PCOD8309754 Si02
#       6
#     8   8   8   8   8   8
#     4   9  17  30  47  66  91 125 162 197 234 277
#     4   8  13  21  33  50  75 108 142 174 212 260
#     4   9  16  25  39  61  88 117 150 189 232 277
#     4  10  21  35  51  74 103 133 165 201 242 289
#     4   9  19  36  56  77 101 130 165 204 245 289
#     4   9  15  22  34  55  84 114 142 177 224 273
#
# _framework density 17.934213
#
# number of rings (size 3 to 8) (size 9 to 14) (size 15 to 20)
#    0.000    3.000    0.000    2.500    0.000    6.667 
#    0.000    4.167    0.000    0.000    0.000    1.167 
#    0.000    4.333    0.000    0.000    0.000    0.000 
#
# Total GULP energy -595129.151420 kJ/mol
# GULP energy per Si atom -12398.523988 kJ/mol
# Density = 1.789339 g / cm^3
# Si number density = 17.934213 Si / 1000 Ang^3
#
#
#
# Elastic Constant Matrix: (Units=GPa)
#
#
# Indices 1 2 3 4 5 6 
#
# 1 72.1438 32.4010 65.0927 0.0000 0.0000 0.0000
# 2 32.4010 72.1439 65.0928 0.0000 0.0000 0.0000
# 3 65.0927 65.0928 163.7596 0.0000 0.0000 0.0000
# 4 0.0000 0.0000 0.0000 8.3081 0.0000 0.0000
# 5 0.0000 0.0000 0.0000 0.0000 8.3081 0.0000
# 6 0.0000 0.0000 0.0000 0.0000 0.0000 15.0485
#
#
#
# Elastic Compliance Matrix: (Units=1/GPa)
#
#
# Indices 1 2 3 4 5 6 
#
# 1 0.022051 -0.003111 -0.007529 0.000000 0.000000 0.000000
# 2 -0.003111 0.022051 -0.007529 0.000000 0.000000 0.000000
# 3 -0.007529 -0.007529 0.012092 0.000000 0.000000 0.000000
# 4 0.000000 0.000000 0.000000 0.120365 0.000000 0.000000
# 5 0.000000 0.000000 0.000000 0.000000 0.120365 0.000000
# 6 0.000000 0.000000 0.000000 0.000000 0.000000 0.066452
#
#
# Mechanical properties :
#
#
# Convention : Reuss Voigt Hill
#
# Bulk Modulus (GPa) = 50.35783 70.35780 60.35782
# Shear Modulus (GPa) = 12.30528 16.03032 14.16780
#
# Velocity S-wave (km/s) = 2.62226 2.99296 2.81372
# Velocity P-wave (km/s) = 6.10807 7.15961 6.65464
#
# Compressibility (1/GPa) = 0.01985788
#
# Stress axis : x y z
#
# Youngs Moduli (GPa) = 45.34931 45.34939 82.70218
#
# Poissons Ratio (x) = 0.14107 0.62263
# Poissons Ratio (y) = 0.14107 0.62263
# Poissons Ratio (z) = 0.34142 0.34142
#
# Static dielectric constant tensor:
#      x y z
#    x 3.083770 0.000000 0.000000 
#    y 0.000000 3.083770 0.000000 
#    z 0.000000 0.000000 3.534540 
# 
# 
# High freq. dielectric constant tensor:
#      x y z
#    x 1.662680 0.000000 0.000000 
#    y 0.000000 1.662680 0.000000 
#    z 0.000000 0.000000 1.710840 
# 
# From -- ./inp_files/6065.got.cif
#   From: 2010.03.12/outbox.cif.g09.slc.cpg/sg115_4_cif.got.tgz:6065.got - 2010.04.14 02:11:21.
