data_PCOD8309550
_publ_section_title
;
Structure prediction by ZEFSAII (Michael W. Deem and Ramdas Pophale) SiO2 
 PCOD8309550
Probable space group: P -4 M 2
;
_chemical_formula_sum "Si O2"
_cell_formula_units_Z 44
_cell_length_a 8.104732
_cell_length_b 8.104732
_cell_length_c 31.540454
_cell_angle_alpha 90.000000
_cell_angle_beta 90.000000
_cell_angle_gamma 90.000000
_cell_volume 2071.787734
_symmetry_space_group_name_H-M "P -4 M 2"
_symmetry_group_IT_number 115
_symmetry_cell_setting 'tetragonal'
loop_
_space_group_symop_operation_xyz
x,y,z
y,-x,-z
-x,-y,z
-y,x,-z
y,x,-z
-y,-x,-z
-x,y,z
x,-y,z
loop_
_atom_site_type_symbol
_atom_site_label
_atom_site_fract_x
_atom_site_fract_y
_atom_site_fract_z
Si Si1 0.500000 0.307384 0.266188
Si Si2 0.193466 0.183170 0.128861
Si Si3 0.195886 0.500000 0.638802
Si Si4 0.817118 0.689232 0.042348
Si Si5 0.313046 0.313046 0.500000
Si Si6 0.815475 0.193048 0.414582
Si Si7 0.310774 0.185145 0.782473
O O1 0.500000 0.500000 0.255036
O O2 0.500000 0.279512 0.315868
O O3 0.669626 0.229133 0.246451
O O4 0.274025 0.231255 0.083540
O O5 0.244112 0.296544 0.168592
O O6 0.000000 0.200165 0.121203
O O7 0.248895 0.000000 0.141240
O O8 0.258621 0.332364 0.615510
O O9 0.000000 0.500000 0.643632
O O10 0.830727 0.500000 0.053617
O O11 0.000000 0.764226 0.034424
O O12 0.711979 0.711979 0.000000
O O13 0.282771 0.500000 0.515148
O O14 0.276062 0.195324 0.539479
O O15 0.000000 0.233045 0.396101
O O16 0.791751 0.000000 0.421027
O O17 0.500000 0.168241 0.769979
O O18 0.228882 0.000000 0.775886
#
# Coordination Sequence:
#
# PCOD8309550 Si02
#       7
#     4   8   4   8   4   8   8
#     4  10  22  38  58  84 114 148 190 238 290 352
#     4   9  17  31  54  81 106 135 175 224 274 330
#     4  10  22  40  58  82 120 156 196 252 302 352
#     4  10  20  34  52  75 105 142 182 223 272 331
#     4  11  22  35  56  88 124 159 200 251 302 358
#     4  10  21  38  60  85 116 159 206 249 302 363
#     4   9  18  35  57  81 110 144 183 230 289 351
#
# _framework density 21.237698000000002
#
# number of rings (size 3 to 8) (size 9 to 14) (size 15 to 20)
#    0.000    2.273    0.909    1.636    0.000    7.273 
#    1.636    0.000    0.000    0.000    0.000    0.000 
#    0.000    0.000    0.000    0.000    0.000    0.000 
#
# Total GULP energy -545270.581389 kJ/mol
# GULP energy per Si atom -12392.513213 kJ/mol
# Density = 2.118936 g / cm^3
# Si number density = 21.237698 Si / 1000 Ang^3
#
#
#
# Elastic Constant Matrix: (Units=GPa)
#
#
# Indices 1 2 3 4 5 6 
#
# 1 79.8680 25.5468 41.1229 0.0000 0.0000 0.0000
# 2 25.5468 79.8680 41.1229 0.0000 0.0000 0.0000
# 3 41.1229 41.1229 143.6655 0.0000 0.0000 0.0000
# 4 0.0000 0.0000 0.0000 30.7463 0.0000 0.0000
# 5 0.0000 0.0000 0.0000 0.0000 30.7463 0.0000
# 6 0.0000 0.0000 0.0000 0.0000 0.0000 14.6666
#
#
#
# Elastic Compliance Matrix: (Units=1/GPa)
#
#
# Indices 1 2 3 4 5 6 
#
# 1 0.015312 -0.003097 -0.003496 0.000000 0.000000 0.000000
# 2 -0.003097 0.015312 -0.003496 0.000000 0.000000 0.000000
# 3 -0.003496 -0.003496 0.008962 0.000000 0.000000 0.000000
# 4 0.000000 0.000000 0.000000 0.032524 0.000000 0.000000
# 5 0.000000 0.000000 0.000000 0.000000 0.032524 0.000000
# 6 0.000000 0.000000 0.000000 0.000000 0.000000 0.068182
#
#
# Mechanical properties :
#
#
# Convention : Reuss Voigt Hill
#
# Bulk Modulus (GPa) = 51.53151 57.66520 54.59836
# Shear Modulus (GPa) = 25.06721 28.27245 26.66983
#
# Velocity S-wave (km/s) = 3.43930 3.65257 3.54754
# Velocity P-wave (km/s) = 6.33155 6.70818 6.52258
#
# Compressibility (1/GPa) = 0.01940560
#
# Stress axis : x y z
#
# Youngs Moduli (GPa) = 65.31017 65.31017 111.58092
#
# Poissons Ratio (x) = 0.20230 0.39011
# Poissons Ratio (y) = 0.20230 0.39011
# Poissons Ratio (z) = 0.22834 0.22834
#
# Static dielectric constant tensor:
#      x y z
#    x 3.816440 0.000000 0.000000 
#    y 0.000000 3.816440 0.000000 
#    z 0.000000 0.000000 3.703340 
# 
# 
# High freq. dielectric constant tensor:
#      x y z
#    x 1.818350 0.000000 0.000000 
#    y 0.000000 1.818350 0.000000 
#    z 0.000000 0.000000 1.827880 
# 
# From -- ./inp_files/5885.got.cif
#   From: 2010.03.12/outbox.cif.g09.slc.cpg/sg115_3_cif.got.tgz:5885.got - 2010.04.14 02:11:21.
