data_PCOD8309955
_publ_section_title
;
Structure prediction by ZEFSAII (Michael W. Deem and Ramdas Pophale) SiO2 
 PCOD8309955
Probable space group: P -4 M 2
;
_chemical_formula_sum "Si O2"
_cell_formula_units_Z 32
_cell_length_a 11.826284
_cell_length_b 11.826284
_cell_length_c 11.386120
_cell_angle_alpha 90.000000
_cell_angle_beta 90.000000
_cell_angle_gamma 90.000000
_cell_volume 1592.474052
_symmetry_space_group_name_H-M "P -4 M 2"
_symmetry_group_IT_number 115
_symmetry_cell_setting 'tetragonal'
loop_
_space_group_symop_operation_xyz
x,y,z
y,-x,-z
-x,-y,z
-y,x,-z
y,x,-z
-y,-x,-z
-x,y,z
x,-y,z
loop_
_atom_site_type_symbol
_atom_site_label
_atom_site_fract_x
_atom_site_fract_y
_atom_site_fract_z
Si Si1 0.697404 0.000000 0.412425
Si Si2 0.777424 0.820209 0.778556
Si Si3 0.867017 0.000000 0.607874
Si Si4 0.243809 0.370801 0.600895
Si Si5 0.257233 0.000000 0.141551
Si Si6 0.370334 0.000000 0.902218
O O1 0.823756 0.000000 0.471532
O O2 0.634393 0.115118 0.450126
O O3 0.692906 0.000000 0.271896
O O4 0.739736 0.699493 0.723661
O O5 0.883449 0.813767 0.869785
O O6 0.817137 0.888442 0.665345
O O7 0.679105 0.885170 0.846624
O O8 0.000000 0.000000 0.616163
O O9 0.327503 0.327503 0.500000
O O10 0.274806 0.500000 0.630427
O O11 0.353188 0.000000 0.042081
O O12 0.500000 0.000000 0.870814
#
# Coordination Sequence:
#
# PCOD8309955 Si02
#       6
#     4   8   4   8   4   4
#     4  10  22  39  61  94 129 160 198 249 313 380
#     4  10  22  41  63  94 126 166 204 254 314 372
#     4  11  19  37  65  99 138 159 195 243 315 400
#     4  11  23  40  59  89 127 168 208 251 312 378
#     4  10  21  39  61  90 124 159 204 247 306 369
#     4  11  25  43  66  90 124 166 214 266 311 362
#
# _framework density 20.094518999999998
#
# number of rings (size 3 to 8) (size 9 to 14) (size 15 to 20)
#    0.000    1.500    3.750    1.125    0.000    5.250 
#   18.000    1.250    0.000    0.000    0.000    0.000 
#    0.000    0.000    0.000    0.000    0.000    0.000 
#
# Total GULP energy -396571.787913 kJ/mol
# GULP energy per Si atom -12392.868372 kJ/mol
# Density = 2.004878 g / cm^3
# Si number density = 20.094519 Si / 1000 Ang^3
#
#
#
# Elastic Constant Matrix: (Units=GPa)
#
#
# Indices 1 2 3 4 5 6 
#
# 1 149.6190 47.4132 51.4177 0.0000 0.0000 0.0000
# 2 47.4132 149.6190 51.4177 0.0000 0.0000 0.0000
# 3 51.4177 51.4177 106.3038 0.0000 0.0000 0.0000
# 4 0.0000 0.0000 0.0000 28.0563 0.0000 0.0000
# 5 0.0000 0.0000 0.0000 0.0000 28.0563 0.0000
# 6 0.0000 0.0000 0.0000 0.0000 0.0000 10.0699
#
#
#
# Elastic Compliance Matrix: (Units=1/GPa)
#
#
# Indices 1 2 3 4 5 6 
#
# 1 0.008287 -0.001497 -0.003284 0.000000 0.000000 0.000000
# 2 -0.001497 0.008287 -0.003284 0.000000 0.000000 0.000000
# 3 -0.003284 -0.003284 0.012584 0.000000 0.000000 0.000000
# 4 0.000000 0.000000 0.000000 0.035643 0.000000 0.000000
# 5 0.000000 0.000000 0.000000 0.000000 0.035643 0.000000
# 6 0.000000 0.000000 0.000000 0.000000 0.000000 0.099306
#
#
# Mechanical properties :
#
#
# Convention : Reuss Voigt Hill
#
# Bulk Modulus (GPa) = 76.76518 78.44880 77.60699
# Shear Modulus (GPa) = 22.70447 30.25604 26.48025
#
# Velocity S-wave (km/s) = 3.36502 3.88453 3.63407
# Velocity P-wave (km/s) = 7.30635 7.69702 7.50423
#
# Compressibility (1/GPa) = 0.01302674
#
# Stress axis : x y z
#
# Youngs Moduli (GPa) = 120.67522 120.67522 79.46771
#
# Poissons Ratio (x) = 0.18071 0.26096
# Poissons Ratio (y) = 0.18071 0.26096
# Poissons Ratio (z) = 0.39628 0.39628
#
# Static dielectric constant tensor:
#      x y z
#    x 3.688040 0.000000 0.000000 
#    y 0.000000 3.688040 0.000000 
#    z 0.000000 0.000000 3.753380 
# 
# 
# High freq. dielectric constant tensor:
#      x y z
#    x 1.775110 0.000000 0.000000 
#    y 0.000000 1.775110 0.000000 
#    z 0.000000 0.000000 1.777340 
# 
# From -- ./inp_files/2598.got.cif
#   From: 2010.03.12/outbox.cif.g09.slc.cpg/sg115_2_cif.got.tgz:2598.got - 2010.04.14 02:11:21.
