data_PCOD8309037
_publ_section_title
;
Structure prediction by ZEFSAII (Michael W. Deem and Ramdas Pophale) SiO2 
 PCOD8309037
Probable space group: P -4 21 C
;
_chemical_formula_sum "Si O2"
_cell_formula_units_Z 48
_cell_length_a 8.739431
_cell_length_b 8.739431
_cell_length_c 29.204790
_cell_angle_alpha 90.000000
_cell_angle_beta 90.000000
_cell_angle_gamma 90.000000
_cell_volume 2230.593352
_symmetry_space_group_name_H-M "P -4 21 C"
_symmetry_group_IT_number 114
_symmetry_cell_setting 'tetragonal'
loop_
_space_group_symop_operation_xyz
x,y,z
y,-x,-z
-x,-y,z
-y,x,-z
1/2+x,1/2-y,1/2-z
1/2-x,1/2+y,1/2-z
1/2-y,1/2-x,1/2+z
1/2+y,1/2+x,1/2+z
loop_
_atom_site_type_symbol
_atom_site_label
_atom_site_fract_x
_atom_site_fract_y
_atom_site_fract_z
Si Si1 0.567776 0.666703 0.114121
Si Si2 0.960939 0.774917 0.482517
Si Si3 0.931785 0.832589 0.294897
Si Si4 0.833327 0.570232 0.615660
Si Si5 0.276237 0.440992 0.518457
Si Si6 0.932198 0.332141 0.208032
O O1 0.500000 0.500000 0.106321
O O2 0.528210 0.759270 0.067870
O O3 0.486935 0.749806 0.157885
O O4 0.748273 0.656175 0.122443
O O5 0.889088 0.618961 0.502105
O O6 0.093369 0.829188 0.517721
O O7 0.750166 0.833172 0.291054
O O8 0.006227 0.758773 0.250914
O O9 0.000000 0.000000 0.298924
O O10 0.726148 0.527817 0.572778
O O11 0.756930 0.493805 0.660843
O O12 0.000000 0.500000 0.607765
O O13 0.312949 0.595514 0.491426
O O14 0.000000 0.500000 0.211393
#
# Coordination Sequence:
#
# PCOD8309037 Si02
#       6
#     8   8   8   8   8   8
#     4  11  20  36  62 102 127 160 223 270 321 391
#     4  11  21  38  66  95 123 170 220 278 311 385
#     4  11  23  41  67  99 133 170 215 276 328 405
#     4  11  23  39  68  92 125 175 218 270 329 394
#     4  11  27  43  59  90 133 173 212 269 330 402
#     4  11  23  43  68  97 130 176 217 272 339 398
#
# _framework density 21.518941000000002
#
# number of rings (size 3 to 8) (size 9 to 14) (size 15 to 20)
#    0.000    1.000    3.333    6.000    7.000    0.000 
#    3.000    3.333    0.000    0.000    0.000    0.000 
#    0.000    0.000    0.000    0.000    0.000    0.000 
#
# Total GULP energy -595164.148713 kJ/mol
# GULP energy per Si atom -12399.253098 kJ/mol
# Density = 2.146996 g / cm^3
# Si number density = 21.518941 Si / 1000 Ang^3
#
#
#
# Elastic Constant Matrix: (Units=GPa)
#
#
# Indices 1 2 3 4 5 6 
#
# 1 97.1765 24.1948 54.3486 0.0000 0.0000 0.0000
# 2 24.1948 97.1765 54.3486 0.0000 0.0000 0.0000
# 3 54.3486 54.3486 200.0892 0.0000 0.0000 0.0000
# 4 0.0000 0.0000 0.0000 45.1734 0.0000 0.0000
# 5 0.0000 0.0000 0.0000 0.0000 45.1734 0.0000
# 6 0.0000 0.0000 0.0000 0.0000 0.0000 42.2515
#
#
#
# Elastic Compliance Matrix: (Units=1/GPa)
#
#
# Indices 1 2 3 4 5 6 
#
# 1 0.012295 -0.001407 -0.002957 0.000000 0.000000 0.000000
# 2 -0.001407 0.012295 -0.002957 0.000000 0.000000 0.000000
# 3 -0.002957 -0.002957 0.006604 0.000000 0.000000 0.000000
# 4 0.000000 0.000000 0.000000 0.022137 0.000000 0.000000
# 5 0.000000 0.000000 0.000000 0.000000 0.022137 0.000000
# 6 0.000000 0.000000 0.000000 0.000000 0.000000 0.023668
#
#
# Mechanical properties :
#
#
# Convention : Reuss Voigt Hill
#
# Bulk Modulus (GPa) = 60.42155 73.35845 66.89000
# Shear Modulus (GPa) = 41.91244 43.95631 42.93437
#
# Velocity S-wave (km/s) = 4.41806 4.52450 4.47160
# Velocity P-wave (km/s) = 7.35969 7.83958 7.60342
#
# Compressibility (1/GPa) = 0.01655039
#
# Stress axis : x y z
#
# Youngs Moduli (GPa) = 81.33461 81.33461 151.41585
#
# Poissons Ratio (x) = 0.11445 0.44779
# Poissons Ratio (y) = 0.11445 0.44779
# Poissons Ratio (z) = 0.24053 0.24053
#
# Static dielectric constant tensor:
#      x y z
#    x 3.845310 0.000000 0.000000 
#    y 0.000000 3.845310 0.000000 
#    z 0.000000 0.000000 5.317230 
# 
# 
# High freq. dielectric constant tensor:
#      x y z
#    x 1.837280 0.000000 0.000000 
#    y 0.000000 1.837280 0.000000 
#    z 0.000000 0.000000 1.867180 
# 
# From -- ./inp_files/3959.got.cif
#   From: 2010.03.12/outbox.cif.g09.slc.cpg/sg114_2_cif.got.tgz:3959.got - 2010.04.14 02:08:34.
