data_PCOD8309479
_publ_section_title
;
Structure prediction by ZEFSAII (Michael W. Deem and Ramdas Pophale) SiO2 
 PCOD8309479
Probable space group: P -4 M 2
;
_chemical_formula_sum "Si O2"
_cell_formula_units_Z 48
_cell_length_a 9.258441
_cell_length_b 9.258441
_cell_length_c 31.070834
_cell_angle_alpha 90.000000
_cell_angle_beta 90.000000
_cell_angle_gamma 90.000000
_cell_volume 2663.352423
_symmetry_space_group_name_H-M "P -4 M 2"
_symmetry_group_IT_number 115
_symmetry_cell_setting 'tetragonal'
loop_
_space_group_symop_operation_xyz
x,y,z
y,-x,-z
-x,-y,z
-y,x,-z
y,x,-z
-y,-x,-z
-x,y,z
x,-y,z
loop_
_atom_site_type_symbol
_atom_site_label
_atom_site_fract_x
_atom_site_fract_y
_atom_site_fract_z
Si Si1 0.172037 0.337948 0.372462
Si Si2 0.827712 0.161098 0.452852
Si Si3 0.167911 0.833866 0.710830
Si Si4 0.831880 0.331490 0.796459
Si Si5 0.328333 0.660913 0.952853
Si Si6 0.165146 0.671479 0.128924
O O1 0.232343 0.500000 0.370516
O O2 0.235248 0.263408 0.415473
O O3 0.226071 0.254017 0.330265
O O4 0.000000 0.334925 0.374007
O O5 0.779815 0.220186 0.500000
O O6 0.000000 0.156648 0.451562
O O7 0.766628 0.000000 0.445009
O O8 0.214418 0.737518 0.751201
O O9 0.000000 0.817390 0.700019
O O10 0.207502 0.000000 0.721152
O O11 0.794599 0.500000 0.795336
O O12 0.739624 0.256524 0.833093
O O13 0.000000 0.303152 0.805670
O O14 0.500000 0.652258 0.952538
O O15 0.265144 0.500000 0.944042
O O16 0.271934 0.769669 0.916286
O O17 0.280214 0.719787 0.000000
O O18 0.177302 0.500000 0.132549
O O19 0.000000 0.723614 0.131830
#
# Coordination Sequence:
#
# PCOD8309479 Si02
#       6
#     8   8   8   8   8   8
#     4   9  16  25  40  65  94 119 147 188 233 274
#     4   8  13  22  38  60  85 115 152 189 223 265
#     4   9  17  30  48  68  92 123 155 189 235 288
#     4  10  21  36  53  73  97 127 164 204 246 292
#     4   8  14  27  48  71  96 130 170 207 241 279
#     4  10  20  33  51  76 104 133 165 201 242 289
#
# _framework density 18.022400000000001
#
# number of rings (size 3 to 8) (size 9 to 14) (size 15 to 20)
#    0.000    3.000    0.000    2.500    0.000    4.667 
#    0.000    2.500    0.000    4.000    0.000    4.667 
#    0.000    0.000    0.000    0.000    0.000    0.000 
#
# Total GULP energy -595064.135248 kJ/mol
# GULP energy per Si atom -12397.169484 kJ/mol
# Density = 1.798138 g / cm^3
# Si number density = 18.022400 Si / 1000 Ang^3
#
#
#
# Elastic Constant Matrix: (Units=GPa)
#
#
# Indices 1 2 3 4 5 6 
#
# 1 69.2837 29.2796 65.4963 0.0000 0.0000 0.0000
# 2 29.2796 69.2834 65.4962 0.0000 0.0000 0.0000
# 3 65.4963 65.4962 184.9706 0.0000 0.0000 0.0000
# 4 0.0000 0.0000 0.0000 5.1491 0.0000 0.0000
# 5 0.0000 0.0000 0.0000 0.0000 5.1477 0.0000
# 6 0.0000 0.0000 0.0000 0.0000 0.0000 15.7625
#
#
#
# Elastic Compliance Matrix: (Units=1/GPa)
#
#
# Indices 1 2 3 4 5 6 
#
# 1 0.022081 -0.002917 -0.006786 0.000000 0.000000 0.000000
# 2 -0.002917 0.022081 -0.006786 0.000000 0.000000 0.000000
# 3 -0.006786 -0.006786 0.010212 0.000000 0.000000 0.000000
# 4 0.000000 0.000000 0.000000 0.194210 0.000000 0.000000
# 5 0.000000 0.000000 0.000000 0.000000 0.194262 0.000000
# 6 0.000000 0.000000 0.000000 0.000000 0.000000 0.063442
#
#
# Mechanical properties :
#
#
# Convention : Reuss Voigt Hill
#
# Bulk Modulus (GPa) = 46.73542 71.56466 59.15004
# Shear Modulus (GPa) = 9.15085 16.09621 12.62353
#
# Velocity S-wave (km/s) = 2.25577 2.99176 2.64945
# Velocity P-wave (km/s) = 5.72476 7.19229 6.50007
#
# Compressibility (1/GPa) = 0.02139705
#
# Stress axis : x y z
#
# Youngs Moduli (GPa) = 45.28795 45.28774 97.92463
#
# Poissons Ratio (x) = 0.13208 0.66451
# Poissons Ratio (y) = 0.13208 0.66451
# Poissons Ratio (z) = 0.30732 0.30732
#
# Static dielectric constant tensor:
#      x y z
#    x 3.218130 0.000000 0.000000 
#    y 0.000000 3.218120 0.000000 
#    z 0.000000 0.000000 3.693160 
# 
# 
# High freq. dielectric constant tensor:
#      x y z
#    x 1.667120 0.000000 0.000000 
#    y 0.000000 1.667120 0.000000 
#    z 0.000000 0.000000 1.716980 
# 
# From -- ./inp_files/6007.got.cif
#   From: 2010.03.12/outbox.cif.g09.slc.cpg/sg115_4_cif.got.tgz:6007.got - 2010.04.14 02:11:21.
