data_PCOD8309203
_publ_section_title
;
Structure prediction by ZEFSAII (Michael W. Deem and Ramdas Pophale) SiO2 
 PCOD8309203
Probable space group: P -4 M 2
;
_chemical_formula_sum "Si O2"
_cell_formula_units_Z 48
_cell_length_a 13.883011
_cell_length_b 13.883011
_cell_length_c 14.940557
_cell_angle_alpha 90.000000
_cell_angle_beta 90.000000
_cell_angle_gamma 90.000000
_cell_volume 2879.612992
_symmetry_space_group_name_H-M "P -4 M 2"
_symmetry_group_IT_number 115
_symmetry_cell_setting 'tetragonal'
loop_
_space_group_symop_operation_xyz
x,y,z
y,-x,-z
-x,-y,z
-y,x,-z
y,x,-z
-y,-x,-z
-x,y,z
x,-y,z
loop_
_atom_site_type_symbol
_atom_site_label
_atom_site_fract_x
_atom_site_fract_y
_atom_site_fract_z
Si Si1 0.388951 0.236641 0.982106
Si Si2 0.214087 0.705512 0.697032
Si Si3 0.110780 0.296269 0.362541
Si Si4 0.768553 0.612229 0.516145
Si Si5 0.111424 0.609339 0.852669
Si Si6 0.609297 0.217716 0.780373
O O1 0.500000 0.261066 0.992356
O O2 0.366069 0.194707 0.883565
O O3 0.336266 0.336266 0.000000
O O4 0.354782 0.159671 0.055536
O O5 0.205607 0.816177 0.658085
O O6 0.199434 0.628197 0.618486
O O7 0.135748 0.682386 0.772339
O O8 0.321237 0.697177 0.741920
O O9 0.146055 0.348706 0.452888
O O10 0.121301 0.370719 0.278752
O O11 0.000000 0.262325 0.372625
O O12 0.668815 0.668815 0.500000
O O13 0.751274 0.500000 0.497107
O O14 0.143530 0.500000 0.828158
O O15 0.000000 0.614675 0.871773
O O16 0.500000 0.253040 0.768748
#
# Coordination Sequence:
#
# PCOD8309203 Si02
#       6
#     8   8   8   8   8   8
#     4  10  18  32  50  72 103 136 170 207 248 298
#     4   9  19  34  52  72 104 134 169 210 255 307
#     4   9  19  33  52  76 102 130 164 210 260 303
#     4  10  20  32  48  71 101 137 173 211 254 306
#     4  10  20  34  53  77 104 136 174 214 255 297
#     4   9  18  30  50  74 101 134 168 205 252 302
#
# _framework density 16.668907000000001
#
# number of rings (size 3 to 8) (size 9 to 14) (size 15 to 20)
#    1.000    1.500    1.667    1.000    0.000    3.000 
#    0.000    1.667    0.000    2.000    0.000    0.000 
#    0.000    0.000    0.000    0.000    0.000    0.000 
#
# Total GULP energy -594673.617426 kJ/mol
# GULP energy per Si atom -12389.033696 kJ/mol
# Density = 1.663097 g / cm^3
# Si number density = 16.668907 Si / 1000 Ang^3
#
#
#
# Elastic Constant Matrix: (Units=GPa)
#
#
# Indices 1 2 3 4 5 6 
#
# 1 61.0955 34.5666 37.3410 0.0000 0.0000 0.0000
# 2 34.5666 61.0955 37.3410 0.0000 0.0000 0.0000
# 3 37.3410 37.3410 135.4916 0.0000 0.0000 0.0000
# 4 0.0000 0.0000 0.0000 15.2587 0.0000 0.0000
# 5 0.0000 0.0000 0.0000 0.0000 15.2587 0.0000
# 6 0.0000 0.0000 0.0000 0.0000 0.0000 16.2980
#
#
#
# Elastic Compliance Matrix: (Units=1/GPa)
#
#
# Indices 1 2 3 4 5 6 
#
# 1 0.025507 -0.012188 -0.003671 0.000000 0.000000 0.000000
# 2 -0.012188 0.025507 -0.003671 0.000000 0.000000 0.000000
# 3 -0.003671 -0.003671 0.009404 0.000000 0.000000 0.000000
# 4 0.000000 0.000000 0.000000 0.065536 0.000000 0.000000
# 5 0.000000 0.000000 0.000000 0.000000 0.065536 0.000000
# 6 0.000000 0.000000 0.000000 0.000000 0.000000 0.061357
#
#
# Mechanical properties :
#
#
# Convention : Reuss Voigt Hill
#
# Bulk Modulus (GPa) = 46.81816 52.90886 49.86351
# Shear Modulus (GPa) = 16.72096 19.25868 17.98982
#
# Velocity S-wave (km/s) = 3.17065 3.40275 3.28875
# Velocity P-wave (km/s) = 6.44609 6.87374 6.66335
#
# Compressibility (1/GPa) = 0.02135923
#
# Stress axis : x y z
#
# Youngs Moduli (GPa) = 39.20496 39.20496 106.34009
#
# Poissons Ratio (x) = 0.47782 0.39034
# Poissons Ratio (y) = 0.47782 0.39034
# Poissons Ratio (z) = 0.14391 0.14391
#
# Static dielectric constant tensor:
#      x y z
#    x 2.865780 0.000000 0.000000 
#    y 0.000000 2.865780 0.000000 
#    z 0.000000 0.000000 3.441650 
# 
# 
# High freq. dielectric constant tensor:
#      x y z
#    x 1.613360 0.000000 0.000000 
#    y 0.000000 1.613360 0.000000 
#    z 0.000000 0.000000 1.667870 
# 
# From -- ./inp_files/3742.got.cif
#   From: 2010.03.12/outbox.cif.g09.slc.cpg/sg115_2_cif.got.tgz:3742.got - 2010.04.14 02:11:21.
