data_PCOD8309546
_publ_section_title
;
Structure prediction by ZEFSAII (Michael W. Deem and Ramdas Pophale) SiO2 
 PCOD8309546
Probable space group: P -4 M 2
;
_chemical_formula_sum "Si O2"
_cell_formula_units_Z 40
_cell_length_a 8.127979
_cell_length_b 8.127979
_cell_length_c 29.138136
_cell_angle_alpha 90.000000
_cell_angle_beta 90.000000
_cell_angle_gamma 90.000000
_cell_volume 1924.983059
_symmetry_space_group_name_H-M "P -4 M 2"
_symmetry_group_IT_number 115
_symmetry_cell_setting 'tetragonal'
loop_
_space_group_symop_operation_xyz
x,y,z
y,-x,-z
-x,-y,z
-y,x,-z
y,x,-z
-y,-x,-z
-x,y,z
x,-y,z
loop_
_atom_site_type_symbol
_atom_site_label
_atom_site_fract_x
_atom_site_fract_y
_atom_site_fract_z
Si Si1 0.306346 0.680294 0.861422
Si Si2 0.692116 0.315638 0.447442
Si Si3 0.178896 0.309100 0.045334
Si Si4 0.315905 0.810689 0.764707
Si Si5 0.191093 0.000000 0.391915
Si Si6 0.197381 0.000000 0.289354
O O1 0.500000 0.670027 0.868449
O O2 0.233040 0.500000 0.851502
O O3 0.225183 0.746095 0.908786
O O4 0.263940 0.794230 0.817991
O O5 0.730365 0.269636 0.500000
O O6 0.500000 0.322800 0.438816
O O7 0.764642 0.500000 0.435873
O O8 0.763654 0.169216 0.417119
O O9 0.162706 0.500000 0.055476
O O10 0.000000 0.230484 0.036481
O O11 0.287170 0.287170 0.000000
O O12 0.500000 0.730359 0.755840
O O13 0.168075 0.732569 0.734291
O O14 0.330404 0.000000 0.751976
O O15 0.268464 0.000000 0.341080
O O16 0.000000 0.000000 0.385671
O O17 0.000000 0.000000 0.286166
#
# Coordination Sequence:
#
# PCOD8309546 Si02
#       6
#     8   8   8   8   4   4
#     4   9  17  31  53  79 103 130 171 221 272 327
#     4   9  20  39  60  83 116 160 206 250 300 361
#     4  10  20  34  52  75 104 137 174 215 265 327
#     4   9  17  33  57  78 103 144 188 230 279 339
#     4  11  23  35  57  91 125 157 199 251 303 358
#     4   9  20  37  53  81 117 149 187 233 285 346
#
# _framework density 20.779402000000001
#
# number of rings (size 3 to 8) (size 9 to 14) (size 15 to 20)
#    0.000    2.600    0.000    2.100    1.400    4.800 
#    1.800    4.500    0.000    2.400    0.000    0.000 
#    0.000    0.000    0.000    0.000    0.000    0.000 
#
# Total GULP energy -495548.930050 kJ/mol
# GULP energy per Si atom -12388.723251 kJ/mol
# Density = 2.073211 g / cm^3
# Si number density = 20.779402 Si / 1000 Ang^3
#
#
#
# Elastic Constant Matrix: (Units=GPa)
#
#
# Indices 1 2 3 4 5 6 
#
# 1 75.9288 28.4043 52.0975 0.0000 0.0000 0.0000
# 2 28.4043 75.9289 52.0978 0.0000 0.0000 0.0000
# 3 52.0975 52.0978 155.6565 0.0000 0.0000 0.0000
# 4 0.0000 0.0000 0.0000 9.9165 0.0000 0.0000
# 5 0.0000 0.0000 0.0000 0.0000 9.9169 0.0000
# 6 0.0000 0.0000 0.0000 0.0000 0.0000 16.1695
#
#
#
# Elastic Compliance Matrix: (Units=1/GPa)
#
#
# Indices 1 2 3 4 5 6 
#
# 1 0.017719 -0.003322 -0.004819 0.000000 0.000000 0.000000
# 2 -0.003322 0.017719 -0.004819 0.000000 0.000000 0.000000
# 3 -0.004819 -0.004819 0.009650 0.000000 0.000000 0.000000
# 4 0.000000 0.000000 0.000000 0.100842 0.000000 0.000000
# 5 0.000000 0.000000 0.000000 0.000000 0.100838 0.000000
# 6 0.000000 0.000000 0.000000 0.000000 0.000000 0.061845
#
#
# Mechanical properties :
#
#
# Convention : Reuss Voigt Hill
#
# Bulk Modulus (GPa) = 52.16656 63.63482 57.90069
# Shear Modulus (GPa) = 14.66609 18.86156 16.76382
#
# Velocity S-wave (km/s) = 2.65957 3.01608 2.84342
# Velocity P-wave (km/s) = 5.88137 6.54366 6.22133
#
# Compressibility (1/GPa) = 0.01916937
#
# Stress axis : x y z
#
# Youngs Moduli (GPa) = 56.43563 56.43552 103.62775
#
# Poissons Ratio (x) = 0.18750 0.49934
# Poissons Ratio (y) = 0.18750 0.49934
# Poissons Ratio (z) = 0.27194 0.27194
#
# Static dielectric constant tensor:
#      x y z
#    x 3.641890 0.000000 0.000000 
#    y 0.000000 3.641890 0.000000 
#    z 0.000000 0.000000 3.893710 
# 
# 
# High freq. dielectric constant tensor:
#      x y z
#    x 1.797830 0.000000 0.000000 
#    y 0.000000 1.797830 0.000000 
#    z 0.000000 0.000000 1.811970 
# 
# From -- ./inp_files/5535.got.cif
#   From: 2010.03.12/outbox.cif.g09.slc.cpg/sg115_3_cif.got.tgz:5535.got - 2010.04.14 02:11:21.
