data_PCOD8309803
_publ_section_title
;
Structure prediction by ZEFSAII (Michael W. Deem and Ramdas Pophale) SiO2 
 PCOD8309803
Probable space group: P -4 M 2
;
_chemical_formula_sum "Si O2"
_cell_formula_units_Z 44
_cell_length_a 9.360570
_cell_length_b 9.360570
_cell_length_c 27.968729
_cell_angle_alpha 90.000000
_cell_angle_beta 90.000000
_cell_angle_gamma 90.000000
_cell_volume 2450.627607
_symmetry_space_group_name_H-M "P -4 M 2"
_symmetry_group_IT_number 115
_symmetry_cell_setting 'tetragonal'
loop_
_space_group_symop_operation_xyz
x,y,z
y,-x,-z
-x,-y,z
-y,x,-z
y,x,-z
-y,-x,-z
-x,y,z
x,-y,z
loop_
_atom_site_type_symbol
_atom_site_label
_atom_site_fract_x
_atom_site_fract_y
_atom_site_fract_z
Si Si1 0.667573 0.664800 0.868308
Si Si2 0.838135 0.834365 0.055347
Si Si3 0.832806 0.665755 0.695503
Si Si4 0.166064 0.166064 0.500000
Si Si5 0.834410 0.332425 0.225017
Si Si6 0.341919 0.830269 0.411342
O O1 0.500000 0.683993 0.876099
O O2 0.710037 0.500000 0.861089
O O3 0.743985 0.725313 0.914929
O O4 0.720557 0.752327 0.822206
O O5 0.000000 0.786381 0.067602
O O6 0.818096 0.000000 0.067762
O O7 0.805527 0.805527 0.000000
O O8 0.796370 0.500000 0.705782
O O9 0.746229 0.768949 0.729740
O O10 0.784194 0.707814 0.641676
O O11 0.000000 0.693641 0.703043
O O12 0.231173 0.238311 0.547651
O O13 0.000000 0.199076 0.494832
O O14 0.812616 0.500000 0.232737
O O15 0.000000 0.291317 0.219630
O O16 0.500000 0.770135 0.421529
O O17 0.343864 0.000000 0.413012
#
# Coordination Sequence:
#
# PCOD8309803 Si02
#       6
#     8   8   8   4   8   8
#     4  10  21  36  54  76 102 134 171 208 247 295
#     4   9  19  36  56  78 105 136 169 206 249 295
#     4   9  18  33  53  75  98 128 167 207 248 297
#     4   9  16  26  44  69  92 118 156 197 234 278
#     4  10  21  36  53  74 101 133 168 206 251 301
#     4   8  15  29  47  67  94 126 157 193 240 290
#
# _framework density 17.954584000000001
#
# number of rings (size 3 to 8) (size 9 to 14) (size 15 to 20)
#    0.000    2.818    0.000    2.727    0.000    5.091 
#    0.000    5.455    0.000    3.545    0.000    0.000 
#    0.000    0.000    0.000    0.000    0.000    0.000 
#
# Total GULP energy -545554.848082 kJ/mol
# GULP energy per Si atom -12398.973820 kJ/mol
# Density = 1.791372 g / cm^3
# Si number density = 17.954584 Si / 1000 Ang^3
#
#
#
# Elastic Constant Matrix: (Units=GPa)
#
#
# Indices 1 2 3 4 5 6 
#
# 1 77.8395 51.0877 69.9623 0.0000 0.0000 0.0000
# 2 51.0877 77.8395 69.9623 0.0000 0.0000 0.0000
# 3 69.9623 69.9623 143.3928 0.0000 0.0000 0.0000
# 4 0.0000 0.0000 0.0000 24.0370 0.0000 0.0000
# 5 0.0000 0.0000 0.0000 0.0000 24.0370 0.0000
# 6 0.0000 0.0000 0.0000 0.0000 0.0000 28.0909
#
#
#
# Elastic Compliance Matrix: (Units=1/GPa)
#
#
# Indices 1 2 3 4 5 6 
#
# 1 0.026933 -0.010447 -0.008044 0.000000 0.000000 0.000000
# 2 -0.010447 0.026933 -0.008044 0.000000 0.000000 0.000000
# 3 -0.008044 -0.008044 0.014823 0.000000 0.000000 0.000000
# 4 0.000000 0.000000 0.000000 0.041603 0.000000 0.000000
# 5 0.000000 0.000000 0.000000 0.000000 0.041603 0.000000
# 6 0.000000 0.000000 0.000000 0.000000 0.000000 0.035599
#
#
# Mechanical properties :
#
#
# Convention : Reuss Voigt Hill
#
# Bulk Modulus (GPa) = 64.01851 75.67739 69.84795
# Shear Modulus (GPa) = 20.34423 22.43692 21.39057
#
# Velocity S-wave (km/s) = 3.36980 3.53887 3.45537
# Velocity P-wave (km/s) = 7.13260 7.67717 7.40989
#
# Compressibility (1/GPa) = 0.01562048
#
# Stress axis : x y z
#
# Youngs Moduli (GPa) = 37.12860 37.12860 67.46265
#
# Poissons Ratio (x) = 0.38789 0.54265
# Poissons Ratio (y) = 0.38789 0.54265
# Poissons Ratio (z) = 0.29865 0.29865
#
# Static dielectric constant tensor:
#      x y z
#    x 3.280200 0.000000 0.000000 
#    y 0.000000 3.280200 0.000000 
#    z 0.000000 0.000000 3.506480 
# 
# 
# High freq. dielectric constant tensor:
#      x y z
#    x 1.682970 0.000000 0.000000 
#    y 0.000000 1.682970 0.000000 
#    z 0.000000 0.000000 1.707410 
# 
# From -- ./inp_files/5799.got.cif
#   From: 2010.03.12/outbox.cif.g09.slc.cpg/sg115_3_cif.got.tgz:5799.got - 2010.04.14 02:11:21.
