data_PCOD8309536
_publ_section_title
;
Structure prediction by ZEFSAII (Michael W. Deem and Ramdas Pophale) SiO2 
 PCOD8309536
Probable space group: P -4 M 2
;
_chemical_formula_sum "Si O2"
_cell_formula_units_Z 48
_cell_length_a 9.083119
_cell_length_b 9.083119
_cell_length_c 30.867446
_cell_angle_alpha 90.000000
_cell_angle_beta 90.000000
_cell_angle_gamma 90.000000
_cell_volume 2546.658464
_symmetry_space_group_name_H-M "P -4 M 2"
_symmetry_group_IT_number 115
_symmetry_cell_setting 'tetragonal'
loop_
_space_group_symop_operation_xyz
x,y,z
y,-x,-z
-x,-y,z
-y,x,-z
y,x,-z
-y,-x,-z
-x,y,z
x,-y,z
loop_
_atom_site_type_symbol
_atom_site_label
_atom_site_fract_x
_atom_site_fract_y
_atom_site_fract_z
Si Si1 0.335408 0.174789 0.367279
Si Si2 0.665881 0.173708 0.462388
Si Si3 0.168477 0.826708 0.716975
Si Si4 0.670299 0.330125 0.793669
Si Si5 0.327494 0.827953 0.960333
Si Si6 0.329907 0.827061 0.117468
O O1 0.500000 0.234126 0.358229
O O2 0.280765 0.230031 0.414729
O O3 0.229682 0.231692 0.329106
O O4 0.336639 0.000000 0.367875
O O5 0.767916 0.232085 0.500000
O O6 0.500000 0.228801 0.470316
O O7 0.673941 0.000000 0.463900
O O8 0.271645 0.766266 0.754409
O O9 0.000000 0.773487 0.724316
O O10 0.178907 0.000000 0.716907
O O11 0.500000 0.293754 0.802477
O O12 0.693828 0.500000 0.781566
O O13 0.762537 0.287716 0.836000
O O14 0.500000 0.794748 0.956900
O O15 0.249777 0.775842 0.916723
O O16 0.296427 0.000000 0.967663
O O17 0.262077 0.737924 0.000000
O O18 0.500000 0.793297 0.105851
O O19 0.298458 0.000000 0.117636
#
# Coordination Sequence:
#
# PCOD8309536 Si02
#       6
#     8   8   8   8   8   8
#     4   8  15  30  51  72  97 132 173 215 257 305
#     4   9  18  32  50  74 102 132 169 212 258 310
#     4  10  20  33  52  79 107 135 171 216 265 315
#     4  10  21  37  57  80 107 142 182 220 262 315
#     4  11  24  40  59  85 116 150 187 226 270 319
#     4  10  21  38  61  87 112 141 181 226 270 317
#
# _framework density 18.848227999999999
#
# number of rings (size 3 to 8) (size 9 to 14) (size 15 to 20)
#    0.000    2.333    0.000    3.500    0.000    8.000 
#    0.000    2.500    0.000    1.000    0.000    0.000 
#    0.000    0.000    0.000    0.000    0.000    0.000 
#
# Total GULP energy -595179.248913 kJ/mol
# GULP energy per Si atom -12399.567686 kJ/mol
# Density = 1.880533 g / cm^3
# Si number density = 18.848228 Si / 1000 Ang^3
#
#
#
# Elastic Constant Matrix: (Units=GPa)
#
#
# Indices 1 2 3 4 5 6 
#
# 1 69.5024 39.2694 52.9604 0.0000 0.0000 0.0000
# 2 39.2694 69.5069 52.9632 0.0000 0.0000 0.0000
# 3 52.9604 52.9632 139.8358 0.0000 0.0000 0.0000
# 4 0.0000 0.0000 0.0000 34.4112 0.0000 0.0000
# 5 0.0000 0.0000 0.0000 0.0000 34.4110 0.0000
# 6 0.0000 0.0000 0.0000 0.0000 0.0000 27.2811
#
#
#
# Elastic Compliance Matrix: (Units=1/GPa)
#
#
# Indices 1 2 3 4 5 6 
#
# 1 0.023820 -0.009254 -0.005516 0.000000 0.000000 0.000000
# 2 -0.009254 0.023819 -0.005517 0.000000 0.000000 0.000000
# 3 -0.005516 -0.005517 0.011330 0.000000 0.000000 0.000000
# 4 0.000000 0.000000 0.000000 0.029060 0.000000 0.000000
# 5 0.000000 0.000000 0.000000 0.000000 0.029060 0.000000
# 6 0.000000 0.000000 0.000000 0.000000 0.000000 0.036655
#
#
# Mechanical properties :
#
#
# Convention : Reuss Voigt Hill
#
# Bulk Modulus (GPa) = 54.36402 63.24791 58.80596
# Shear Modulus (GPa) = 24.94367 28.13079 26.53723
#
# Velocity S-wave (km/s) = 3.64180 3.86747 3.75633
# Velocity P-wave (km/s) = 6.82563 7.31931 7.07678
#
# Compressibility (1/GPa) = 0.01839452
#
# Stress axis : x y z
#
# Youngs Moduli (GPa) = 41.98115 41.98313 88.26186
#
# Poissons Ratio (x) = 0.38853 0.48689
# Poissons Ratio (y) = 0.38851 0.48691
# Poissons Ratio (z) = 0.23158 0.23161
#
# Static dielectric constant tensor:
#      x y z
#    x 3.359670 0.000000 0.000000 
#    y 0.000000 3.359670 0.000000 
#    z 0.000000 0.000000 3.846070 
# 
# 
# High freq. dielectric constant tensor:
#      x y z
#    x 1.722280 0.000000 0.000000 
#    y 0.000000 1.722280 0.000000 
#    z 0.000000 0.000000 1.750130 
# 
# From -- ./inp_files/6010.got.cif
#   From: 2010.03.12/outbox.cif.g09.slc.cpg/sg115_4_cif.got.tgz:6010.got - 2010.04.14 02:11:21.
