data_PCOD8309622
_publ_section_title
;
Structure prediction by ZEFSAII (Michael W. Deem and Ramdas Pophale) SiO2 
 PCOD8309622
Probable space group: P -4 M 2
;
_chemical_formula_sum "Si O2"
_cell_formula_units_Z 48
_cell_length_a 8.985045
_cell_length_b 8.985045
_cell_length_c 31.037298
_cell_angle_alpha 90.000000
_cell_angle_beta 90.000000
_cell_angle_gamma 90.000000
_cell_volume 2505.673149
_symmetry_space_group_name_H-M "P -4 M 2"
_symmetry_group_IT_number 115
_symmetry_cell_setting 'tetragonal'
loop_
_space_group_symop_operation_xyz
x,y,z
y,-x,-z
-x,-y,z
-y,x,-z
y,x,-z
-y,-x,-z
-x,y,z
x,-y,z
loop_
_atom_site_type_symbol
_atom_site_label
_atom_site_fract_x
_atom_site_fract_y
_atom_site_fract_z
Si Si1 0.665587 0.323434 0.785103
Si Si2 0.322942 0.832648 0.132499
Si Si3 0.675271 0.172524 0.619835
Si Si4 0.673195 0.825620 0.301259
Si Si5 0.833887 0.675649 0.962161
Si Si6 0.825264 0.672830 0.539961
O O1 0.500000 0.259196 0.777670
O O2 0.660511 0.500000 0.788450
O O3 0.729287 0.255719 0.829784
O O4 0.771460 0.275804 0.745843
O O5 0.500000 0.831918 0.135125
O O6 0.271446 0.775279 0.085081
O O7 0.264284 0.000000 0.139738
O O8 0.500000 0.198890 0.619284
O O9 0.739039 0.224862 0.665226
O O10 0.747770 0.272132 0.583084
O O11 0.715064 0.000000 0.612138
O O12 0.500000 0.788337 0.309888
O O13 0.703667 0.000000 0.305159
O O14 0.835943 0.500000 0.963240
O O15 0.000000 0.738153 0.969550
O O16 0.728965 0.728965 0.000000
O O17 0.765806 0.765806 0.500000
O O18 0.787967 0.500000 0.532632
O O19 0.000000 0.699707 0.544530
#
# Coordination Sequence:
#
# PCOD8309622 Si02
#       6
#     8   8   8   8   8   8
#     4   9  16  26  44  72 103 133 167 210 260 311
#     4   8  14  26  43  64  93 127 162 204 254 307
#     4  11  24  40  58  82 112 146 184 225 270 319
#     4  10  20  34  54  80 108 140 179 220 263 314
#     4   9  18  31  47  69  97 129 166 208 255 307
#     4  11  24  41  62  89 118 148 185 226 268 317
#
# _framework density 19.156527000000001
#
# number of rings (size 3 to 8) (size 9 to 14) (size 15 to 20)
#    0.000    2.333    0.000    4.000    0.000   10.667 
#    0.000    1.667    0.000    1.000    0.000    4.667 
#    0.000    0.000    0.000    0.000    0.000    0.000 
#
# Total GULP energy -595120.617481 kJ/mol
# GULP energy per Si atom -12398.346198 kJ/mol
# Density = 1.911293 g / cm^3
# Si number density = 19.156527 Si / 1000 Ang^3
#
#
#
# Elastic Constant Matrix: (Units=GPa)
#
#
# Indices 1 2 3 4 5 6 
#
# 1 60.8279 37.9185 36.3367 0.0000 0.0000 0.0000
# 2 37.9185 60.8279 36.3367 0.0000 0.0000 0.0000
# 3 36.3367 36.3367 134.5827 0.0000 0.0000 0.0000
# 4 0.0000 0.0000 0.0000 58.5012 0.0000 0.0000
# 5 0.0000 0.0000 0.0000 0.0000 58.5012 0.0000
# 6 0.0000 0.0000 0.0000 0.0000 0.0000 21.4150
#
#
#
# Elastic Compliance Matrix: (Units=1/GPa)
#
#
# Indices 1 2 3 4 5 6 
#
# 1 0.028144 -0.015506 -0.003412 0.000000 0.000000 0.000000
# 2 -0.015506 0.028144 -0.003412 0.000000 0.000000 0.000000
# 3 -0.003412 -0.003412 0.009273 0.000000 0.000000 0.000000
# 4 0.000000 0.000000 0.000000 0.017094 0.000000 0.000000
# 5 0.000000 0.000000 0.000000 0.000000 0.017094 0.000000
# 6 0.000000 0.000000 0.000000 0.000000 0.000000 0.046696
#
#
# Mechanical properties :
#
#
# Convention : Reuss Voigt Hill
#
# Bulk Modulus (GPa) = 47.84602 53.04692 50.44647
# Shear Modulus (GPa) = 25.24327 37.39327 31.31827
#
# Velocity S-wave (km/s) = 3.63400 4.42292 4.04773
# Velocity P-wave (km/s) = 6.52982 7.33719 6.94525
#
# Compressibility (1/GPa) = 0.02090038
#
# Stress axis : x y z
#
# Youngs Moduli (GPa) = 35.53131 35.53131 107.84047
#
# Poissons Ratio (x) = 0.55095 0.36798
# Poissons Ratio (y) = 0.55095 0.36798
# Poissons Ratio (z) = 0.12124 0.12124
#
# Static dielectric constant tensor:
#      x y z
#    x 3.413060 0.000000 0.000000 
#    y 0.000000 3.413060 0.000000 
#    z 0.000000 0.000000 4.028770 
# 
# 
# High freq. dielectric constant tensor:
#      x y z
#    x 1.727770 0.000000 0.000000 
#    y 0.000000 1.727770 0.000000 
#    z 0.000000 0.000000 1.766070 
# 
# From -- ./inp_files/5964.got.cif
#   From: 2010.03.12/outbox.cif.g09.slc.cpg/sg115_3_cif.got.tgz:5964.got - 2010.04.14 02:11:21.
