data_PCOD8309954
_publ_section_title
;
Structure prediction by ZEFSAII (Michael W. Deem and Ramdas Pophale) SiO2 
 PCOD8309954
Probable space group: P -4 M 2
;
_chemical_formula_sum "Si O2"
_cell_formula_units_Z 48
_cell_length_a 8.948066
_cell_length_b 8.948066
_cell_length_c 30.423828
_cell_angle_alpha 90.000000
_cell_angle_beta 90.000000
_cell_angle_gamma 90.000000
_cell_volume 2435.971566
_symmetry_space_group_name_H-M "P -4 M 2"
_symmetry_group_IT_number 115
_symmetry_cell_setting 'tetragonal'
loop_
_space_group_symop_operation_xyz
x,y,z
y,-x,-z
-x,-y,z
-y,x,-z
y,x,-z
-y,-x,-z
-x,y,z
x,-y,z
loop_
_atom_site_type_symbol
_atom_site_label
_atom_site_fract_x
_atom_site_fract_y
_atom_site_fract_z
Si Si1 0.828960 0.824481 0.372056
Si Si2 0.825866 0.672997 0.040614
Si Si3 0.826239 0.172164 0.211435
Si Si4 0.676088 0.828767 0.121107
Si Si5 0.670484 0.324352 0.291543
Si Si6 0.327091 0.328324 0.550530
O O1 0.723862 0.746558 0.336769
O O2 0.779720 0.774627 0.420484
O O3 0.000000 0.776804 0.363973
O O4 0.808936 0.000000 0.367436
O O5 0.792450 0.500000 0.030993
O O6 0.742555 0.721048 0.084576
O O7 0.000000 0.703929 0.046993
O O8 0.768907 0.768907 0.000000
O O9 0.739293 0.223029 0.167923
O O10 0.772746 0.271044 0.251721
O O11 0.000000 0.200577 0.203210
O O12 0.792559 0.000000 0.222699
O O13 0.500000 0.809244 0.121799
O O14 0.722256 0.000000 0.110992
O O15 0.500000 0.275808 0.282646
O O16 0.686234 0.500000 0.296240
O O17 0.291627 0.291627 0.500000
O O18 0.500000 0.297436 0.561120
O O19 0.287704 0.500000 0.561058
#
# Coordination Sequence:
#
# PCOD8309954 Si02
#       6
#     8   8   8   8   8   8
#     4  11  24  39  56  82 115 149 187 232 281 334
#     4  11  24  40  59  85 116 151 192 237 286 339
#     4  10  21  38  61  88 117 150 189 232 280 335
#     4  10  21  38  61  88 117 151 191 233 280 335
#     4  11  24  40  59  84 113 147 189 235 283 336
#     4   9  19  37  60  85 113 146 186 231 278 331
#
# _framework density 19.704661999999999
#
# number of rings (size 3 to 8) (size 9 to 14) (size 15 to 20)
#    0.000    1.667    0.000    4.500    0.000   13.667 
#    0.000    2.500    0.000    0.000    0.000    0.000 
#    0.000    0.000    0.000    0.000    0.000    0.000 
#
# Total GULP energy -595506.583009 kJ/mol
# GULP energy per Si atom -12406.387146 kJ/mol
# Density = 1.965981 g / cm^3
# Si number density = 19.704662 Si / 1000 Ang^3
#
#
#
# Elastic Constant Matrix: (Units=GPa)
#
#
# Indices 1 2 3 4 5 6 
#
# 1 72.4559 44.5079 39.4114 0.0000 0.0000 0.0000
# 2 44.5079 72.4559 39.4114 0.0000 0.0000 0.0000
# 3 39.4114 39.4114 110.9303 0.0000 0.0000 0.0000
# 4 0.0000 0.0000 0.0000 41.4923 0.0000 0.0000
# 5 0.0000 0.0000 0.0000 0.0000 41.4923 0.0000
# 6 0.0000 0.0000 0.0000 0.0000 0.0000 33.6866
#
#
#
# Elastic Compliance Matrix: (Units=1/GPa)
#
#
# Indices 1 2 3 4 5 6 
#
# 1 0.023511 -0.012270 -0.003994 0.000000 0.000000 0.000000
# 2 -0.012270 0.023511 -0.003994 0.000000 0.000000 0.000000
# 3 -0.003994 -0.003994 0.011852 0.000000 0.000000 0.000000
# 4 0.000000 0.000000 0.000000 0.024101 0.000000 0.000000
# 5 0.000000 0.000000 0.000000 0.000000 0.024101 0.000000
# 6 0.000000 0.000000 0.000000 0.000000 0.000000 0.029685
#
#
# Mechanical properties :
#
#
# Convention : Reuss Voigt Hill
#
# Bulk Modulus (GPa) = 54.46727 55.83374 55.15050
# Shear Modulus (GPa) = 27.26342 32.16832 29.71587
#
# Velocity S-wave (km/s) = 3.72372 4.04483 3.88759
# Velocity P-wave (km/s) = 6.79632 7.08597 6.94266
#
# Compressibility (1/GPa) = 0.01835965
#
# Stress axis : x y z
#
# Youngs Moduli (GPa) = 42.53347 42.53347 84.37067
#
# Poissons Ratio (x) = 0.52188 0.33695
# Poissons Ratio (y) = 0.52188 0.33695
# Poissons Ratio (z) = 0.16987 0.16987
#
# Static dielectric constant tensor:
#      x y z
#    x 3.649010 0.000000 0.000000 
#    y 0.000000 3.649010 0.000000 
#    z 0.000000 0.000000 3.904190 
# 
# 
# High freq. dielectric constant tensor:
#      x y z
#    x 1.773790 0.000000 0.000000 
#    y 0.000000 1.773790 0.000000 
#    z 0.000000 0.000000 1.782080 
# 
# From -- ./inp_files/5943.got.cif
#   From: 2010.03.12/outbox.cif.g09.slc.cpg/sg115_3_cif.got.tgz:5943.got - 2010.04.14 02:11:21.
