data_PCOD8309938
_publ_section_title
;
Structure prediction by ZEFSAII (Michael W. Deem and Ramdas Pophale) SiO2 
 PCOD8309938
Probable space group: P -4 M 2
;
_chemical_formula_sum "Si O2"
_cell_formula_units_Z 36
_cell_length_a 8.857680
_cell_length_b 8.857680
_cell_length_c 22.858105
_cell_angle_alpha 90.000000
_cell_angle_beta 90.000000
_cell_angle_gamma 90.000000
_cell_volume 1793.412516
_symmetry_space_group_name_H-M "P -4 M 2"
_symmetry_group_IT_number 115
_symmetry_cell_setting 'tetragonal'
loop_
_space_group_symop_operation_xyz
x,y,z
y,-x,-z
-x,-y,z
-y,x,-z
y,x,-z
-y,-x,-z
-x,y,z
x,-y,z
loop_
_atom_site_type_symbol
_atom_site_label
_atom_site_fract_x
_atom_site_fract_y
_atom_site_fract_z
Si Si1 0.174466 0.174466 0.500000
Si Si2 0.822288 0.172337 0.282234
Si Si3 0.677502 0.672000 0.391371
Si Si4 0.675134 0.324251 0.825942
Si Si5 0.672968 0.825223 0.053253
O O1 0.267172 0.222861 0.443509
O O2 0.000000 0.206131 0.487105
O O3 0.747027 0.277541 0.330396
O O4 0.773724 0.228016 0.218667
O O5 0.000000 0.186701 0.288606
O O6 0.769306 0.000000 0.291163
O O7 0.500000 0.687844 0.386044
O O8 0.725758 0.500000 0.404374
O O9 0.500000 0.283636 0.818978
O O10 0.706023 0.500000 0.813565
O O11 0.727807 0.279263 0.890679
O O12 0.500000 0.791306 0.035968
O O13 0.697642 0.000000 0.068310
O O14 0.779473 0.779473 0.000000
#
# Coordination Sequence:
#
# PCOD8309938 Si02
#       5
#     4   8   8   8   8
#     4  11  24  41  62  90 122 155 194 239 288 342
#     4  11  24  40  59  86 119 154 193 237 287 343
#     4  11  24  41  62  89 119 153 196 241 286 341
#     4  10  21  38  61  87 114 148 192 239 287 342
#     4  10  21  37  58  84 114 150 191 235 286 342
#
# _framework density 20.073461999999999
#
# number of rings (size 3 to 8) (size 9 to 14) (size 15 to 20)
#    0.000    1.444    0.000    4.667    0.000   14.667 
#    0.000    0.000    0.000    0.000    0.000    0.000 
#    0.000    0.000    0.000    0.000    0.000    0.000 
#
# Total GULP energy -446668.637462 kJ/mol
# GULP energy per Si atom -12407.462152 kJ/mol
# Density = 2.002777 g / cm^3
# Si number density = 20.073462 Si / 1000 Ang^3
#
#
#
# Elastic Constant Matrix: (Units=GPa)
#
#
# Indices 1 2 3 4 5 6 
#
# 1 64.3851 56.1195 31.2075 0.0000 0.0000 0.0000
# 2 56.1195 64.3851 31.2075 0.0000 0.0000 0.0000
# 3 31.2075 31.2075 99.2996 0.0000 0.0000 0.0000
# 4 0.0000 0.0000 0.0000 63.2023 0.0000 0.0000
# 5 0.0000 0.0000 0.0000 0.0000 63.2023 0.0000
# 6 0.0000 0.0000 0.0000 0.0000 0.0000 31.9193
#
#
#
# Elastic Compliance Matrix: (Units=1/GPa)
#
#
# Indices 1 2 3 4 5 6 
#
# 1 0.065448 -0.055536 -0.003115 0.000000 0.000000 0.000000
# 2 -0.055536 0.065448 -0.003115 0.000000 0.000000 0.000000
# 3 -0.003115 -0.003115 0.012029 0.000000 0.000000 0.000000
# 4 0.000000 0.000000 0.000000 0.015822 0.000000 0.000000
# 5 0.000000 0.000000 0.000000 0.000000 0.015822 0.000000
# 6 0.000000 0.000000 0.000000 0.000000 0.000000 0.031329
#
#
# Mechanical properties :
#
#
# Convention : Reuss Voigt Hill
#
# Bulk Modulus (GPa) = 51.56767 51.68211 51.62489
# Shear Modulus (GPa) = 14.88569 38.96712 26.92640
#
# Velocity S-wave (km/s) = 2.72612 4.41071 3.66648
# Velocity P-wave (km/s) = 5.97111 7.19316 6.61044
#
# Compressibility (1/GPa) = 0.01939200
#
# Stress axis : x y z
#
# Youngs Moduli (GPa) = 15.27939 15.27939 83.13579
#
# Poissons Ratio (x) = 0.84855 0.25897
# Poissons Ratio (y) = 0.84855 0.25897
# Poissons Ratio (z) = 0.04760 0.04760
#
# Static dielectric constant tensor:
#      x y z
#    x 3.727640 0.000000 0.000000 
#    y 0.000000 3.727640 0.000000 
#    z 0.000000 0.000000 4.075260 
# 
# 
# High freq. dielectric constant tensor:
#      x y z
#    x 1.791930 0.000000 0.000000 
#    y 0.000000 1.791930 0.000000 
#    z 0.000000 0.000000 1.796510 
# 
# From -- ./inp_files/5125.got.cif
#   From: 2010.03.12/outbox.cif.g09.slc.cpg/sg115_3_cif.got.tgz:5125.got - 2010.04.14 02:11:21.
