data_PCOD8309017
_publ_section_title
;
Structure prediction by ZEFSAII (Michael W. Deem and Ramdas Pophale) SiO2 
 PCOD8309017
Probable space group: P -4 21 C
;
_chemical_formula_sum "Si O2"
_cell_formula_units_Z 54
_cell_length_a 13.791411
_cell_length_b 13.791411
_cell_length_c 12.947564
_cell_angle_alpha 90.000000
_cell_angle_beta 90.000000
_cell_angle_gamma 90.000000
_cell_volume 2462.665740
_symmetry_space_group_name_H-M "P -4 21 C"
_symmetry_group_IT_number 114
_symmetry_cell_setting 'tetragonal'
loop_
_space_group_symop_operation_xyz
x,y,z
y,-x,-z
-x,-y,z
-y,x,-z
1/2+x,1/2-y,1/2-z
1/2-x,1/2+y,1/2-z
1/2-y,1/2-x,1/2+z
1/2+y,1/2+x,1/2+z
loop_
_atom_site_type_symbol
_atom_site_label
_atom_site_fract_x
_atom_site_fract_y
_atom_site_fract_z
Si Si1 0.190835 0.769359 0.514177
Si Si2 0.570569 0.829876 0.386147
Si Si3 0.953030 0.853941 0.824172
Si Si4 0.500000 0.500000 0.500000
Si Si5 0.418193 0.421905 0.855659
Si Si6 0.815959 0.590696 0.460940
Si Si7 0.500000 0.000000 0.493240
Si Si8 0.724490 0.421604 0.810443
O O1 0.215068 0.671765 0.575927
O O2 0.105246 0.835673 0.564337
O O3 0.296500 0.817952 0.507699
O O4 0.151146 0.743868 0.400830
O O5 0.476762 0.780192 0.442325
O O6 0.561996 0.817002 0.263109
O O7 0.573508 0.943013 0.416794
O O8 0.941565 0.743155 0.859618
O O9 0.860668 0.874533 0.755517
O O10 0.048326 0.875325 0.754144
O O11 0.952826 0.918356 0.927477
O O12 0.500000 0.500000 0.895014
O O13 0.314533 0.474421 0.847312
O O14 0.927919 0.563124 0.435564
#
# Coordination Sequence:
#
# PCOD8309017 Si02
#       8
#     8   8   8   2   8   8   4   8
#     4  12  27  45  80 105 152 196 255 311 382 462
#     4  10  24  49  68 102 144 193 255 302 373 449
#     4  11  22  42  71 108 148 186 244 309 376 439
#     4  12  20  40  76 110 144 176 240 312 372 446
#     4  10  26  44  70 112 151 192 241 325 383 445
#     4  10  24  47  75 102 150 200 247 309 365 457
#     4   8  24  46  70  98 152 194 244 298 378 436
#     4  11  24  43  70 112 142 193 251 307 384 447
#
# _framework density 21.927458999999999
#
# number of rings (size 3 to 8) (size 9 to 14) (size 15 to 20)
#    0.889    0.593    3.704    0.889    6.222    2.370 
#    0.000    2.222    0.000    0.000    0.000    0.000 
#    0.000    0.000    0.000    0.000    0.000    0.000 
#
# Total GULP energy -669122.054400 kJ/mol
# GULP energy per Si atom -12391.149156 kJ/mol
# Density = 2.187755 g / cm^3
# Si number density = 21.927459 Si / 1000 Ang^3
#
#
#
# Elastic Constant Matrix: (Units=GPa)
#
#
# Indices 1 2 3 4 5 6 
#
# 1 92.9246 7.6937 24.0728 0.0000 0.0000 0.0000
# 2 7.6937 92.9246 24.0728 0.0000 0.0000 0.0000
# 3 24.0728 24.0728 95.8413 0.0000 0.0000 0.0000
# 4 0.0000 0.0000 0.0000 30.3288 0.0000 0.0000
# 5 0.0000 0.0000 0.0000 0.0000 30.3288 0.0000
# 6 0.0000 0.0000 0.0000 0.0000 0.0000 28.6620
#
#
#
# Elastic Compliance Matrix: (Units=1/GPa)
#
#
# Indices 1 2 3 4 5 6 
#
# 1 0.011515 -0.000218 -0.002837 0.000000 0.000000 0.000000
# 2 -0.000218 0.011515 -0.002837 0.000000 0.000000 0.000000
# 3 -0.002837 -0.002837 0.011859 0.000000 0.000000 0.000000
# 4 0.000000 0.000000 0.000000 0.032972 0.000000 0.000000
# 5 0.000000 0.000000 0.000000 0.000000 0.032972 0.000000
# 6 0.000000 0.000000 0.000000 0.000000 0.000000 0.034889
#
#
# Mechanical properties :
#
#
# Convention : Reuss Voigt Hill
#
# Bulk Modulus (GPa) = 43.28556 43.70768 43.49662
# Shear Modulus (GPa) = 32.21475 32.92063 32.56769
#
# Velocity S-wave (km/s) = 3.83711 3.87892 3.85807
# Velocity P-wave (km/s) = 6.27809 6.32752 6.30285
#
# Compressibility (1/GPa) = 0.02310239
#
# Stress axis : x y z
#
# Youngs Moduli (GPa) = 86.84686 86.84686 84.32245
#
# Poissons Ratio (x) = 0.01896 0.23925
# Poissons Ratio (y) = 0.01896 0.23925
# Poissons Ratio (z) = 0.24641 0.24641
#
# Static dielectric constant tensor:
#      x y z
#    x 3.959530 0.000000 0.000000 
#    y 0.000000 3.959530 0.000000 
#    z 0.000000 0.000000 3.986750 
# 
# 
# High freq. dielectric constant tensor:
#      x y z
#    x 1.860540 0.000000 0.000000 
#    y 0.000000 1.860540 0.000000 
#    z 0.000000 0.000000 1.854140 
# 
# From -- ./inp_files/1781.got.cif
#   From: 2010.03.12/outbox.cif.g09.slc.cpg/sg114_1_cif.got.tgz:1781.got - 2010.04.14 02:08:34.
