data_PCOD8309572
_publ_section_title
;
Structure prediction by ZEFSAII (Michael W. Deem and Ramdas Pophale) SiO2 
 PCOD8309572
Probable space group: P -4 M 2
;
_chemical_formula_sum "Si O2"
_cell_formula_units_Z 48
_cell_length_a 9.078715
_cell_length_b 9.078715
_cell_length_c 30.917849
_cell_angle_alpha 90.000000
_cell_angle_beta 90.000000
_cell_angle_gamma 90.000000
_cell_volume 2548.343910
_symmetry_space_group_name_H-M "P -4 M 2"
_symmetry_group_IT_number 115
_symmetry_cell_setting 'tetragonal'
loop_
_space_group_symop_operation_xyz
x,y,z
y,-x,-z
-x,-y,z
-y,x,-z
y,x,-z
-y,-x,-z
-x,y,z
x,-y,z
loop_
_atom_site_type_symbol
_atom_site_label
_atom_site_fract_x
_atom_site_fract_y
_atom_site_fract_z
Si Si1 0.670572 0.827968 0.209782
Si Si2 0.328399 0.670804 0.626113
Si Si3 0.670304 0.173170 0.038909
Si Si4 0.172727 0.330586 0.461589
Si Si5 0.334071 0.675029 0.875301
Si Si6 0.167639 0.825723 0.295966
O O1 0.500000 0.790227 0.218399
O O2 0.734282 0.743257 0.168096
O O3 0.762683 0.772220 0.250865
O O4 0.692960 0.000000 0.201103
O O5 0.500000 0.697013 0.634577
O O6 0.288290 0.500000 0.622185
O O7 0.277425 0.749169 0.582160
O O8 0.240637 0.739387 0.665411
O O9 0.500000 0.215301 0.030731
O O10 0.731441 0.246427 0.082793
O O11 0.691593 0.000000 0.043307
O O12 0.767355 0.232646 0.000000
O O13 0.228952 0.228952 0.500000
O O14 0.212759 0.500000 0.471895
O O15 0.000000 0.307734 0.455605
O O16 0.500000 0.736349 0.877366
O O17 0.330846 0.500000 0.874454
O O18 0.000000 0.769467 0.298458
O O19 0.177227 0.000000 0.299674
#
# Coordination Sequence:
#
# PCOD8309572 Si02
#       6
#     8   8   8   8   8   8
#     4   9  17  31  51  74 102 137 176 217 262 314
#     4  10  21  37  58  82 107 139 180 224 268 314
#     4  10  20  34  53  77 105 138 176 217 262 313
#     4  10  21  37  57  81 109 142 179 219 265 316
#     4   9  17  30  51  78 104 132 171 219 266 311
#     4  10  21  36  54  78 109 144 180 218 263 315
#
# _framework density 18.835763
#
# number of rings (size 3 to 8) (size 9 to 14) (size 15 to 20)
#    0.000    2.333    0.000    2.500    0.000    7.333 
#    0.000    2.500    0.000    3.000    0.000    0.000 
#    0.000    0.000    0.000    0.000    0.000    0.000 
#
# Total GULP energy -595365.567381 kJ/mol
# GULP energy per Si atom -12403.449320 kJ/mol
# Density = 1.879289 g / cm^3
# Si number density = 18.835763 Si / 1000 Ang^3
#
#
#
# Elastic Constant Matrix: (Units=GPa)
#
#
# Indices 1 2 3 4 5 6 
#
# 1 73.9565 33.8299 60.9074 0.0000 0.0000 0.0000
# 2 33.8299 73.9579 60.9088 0.0000 0.0000 0.0000
# 3 60.9074 60.9088 174.2449 0.0000 0.0000 0.0000
# 4 0.0000 0.0000 0.0000 -55.1829 0.0000 0.0000
# 5 0.0000 0.0000 0.0000 0.0000 -55.1911 0.0000
# 6 0.0000 0.0000 0.0000 0.0000 0.0000 24.1864
#
#
#
# Elastic Compliance Matrix: (Units=1/GPa)
#
#
# Indices 1 2 3 4 5 6 
#
# 1 0.020128 -0.004792 -0.005361 0.000000 0.000000 0.000000
# 2 -0.004792 0.020128 -0.005361 0.000000 0.000000 0.000000
# 3 -0.005361 -0.005361 0.009487 0.000000 0.000000 0.000000
# 4 0.000000 0.000000 0.000000 -0.018122 0.000000 0.000000
# 5 0.000000 0.000000 0.000000 0.000000 -0.018119 0.000000
# 6 0.000000 0.000000 0.000000 0.000000 0.000000 0.041346
#
#
# Mechanical properties :
#
#
# Convention : Reuss Voigt Hill
#
# Bulk Modulus (GPa) = 53.43077 70.38349 61.90713
# Shear Modulus (GPa) = 54.27985 -6.13663 24.07161
#
# Velocity S-wave (km/s) = 5.37401 -1.80694 3.57875
# Velocity P-wave (km/s) = 8.18138 5.75280 7.07211
#
# Compressibility (1/GPa) = 0.01871581
#
# Stress axis : x y z
#
# Youngs Moduli (GPa) = 49.68083 49.68125 105.40930
#
# Poissons Ratio (x) = 0.23809 0.56507
# Poissons Ratio (y) = 0.23809 0.56508
# Poissons Ratio (z) = 0.26633 0.26633
#
# Static dielectric constant tensor:
#      x y z
#    x 3.436520 0.000000 0.000000 
#    y 0.000000 3.436520 0.000000 
#    z 0.000000 0.000000 3.632360 
# 
# 
# High freq. dielectric constant tensor:
#      x y z
#    x 1.722390 0.000000 0.000000 
#    y 0.000000 1.722390 0.000000 
#    z 0.000000 0.000000 1.747880 
# 
# From -- ./inp_files/5996.got.cif
#   From: 2010.03.12/outbox.cif.g09.slc.cpg/sg115_3_cif.got.tgz:5996.got - 2010.04.14 02:11:21.
