data_PCOD8309350
_publ_section_title
;
Structure prediction by ZEFSAII (Michael W. Deem and Ramdas Pophale) SiO2 
 PCOD8309350
Probable space group: P -4 M 2
;
_chemical_formula_sum "Si O2"
_cell_formula_units_Z 48
_cell_length_a 9.301399
_cell_length_b 9.301399
_cell_length_c 30.797646
_cell_angle_alpha 90.000000
_cell_angle_beta 90.000000
_cell_angle_gamma 90.000000
_cell_volume 2664.489861
_symmetry_space_group_name_H-M "P -4 M 2"
_symmetry_group_IT_number 115
_symmetry_cell_setting 'tetragonal'
loop_
_space_group_symop_operation_xyz
x,y,z
y,-x,-z
-x,-y,z
-y,x,-z
y,x,-z
-y,-x,-z
-x,y,z
x,-y,z
loop_
_atom_site_type_symbol
_atom_site_label
_atom_site_fract_x
_atom_site_fract_y
_atom_site_fract_z
Si Si1 0.162061 0.828404 0.287335
Si Si2 0.663159 0.333273 0.050181
Si Si3 0.828821 0.662745 0.795326
Si Si4 0.339959 0.171061 0.368329
Si Si5 0.834456 0.830597 0.120857
Si Si6 0.670198 0.161533 0.464347
O O1 0.254237 0.769255 0.246872
O O2 0.232180 0.768607 0.331790
O O3 0.000000 0.768934 0.283835
O O4 0.161787 0.000000 0.287184
O O5 0.500000 0.286065 0.061164
O O6 0.684404 0.500000 0.061175
O O7 0.775017 0.241343 0.077533
O O8 0.696807 0.303194 0.000000
O O9 0.768836 0.500000 0.795419
O O10 0.772536 0.745010 0.837944
O O11 0.000000 0.662182 0.794478
O O12 0.500000 0.232584 0.359367
O O13 0.284845 0.217041 0.416221
O O14 0.347104 0.000000 0.366456
O O15 0.000000 0.787462 0.127584
O O16 0.816288 0.000000 0.115700
O O17 0.734823 0.265178 0.500000
O O18 0.500000 0.164710 0.468317
O O19 0.727933 0.000000 0.471991
#
# Coordination Sequence:
#
# PCOD8309350 Si02
#       6
#     8   8   8   8   8   8
#     4   9  15  22  35  58  88 119 152 192 237 284
#     4   9  19  36  55  73  94 123 161 201 238 282
#     4   9  16  26  41  61  88 125 164 198 236 283
#     4   8  14  25  39  56  82 115 149 186 229 279
#     4  10  20  32  47  71 102 130 158 197 243 288
#     4   9  18  31  46  66  92 121 155 195 237 283
#
# _framework density 18.014704999999999
#
# number of rings (size 3 to 8) (size 9 to 14) (size 15 to 20)
#    0.000    3.000    0.000    3.000    0.000    7.000 
#    0.000    4.167    0.000    0.000    0.000    1.167 
#    0.000    4.000    0.000    0.000    0.000    0.000 
#
# Total GULP energy -595078.243311 kJ/mol
# GULP energy per Si atom -12397.463402 kJ/mol
# Density = 1.797370 g / cm^3
# Si number density = 18.014705 Si / 1000 Ang^3
#
#
#
# Elastic Constant Matrix: (Units=GPa)
#
#
# Indices 1 2 3 4 5 6 
#
# 1 71.4705 31.5555 59.2291 0.0000 0.0000 0.0000
# 2 31.5555 71.4688 59.2286 0.0000 0.0000 0.0000
# 3 59.2291 59.2286 149.4389 0.0000 0.0000 0.0000
# 4 0.0000 0.0000 0.0000 11.3696 0.0000 0.0000
# 5 0.0000 0.0000 0.0000 0.0000 11.3702 0.0000
# 6 0.0000 0.0000 0.0000 0.0000 0.0000 18.9688
#
#
#
# Elastic Compliance Matrix: (Units=1/GPa)
#
#
# Indices 1 2 3 4 5 6 
#
# 1 0.021443 -0.003610 -0.007068 0.000000 0.000000 0.000000
# 2 -0.003610 0.021444 -0.007068 0.000000 0.000000 0.000000
# 3 -0.007068 -0.007068 0.012294 0.000000 0.000000 0.000000
# 4 0.000000 0.000000 0.000000 0.087953 0.000000 0.000000
# 5 0.000000 0.000000 0.000000 0.000000 0.087950 0.000000
# 6 0.000000 0.000000 0.000000 0.000000 0.000000 0.052718
#
#
# Mechanical properties :
#
#
# Convention : Reuss Voigt Hill
#
# Bulk Modulus (GPa) = 50.79079 65.82272 58.30675
# Shear Modulus (GPa) = 15.34410 17.83271 16.58840
#
# Velocity S-wave (km/s) = 2.92165 3.14968 3.03780
# Velocity P-wave (km/s) = 6.29576 7.06009 6.68886
#
# Compressibility (1/GPa) = 0.01968861
#
# Stress axis : x y z
#
# Youngs Moduli (GPa) = 46.63488 46.63366 81.33788
#
# Poissons Ratio (x) = 0.16836 0.57489
# Poissons Ratio (y) = 0.16837 0.57490
# Poissons Ratio (z) = 0.32961 0.32961
#
# Static dielectric constant tensor:
#      x y z
#    x 3.103320 0.000000 0.000000 
#    y 0.000000 3.103320 0.000000 
#    z 0.000000 0.000000 3.542620 
# 
# 
# High freq. dielectric constant tensor:
#      x y z
#    x 1.667370 0.000000 0.000000 
#    y 0.000000 1.667370 0.000000 
#    z 0.000000 0.000000 1.713940 
# 
# From -- ./inp_files/6061.got.cif
#   From: 2010.03.12/outbox.cif.g09.slc.cpg/sg115_4_cif.got.tgz:6061.got - 2010.04.14 02:11:21.
