data_PCOD8309404
_publ_section_title
;
Structure prediction by ZEFSAII (Michael W. Deem and Ramdas Pophale) SiO2 
 PCOD8309404
Probable space group: P -4 M 2
;
_chemical_formula_sum "Si O2"
_cell_formula_units_Z 44
_cell_length_a 14.762316
_cell_length_b 14.762316
_cell_length_c 11.395674
_cell_angle_alpha 90.000000
_cell_angle_beta 90.000000
_cell_angle_gamma 90.000000
_cell_volume 2483.413352
_symmetry_space_group_name_H-M "P -4 M 2"
_symmetry_group_IT_number 115
_symmetry_cell_setting 'tetragonal'
loop_
_space_group_symop_operation_xyz
x,y,z
y,-x,-z
-x,-y,z
-y,x,-z
y,x,-z
-y,-x,-z
-x,y,z
x,-y,z
loop_
_atom_site_type_symbol
_atom_site_label
_atom_site_fract_x
_atom_site_fract_y
_atom_site_fract_z
Si Si1 0.099308 0.392578 0.513116
Si Si2 0.602569 0.397432 0.500000
Si Si3 0.393476 0.747498 0.310241
Si Si4 0.767109 0.744825 0.137418
Si Si5 0.606100 0.895291 0.749954
Si Si6 0.898985 0.899190 0.139515
O O1 0.097383 0.500000 0.509477
O O2 0.168627 0.359242 0.611242
O O3 0.126817 0.360005 0.382556
O O4 0.000000 0.354778 0.546360
O O5 0.500000 0.378452 0.537613
O O6 0.628095 0.341487 0.385236
O O7 0.500000 0.754599 0.275751
O O8 0.332500 0.742834 0.194592
O O9 0.826516 0.655738 0.162496
O O10 0.824140 0.829904 0.188444
O O11 0.751149 0.751149 0.000000
O O12 0.500000 0.877279 0.764162
O O13 0.628441 0.000000 0.781578
O O14 0.000000 0.871590 0.183305
O O15 0.874954 0.000000 0.185054
O O16 0.897493 0.897493 0.000000
#
# Coordination Sequence:
#
# PCOD8309404 Si02
#       6
#     8   4   8   8   8   8
#     4   8  15  30  52  75  97 123 160 209 261 305
#     4   9  18  34  56  76  90 113 160 218 264 297
#     4  10  20  33  49  72 102 133 165 204 251 300
#     4  11  22  32  47  72 104 141 175 203 236 291
#     4   9  18  34  56  78  98 124 163 213 264 306
#     4   8  15  30  50  68  88 119 163 211 247 275
#
# _framework density 17.717549000000002
#
# number of rings (size 3 to 8) (size 9 to 14) (size 15 to 20)
#    0.000    2.818    0.000    3.273    0.000    4.364 
#    0.000    0.000    0.000    2.182    0.000    1.273 
#    0.000   11.636    0.000    0.000    0.000    0.000 
#
# Total GULP energy -545392.531142 kJ/mol
# GULP energy per Si atom -12395.284799 kJ/mol
# Density = 1.767722 g / cm^3
# Si number density = 17.717549 Si / 1000 Ang^3
#
#
#
# Elastic Constant Matrix: (Units=GPa)
#
#
# Indices 1 2 3 4 5 6 
#
# 1 96.9837 60.6188 51.7672 0.0000 0.0000 0.0000
# 2 60.6188 96.9828 51.7671 0.0000 0.0000 0.0000
# 3 51.7672 51.7671 84.8564 0.0000 0.0000 0.0000
# 4 0.0000 0.0000 0.0000 8.6457 0.0000 0.0000
# 5 0.0000 0.0000 0.0000 0.0000 8.6497 0.0000
# 6 0.0000 0.0000 0.0000 0.0000 0.0000 28.8651
#
#
#
# Elastic Compliance Matrix: (Units=1/GPa)
#
#
# Indices 1 2 3 4 5 6 
#
# 1 0.019044 -0.008455 -0.006460 0.000000 0.000000 0.000000
# 2 -0.008455 0.019044 -0.006460 0.000000 0.000000 0.000000
# 3 -0.006460 -0.006460 0.019666 0.000000 0.000000 0.000000
# 4 0.000000 0.000000 0.000000 0.115664 0.000000 0.000000
# 5 0.000000 0.000000 0.000000 0.000000 0.115611 0.000000
# 6 0.000000 0.000000 0.000000 0.000000 0.000000 0.034644
#
#
# Mechanical properties :
#
#
# Convention : Reuss Voigt Hill
#
# Bulk Modulus (GPa) = 66.64547 67.45879 67.05213
# Shear Modulus (GPa) = 13.46170 16.87677 15.16923
#
# Velocity S-wave (km/s) = 2.75943 3.08968 2.92921
# Velocity P-wave (km/s) = 6.91735 7.13340 7.02621
#
# Compressibility (1/GPa) = 0.01500477
#
# Stress axis : x y z
#
# Youngs Moduli (GPa) = 52.51014 52.50961 50.84873
#
# Poissons Ratio (x) = 0.44399 0.32847
# Poissons Ratio (y) = 0.44399 0.32847
# Poissons Ratio (z) = 0.33920 0.33920
#
# Static dielectric constant tensor:
#      x y z
#    x 3.501480 0.000000 0.000000 
#    y 0.000000 3.501450 0.000000 
#    z 0.000000 0.000000 2.997580 
# 
# 
# High freq. dielectric constant tensor:
#      x y z
#    x 1.687280 0.000000 0.000000 
#    y 0.000000 1.687280 0.000000 
#    z 0.000000 0.000000 1.652240 
# 
# From -- ./inp_files/2804.got.cif
#   From: 2010.03.12/outbox.cif.g09.slc.cpg/sg115_2_cif.got.tgz:2804.got - 2010.04.14 02:11:21.
