data_PCOD8309358
_publ_section_title
;
Structure prediction by ZEFSAII (Michael W. Deem and Ramdas Pophale) SiO2 
 PCOD8309358
Probable space group: P -4 M 2
;
_chemical_formula_sum "Si O2"
_cell_formula_units_Z 40
_cell_length_a 9.045776
_cell_length_b 9.045776
_cell_length_c 25.932800
_cell_angle_alpha 90.000000
_cell_angle_beta 90.000000
_cell_angle_gamma 90.000000
_cell_volume 2121.978938
_symmetry_space_group_name_H-M "P -4 M 2"
_symmetry_group_IT_number 115
_symmetry_cell_setting 'tetragonal'
loop_
_space_group_symop_operation_xyz
x,y,z
y,-x,-z
-x,-y,z
-y,x,-z
y,x,-z
-y,-x,-z
-x,y,z
x,-y,z
loop_
_atom_site_type_symbol
_atom_site_label
_atom_site_fract_x
_atom_site_fract_y
_atom_site_fract_z
Si Si1 0.173664 0.328089 0.452507
Si Si2 0.324329 0.666221 0.145253
Si Si3 0.169491 0.324905 0.641159
Si Si4 0.334434 0.675490 0.741356
Si Si5 0.166788 0.675617 0.953841
O O1 0.238945 0.238945 0.500000
O O2 0.211064 0.500000 0.459688
O O3 0.245974 0.271545 0.400217
O O4 0.000000 0.299461 0.450195
O O5 0.500000 0.669684 0.144248
O O6 0.267938 0.500000 0.134572
O O7 0.268446 0.718710 0.202014
O O8 0.261249 0.772128 0.100598
O O9 0.188997 0.500000 0.635069
O O10 0.222080 0.268746 0.697477
O O11 0.000000 0.277608 0.633312
O O12 0.500000 0.735002 0.729759
O O13 0.337843 0.500000 0.741597
O O14 0.176565 0.500000 0.954952
O O15 0.000000 0.732147 0.960062
O O16 0.264505 0.735496 0.000000
#
# Coordination Sequence:
#
# PCOD8309358 Si02
#       5
#     8   8   8   8   8
#     4  11  24  40  58  80 105 135 173 215 259 307
#     4   8  14  26  46  72 100 130 166 209 255 301
#     4  10  20  33  52  80 111 142 175 209 249 300
#     4   8  14  26  46  73 104 136 169 207 252 299
#     4  10  20  32  48  71  98 130 168 209 256 309
#
# _framework density 18.850327
#
# number of rings (size 3 to 8) (size 9 to 14) (size 15 to 20)
#    0.000    2.600    0.000    3.600    0.000    7.200 
#    0.000    4.000    0.000    1.200    0.000    8.400 
#    0.000    0.000    0.000    0.000    0.000    0.000 
#
# Total GULP energy -495862.002874 kJ/mol
# GULP energy per Si atom -12396.550072 kJ/mol
# Density = 1.880742 g / cm^3
# Si number density = 18.850327 Si / 1000 Ang^3
#
#
#
# Elastic Constant Matrix: (Units=GPa)
#
#
# Indices 1 2 3 4 5 6 
#
# 1 38.8715 27.0495 30.6846 0.0000 0.0000 0.0000
# 2 27.0495 38.8741 30.6853 0.0000 0.0000 0.0000
# 3 30.6846 30.6853 138.9049 0.0000 0.0000 0.0000
# 4 0.0000 0.0000 0.0000 -7.5857 0.0000 0.0000
# 5 0.0000 0.0000 0.0000 0.0000 -7.5847 0.0000
# 6 0.0000 0.0000 0.0000 0.0000 0.0000 17.9621
#
#
#
# Elastic Compliance Matrix: (Units=1/GPa)
#
#
# Indices 1 2 3 4 5 6 
#
# 1 0.051840 -0.032741 -0.004219 0.000000 0.000000 0.000000
# 2 -0.032741 0.051836 -0.004218 0.000000 0.000000 0.000000
# 3 -0.004219 -0.004218 0.009063 0.000000 0.000000 0.000000
# 4 0.000000 0.000000 0.000000 -0.131826 0.000000 0.000000
# 5 0.000000 0.000000 0.000000 0.000000 -0.131844 0.000000
# 6 0.000000 0.000000 0.000000 0.000000 0.000000 0.055673
#
#
# Mechanical properties :
#
#
# Convention : Reuss Voigt Hill
#
# Bulk Modulus (GPa) = 32.91427 43.72104 38.31765
# Shear Modulus (GPa) = -1802.06309 9.10706 -896.47801
#
# Velocity S-wave (km/s) = -30.95255 2.20039 -21.83138
# Velocity P-wave (km/s) = 35.49528 5.44975 24.80136
#
# Compressibility (1/GPa) = 0.03038196
#
# Stress axis : x y z
#
# Youngs Moduli (GPa) = 19.29021 19.29161 110.33892
#
# Poissons Ratio (x) = 0.63163 0.46549
# Poissons Ratio (y) = 0.63159 0.46545
# Poissons Ratio (z) = 0.08138 0.08138
#
# Static dielectric constant tensor:
#      x y z
#    x 3.303290 0.000000 0.000000 
#    y 0.000000 3.303290 0.000000 
#    z 0.000000 0.000000 4.012420 
# 
# 
# High freq. dielectric constant tensor:
#      x y z
#    x 1.707170 0.000000 0.000000 
#    y 0.000000 1.707170 0.000000 
#    z 0.000000 0.000000 1.754640 
# 
# From -- ./inp_files/5110.got.cif
#   From: 2010.03.12/outbox.cif.g09.slc.cpg/sg115_3_cif.got.tgz:5110.got - 2010.04.14 02:11:21.
