data_PCOD8309000
_publ_section_title
;
Structure prediction by ZEFSAII (Michael W. Deem and Ramdas Pophale) SiO2 
 PCOD8309000
Probable space group: P -4 21 C
;
_chemical_formula_sum "Si O2"
_cell_formula_units_Z 28
_cell_length_a 10.095654
_cell_length_b 10.095654
_cell_length_c 13.054667
_cell_angle_alpha 90.000000
_cell_angle_beta 90.000000
_cell_angle_gamma 90.000000
_cell_volume 1330.560768
_symmetry_space_group_name_H-M "P -4 21 C"
_symmetry_group_IT_number 114
_symmetry_cell_setting 'tetragonal'
loop_
_space_group_symop_operation_xyz
x,y,z
y,-x,-z
-x,-y,z
-y,x,-z
1/2+x,1/2-y,1/2-z
1/2-x,1/2+y,1/2-z
1/2-y,1/2-x,1/2+z
1/2+y,1/2+x,1/2+z
loop_
_atom_site_type_symbol
_atom_site_label
_atom_site_fract_x
_atom_site_fract_y
_atom_site_fract_z
Si Si1 0.914154 0.267416 0.074235
Si Si2 0.158661 0.804544 0.857665
Si Si3 0.247277 0.389423 0.281506
Si Si4 0.000000 0.500000 0.701356
O O1 0.790530 0.179618 0.113216
O O2 0.049085 0.193385 0.105040
O O3 0.908798 0.411039 0.126885
O O4 0.897400 0.281748 0.952520
O O5 0.285204 0.723776 0.811612
O O6 0.036580 0.814130 0.775169
O O7 0.088796 0.410012 0.276289
#
# Coordination Sequence:
#
# PCOD8309000 Si02
#       4
#     8   8   8   4
#     4  11  22  42  68  94 131 175 228 264 337 407
#     4  11  23  40  69  94 131 180 219 276 330 405
#     4  11  22  42  63  98 130 166 225 272 327 391
#     4  10  24  42  64 100 132 172 212 286 334 386
#
# _framework density 21.043759000000001
#
# number of rings (size 3 to 8) (size 9 to 14) (size 15 to 20)
#    0.000    1.143    5.714    0.857    0.000    1.143 
#    0.000    0.000    0.000    0.000    0.000    0.000 
#    0.000    0.000    0.000    0.000    0.000    0.000 
#
# Total GULP energy -346882.200416 kJ/mol
# GULP energy per Si atom -12388.650015 kJ/mol
# Density = 2.099586 g / cm^3
# Si number density = 21.043759 Si / 1000 Ang^3
#
#
#
# Elastic Constant Matrix: (Units=GPa)
#
#
# Indices 1 2 3 4 5 6 
#
# 1 96.2655 29.3399 50.6558 0.0000 0.0000 0.0000
# 2 29.3399 96.2655 50.6558 0.0000 0.0000 0.0000
# 3 50.6558 50.6558 94.2855 0.0000 0.0000 0.0000
# 4 0.0000 0.0000 0.0000 32.6783 0.0000 0.0000
# 5 0.0000 0.0000 0.0000 0.0000 32.6783 0.0000
# 6 0.0000 0.0000 0.0000 0.0000 0.0000 40.1391
#
#
#
# Elastic Compliance Matrix: (Units=1/GPa)
#
#
# Indices 1 2 3 4 5 6 
#
# 1 0.014496 -0.000446 -0.007548 0.000000 0.000000 0.000000
# 2 -0.000446 0.014496 -0.007548 0.000000 0.000000 0.000000
# 3 -0.007548 -0.007548 0.018717 0.000000 0.000000 0.000000
# 4 0.000000 0.000000 0.000000 0.030601 0.000000 0.000000
# 5 0.000000 0.000000 0.000000 0.000000 0.030601 0.000000
# 6 0.000000 0.000000 0.000000 0.000000 0.000000 0.024913
#
#
# Mechanical properties :
#
#
# Convention : Reuss Voigt Hill
#
# Bulk Modulus (GPa) = 60.15740 60.90219 60.52979
# Shear Modulus (GPa) = 29.33377 31.51013 30.42195
#
# Velocity S-wave (km/s) = 3.73760 3.87377 3.80630
# Velocity P-wave (km/s) = 6.87569 7.00084 6.93855
#
# Compressibility (1/GPa) = 0.01662306
#
# Stress axis : x y z
#
# Youngs Moduli (GPa) = 68.98474 68.98474 53.42717
#
# Poissons Ratio (x) = 0.03077 0.40329
# Poissons Ratio (y) = 0.03077 0.40329
# Poissons Ratio (z) = 0.52073 0.52073
#
# Static dielectric constant tensor:
#      x y z
#    x 3.932100 0.000000 0.000000 
#    y 0.000000 3.932100 0.000000 
#    z 0.000000 0.000000 3.809740 
# 
# 
# High freq. dielectric constant tensor:
#      x y z
#    x 1.824500 0.000000 0.000000 
#    y 0.000000 1.824500 0.000000 
#    z 0.000000 0.000000 1.807210 
# 
# From -- ./inp_files/1277.got.cif
#   From: 2010.03.12/outbox.cif.g09.slc.cpg/sg114_1_cif.got.tgz:1277.got - 2010.04.14 02:08:34.
