data_PCOD8309582
_publ_section_title
;
Structure prediction by ZEFSAII (Michael W. Deem and Ramdas Pophale) SiO2 
 PCOD8309582
Probable space group: P -4 M 2
;
_chemical_formula_sum "Si O2"
_cell_formula_units_Z 48
_cell_length_a 9.095285
_cell_length_b 9.095285
_cell_length_c 30.765695
_cell_angle_alpha 90.000000
_cell_angle_beta 90.000000
_cell_angle_gamma 90.000000
_cell_volume 2545.067790
_symmetry_space_group_name_H-M "P -4 M 2"
_symmetry_group_IT_number 115
_symmetry_cell_setting 'tetragonal'
loop_
_space_group_symop_operation_xyz
x,y,z
y,-x,-z
-x,-y,z
-y,x,-z
y,x,-z
-y,-x,-z
-x,y,z
x,-y,z
loop_
_atom_site_type_symbol
_atom_site_label
_atom_site_fract_x
_atom_site_fract_y
_atom_site_fract_z
Si Si1 0.670672 0.827812 0.211215
Si Si2 0.329238 0.330994 0.623946
Si Si3 0.670353 0.172842 0.039023
Si Si4 0.164885 0.173141 0.450963
Si Si5 0.334273 0.674583 0.874664
Si Si6 0.173156 0.669121 0.288891
O O1 0.500000 0.790016 0.218999
O O2 0.732668 0.747834 0.168229
O O3 0.762646 0.771526 0.251719
O O4 0.695739 0.000000 0.205049
O O5 0.500000 0.304810 0.615387
O O6 0.291829 0.500000 0.633128
O O7 0.245526 0.280091 0.581217
O O8 0.275731 0.238694 0.665491
O O9 0.500000 0.212751 0.030464
O O10 0.730351 0.248630 0.082836
O O11 0.693006 0.000000 0.043979
O O12 0.767705 0.232296 0.000000
O O13 0.213003 0.213003 0.500000
O O14 0.000000 0.232511 0.441705
O O15 0.168139 0.000000 0.444262
O O16 0.500000 0.737397 0.875355
O O17 0.334200 0.500000 0.874228
O O18 0.218132 0.500000 0.279872
O O19 0.000000 0.689564 0.290750
#
# Coordination Sequence:
#
# PCOD8309582 Si02
#       6
#     8   8   8   8   8   8
#     4  10  20  34  54  81 111 141 174 215 264 316
#     4  10  21  36  55  80 108 138 175 220 267 314
#     4  10  20  34  53  78 108 141 178 220 265 314
#     4   9  19  36  56  78 106 141 179 217 260 313
#     4   9  17  31  54  81 107 138 176 218 263 311
#     4  10  21  37  56  77 103 139 181 221 263 313
#
# _framework density 18.860008000000001
#
# number of rings (size 3 to 8) (size 9 to 14) (size 15 to 20)
#    0.000    2.333    0.000    3.000    0.000    7.667 
#    0.000    3.333    0.000    5.000    0.000    0.000 
#    0.000    0.000    0.000    0.000    0.000    0.000 
#
# Total GULP energy -595347.839507 kJ/mol
# GULP energy per Si atom -12403.079990 kJ/mol
# Density = 1.881708 g / cm^3
# Si number density = 18.860008 Si / 1000 Ang^3
#
#
#
# Elastic Constant Matrix: (Units=GPa)
#
#
# Indices 1 2 3 4 5 6 
#
# 1 76.3475 40.2749 61.2967 0.0000 0.0000 0.0000
# 2 40.2749 76.3486 61.2979 0.0000 0.0000 0.0000
# 3 61.2967 61.2979 157.9330 0.0000 0.0000 0.0000
# 4 0.0000 0.0000 0.0000 -0.9696 0.0000 0.0000
# 5 0.0000 0.0000 0.0000 0.0000 -0.9705 0.0000
# 6 0.0000 0.0000 0.0000 0.0000 0.0000 27.2596
#
#
#
# Elastic Compliance Matrix: (Units=1/GPa)
#
#
# Indices 1 2 3 4 5 6 
#
# 1 0.021103 -0.006619 -0.005622 0.000000 0.000000 0.000000
# 2 -0.006619 0.021103 -0.005622 0.000000 0.000000 0.000000
# 3 -0.005622 -0.005622 0.010696 0.000000 0.000000 0.000000
# 4 0.000000 0.000000 0.000000 -1.031363 0.000000 0.000000
# 5 0.000000 0.000000 0.000000 0.000000 -1.030432 0.000000
# 6 0.000000 0.000000 0.000000 0.000000 0.000000 0.036684
#
#
# Mechanical properties :
#
#
# Convention : Reuss Voigt Hill
#
# Bulk Modulus (GPa) = 58.21628 70.70757 64.46192
# Shear Modulus (GPa) = -2.58965 14.91455 6.16245
#
# Velocity S-wave (km/s) = -1.17306 2.81517 1.80958
# Velocity P-wave (km/s) = 5.39443 6.93823 6.21445
#
# Compressibility (1/GPa) = 0.01717733
#
# Stress axis : x y z
#
# Youngs Moduli (GPa) = 47.38701 47.38727 93.49698
#
# Poissons Ratio (x) = 0.31364 0.52560
# Poissons Ratio (y) = 0.31364 0.52561
# Poissons Ratio (z) = 0.26639 0.26640
#
# Static dielectric constant tensor:
#      x y z
#    x 3.363790 0.000000 0.000000 
#    y 0.000000 3.363790 0.000000 
#    z 0.000000 0.000000 3.608720 
# 
# 
# High freq. dielectric constant tensor:
#      x y z
#    x 1.723320 0.000000 0.000000 
#    y 0.000000 1.723320 0.000000 
#    z 0.000000 0.000000 1.747290 
# 
# From -- ./inp_files/5920.got.cif
#   From: 2010.03.12/outbox.cif.g09.slc.cpg/sg115_3_cif.got.tgz:5920.got - 2010.04.14 02:11:21.
