data_PCOD8309161
_publ_section_title
;
Structure prediction by ZEFSAII (Michael W. Deem and Ramdas Pophale) SiO2 
 PCOD8309161
Probable space group: P -4 M 2
;
_chemical_formula_sum "Si O2"
_cell_formula_units_Z 48
_cell_length_a 11.876393
_cell_length_b 11.876393
_cell_length_c 22.883487
_cell_angle_alpha 90.000000
_cell_angle_beta 90.000000
_cell_angle_gamma 90.000000
_cell_volume 3227.686337
_symmetry_space_group_name_H-M "P -4 M 2"
_symmetry_group_IT_number 115
_symmetry_cell_setting 'tetragonal'
loop_
_space_group_symop_operation_xyz
x,y,z
y,-x,-z
-x,-y,z
-y,x,-z
y,x,-z
-y,-x,-z
-x,y,z
x,-y,z
loop_
_atom_site_type_symbol
_atom_site_label
_atom_site_fract_x
_atom_site_fract_y
_atom_site_fract_z
Si Si1 0.500000 0.130244 0.459935
Si Si2 0.716834 0.256117 0.434459
Si Si3 0.134875 0.128738 0.125741
Si Si4 0.127458 0.132785 0.653384
Si Si5 0.130673 0.869327 0.000000
Si Si6 0.734940 0.133329 0.764676
Si Si7 0.866618 0.500000 0.284559
Si Si8 0.500000 0.770365 0.586108
O O1 0.603613 0.186759 0.426357
O O2 0.500000 0.145675 0.530204
O O3 0.500000 0.000000 0.445225
O O4 0.759251 0.240750 0.500000
O O5 0.815707 0.206608 0.395570
O O6 0.694237 0.387625 0.418550
O O7 0.178037 0.177346 0.062225
O O8 0.182178 0.215526 0.174423
O O9 0.000000 0.126699 0.126580
O O10 0.177140 0.000000 0.137237
O O11 0.175220 0.169706 0.715964
O O12 0.000000 0.177199 0.647884
O O13 0.133274 0.000000 0.645176
O O14 0.000000 0.843976 0.996817
O O15 0.611005 0.182293 0.748480
O O16 0.725823 0.000000 0.768559
O O17 0.836344 0.500000 0.352905
O O18 0.000000 0.500000 0.281206
#
# Coordination Sequence:
#
# PCOD8309161 Si02
#       8
#     4   8   8   8   4   8   4   4
#     4  10  21  35  51  68  87 110 140 181 228 275
#     4  10  21  34  49  66  83 110 144 183 225 266
#     4   8  12  19  31  49  76 108 141 174 210 252
#     4  10  19  29  42  62  88 115 143 177 221 271
#     4   7  10  16  28  46  70 104 138 168 205 250
#     4   9  16  24  36  55  80 112 145 178 212 253
#     4  10  17  26  41  59  82 116 152 177 209 262
#     4  10  19  33  50  65  83 110 144 182 221 267
#
# _framework density 14.871333999999999
#
# number of rings (size 3 to 8) (size 9 to 14) (size 15 to 20)
#    0.000    2.750    1.667    2.250    0.000    5.667 
#    0.000    2.500    0.000    0.000    0.000    0.000 
#    0.000    1.333    0.000    9.417    0.000    2.750 
#
# Total GULP energy -594668.746166 kJ/mol
# GULP energy per Si atom -12388.932212 kJ/mol
# Density = 1.483749 g / cm^3
# Si number density = 14.871334 Si / 1000 Ang^3
#
#
#
# Elastic Constant Matrix: (Units=GPa)
#
#
# Indices 1 2 3 4 5 6 
#
# 1 70.6171 27.1629 34.3033 0.0000 0.0000 0.0000
# 2 27.1629 70.6172 34.3033 0.0000 0.0000 0.0000
# 3 34.3033 34.3033 118.0135 0.0000 0.0000 0.0000
# 4 0.0000 0.0000 0.0000 5.8428 0.0000 0.0000
# 5 0.0000 0.0000 0.0000 0.0000 5.8430 0.0000
# 6 0.0000 0.0000 0.0000 0.0000 0.0000 15.0620
#
#
#
# Elastic Compliance Matrix: (Units=1/GPa)
#
#
# Indices 1 2 3 4 5 6 
#
# 1 0.017930 -0.005083 -0.003734 0.000000 0.000000 0.000000
# 2 -0.005083 0.017930 -0.003734 0.000000 0.000000 0.000000
# 3 -0.003734 -0.003734 0.010645 0.000000 0.000000 0.000000
# 4 0.000000 0.000000 0.000000 0.171150 0.000000 0.000000
# 5 0.000000 0.000000 0.000000 0.000000 0.171145 0.000000
# 6 0.000000 0.000000 0.000000 0.000000 0.000000 0.066392
#
#
# Mechanical properties :
#
#
# Convention : Reuss Voigt Hill
#
# Bulk Modulus (GPa) = 46.72544 50.08742 48.40643
# Shear Modulus (GPa) = 10.25793 16.24813 13.25303
#
# Velocity S-wave (km/s) = 2.62921 3.30901 2.98850
# Velocity P-wave (km/s) = 6.38005 6.95363 6.67301
#
# Compressibility (1/GPa) = 0.02140162
#
# Stress axis : x y z
#
# Youngs Moduli (GPa) = 55.77262 55.77265 93.94491
#
# Poissons Ratio (x) = 0.28348 0.35082
# Poissons Ratio (y) = 0.28348 0.35082
# Poissons Ratio (z) = 0.20827 0.20827
#
# Static dielectric constant tensor:
#      x y z
#    x 2.773070 0.000000 0.000000 
#    y 0.000000 2.773080 0.000000 
#    z 0.000000 0.000000 3.211480 
# 
# 
# High freq. dielectric constant tensor:
#      x y z
#    x 1.537150 0.000000 0.000000 
#    y 0.000000 1.537150 0.000000 
#    z 0.000000 0.000000 1.575390 
# 
# From -- ./inp_files/4873.got.cif
#   From: 2010.03.12/outbox.cif.g09.slc.cpg/sg115_3_cif.got.tgz:4873.got - 2010.04.14 02:11:21.
