data_PCOD8309928
_publ_section_title
;
Structure prediction by ZEFSAII (Michael W. Deem and Ramdas Pophale) SiO2 
 PCOD8309928
Probable space group: P -4 M 2
;
_chemical_formula_sum "Si O2"
_cell_formula_units_Z 48
_cell_length_a 8.946921
_cell_length_b 8.946921
_cell_length_c 30.600381
_cell_angle_alpha 90.000000
_cell_angle_beta 90.000000
_cell_angle_gamma 90.000000
_cell_volume 2449.480797
_symmetry_space_group_name_H-M "P -4 M 2"
_symmetry_group_IT_number 115
_symmetry_cell_setting 'tetragonal'
loop_
_space_group_symop_operation_xyz
x,y,z
y,-x,-z
-x,-y,z
-y,x,-z
y,x,-z
-y,-x,-z
-x,y,z
x,-y,z
loop_
_atom_site_type_symbol
_atom_site_label
_atom_site_fract_x
_atom_site_fract_y
_atom_site_fract_z
Si Si1 0.827488 0.327179 0.751830
Si Si2 0.328080 0.328080 0.000000
Si Si3 0.823675 0.330452 0.168588
Si Si4 0.674300 0.674300 0.500000
Si Si5 0.326552 0.674458 0.337942
Si Si6 0.824162 0.171866 0.418191
Si Si7 0.828177 0.324968 0.911232
O O1 0.803003 0.500000 0.763499
O O2 0.774219 0.231867 0.792616
O O3 0.731481 0.280543 0.709799
O O4 0.000000 0.291933 0.741994
O O5 0.280340 0.225237 0.040456
O O6 0.300964 0.500000 0.013168
O O7 0.767975 0.500000 0.176202
O O8 0.762407 0.272513 0.122874
O O9 0.000000 0.322058 0.166962
O O10 0.708814 0.500000 0.501728
O O11 0.739648 0.747630 0.543018
O O12 0.500000 0.708344 0.347637
O O13 0.290934 0.500000 0.341132
O O14 0.226253 0.761572 0.372283
O O15 0.000000 0.190267 0.423067
O O16 0.774867 0.000000 0.420705
O O17 0.805689 0.500000 0.902935
O O18 0.000000 0.277526 0.905613
#
# Coordination Sequence:
#
# PCOD8309928 Si02
#       7
#     8   4   8   4   8   8   8
#     4  10  21  38  61  87 114 147 188 233 283 338
#     4   9  18  34  56  81 110 146 186 227 272 325
#     4  11  24  39  56  81 113 149 189 233 281 333
#     4  11  24  41  62  88 116 149 192 239 286 338
#     4  10  21  38  61  88 116 149 191 235 280 334
#     4  11  24  40  59  86 119 154 192 234 283 338
#     4  10  21  37  58  84 113 146 185 229 278 333
#
# _framework density 19.59599
#
# number of rings (size 3 to 8) (size 9 to 14) (size 15 to 20)
#    0.000    1.667    0.000    4.000    0.000   12.667 
#    0.000    1.667    0.000    0.000    0.000    0.000 
#    0.000    0.000    0.000    0.000    0.000    0.000 
#
# Total GULP energy -595499.376345 kJ/mol
# GULP energy per Si atom -12406.237007 kJ/mol
# Density = 1.955139 g / cm^3
# Si number density = 19.595990 Si / 1000 Ang^3
#
#
#
# Elastic Constant Matrix: (Units=GPa)
#
#
# Indices 1 2 3 4 5 6 
#
# 1 -209.9670 379.0673 60.4847 0.0000 0.0000 0.0000
# 2 379.0673 -209.9672 60.4846 0.0000 0.0000 0.0000
# 3 60.4847 60.4846 120.8491 0.0000 0.0000 0.0000
# 4 0.0000 0.0000 0.0000 36.0438 0.0000 0.0000
# 5 0.0000 0.0000 0.0000 0.0000 36.0438 0.0000
# 6 0.0000 0.0000 0.0000 0.0000 0.0000 30.6188
#
#
#
# Elastic Compliance Matrix: (Units=1/GPa)
#
#
# Indices 1 2 3 4 5 6 
#
# 1 0.003757 0.005455 -0.004611 0.000000 0.000000 0.000000
# 2 0.005455 0.003757 -0.004611 0.000000 0.000000 0.000000
# 3 -0.004611 -0.004611 0.012890 0.000000 0.000000 0.000000
# 4 0.000000 0.000000 0.000000 0.027744 0.000000 0.000000
# 5 0.000000 0.000000 0.000000 0.000000 0.027744 0.000000
# 6 0.000000 0.000000 0.000000 0.000000 0.000000 0.032660
#
#
# Mechanical properties :
#
#
# Convention : Reuss Voigt Hill
#
# Bulk Modulus (GPa) = 77.69060 77.88755 77.78908
# Shear Modulus (GPa) = 41.53693 -32.73348 4.40173
#
# Velocity S-wave (km/s) = 4.60898 -4.09151 1.50037
# Velocity P-wave (km/s) = 8.24959 4.18478 6.54095
#
# Compressibility (1/GPa) = 0.01287157
#
# Stress axis : x y z
#
# Youngs Moduli (GPa) = 266.16308 266.16320 77.58023
#
# Poissons Ratio (x) = -1.45186 0.35769
# Poissons Ratio (y) = -1.45186 0.35769
# Poissons Ratio (z) = 1.22715 1.22715
#
# Static dielectric constant tensor:
#      x y z
#    x 3.688580 0.000000 0.000000 
#    y 0.000000 3.688580 0.000000 
#    z 0.000000 0.000000 7.290020 
# 
# 
# High freq. dielectric constant tensor:
#      x y z
#    x 1.769860 0.000000 0.000000 
#    y 0.000000 1.769860 0.000000 
#    z 0.000000 0.000000 1.778530 
# 
# From -- ./inp_files/6248.got.cif
#   From: 2010.03.12/outbox.cif.g09.slc.cpg/sg115_4_cif.got.tgz:6248.got - 2010.04.14 02:11:21.
