data_PCOD8309330
_publ_section_title
;
Structure prediction by ZEFSAII (Michael W. Deem and Ramdas Pophale) SiO2 
 PCOD8309330
Probable space group: P -4 M 2
;
_chemical_formula_sum "Si O2"
_cell_formula_units_Z 64
_cell_length_a 19.434181
_cell_length_b 19.434181
_cell_length_c 13.098573
_cell_angle_alpha 90.000000
_cell_angle_beta 90.000000
_cell_angle_gamma 90.000000
_cell_volume 4947.165864
_symmetry_space_group_name_H-M "P -4 M 2"
_symmetry_group_IT_number 115
_symmetry_cell_setting 'tetragonal'
loop_
_space_group_symop_operation_xyz
x,y,z
y,-x,-z
-x,-y,z
-y,x,-z
y,x,-z
-y,-x,-z
-x,y,z
x,-y,z
loop_
_atom_site_type_symbol
_atom_site_label
_atom_site_fract_x
_atom_site_fract_y
_atom_site_fract_z
Si Si1 0.075500 0.081455 0.114445
Si Si2 0.081708 0.335665 0.453627
Si Si3 0.422608 0.081813 0.961061
Si Si4 0.081848 0.422246 0.265110
Si Si5 0.917819 0.655234 0.843133
Si Si6 0.919004 0.797892 0.763119
Si Si7 0.809989 0.919529 0.470487
Si Si8 0.422563 0.081997 0.356039
O O1 0.131536 0.113512 0.191982
O O2 0.000000 0.113794 0.138523
O O3 0.069793 0.000000 0.126166
O O4 0.099524 0.099524 0.000000
O O5 0.111737 0.369380 0.349583
O O6 0.102658 0.255210 0.460034
O O7 0.111598 0.377145 0.550679
O O8 0.000000 0.341560 0.455893
O O9 0.500000 0.107672 0.983307
O O10 0.372436 0.111700 0.048808
O O11 0.421259 0.000000 0.964402
O O12 0.399162 0.107106 0.848103
O O13 0.107371 0.500000 0.289008
O O14 0.000000 0.421316 0.268719
O O15 0.889510 0.732349 0.824628
O O16 0.890760 0.607182 0.751300
O O17 0.000000 0.654717 0.843496
O O18 0.901300 0.789587 0.644945
O O19 0.000000 0.801111 0.780183
O O20 0.877645 0.877645 0.500000
O O21 0.827772 0.000000 0.483145
O O22 0.500000 0.109666 0.368591
O O23 0.420872 0.000000 0.357612
#
# Coordination Sequence:
#
# PCOD8309330 Si02
#       8
#     8   8   8   8   8   8   8   8
#     4   8  14  25  40  54  63  73  96 136 187 239
#     4   9  15  25  37  50  68  87 110 140 172 212
#     4   8  13  20  30  47  72  97 114 124 140 183
#     4   8  13  21  34  52  74  97 113 127 154 195
#     4   9  14  21  32  48  69  90 107 123 152 203
#     4   9  16  27  40  51  65  83 102 137 192 237
#     4  10  20  32  42  51  64  85 115 155 203 243
#     4   9  14  19  32  53  71  87 105 124 150 192
#
# _framework density 12.9367
#
# number of rings (size 3 to 8) (size 9 to 14) (size 15 to 20)
#    0.000    3.250    1.250    1.875    0.000    3.625 
#    0.000    2.500    0.000    4.500    0.000    0.000 
#    0.000    0.000    0.000    0.000    0.000    0.000 
#
# Total GULP energy -793014.173559 kJ/mol
# GULP energy per Si atom -12390.846462 kJ/mol
# Density = 1.290726 g / cm^3
# Si number density = 12.936700 Si / 1000 Ang^3
#
#
#
# Elastic Constant Matrix: (Units=GPa)
#
#
# Indices 1 2 3 4 5 6 
#
# 1 49.5176 19.1951 37.1339 0.0000 0.0000 0.0000
# 2 19.1951 49.5176 37.1339 0.0000 0.0000 0.0000
# 3 37.1339 37.1339 106.6235 0.0000 0.0000 0.0000
# 4 0.0000 0.0000 0.0000 14.0896 0.0000 0.0000
# 5 0.0000 0.0000 0.0000 0.0000 14.0896 0.0000
# 6 0.0000 0.0000 0.0000 0.0000 0.0000 1.7249
#
#
#
# Elastic Compliance Matrix: (Units=1/GPa)
#
#
# Indices 1 2 3 4 5 6 
#
# 1 0.028159 -0.004820 -0.008128 0.000000 0.000000 0.000000
# 2 -0.004820 0.028159 -0.008128 0.000000 0.000000 0.000000
# 3 -0.008128 -0.008128 0.015040 0.000000 0.000000 0.000000
# 4 0.000000 0.000000 0.000000 0.070974 0.000000 0.000000
# 5 0.000000 0.000000 0.000000 0.000000 0.070974 0.000000
# 6 0.000000 0.000000 0.000000 0.000000 0.000000 0.579744
#
#
# Mechanical properties :
#
#
# Convention : Reuss Voigt Hill
#
# Bulk Modulus (GPa) = 34.24072 43.62051 38.93062
# Shear Modulus (GPa) = 5.91759 13.46054 9.68907
#
# Velocity S-wave (km/s) = 2.14107 3.22917 2.73968
# Velocity P-wave (km/s) = 5.71293 6.90615 6.33769
#
# Compressibility (1/GPa) = 0.02920499
#
# Stress axis : x y z
#
# Youngs Moduli (GPa) = 35.51300 35.51300 66.48748
#
# Poissons Ratio (x) = 0.17117 0.54042
# Poissons Ratio (y) = 0.17117 0.54042
# Poissons Ratio (z) = 0.28866 0.28866
#
# Static dielectric constant tensor:
#      x y z
#    x 2.380380 0.000000 0.000000 
#    y 0.000000 2.380380 0.000000 
#    z 0.000000 0.000000 2.939130 
# 
# 
# High freq. dielectric constant tensor:
#      x y z
#    x 1.441150 0.000000 0.000000 
#    y 0.000000 1.441150 0.000000 
#    z 0.000000 0.000000 1.510040 
# 
# From -- ./inp_files/3256.got.cif
#   From: 2010.03.12/outbox.cif.g09.slc.cpg/sg115_2_cif.got.tgz:3256.got - 2010.04.14 02:11:21.
