data_PCOD8309962
_publ_section_title
;
Structure prediction by ZEFSAII (Michael W. Deem and Ramdas Pophale) SiO2 
 PCOD8309962
Probable space group: P -4 M 2
;
_chemical_formula_sum "Si O2"
_cell_formula_units_Z 25
_cell_length_a 8.033351
_cell_length_b 8.033351
_cell_length_c 18.219044
_cell_angle_alpha 90.000000
_cell_angle_beta 90.000000
_cell_angle_gamma 90.000000
_cell_volume 1175.761054
_symmetry_space_group_name_H-M "P -4 M 2"
_symmetry_group_IT_number 115
_symmetry_cell_setting 'tetragonal'
loop_
_space_group_symop_operation_xyz
x,y,z
y,-x,-z
-x,-y,z
-y,x,-z
y,x,-z
-y,-x,-z
-x,y,z
x,-y,z
loop_
_atom_site_type_symbol
_atom_site_label
_atom_site_fract_x
_atom_site_fract_y
_atom_site_fract_z
Si Si1 0.000000 0.702948 0.887585
Si Si2 0.688141 0.311860 0.500000
Si Si3 0.000000 0.000000 0.000000
Si Si4 0.812431 0.810750 0.351024
Si Si5 0.680762 0.307654 0.796492
O O1 0.163907 0.762575 0.842604
O O2 0.000000 0.500000 0.904250
O O3 0.000000 0.822654 0.957827
O O4 0.500000 0.279886 0.525072
O O5 0.801711 0.271910 0.569580
O O6 0.717949 0.702893 0.290447
O O7 0.000000 0.744739 0.357362
O O8 0.805404 0.000000 0.324317
O O9 0.500000 0.228825 0.819508
O O10 0.672639 0.500000 0.813286
#
# Coordination Sequence:
#
# PCOD8309962 Si02
#       5
#     4   4   1   8   8
#     4  10  24  46  68 100 139 171 208 267 318 370
#     4  11  24  39  54  78 116 163 216 269 326 388
#     4  12  28  44  76 104 136 170 220 248 308 416
#     4  11  23  37  57  86 122 161 212 269 326 383
#     4  10  21  39  65  94 126 169 216 261 318 383
#
# _framework density 21.262826
#
# number of rings (size 3 to 8) (size 9 to 14) (size 15 to 20)
#    0.000    1.440    1.600    2.880    2.240   10.880 
#    0.000    0.000    0.000    0.000    0.000    0.000 
#    0.000    0.000    0.000    0.000    0.000    0.000 
#
# Total GULP energy -309858.260160 kJ/mol
# GULP energy per Si atom -12394.330406 kJ/mol
# Density = 2.121443 g / cm^3
# Si number density = 21.262826 Si / 1000 Ang^3
#
#
#
# Elastic Constant Matrix: (Units=GPa)
#
#
# Indices 1 2 3 4 5 6 
#
# 1 100.9674 35.0763 43.6578 0.0000 0.0000 0.0000
# 2 35.0763 100.9676 43.6576 0.0000 0.0000 0.0000
# 3 43.6578 43.6576 118.6108 0.0000 0.0000 0.0000
# 4 0.0000 0.0000 0.0000 25.2860 0.0000 0.0000
# 5 0.0000 0.0000 0.0000 0.0000 25.2853 0.0000
# 6 0.0000 0.0000 0.0000 0.0000 0.0000 19.7175
#
#
#
# Elastic Compliance Matrix: (Units=1/GPa)
#
#
# Indices 1 2 3 4 5 6 
#
# 1 0.012400 -0.002776 -0.003542 0.000000 0.000000 0.000000
# 2 -0.002776 0.012400 -0.003542 0.000000 0.000000 0.000000
# 3 -0.003542 -0.003542 0.011039 0.000000 0.000000 0.000000
# 4 0.000000 0.000000 0.000000 0.039548 0.000000 0.000000
# 5 0.000000 0.000000 0.000000 0.000000 0.039549 0.000000
# 6 0.000000 0.000000 0.000000 0.000000 0.000000 0.050716
#
#
# Mechanical properties :
#
#
# Convention : Reuss Voigt Hill
#
# Bulk Modulus (GPa) = 62.04493 62.81434 62.42964
# Shear Modulus (GPa) = 26.21277 27.26801 26.74039
#
# Velocity S-wave (km/s) = 3.51493 3.58498 3.55013
# Velocity P-wave (km/s) = 6.76139 6.83682 6.79921
#
# Compressibility (1/GPa) = 0.01611735
#
# Stress axis : x y z
#
# Youngs Moduli (GPa) = 80.64275 80.64307 90.59058
#
# Poissons Ratio (x) = 0.22388 0.32091
# Poissons Ratio (y) = 0.22388 0.32091
# Poissons Ratio (z) = 0.28567 0.28567
#
# Static dielectric constant tensor:
#      x y z
#    x 4.386300 0.000000 0.000000 
#    y 0.000000 4.386230 0.000000 
#    z 0.000000 0.000000 3.548030 
# 
# 
# High freq. dielectric constant tensor:
#      x y z
#    x 1.841680 0.000000 0.000000 
#    y 0.000000 1.841680 0.000000 
#    z 0.000000 0.000000 1.813650 
# 
# From -- ./inp_files/4076.got.cif
#   From: 2010.03.12/outbox.cif.g09.slc.cpg/sg115_3_cif.got.tgz:4076.got - 2010.04.14 02:11:21.
