data_PCOD8309578
_publ_section_title
;
Structure prediction by ZEFSAII (Michael W. Deem and Ramdas Pophale) SiO2 
 PCOD8309578
Probable space group: P -4 M 2
;
_chemical_formula_sum "Si O2"
_cell_formula_units_Z 36
_cell_length_a 9.068675
_cell_length_b 9.068675
_cell_length_c 23.169627
_cell_angle_alpha 90.000000
_cell_angle_beta 90.000000
_cell_angle_gamma 90.000000
_cell_volume 1905.490195
_symmetry_space_group_name_H-M "P -4 M 2"
_symmetry_group_IT_number 115
_symmetry_cell_setting 'tetragonal'
loop_
_space_group_symop_operation_xyz
x,y,z
y,-x,-z
-x,-y,z
-y,x,-z
y,x,-z
-y,-x,-z
-x,y,z
x,-y,z
loop_
_atom_site_type_symbol
_atom_site_label
_atom_site_fract_x
_atom_site_fract_y
_atom_site_fract_z
Si Si1 0.172357 0.670989 0.719359
Si Si2 0.173663 0.331186 0.383814
Si Si3 0.173343 0.329482 0.947995
Si Si4 0.675196 0.333766 0.166727
Si Si5 0.329940 0.329940 0.500000
O O1 0.210927 0.500000 0.709584
O O2 0.226279 0.760785 0.664559
O O3 0.253393 0.734706 0.776038
O O4 0.000000 0.695812 0.728262
O O5 0.221666 0.500000 0.371654
O O6 0.234900 0.278294 0.445406
O O7 0.000000 0.313225 0.384471
O O8 0.215098 0.500000 0.959164
O O9 0.248180 0.268417 0.889716
O O10 0.000000 0.308292 0.941491
O O11 0.231921 0.231921 0.000000
O O12 0.500000 0.331660 0.167514
O O13 0.737250 0.500000 0.165382
O O14 0.300473 0.500000 0.515092
#
# Coordination Sequence:
#
# PCOD8309578 Si02
#       5
#     8   8   8   8   4
#     4  10  20  34  54  80 109 141 177 217 262 313
#     4  10  21  36  54  78 108 140 175 217 264 314
#     4  10  20  34  53  78 108 140 175 216 262 313
#     4   9  17  31  54  81 106 135 174 220 266 311
#     4   9  18  34  56  79 104 138 180 223 264 309
#
# _framework density 18.892778
#
# number of rings (size 3 to 8) (size 9 to 14) (size 15 to 20)
#    0.000    2.333    0.000    2.667    0.000    7.556 
#    0.000    3.333    0.000    6.667    0.000    0.000 
#    0.000    0.000    0.000    0.000    0.000    0.000 
#
# Total GULP energy -446523.909325 kJ/mol
# GULP energy per Si atom -12403.441926 kJ/mol
# Density = 1.884978 g / cm^3
# Si number density = 18.892778 Si / 1000 Ang^3
#
#
#
# Elastic Constant Matrix: (Units=GPa)
#
#
# Indices 1 2 3 4 5 6 
#
# 1 76.1830 38.4093 62.0369 0.0000 0.0000 0.0000
# 2 38.4093 76.1830 62.0369 0.0000 0.0000 0.0000
# 3 62.0369 62.0369 164.7092 0.0000 0.0000 0.0000
# 4 0.0000 0.0000 0.0000 0.3410 0.0000 0.0000
# 5 0.0000 0.0000 0.0000 0.0000 0.3410 0.0000
# 6 0.0000 0.0000 0.0000 0.0000 0.0000 22.7832
#
#
#
# Elastic Compliance Matrix: (Units=1/GPa)
#
#
# Indices 1 2 3 4 5 6 
#
# 1 0.020605 -0.005869 -0.005550 0.000000 0.000000 0.000000
# 2 -0.005869 0.020605 -0.005550 0.000000 0.000000 0.000000
# 3 -0.005550 -0.005550 0.010252 0.000000 0.000000 0.000000
# 4 0.000000 0.000000 0.000000 2.932897 0.000000 0.000000
# 5 0.000000 0.000000 0.000000 0.000000 2.932897 0.000000
# 6 0.000000 0.000000 0.000000 0.000000 0.000000 0.043892
#
#
# Mechanical properties :
#
#
# Convention : Reuss Voigt Hill
#
# Bulk Modulus (GPa) = 57.06663 71.33794 64.20229
# Shear Modulus (GPa) = 0.83320 14.99915 7.91618
#
# Velocity S-wave (km/s) = 0.66481 2.82070 2.04918
# Velocity P-wave (km/s) = 5.55521 6.96059 6.29723
#
# Compressibility (1/GPa) = 0.01752338
#
# Stress axis : x y z
#
# Youngs Moduli (GPa) = 48.53242 48.53242 97.53920
#
# Poissons Ratio (x) = 0.28482 0.54137
# Poissons Ratio (y) = 0.28482 0.54137
# Poissons Ratio (z) = 0.26937 0.26937
#
# Static dielectric constant tensor:
#      x y z
#    x 3.345780 0.000000 0.000000 
#    y 0.000000 3.345780 0.000000 
#    z 0.000000 0.000000 3.626520 
# 
# 
# High freq. dielectric constant tensor:
#      x y z
#    x 1.721120 0.000000 0.000000 
#    y 0.000000 1.721120 0.000000 
#    z 0.000000 0.000000 1.750020 
# 
# From -- ./inp_files/5104.got.cif
#   From: 2010.03.12/outbox.cif.g09.slc.cpg/sg115_3_cif.got.tgz:5104.got - 2010.04.14 02:11:21.
