data_PCOD8309615
_publ_section_title
;
Structure prediction by ZEFSAII (Michael W. Deem and Ramdas Pophale) SiO2 
 PCOD8309615
Probable space group: P -4 M 2
;
_chemical_formula_sum "Si O2"
_cell_formula_units_Z 48
_cell_length_a 9.082107
_cell_length_b 9.082107
_cell_length_c 30.874047
_cell_angle_alpha 90.000000
_cell_angle_beta 90.000000
_cell_angle_gamma 90.000000
_cell_volume 2546.635503
_symmetry_space_group_name_H-M "P -4 M 2"
_symmetry_group_IT_number 115
_symmetry_cell_setting 'tetragonal'
loop_
_space_group_symop_operation_xyz
x,y,z
y,-x,-z
-x,-y,z
-y,x,-z
y,x,-z
-y,-x,-z
-x,y,z
x,-y,z
loop_
_atom_site_type_symbol
_atom_site_label
_atom_site_fract_x
_atom_site_fract_y
_atom_site_fract_z
Si Si1 0.171542 0.330029 0.836303
Si Si2 0.825081 0.167596 0.329729
Si Si3 0.333878 0.824798 0.585525
Si Si4 0.329974 0.329974 0.000000
Si Si5 0.173521 0.331761 0.086960
Si Si6 0.671743 0.671128 0.748418
Si Si7 0.828443 0.171558 0.500000
O O1 0.204885 0.500000 0.846674
O O2 0.226641 0.233681 0.875989
O O3 0.257048 0.278560 0.793521
O O4 0.000000 0.301004 0.828650
O O5 0.764233 0.243252 0.373446
O O6 0.764468 0.255435 0.289184
O O7 0.000000 0.174151 0.328229
O O8 0.768189 0.000000 0.328594
O O9 0.500000 0.763767 0.588034
O O10 0.258269 0.767326 0.541629
O O11 0.331910 0.000000 0.585804
O O12 0.276843 0.237096 0.958780
O O13 0.299785 0.500000 0.989356
O O14 0.223324 0.500000 0.096004
O O15 0.000000 0.317051 0.085242
O O16 0.500000 0.707726 0.750275
O O17 0.702412 0.500000 0.739565
O O18 0.000000 0.201766 0.508108
#
# Coordination Sequence:
#
# PCOD8309615 Si02
#       7
#     8   8   8   4   8   8   4
#     4  10  21  37  57  79 104 138 179 220 263 313
#     4  10  20  34  54  80 108 139 176 217 262 313
#     4   9  17  30  49  73 101 133 170 212 258 309
#     4   9  18  34  56  79 106 144 186 223 260 309
#     4  10  21  36  55  81 111 141 175 217 264 313
#     4  10  21  37  57  80 106 138 176 218 265 316
#     4   9  16  28  48  71  94 124 166 213 256 302
#
# _framework density 18.848399000000001
#
# number of rings (size 3 to 8) (size 9 to 14) (size 15 to 20)
#    0.000    2.333    0.000    2.500    0.000    7.333 
#    0.000    2.500    0.000    3.250    0.000    0.000 
#    0.000    0.000    0.000    0.000    0.000    0.000 
#
# Total GULP energy -595370.684057 kJ/mol
# GULP energy per Si atom -12403.555918 kJ/mol
# Density = 1.880550 g / cm^3
# Si number density = 18.848399 Si / 1000 Ang^3
#
#
#
# Elastic Constant Matrix: (Units=GPa)
#
#
# Indices 1 2 3 4 5 6 
#
# 1 77.3447 34.8821 61.8092 0.0000 0.0000 0.0000
# 2 34.8821 77.3442 61.8093 0.0000 0.0000 0.0000
# 3 61.8092 61.8093 165.1501 0.0000 0.0000 0.0000
# 4 0.0000 0.0000 0.0000 39.9953 0.0000 0.0000
# 5 0.0000 0.0000 0.0000 0.0000 39.9936 0.0000
# 6 0.0000 0.0000 0.0000 0.0000 0.0000 24.1916
#
#
#
# Elastic Compliance Matrix: (Units=1/GPa)
#
#
# Indices 1 2 3 4 5 6 
#
# 1 0.019355 -0.004195 -0.005674 0.000000 0.000000 0.000000
# 2 -0.004195 0.019355 -0.005674 0.000000 0.000000 0.000000
# 3 -0.005674 -0.005674 0.010302 0.000000 0.000000 0.000000
# 4 0.000000 0.000000 0.000000 0.025003 0.000000 0.000000
# 5 0.000000 0.000000 0.000000 0.000000 0.025004 0.000000
# 6 0.000000 0.000000 0.000000 0.000000 0.000000 0.041337
#
#
# Mechanical properties :
#
#
# Convention : Reuss Voigt Hill
#
# Bulk Modulus (GPa) = 55.78103 70.76003 63.27053
# Shear Modulus (GPa) = 28.18203 31.59199 29.88701
#
# Velocity S-wave (km/s) = 3.87097 4.09847 3.98635
# Velocity P-wave (km/s) = 7.04543 7.74725 7.40466
#
# Compressibility (1/GPa) = 0.01792724
#
# Stress axis : x y z
#
# Youngs Moduli (GPa) = 51.66549 51.66502 97.06676
#
# Poissons Ratio (x) = 0.21673 0.55075
# Poissons Ratio (y) = 0.21673 0.55076
# Poissons Ratio (z) = 0.29315 0.29315
#
# Static dielectric constant tensor:
#      x y z
#    x 3.314370 0.000000 0.000000 
#    y 0.000000 3.314360 0.000000 
#    z 0.000000 0.000000 3.614250 
# 
# 
# High freq. dielectric constant tensor:
#      x y z
#    x 1.722940 0.000000 0.000000 
#    y 0.000000 1.722940 0.000000 
#    z 0.000000 0.000000 1.747430 
# 
# From -- ./inp_files/6191.got.cif
#   From: 2010.03.12/outbox.cif.g09.slc.cpg/sg115_4_cif.got.tgz:6191.got - 2010.04.14 02:11:21.
