data_PCOD8309254
_publ_section_title
;
Structure prediction by ZEFSAII (Michael W. Deem and Ramdas Pophale) SiO2 
 PCOD8309254
Probable space group: P -4 M 2
;
_chemical_formula_sum "Si O2"
_cell_formula_units_Z 40
_cell_length_a 8.055203
_cell_length_b 8.055203
_cell_length_c 29.102297
_cell_angle_alpha 90.000000
_cell_angle_beta 90.000000
_cell_angle_gamma 90.000000
_cell_volume 1888.340239
_symmetry_space_group_name_H-M "P -4 M 2"
_symmetry_group_IT_number 115
_symmetry_cell_setting 'tetragonal'
loop_
_space_group_symop_operation_xyz
x,y,z
y,-x,-z
-x,-y,z
-y,x,-z
y,x,-z
-y,-x,-z
-x,y,z
x,-y,z
loop_
_atom_site_type_symbol
_atom_site_label
_atom_site_fract_x
_atom_site_fract_y
_atom_site_fract_z
Si Si1 0.187909 0.692166 0.855238
Si Si2 0.695247 0.315245 0.447704
Si Si3 0.301944 0.314398 0.049269
Si Si4 0.319820 0.808013 0.763721
Si Si5 0.302354 0.000000 0.391816
Si Si6 0.196224 0.000000 0.287463
O O1 0.239257 0.500000 0.854448
O O2 0.210882 0.763302 0.906920
O O3 0.300158 0.786925 0.818469
O O4 0.000000 0.720776 0.840060
O O5 0.735325 0.264676 0.500000
O O6 0.500000 0.326993 0.440614
O O7 0.770717 0.500000 0.436150
O O8 0.768967 0.168187 0.415744
O O9 0.500000 0.313227 0.046793
O O10 0.234310 0.500000 0.056178
O O11 0.239265 0.239265 0.000000
O O12 0.500000 0.730587 0.749382
O O13 0.166135 0.724605 0.735940
O O14 0.323256 0.000000 0.751447
O O15 0.500000 0.000000 0.394624
O O16 0.239881 0.000000 0.340363
O O17 0.000000 0.000000 0.279464
#
# Coordination Sequence:
#
# PCOD8309254 Si02
#       6
#     8   8   8   8   4   4
#     4  10  19  31  51  79 107 134 172 225 280 329
#     4   8  15  31  54  79 112 150 184 225 277 328
#     4   8  14  26  44  66  96 134 171 210 261 321
#     4  10  21  38  59  77  99 142 188 225 279 343
#     4  10  20  34  56  84 112 146 190 232 276 333
#     4  10  22  40  54  74 114 144 174 232 286 327
#
# _framework density 21.182621000000001
#
# number of rings (size 3 to 8) (size 9 to 14) (size 15 to 20)
#    0.000    2.800    1.000    1.800    0.000    2.800 
#    1.800    1.000    0.000    3.600    0.000    0.000 
#    0.000    0.000    0.000    0.000    0.000    0.000 
#
# Total GULP energy -495595.516275 kJ/mol
# GULP energy per Si atom -12389.887907 kJ/mol
# Density = 2.113441 g / cm^3
# Si number density = 21.182621 Si / 1000 Ang^3
#
#
#
# Elastic Constant Matrix: (Units=GPa)
#
#
# Indices 1 2 3 4 5 6 
#
# 1 78.2945 23.2034 45.5997 0.0000 0.0000 0.0000
# 2 23.2034 78.2946 45.5998 0.0000 0.0000 0.0000
# 3 45.5997 45.5998 153.6740 0.0000 0.0000 0.0000
# 4 0.0000 0.0000 0.0000 31.0605 0.0000 0.0000
# 5 0.0000 0.0000 0.0000 0.0000 31.0605 0.0000
# 6 0.0000 0.0000 0.0000 0.0000 0.0000 10.1032
#
#
#
# Elastic Compliance Matrix: (Units=1/GPa)
#
#
# Indices 1 2 3 4 5 6 
#
# 1 0.015793 -0.002359 -0.003986 0.000000 0.000000 0.000000
# 2 -0.002359 0.015793 -0.003986 0.000000 0.000000 0.000000
# 3 -0.003986 -0.003986 0.008873 0.000000 0.000000 0.000000
# 4 0.000000 0.000000 0.000000 0.032195 0.000000 0.000000
# 5 0.000000 0.000000 0.000000 0.000000 0.032195 0.000000
# 6 0.000000 0.000000 0.000000 0.000000 0.000000 0.098979
#
#
# Mechanical properties :
#
#
# Convention : Reuss Voigt Hill
#
# Bulk Modulus (GPa) = 50.51477 59.89654 55.20565
# Shear Modulus (GPa) = 21.63658 27.50217 24.56937
#
# Velocity S-wave (km/s) = 3.19945 3.60715 3.40940
# Velocity P-wave (km/s) = 6.12762 6.75917 6.45113
#
# Compressibility (1/GPa) = 0.01979619
#
# Stress axis : x y z
#
# Youngs Moduli (GPa) = 63.31904 63.31916 112.70097
#
# Poissons Ratio (x) = 0.14935 0.44927
# Poissons Ratio (y) = 0.14935 0.44927
# Poissons Ratio (z) = 0.25241 0.25241
#
# Static dielectric constant tensor:
#      x y z
#    x 3.868470 0.000000 0.000000 
#    y 0.000000 3.868470 0.000000 
#    z 0.000000 0.000000 3.917500 
# 
# 
# High freq. dielectric constant tensor:
#      x y z
#    x 1.805300 0.000000 0.000000 
#    y 0.000000 1.805300 0.000000 
#    z 0.000000 0.000000 1.830210 
# 
# From -- ./inp_files/5538.got.cif
#   From: 2010.03.12/outbox.cif.g09.slc.cpg/sg115_3_cif.got.tgz:5538.got - 2010.04.14 02:11:21.
