data_PCOD8309604
_publ_section_title
;
Structure prediction by ZEFSAII (Michael W. Deem and Ramdas Pophale) SiO2 
 PCOD8309604
Probable space group: P -4 M 2
;
_chemical_formula_sum "Si O2"
_cell_formula_units_Z 48
_cell_length_a 9.110713
_cell_length_b 9.110713
_cell_length_c 30.789828
_cell_angle_alpha 90.000000
_cell_angle_beta 90.000000
_cell_angle_gamma 90.000000
_cell_volume 2555.712486
_symmetry_space_group_name_H-M "P -4 M 2"
_symmetry_group_IT_number 115
_symmetry_cell_setting 'tetragonal'
loop_
_space_group_symop_operation_xyz
x,y,z
y,-x,-z
-x,-y,z
-y,x,-z
y,x,-z
-y,-x,-z
-x,y,z
x,-y,z
loop_
_atom_site_type_symbol
_atom_site_label
_atom_site_fract_x
_atom_site_fract_y
_atom_site_fract_z
Si Si1 0.171795 0.170111 0.670726
Si Si2 0.828866 0.171135 0.500000
Si Si3 0.174557 0.334374 0.414818
Si Si4 0.172321 0.830565 0.922383
Si Si5 0.671142 0.328859 0.000000
Si Si6 0.672726 0.331752 0.252314
Si Si7 0.830910 0.668672 0.165030
O O1 0.250266 0.232729 0.627657
O O2 0.227180 0.260363 0.711594
O O3 0.000000 0.194567 0.664720
O O4 0.210828 0.000000 0.678153
O O5 0.744755 0.234048 0.541976
O O6 0.000000 0.201974 0.507350
O O7 0.234674 0.500000 0.413655
O O8 0.000000 0.329515 0.415339
O O9 0.231820 0.783444 0.875398
O O10 0.000000 0.803295 0.923588
O O11 0.211511 0.000000 0.932240
O O12 0.247014 0.728844 0.957742
O O13 0.500000 0.295801 0.994690
O O14 0.500000 0.311133 0.251768
O O15 0.718187 0.500000 0.261958
O O16 0.734282 0.281543 0.205828
O O17 0.800666 0.500000 0.152514
O O18 0.000000 0.694343 0.177460
#
# Coordination Sequence:
#
# PCOD8309604 Si02
#       7
#     8   4   8   8   4   8   8
#     4  10  20  34  54  79 105 136 177 222 265 311
#     4   9  16  28  48  73 100 128 162 207 256 306
#     4   9  17  30  50  75 101 131 169 212 258 310
#     4  10  21  37  58  84 112 141 176 220 268 316
#     4  11  24  39  56  80 110 145 184 223 264 314
#     4  10  21  36  54  78 109 143 177 216 264 316
#     4   9  18  34  56  80 108 144 182 218 259 311
#
# _framework density 18.781457
#
# number of rings (size 3 to 8) (size 9 to 14) (size 15 to 20)
#    0.000    2.333    0.000    2.500    0.000    8.000 
#    0.000    4.167    0.000    3.250    0.000    0.000 
#    0.000    0.000    0.000    0.000    0.000    0.000 
#
# Total GULP energy -595372.910189 kJ/mol
# GULP energy per Si atom -12403.602296 kJ/mol
# Density = 1.873871 g / cm^3
# Si number density = 18.781457 Si / 1000 Ang^3
#
#
#
# Elastic Constant Matrix: (Units=GPa)
#
#
# Indices 1 2 3 4 5 6 
#
# 1 77.4746 44.0423 68.0648 0.0000 0.0000 0.0000
# 2 44.0423 77.4744 68.0647 0.0000 0.0000 0.0000
# 3 68.0648 68.0647 159.2466 0.0000 0.0000 0.0000
# 4 0.0000 0.0000 0.0000 -16.3766 0.0000 0.0000
# 5 0.0000 0.0000 0.0000 0.0000 -16.3731 0.0000
# 6 0.0000 0.0000 0.0000 0.0000 0.0000 23.2430
#
#
#
# Elastic Compliance Matrix: (Units=1/GPa)
#
#
# Indices 1 2 3 4 5 6 
#
# 1 0.022850 -0.007061 -0.006749 0.000000 0.000000 0.000000
# 2 -0.007061 0.022850 -0.006749 0.000000 0.000000 0.000000
# 3 -0.006749 -0.006749 0.012049 0.000000 0.000000 0.000000
# 4 0.000000 0.000000 0.000000 -0.061063 0.000000 0.000000
# 5 0.000000 0.000000 0.000000 0.000000 -0.061076 0.000000
# 6 0.000000 0.000000 0.000000 0.000000 0.000000 0.043024
#
#
# Mechanical properties :
#
#
# Convention : Reuss Voigt Hill
#
# Bulk Modulus (GPa) = 60.12192 74.94878 67.53535
# Shear Modulus (GPa) = 197.66411 7.03360 102.34885
#
# Velocity S-wave (km/s) = 10.26999 1.93729 7.39006
# Velocity P-wave (km/s) = 13.14196 6.70794 10.43330
#
# Compressibility (1/GPa) = 0.01663287
#
# Stress axis : x y z
#
# Youngs Moduli (GPa) = 43.76288 43.76278 82.99686
#
# Poissons Ratio (x) = 0.30900 0.56013
# Poissons Ratio (y) = 0.30900 0.56013
# Poissons Ratio (z) = 0.29535 0.29535
#
# Static dielectric constant tensor:
#      x y z
#    x 3.373890 0.000000 0.000000 
#    y 0.000000 3.373880 0.000000 
#    z 0.000000 0.000000 3.606300 
# 
# 
# High freq. dielectric constant tensor:
#      x y z
#    x 1.719480 0.000000 0.000000 
#    y 0.000000 1.719480 0.000000 
#    z 0.000000 0.000000 1.744360 
# 
# From -- ./inp_files/6229.got.cif
#   From: 2010.03.12/outbox.cif.g09.slc.cpg/sg115_4_cif.got.tgz:6229.got - 2010.04.14 02:11:21.
