data_PCOD8309461
_publ_section_title
;
Structure prediction by ZEFSAII (Michael W. Deem and Ramdas Pophale) SiO2 
 PCOD8309461
Probable space group: P -4 M 2
;
_chemical_formula_sum "Si O2"
_cell_formula_units_Z 44
_cell_length_a 9.206095
_cell_length_b 9.206095
_cell_length_c 28.463321
_cell_angle_alpha 90.000000
_cell_angle_beta 90.000000
_cell_angle_gamma 90.000000
_cell_volume 2412.328651
_symmetry_space_group_name_H-M "P -4 M 2"
_symmetry_group_IT_number 115
_symmetry_cell_setting 'tetragonal'
loop_
_space_group_symop_operation_xyz
x,y,z
y,-x,-z
-x,-y,z
-y,x,-z
y,x,-z
-y,-x,-z
-x,y,z
x,-y,z
loop_
_atom_site_type_symbol
_atom_site_label
_atom_site_fract_x
_atom_site_fract_y
_atom_site_fract_z
Si Si1 0.331566 0.331566 0.500000
Si Si2 0.332549 0.328256 0.231673
Si Si3 0.163160 0.672928 0.139991
Si Si4 0.831535 0.170425 0.314784
Si Si5 0.326842 0.337875 0.948461
Si Si6 0.333586 0.169817 0.407764
O O1 0.298927 0.500000 0.491956
O O2 0.273574 0.248557 0.454156
O O3 0.500000 0.280047 0.230893
O O4 0.316617 0.500000 0.236965
O O5 0.258289 0.272363 0.183784
O O6 0.252140 0.254848 0.274662
O O7 0.162105 0.500000 0.138440
O O8 0.232558 0.735272 0.091916
O O9 0.000000 0.734235 0.144933
O O10 0.765081 0.220288 0.364396
O O11 0.000000 0.213621 0.313690
O O12 0.807911 0.000000 0.306887
O O13 0.500000 0.343511 0.946876
O O14 0.265259 0.500000 0.939590
O O15 0.279033 0.279033 0.000000
O O16 0.500000 0.214932 0.397153
O O17 0.319588 0.000000 0.416814
#
# Coordination Sequence:
#
# PCOD8309461 Si02
#       6
#     4   8   8   8   8   8
#     4   9  18  32  50  73 100 128 160 201 246 289
#     4  10  20  33  51  75 101 130 166 208 252 298
#     4   9  16  26  42  66  96 126 156 196 246 294
#     4  10  21  36  53  74 101 133 168 206 250 299
#     4   8  13  22  38  60  85 115 153 194 234 281
#     4   9  18  33  51  70  95 128 163 198 240 292
#
# _framework density 18.239639
#
# number of rings (size 3 to 8) (size 9 to 14) (size 15 to 20)
#    0.000    2.818    0.000    2.182    0.000    5.818 
#    0.000    1.818    0.000    1.091    0.000    2.545 
#    0.000    0.000    0.000    0.000    0.000    0.000 
#
# Total GULP energy -545567.870263 kJ/mol
# GULP energy per Si atom -12399.269779 kJ/mol
# Density = 1.819812 g / cm^3
# Si number density = 18.239639 Si / 1000 Ang^3
#
#
#
# Elastic Constant Matrix: (Units=GPa)
#
#
# Indices 1 2 3 4 5 6 
#
# 1 76.9269 35.3777 72.7448 0.0000 0.0000 0.0000
# 2 35.3777 76.9269 72.7448 0.0000 0.0000 0.0000
# 3 72.7448 72.7448 197.4265 0.0000 0.0000 0.0000
# 4 0.0000 0.0000 0.0000 -0.4173 0.0000 0.0000
# 5 0.0000 0.0000 0.0000 0.0000 -0.4173 0.0000
# 6 0.0000 0.0000 0.0000 0.0000 0.0000 18.9849
#
#
#
# Elastic Compliance Matrix: (Units=1/GPa)
#
#
# Indices 1 2 3 4 5 6 
#
# 1 0.020552 -0.003516 -0.006277 0.000000 0.000000 0.000000
# 2 -0.003516 0.020552 -0.006277 0.000000 0.000000 0.000000
# 3 -0.006277 -0.006277 0.009691 0.000000 0.000000 0.000000
# 4 0.000000 0.000000 0.000000 -2.396314 0.000000 0.000000
# 5 0.000000 0.000000 0.000000 0.000000 -2.396314 0.000000
# 6 0.000000 0.000000 0.000000 0.000000 0.000000 0.052673
#
#
# Mechanical properties :
#
#
# Convention : Reuss Voigt Hill
#
# Bulk Modulus (GPa) = 53.60522 79.22389 66.41455
# Shear Modulus (GPa) = -1.07508 14.99092 6.95792
#
# Velocity S-wave (km/s) = -0.76857 2.86997 1.95525
# Velocity P-wave (km/s) = 5.35403 7.38320 6.44892
#
# Compressibility (1/GPa) = 0.01865490
#
# Stress axis : x y z
#
# Youngs Moduli (GPa) = 48.65636 48.65636 103.18614
#
# Poissons Ratio (x) = 0.17105 0.64775
# Poissons Ratio (y) = 0.17105 0.64775
# Poissons Ratio (z) = 0.30544 0.30544
#
# Static dielectric constant tensor:
#      x y z
#    x 3.240530 0.000000 0.000000 
#    y 0.000000 3.240530 0.000000 
#    z 0.000000 0.000000 3.652130 
# 
# 
# High freq. dielectric constant tensor:
#      x y z
#    x 1.684120 0.000000 0.000000 
#    y 0.000000 1.684120 0.000000 
#    z 0.000000 0.000000 1.724590 
# 
# From -- ./inp_files/5741.got.cif
#   From: 2010.03.12/outbox.cif.g09.slc.cpg/sg115_3_cif.got.tgz:5741.got - 2010.04.14 02:11:21.
