data_PCOD8309762
_publ_section_title
;
Structure prediction by ZEFSAII (Michael W. Deem and Ramdas Pophale) SiO2 
 PCOD8309762
Probable space group: P -4 M 2
;
_chemical_formula_sum "Si O2"
_cell_formula_units_Z 44
_cell_length_a 9.358657
_cell_length_b 9.358657
_cell_length_c 28.052302
_cell_angle_alpha 90.000000
_cell_angle_beta 90.000000
_cell_angle_gamma 90.000000
_cell_volume 2456.945746
_symmetry_space_group_name_H-M "P -4 M 2"
_symmetry_group_IT_number 115
_symmetry_cell_setting 'tetragonal'
loop_
_space_group_symop_operation_xyz
x,y,z
y,-x,-z
-x,-y,z
-y,x,-z
y,x,-z
-y,-x,-z
-x,y,z
x,-y,z
loop_
_atom_site_type_symbol
_atom_site_label
_atom_site_fract_x
_atom_site_fract_y
_atom_site_fract_z
Si Si1 0.332362 0.840674 0.037676
Si Si2 0.165780 0.333500 0.223374
Si Si3 0.333351 0.333351 0.500000
Si Si4 0.665708 0.333714 0.682977
Si Si5 0.168238 0.662454 0.854556
Si Si6 0.330216 0.161432 0.408273
O O1 0.500000 0.839357 0.029506
O O2 0.296967 0.790319 0.091326
O O3 0.272040 0.000000 0.029400
O O4 0.264583 0.735418 0.000000
O O5 0.191769 0.500000 0.214042
O O6 0.246341 0.283677 0.271026
O O7 0.227340 0.249139 0.178776
O O8 0.000000 0.296406 0.229265
O O9 0.305067 0.500000 0.489994
O O10 0.275538 0.245362 0.454758
O O11 0.500000 0.306742 0.671039
O O12 0.695748 0.500000 0.692944
O O13 0.757591 0.274723 0.638727
O O14 0.216023 0.500000 0.843093
O O15 0.000000 0.678195 0.846645
O O16 0.500000 0.162341 0.408121
O O17 0.270098 0.000000 0.408774
#
# Coordination Sequence:
#
# PCOD8309762 Si02
#       6
#     8   8   4   8   8   8
#     4   9  19  35  53  75 103 133 167 207 249 295
#     4  10  21  35  51  75 105 133 164 205 252 300
#     4   9  16  28  48  71  94 122 156 193 234 282
#     4   9  17  31  51  72  95 126 163 201 242 289
#     4   9  19  36  55  74  99 133 171 208 247 294
#     4   9  17  29  47  72  97 121 156 200 240 281
#
# _framework density 17.908411999999998
#
# number of rings (size 3 to 8) (size 9 to 14) (size 15 to 20)
#    0.000    2.818    0.000    2.182    0.000    6.182 
#    0.000    8.182    0.000    5.727    0.000    0.000 
#    0.000    0.000    0.000    0.000    0.000    0.000 
#
# Total GULP energy -545621.421033 kJ/mol
# GULP energy per Si atom -12400.486842 kJ/mol
# Density = 1.786765 g / cm^3
# Si number density = 17.908412 Si / 1000 Ang^3
#
#
#
# Elastic Constant Matrix: (Units=GPa)
#
#
# Indices 1 2 3 4 5 6 
#
# 1 68.9690 37.7640 69.5867 0.0000 0.0000 0.0000
# 2 37.7640 68.9711 69.5873 0.0000 0.0000 0.0000
# 3 69.5867 69.5873 163.1161 0.0000 0.0000 0.0000
# 4 0.0000 0.0000 0.0000 3.2019 0.0000 0.0000
# 5 0.0000 0.0000 0.0000 0.0000 3.2031 0.0000
# 6 0.0000 0.0000 0.0000 0.0000 0.0000 21.4922
#
#
#
# Elastic Compliance Matrix: (Units=1/GPa)
#
#
# Indices 1 2 3 4 5 6 
#
# 1 0.026580 -0.005465 -0.009008 0.000000 0.000000 0.000000
# 2 -0.005465 0.026579 -0.009007 0.000000 0.000000 0.000000
# 3 -0.009008 -0.009007 0.013816 0.000000 0.000000 0.000000
# 4 0.000000 0.000000 0.000000 0.312317 0.000000 0.000000
# 5 0.000000 0.000000 0.000000 0.000000 0.312197 0.000000
# 6 0.000000 0.000000 0.000000 0.000000 0.000000 0.046529
#
#
# Mechanical properties :
#
#
# Convention : Reuss Voigt Hill
#
# Bulk Modulus (GPa) = 49.96395 72.77025 61.36710
# Shear Modulus (GPa) = 6.31592 13.85398 10.08495
#
# Velocity S-wave (km/s) = 1.88001 2.78439 2.37563
# Velocity P-wave (km/s) = 5.71602 7.14563 6.47043
#
# Compressibility (1/GPa) = 0.02001443
#
# Stress axis : x y z
#
# Youngs Moduli (GPa) = 37.62189 37.62345 72.37933
#
# Poissons Ratio (x) = 0.20562 0.65198
# Poissons Ratio (y) = 0.20561 0.65195
# Poissons Ratio (z) = 0.33889 0.33889
#
# Static dielectric constant tensor:
#      x y z
#    x 3.210950 0.000000 0.000000 
#    y 0.000000 3.210950 0.000000 
#    z 0.000000 0.000000 3.423190 
# 
# 
# High freq. dielectric constant tensor:
#      x y z
#    x 1.678840 0.000000 0.000000 
#    y 0.000000 1.678840 0.000000 
#    z 0.000000 0.000000 1.705160 
# 
# From -- ./inp_files/5831.got.cif
#   From: 2010.03.12/outbox.cif.g09.slc.cpg/sg115_3_cif.got.tgz:5831.got - 2010.04.14 02:11:21.
