data_PCOD8309728
_publ_section_title
;
Structure prediction by ZEFSAII (Michael W. Deem and Ramdas Pophale) SiO2 
 PCOD8309728
Probable space group: P -4 M 2
;
_chemical_formula_sum "Si O2"
_cell_formula_units_Z 40
_cell_length_a 14.057924
_cell_length_b 14.057924
_cell_length_c 9.926091
_cell_angle_alpha 90.000000
_cell_angle_beta 90.000000
_cell_angle_gamma 90.000000
_cell_volume 1961.645989
_symmetry_space_group_name_H-M "P -4 M 2"
_symmetry_group_IT_number 115
_symmetry_cell_setting 'tetragonal'
loop_
_space_group_symop_operation_xyz
x,y,z
y,-x,-z
-x,-y,z
-y,x,-z
y,x,-z
-y,-x,-z
-x,y,z
x,-y,z
loop_
_atom_site_type_symbol
_atom_site_label
_atom_site_fract_x
_atom_site_fract_y
_atom_site_fract_z
Si Si1 0.853860 0.604921 0.564623
Si Si2 0.886197 0.211755 0.126118
Si Si3 0.896580 0.193854 0.622500
Si Si4 0.195183 0.394558 0.256253
Si Si5 0.602176 0.356724 0.349411
O O1 0.901924 0.500000 0.584082
O O2 0.911214 0.691490 0.633006
O O3 0.843078 0.626152 0.405869
O O4 0.755858 0.607089 0.643230
O O5 0.856487 0.144726 0.247686
O O6 0.850354 0.319294 0.153056
O O7 0.000000 0.210831 0.104551
O O8 0.831269 0.168732 0.000000
O O9 0.825781 0.174220 0.500000
O O10 0.000000 0.148683 0.596156
O O11 0.164229 0.500000 0.208368
O O12 0.310515 0.392144 0.258003
O O13 0.602934 0.397067 0.500000
O O14 0.500000 0.387436 0.284880
#
# Coordination Sequence:
#
# PCOD8309728 Si02
#       5
#     8   8   8   8   8
#     4   9  17  33  60  95 135 170 204 254 319 383
#     4  12  27  48  68  89 124 171 222 274 331 391
#     4  12  23  39  64  95 128 161 211 276 333 384
#     4  10  20  37  63  94 129 170 214 258 316 389
#     4   9  15  27  52  90 136 176 208 249 307 374
#
# _framework density 20.391037000000001
#
# number of rings (size 3 to 8) (size 9 to 14) (size 15 to 20)
#    0.000    1.600    4.000    3.600    0.000    4.600 
#    0.000    4.000    0.000    2.400    0.000    0.000 
#    0.000    0.000    0.000    0.000    0.000    0.000 
#
# Total GULP energy -495618.861790 kJ/mol
# GULP energy per Si atom -12390.471545 kJ/mol
# Density = 2.034463 g / cm^3
# Si number density = 20.391037 Si / 1000 Ang^3
#
#
#
# Elastic Constant Matrix: (Units=GPa)
#
#
# Indices 1 2 3 4 5 6 
#
# 1 154.8148 31.2648 34.8964 0.0000 0.0000 0.0000
# 2 31.2648 154.8134 34.8937 0.0000 0.0000 0.0000
# 3 34.8964 34.8937 65.4788 0.0000 0.0000 0.0000
# 4 0.0000 0.0000 0.0000 25.0339 0.0000 0.0000
# 5 0.0000 0.0000 0.0000 0.0000 25.0335 0.0000
# 6 0.0000 0.0000 0.0000 0.0000 0.0000 -5.8123
#
#
#
# Elastic Compliance Matrix: (Units=1/GPa)
#
#
# Indices 1 2 3 4 5 6 
#
# 1 0.007405 -0.000689 -0.003580 0.000000 0.000000 0.000000
# 2 -0.000689 0.007405 -0.003579 0.000000 0.000000 0.000000
# 3 -0.003580 -0.003579 0.019087 0.000000 0.000000 0.000000
# 4 0.000000 0.000000 0.000000 0.039946 0.000000 0.000000
# 5 0.000000 0.000000 0.000000 0.000000 0.039947 0.000000
# 6 0.000000 0.000000 0.000000 0.000000 0.000000 -0.172048
#
#
# Mechanical properties :
#
#
# Convention : Reuss Voigt Hill
#
# Bulk Modulus (GPa) = 54.93690 64.13521 59.53605
# Shear Modulus (GPa) = -137.00232 27.12114 -54.94059
#
# Velocity S-wave (km/s) = -8.20569 3.65094 -5.19634
# Velocity P-wave (km/s) = 7.92324 7.02093 2.59656
#
# Compressibility (1/GPa) = 0.01820270
#
# Stress axis : x y z
#
# Youngs Moduli (GPa) = 135.03886 135.04024 52.39119
#
# Poissons Ratio (x) = 0.09300 0.18754
# Poissons Ratio (y) = 0.09300 0.18752
# Poissons Ratio (z) = 0.48338 0.48334
#
# Static dielectric constant tensor:
#      x y z
#    x 4.159390 0.000000 0.000000 
#    y 0.000000 4.159460 0.000000 
#    z 0.000000 0.000000 2.798250 
# 
# 
# High freq. dielectric constant tensor:
#      x y z
#    x 1.813820 0.000000 0.000000 
#    y 0.000000 1.813820 0.000000 
#    z 0.000000 0.000000 1.731140 
# 
# From -- ./inp_files/1597.got.cif
#   From: 2010.03.12/outbox.cif.g09.slc.cpg/sg115_1_cif.got.tgz:1597.got - 2010.04.14 02:11:21.
