data_PCOD8309329
_publ_section_title
;
Structure prediction by ZEFSAII (Michael W. Deem and Ramdas Pophale) SiO2 
 PCOD8309329
Probable space group: P -4 M 2
;
_chemical_formula_sum "Si O2"
_cell_formula_units_Z 44
_cell_length_a 9.238004
_cell_length_b 9.238004
_cell_length_c 28.310955
_cell_angle_alpha 90.000000
_cell_angle_beta 90.000000
_cell_angle_gamma 90.000000
_cell_volume 2416.077224
_symmetry_space_group_name_H-M "P -4 M 2"
_symmetry_group_IT_number 115
_symmetry_cell_setting 'tetragonal'
loop_
_space_group_symop_operation_xyz
x,y,z
y,-x,-z
-x,-y,z
-y,x,-z
y,x,-z
-y,-x,-z
-x,y,z
x,-y,z
loop_
_atom_site_type_symbol
_atom_site_label
_atom_site_fract_x
_atom_site_fract_y
_atom_site_fract_z
Si Si1 0.668398 0.329359 0.583537
Si Si2 0.829752 0.829752 0.500000
Si Si3 0.832040 0.165438 0.945951
Si Si4 0.838226 0.328350 0.674282
Si Si5 0.671910 0.837035 0.221764
Si Si6 0.336285 0.328230 0.866998
O O1 0.500000 0.290491 0.579163
O O2 0.694663 0.500000 0.575537
O O3 0.758498 0.240827 0.545666
O O4 0.724526 0.276878 0.634819
O O5 0.000000 0.797113 0.500399
O O6 0.740723 0.270568 0.913414
O O7 0.000000 0.191655 0.935531
O O8 0.789900 0.000000 0.935234
O O9 0.795851 0.204150 0.000000
O O10 0.844016 0.500000 0.675385
O O11 0.787707 0.272246 0.726155
O O12 0.000000 0.269469 0.662642
O O13 0.500000 0.828996 0.220821
O O14 0.736333 0.735690 0.180717
O O15 0.724576 0.000000 0.211690
O O16 0.500000 0.273732 0.867283
O O17 0.324627 0.500000 0.867873
#
# Coordination Sequence:
#
# PCOD8309329 Si02
#       6
#     8   4   8   8   8   8
#     4  10  20  33  52  79 106 131 162 202 250 301
#     4  11  24  39  54  72  96 131 172 209 248 296
#     4   9  19  36  55  72  91 121 164 209 251 299
#     4   8  14  26  46  72 101 133 168 205 244 287
#     4   8  14  26  45  69  98 134 173 206 238 283
#     4  10  20  31  46  73 106 135 163 200 247 296
#
# _framework density 18.211335999999999
#
# number of rings (size 3 to 8) (size 9 to 14) (size 15 to 20)
#    0.000    2.818    0.000    3.273    0.000    5.818 
#    0.000    6.364    0.000    1.091    0.000    7.636 
#    0.000    0.000    0.000    0.000    0.000    0.000 
#
# Total GULP energy -545427.834488 kJ/mol
# GULP energy per Si atom -12396.087147 kJ/mol
# Density = 1.816989 g / cm^3
# Si number density = 18.211336 Si / 1000 Ang^3
#
#
#
# Elastic Constant Matrix: (Units=GPa)
#
#
# Indices 1 2 3 4 5 6 
#
# 1 63.0538 35.5260 58.7397 0.0000 0.0000 0.0000
# 2 35.5260 63.0541 58.7397 0.0000 0.0000 0.0000
# 3 58.7397 58.7397 153.0354 0.0000 0.0000 0.0000
# 4 0.0000 0.0000 0.0000 -5.6785 0.0000 0.0000
# 5 0.0000 0.0000 0.0000 0.0000 -5.6799 0.0000
# 6 0.0000 0.0000 0.0000 0.0000 0.0000 22.2933
#
#
#
# Elastic Compliance Matrix: (Units=1/GPa)
#
#
# Indices 1 2 3 4 5 6 
#
# 1 0.027511 -0.008815 -0.007176 0.000000 0.000000 0.000000
# 2 -0.008815 0.027511 -0.007176 0.000000 0.000000 0.000000
# 3 -0.007176 -0.007176 0.012043 0.000000 0.000000 0.000000
# 4 0.000000 0.000000 0.000000 -0.176103 0.000000 0.000000
# 5 0.000000 0.000000 0.000000 0.000000 -0.176061 0.000000
# 6 0.000000 0.000000 0.000000 0.000000 0.000000 0.044857
#
#
# Mechanical properties :
#
#
# Convention : Reuss Voigt Hill
#
# Bulk Modulus (GPa) = 48.23754 65.01713 56.62733
# Shear Modulus (GPa) = -26.73844 10.59618 -8.07113
#
# Velocity S-wave (km/s) = -3.83591 2.41476 -2.10750
# Velocity P-wave (km/s) = 2.63178 6.59953 5.02394
#
# Compressibility (1/GPa) = 0.02073074
#
# Stress axis : x y z
#
# Youngs Moduli (GPa) = 36.34856 36.34882 83.03429
#
# Poissons Ratio (x) = 0.32043 0.59586
# Poissons Ratio (y) = 0.32043 0.59585
# Poissons Ratio (z) = 0.26084 0.26084
#
# Static dielectric constant tensor:
#      x y z
#    x 3.199950 0.000000 0.000000 
#    y 0.000000 3.199950 0.000000 
#    z 0.000000 0.000000 3.769880 
# 
# 
# High freq. dielectric constant tensor:
#      x y z
#    x 1.682430 0.000000 0.000000 
#    y 0.000000 1.682430 0.000000 
#    z 0.000000 0.000000 1.725100 
# 
# From -- ./inp_files/5806.got.cif
#   From: 2010.03.12/outbox.cif.g09.slc.cpg/sg115_3_cif.got.tgz:5806.got - 2010.04.14 02:11:21.
