data_PCOD8309919
_publ_section_title
;
Structure prediction by ZEFSAII (Michael W. Deem and Ramdas Pophale) SiO2 
 PCOD8309919
Probable space group: P -4 M 2
;
_chemical_formula_sum "Si O2"
_cell_formula_units_Z 44
_cell_length_a 9.250039
_cell_length_b 9.250039
_cell_length_c 28.345407
_cell_angle_alpha 90.000000
_cell_angle_beta 90.000000
_cell_angle_gamma 90.000000
_cell_volume 2425.324338
_symmetry_space_group_name_H-M "P -4 M 2"
_symmetry_group_IT_number 115
_symmetry_cell_setting 'tetragonal'
loop_
_space_group_symop_operation_xyz
x,y,z
y,-x,-z
-x,-y,z
-y,x,-z
y,x,-z
-y,-x,-z
-x,y,z
x,-y,z
loop_
_atom_site_type_symbol
_atom_site_label
_atom_site_fract_x
_atom_site_fract_y
_atom_site_fract_z
Si Si1 0.167341 0.670230 0.257280
Si Si2 0.658910 0.171117 0.637566
Si Si3 0.160500 0.826995 0.551188
Si Si4 0.834560 0.834560 0.000000
Si Si5 0.167777 0.670641 0.823749
Si Si6 0.668548 0.832104 0.905932
O O1 0.197960 0.500000 0.250668
O O2 0.206698 0.721110 0.310508
O O3 0.268109 0.763210 0.223762
O O4 0.000000 0.702649 0.245705
O O5 0.500000 0.238640 0.633049
O O6 0.751326 0.239417 0.595039
O O7 0.651257 0.000000 0.631751
O O8 0.223299 0.776702 0.500000
O O9 0.000000 0.765825 0.557516
O O10 0.159634 0.000000 0.552085
O O11 0.793117 0.730105 0.042797
O O12 0.000000 0.810166 0.983888
O O13 0.189332 0.500000 0.824406
O O14 0.248545 0.736407 0.868336
O O15 0.000000 0.714265 0.825831
O O16 0.500000 0.793126 0.904720
O O17 0.694969 0.000000 0.893967
#
# Coordination Sequence:
#
# PCOD8309919 Si02
#       6
#     8   8   8   4   8   8
#     4   9  18  33  53  76  99 125 163 209 253 300
#     4   8  14  25  42  65  92 120 152 193 239 287
#     4   8  13  21  35  58  87 117 151 191 232 276
#     4   9  18  34  56  81 110 142 172 205 248 293
#     4  11  24  38  52  74 104 136 170 209 252 299
#     4  10  21  37  58  83 109 138 173 211 249 293
#
# _framework density 18.141905000000001
#
# number of rings (size 3 to 8) (size 9 to 14) (size 15 to 20)
#    0.000    2.818    0.000    3.273    0.000    6.545 
#    0.000    3.636    0.000    1.091    0.000    2.545 
#    0.000    0.000    0.000    0.000    0.000    0.000 
#
# Total GULP energy -545415.995688 kJ/mol
# GULP energy per Si atom -12395.818084 kJ/mol
# Density = 1.810061 g / cm^3
# Si number density = 18.141905 Si / 1000 Ang^3
#
#
#
# Elastic Constant Matrix: (Units=GPa)
#
#
# Indices 1 2 3 4 5 6 
#
# 1 81.0007 50.6567 74.8804 0.0000 0.0000 0.0000
# 2 50.6567 81.0009 74.8804 0.0000 0.0000 0.0000
# 3 74.8804 74.8804 167.4706 0.0000 0.0000 0.0000
# 4 0.0000 0.0000 0.0000 -12.7807 0.0000 0.0000
# 5 0.0000 0.0000 0.0000 0.0000 -12.7805 0.0000
# 6 0.0000 0.0000 0.0000 0.0000 0.0000 20.9881
#
#
#
# Elastic Compliance Matrix: (Units=1/GPa)
#
#
# Indices 1 2 3 4 5 6 
#
# 1 0.024206 -0.008749 -0.006911 0.000000 0.000000 0.000000
# 2 -0.008749 0.024206 -0.006911 0.000000 0.000000 0.000000
# 3 -0.006911 -0.006911 0.012152 0.000000 0.000000 0.000000
# 4 0.000000 0.000000 0.000000 -0.078243 0.000000 0.000000
# 5 0.000000 0.000000 0.000000 0.000000 -0.078245 0.000000
# 6 0.000000 0.000000 0.000000 0.000000 0.000000 0.047646
#
#
# Mechanical properties :
#
#
# Convention : Reuss Voigt Hill
#
# Bulk Modulus (GPa) = 64.84795 81.14523 72.99659
# Shear Modulus (GPa) = 2492.89157 7.68904 1250.29031
#
# Velocity S-wave (km/s) = 37.10916 2.06094 26.28058
# Velocity P-wave (km/s) = 43.26595 7.10552 31.00347
#
# Compressibility (1/GPa) = 0.01542069
#
# Stress axis : x y z
#
# Youngs Moduli (GPa) = 41.31173 41.31185 82.29389
#
# Poissons Ratio (x) = 0.36144 0.56875
# Poissons Ratio (y) = 0.36144 0.56875
# Poissons Ratio (z) = 0.28552 0.28551
#
# Static dielectric constant tensor:
#      x y z
#    x 3.243150 0.000000 0.000000 
#    y 0.000000 3.243150 0.000000 
#    z 0.000000 0.000000 3.624830 
# 
# 
# High freq. dielectric constant tensor:
#      x y z
#    x 1.679420 0.000000 0.000000 
#    y 0.000000 1.679420 0.000000 
#    z 0.000000 0.000000 1.722720 
# 
# From -- ./inp_files/5751.got.cif
#   From: 2010.03.12/outbox.cif.g09.slc.cpg/sg115_3_cif.got.tgz:5751.got - 2010.04.14 02:11:21.
