data_PCOD8309818
_publ_section_title
;
Structure prediction by ZEFSAII (Michael W. Deem and Ramdas Pophale) SiO2 
 PCOD8309818
Probable space group: P -4 M 2
;
_chemical_formula_sum "Si O2"
_cell_formula_units_Z 32
_cell_length_a 9.301814
_cell_length_b 9.301814
_cell_length_c 20.643768
_cell_angle_alpha 90.000000
_cell_angle_beta 90.000000
_cell_angle_gamma 90.000000
_cell_volume 1786.176091
_symmetry_space_group_name_H-M "P -4 M 2"
_symmetry_group_IT_number 115
_symmetry_cell_setting 'tetragonal'
loop_
_space_group_symop_operation_xyz
x,y,z
y,-x,-z
-x,-y,z
-y,x,-z
y,x,-z
-y,-x,-z
-x,y,z
x,-y,z
loop_
_atom_site_type_symbol
_atom_site_label
_atom_site_fract_x
_atom_site_fract_y
_atom_site_fract_z
Si Si1 0.165515 0.166760 0.183814
Si Si2 0.171236 0.338577 0.308557
Si Si3 0.171437 0.839642 0.428954
Si Si4 0.834018 0.331158 0.945047
O O1 0.224830 0.255107 0.244981
O O2 0.260597 0.211793 0.122658
O O3 0.000000 0.204780 0.168187
O O4 0.183008 0.000000 0.201053
O O5 0.231401 0.500000 0.305903
O O6 0.234055 0.263276 0.373068
O O7 0.000000 0.336074 0.310900
O O8 0.218757 0.781244 0.500000
O O9 0.000000 0.844419 0.426783
O O10 0.232354 0.000000 0.416951
O O11 0.806294 0.500000 0.940534
O O12 0.000000 0.295731 0.960964
O O13 0.734326 0.265675 0.000000
#
# Coordination Sequence:
#
# PCOD8309818 Si02
#       4
#     8   8   8   8
#     4   9  17  30  49  71  95 124 156 191 234 283
#     4   9  16  25  40  65  94 120 150 192 236 275
#     4   8  13  22  38  60  85 114 149 188 230 277
#     4  10  21  36  54  76 101 129 162 200 241 287
#
# _framework density 17.915368999999998
#
# number of rings (size 3 to 8) (size 9 to 14) (size 15 to 20)
#    0.000    3.000    0.000    2.250    0.000    5.500 
#    0.000    2.500    0.000    1.500    0.000    7.000 
#    0.000    0.000    0.000    0.000    0.000    0.000 
#
# Total GULP energy -396742.593324 kJ/mol
# GULP energy per Si atom -12398.206041 kJ/mol
# Density = 1.787459 g / cm^3
# Si number density = 17.915369 Si / 1000 Ang^3
#
#
#
# Elastic Constant Matrix: (Units=GPa)
#
#
# Indices 1 2 3 4 5 6 
#
# 1 71.8237 34.2879 73.0614 0.0000 0.0000 0.0000
# 2 34.2879 71.8234 73.0594 0.0000 0.0000 0.0000
# 3 73.0614 73.0594 189.6397 0.0000 0.0000 0.0000
# 4 0.0000 0.0000 0.0000 2.5541 0.0000 0.0000
# 5 0.0000 0.0000 0.0000 0.0000 2.5547 0.0000
# 6 0.0000 0.0000 0.0000 0.0000 0.0000 12.6516
#
#
#
# Elastic Compliance Matrix: (Units=1/GPa)
#
#
# Indices 1 2 3 4 5 6 
#
# 1 0.023358 -0.003284 -0.007734 0.000000 0.000000 0.000000
# 2 -0.003284 0.023357 -0.007733 0.000000 0.000000 0.000000
# 3 -0.007734 -0.007733 0.011232 0.000000 0.000000 0.000000
# 4 0.000000 0.000000 0.000000 0.391529 0.000000 0.000000
# 5 0.000000 0.000000 0.000000 0.000000 0.391433 0.000000
# 6 0.000000 0.000000 0.000000 0.000000 0.000000 0.079042
#
#
# Mechanical properties :
#
#
# Convention : Reuss Voigt Hill
#
# Bulk Modulus (GPa) = 48.91196 77.12268 63.01732
# Shear Modulus (GPa) = 5.18529 13.74395 9.46462
#
# Velocity S-wave (km/s) = 1.70312 2.77277 2.30096
# Velocity P-wave (km/s) = 5.58824 7.30704 6.50466
#
# Compressibility (1/GPa) = 0.02044490
#
# Stress axis : x y z
#
# Youngs Moduli (GPa) = 42.81248 42.81363 89.03200
#
# Poissons Ratio (x) = 0.14060 0.68855
# Poissons Ratio (y) = 0.14059 0.68850
# Poissons Ratio (z) = 0.33110 0.33109
#
# Static dielectric constant tensor:
#      x y z
#    x 3.096680 0.000000 0.000000 
#    y 0.000000 3.096680 0.000000 
#    z 0.000000 0.000000 3.582690 
# 
# 
# High freq. dielectric constant tensor:
#      x y z
#    x 1.660880 0.000000 0.000000 
#    y 0.000000 1.660880 0.000000 
#    z 0.000000 0.000000 1.710940 
# 
# From -- ./inp_files/4573.got.cif
#   From: 2010.03.12/outbox.cif.g09.slc.cpg/sg115_3_cif.got.tgz:4573.got - 2010.04.14 02:11:21.
