data_PCOD8309687
_publ_section_title
;
Structure prediction by ZEFSAII (Michael W. Deem and Ramdas Pophale) SiO2 
 PCOD8309687
Probable space group: P -4 M 2
;
_chemical_formula_sum "Si O2"
_cell_formula_units_Z 48
_cell_length_a 8.959823
_cell_length_b 8.959823
_cell_length_c 31.233548
_cell_angle_alpha 90.000000
_cell_angle_beta 90.000000
_cell_angle_gamma 90.000000
_cell_volume 2507.380140
_symmetry_space_group_name_H-M "P -4 M 2"
_symmetry_group_IT_number 115
_symmetry_cell_setting 'tetragonal'
loop_
_space_group_symop_operation_xyz
x,y,z
y,-x,-z
-x,-y,z
-y,x,-z
y,x,-z
-y,-x,-z
-x,y,z
x,-y,z
loop_
_atom_site_type_symbol
_atom_site_label
_atom_site_fract_x
_atom_site_fract_y
_atom_site_fract_z
Si Si1 0.675854 0.328237 0.828370
Si Si2 0.826847 0.173154 0.000000
Si Si3 0.825380 0.176839 0.092710
Si Si4 0.168161 0.322522 0.415217
Si Si5 0.671616 0.324264 0.670423
Si Si6 0.172191 0.825271 0.250804
Si Si7 0.326028 0.673973 0.500000
O O1 0.500000 0.306794 0.827241
O O2 0.720841 0.500000 0.820747
O O3 0.736403 0.275288 0.873833
O O4 0.745928 0.226835 0.791848
O O5 0.765776 0.234155 0.045652
O O6 0.000000 0.206112 0.000654
O O7 0.000000 0.215587 0.099306
O O8 0.801821 0.000000 0.097840
O O9 0.175177 0.500000 0.416341
O O10 0.254650 0.264455 0.373413
O O11 0.244615 0.259697 0.458186
O O12 0.000000 0.262356 0.413076
O O13 0.500000 0.276816 0.678271
O O14 0.687506 0.500000 0.666839
O O15 0.770487 0.266821 0.709124
O O16 0.000000 0.784678 0.258560
O O17 0.196669 0.000000 0.244820
O O18 0.500000 0.706463 0.494009
#
# Coordination Sequence:
#
# PCOD8309687 Si02
#       7
#     8   4   8   8   8   8   4
#     4  11  24  39  54  76 107 142 179 218 262 313
#     4   7  12  26  50  79 108 136 170 215 262 309
#     4   9  17  32  56  83 108 137 176 220 265 313
#     4   9  17  30  50  76 105 138 176 217 262 312
#     4  10  20  35  57  84 111 140 176 217 262 314
#     4  11  24  40  58  81 107 136 173 217 265 317
#     4   9  16  28  48  73 100 132 174 221 262 304
#
# _framework density 19.143488000000001
#
# number of rings (size 3 to 8) (size 9 to 14) (size 15 to 20)
#    0.000    2.333    0.000    4.000    0.000   10.000 
#    0.000    1.667    0.000    7.250    0.000    0.000 
#    0.000    0.000    0.000    0.000    0.000    0.000 
#
# Total GULP energy -595071.471056 kJ/mol
# GULP energy per Si atom -12397.322314 kJ/mol
# Density = 1.909992 g / cm^3
# Si number density = 19.143488 Si / 1000 Ang^3
#
#
#
# Elastic Constant Matrix: (Units=GPa)
#
#
# Indices 1 2 3 4 5 6 
#
# 1 58.7175 32.9425 37.1967 0.0000 0.0000 0.0000
# 2 32.9425 58.7168 37.1967 0.0000 0.0000 0.0000
# 3 37.1967 37.1967 157.9517 0.0000 0.0000 0.0000
# 4 0.0000 0.0000 0.0000 32.5699 0.0000 0.0000
# 5 0.0000 0.0000 0.0000 0.0000 32.5699 0.0000
# 6 0.0000 0.0000 0.0000 0.0000 0.0000 24.7818
#
#
#
# Elastic Compliance Matrix: (Units=1/GPa)
#
#
# Indices 1 2 3 4 5 6 
#
# 1 0.026143 -0.012655 -0.003176 0.000000 0.000000 0.000000
# 2 -0.012655 0.026143 -0.003176 0.000000 0.000000 0.000000
# 3 -0.003176 -0.003176 0.007827 0.000000 0.000000 0.000000
# 4 0.000000 0.000000 0.000000 0.030703 0.000000 0.000000
# 5 0.000000 0.000000 0.000000 0.000000 0.030703 0.000000
# 6 0.000000 0.000000 0.000000 0.000000 0.000000 0.040352
#
#
# Mechanical properties :
#
#
# Convention : Reuss Voigt Hill
#
# Bulk Modulus (GPa) = 45.25380 54.45088 49.85234
# Shear Modulus (GPa) = 24.12516 29.18765 26.65640
#
# Velocity S-wave (km/s) = 3.55382 3.90895 3.73561
# Velocity P-wave (km/s) = 6.36633 6.99131 6.68613
#
# Compressibility (1/GPa) = 0.02209759
#
# Stress axis : x y z
#
# Youngs Moduli (GPa) = 38.25163 38.25105 127.76182
#
# Poissons Ratio (x) = 0.48407 0.40581
# Poissons Ratio (y) = 0.48407 0.40582
# Poissons Ratio (z) = 0.12150 0.12150
#
# Static dielectric constant tensor:
#      x y z
#    x 3.363450 0.000000 0.000000 
#    y 0.000000 3.363460 0.000000 
#    z 0.000000 0.000000 3.929800 
# 
# 
# High freq. dielectric constant tensor:
#      x y z
#    x 1.726600 0.000000 0.000000 
#    y 0.000000 1.726600 0.000000 
#    z 0.000000 0.000000 1.770300 
# 
# From -- ./inp_files/6193.got.cif
#   From: 2010.03.12/outbox.cif.g09.slc.cpg/sg115_4_cif.got.tgz:6193.got - 2010.04.14 02:11:21.
