data_PCOD8309531
_publ_section_title
;
Structure prediction by ZEFSAII (Michael W. Deem and Ramdas Pophale) SiO2 
 PCOD8309531
Probable space group: P -4 M 2
;
_chemical_formula_sum "Si O2"
_cell_formula_units_Z 40
_cell_length_a 8.075189
_cell_length_b 8.075189
_cell_length_c 29.097520
_cell_angle_alpha 90.000000
_cell_angle_beta 90.000000
_cell_angle_gamma 90.000000
_cell_volume 1897.410794
_symmetry_space_group_name_H-M "P -4 M 2"
_symmetry_group_IT_number 115
_symmetry_cell_setting 'tetragonal'
loop_
_space_group_symop_operation_xyz
x,y,z
y,-x,-z
-x,-y,z
-y,x,-z
y,x,-z
-y,-x,-z
-x,y,z
x,-y,z
loop_
_atom_site_type_symbol
_atom_site_label
_atom_site_fract_x
_atom_site_fract_y
_atom_site_fract_z
Si Si1 0.692285 0.319644 0.856678
Si Si2 0.302506 0.000000 0.699757
Si Si3 0.313586 0.692090 0.355996
Si Si4 0.812670 0.803895 0.050962
Si Si5 0.697753 0.000000 0.804536
Si Si6 0.180189 0.307298 0.547161
O O1 0.500000 0.321202 0.845364
O O2 0.766788 0.500000 0.841714
O O3 0.718732 0.301708 0.911183
O O4 0.772975 0.165221 0.828935
O O5 0.231101 0.830468 0.676571
O O6 0.242265 0.000000 0.752151
O O7 0.500000 0.000000 0.695220
O O8 0.500000 0.769948 0.347597
O O9 0.328078 0.500000 0.345629
O O10 0.249455 0.717280 0.408276
O O11 0.000000 0.741934 0.058809
O O12 0.802902 0.000000 0.055976
O O13 0.751470 0.751470 0.000000
O O14 0.500000 0.000000 0.808454
O O15 0.271943 0.271943 0.500000
O O16 0.156467 0.500000 0.550934
O O17 0.000000 0.220115 0.547449
#
# Coordination Sequence:
#
# PCOD8309531 Si02
#       6
#     8   4   8   8   4   8
#     4  10  20  33  52  78 108 144 183 226 279 338
#     4   9  18  32  55  81 103 137 185 231 281 338
#     4   9  18  33  53  77 105 137 177 229 280 329
#     4   9  18  33  53  76 104 141 182 223 270 328
#     4   9  18  34  53  77 109 141 179 237 291 328
#     4  10  21  35  52  76 107 142 177 216 263 320
#
# _framework density 21.081358000000002
#
# number of rings (size 3 to 8) (size 9 to 14) (size 15 to 20)
#    0.000    2.600    1.000    1.200    1.400    3.200 
#    0.000    7.000    0.000    2.400    0.000    2.800 
#    0.000    0.000    0.000    0.000    0.000    0.000 
#
# Total GULP energy -495623.186529 kJ/mol
# GULP energy per Si atom -12390.579663 kJ/mol
# Density = 2.103338 g / cm^3
# Si number density = 21.081358 Si / 1000 Ang^3
#
#
#
# Elastic Constant Matrix: (Units=GPa)
#
#
# Indices 1 2 3 4 5 6 
#
# 1 75.8390 26.0893 47.7117 0.0000 0.0000 0.0000
# 2 26.0893 75.8390 47.7117 0.0000 0.0000 0.0000
# 3 47.7117 47.7117 160.3678 0.0000 0.0000 0.0000
# 4 0.0000 0.0000 0.0000 12.2161 0.0000 0.0000
# 5 0.0000 0.0000 0.0000 0.0000 12.2161 0.0000
# 6 0.0000 0.0000 0.0000 0.0000 0.0000 9.2728
#
#
#
# Elastic Compliance Matrix: (Units=1/GPa)
#
#
# Indices 1 2 3 4 5 6 
#
# 1 0.016849 -0.003251 -0.004046 0.000000 0.000000 0.000000
# 2 -0.003251 0.016849 -0.004046 0.000000 0.000000 0.000000
# 3 -0.004046 -0.004046 0.008643 0.000000 0.000000 0.000000
# 4 0.000000 0.000000 0.000000 0.081860 0.000000 0.000000
# 5 0.000000 0.000000 0.000000 0.000000 0.081860 0.000000
# 6 0.000000 0.000000 0.000000 0.000000 0.000000 0.107842
#
#
# Mechanical properties :
#
#
# Convention : Reuss Voigt Hill
#
# Bulk Modulus (GPa) = 50.87286 61.67455 56.27371
# Shear Modulus (GPa) = 14.57130 19.44320 17.00725
#
# Velocity S-wave (km/s) = 2.63191 3.04022 2.84340
# Velocity P-wave (km/s) = 5.78100 6.45313 6.12629
#
# Compressibility (1/GPa) = 0.01965685
#
# Stress axis : x y z
#
# Youngs Moduli (GPa) = 59.34905 59.34905 115.70099
#
# Poissons Ratio (x) = 0.19295 0.46809
# Poissons Ratio (y) = 0.19295 0.46809
# Poissons Ratio (z) = 0.24011 0.24011
#
# Static dielectric constant tensor:
#      x y z
#    x 3.877480 0.000000 0.000000 
#    y 0.000000 3.877480 0.000000 
#    z 0.000000 0.000000 3.864250 
# 
# 
# High freq. dielectric constant tensor:
#      x y z
#    x 1.807710 0.000000 0.000000 
#    y 0.000000 1.807710 0.000000 
#    z 0.000000 0.000000 1.821810 
# 
# From -- ./inp_files/5526.got.cif
#   From: 2010.03.12/outbox.cif.g09.slc.cpg/sg115_3_cif.got.tgz:5526.got - 2010.04.14 02:11:21.
