data_PCOD8309663
_publ_section_title
;
Structure prediction by ZEFSAII (Michael W. Deem and Ramdas Pophale) SiO2 
 PCOD8309663
Probable space group: P -4 M 2
;
_chemical_formula_sum "Si O2"
_cell_formula_units_Z 56
_cell_length_a 14.663366
_cell_length_b 14.663366
_cell_length_c 14.948409
_cell_angle_alpha 90.000000
_cell_angle_beta 90.000000
_cell_angle_gamma 90.000000
_cell_volume 3214.121734
_symmetry_space_group_name_H-M "P -4 M 2"
_symmetry_group_IT_number 115
_symmetry_cell_setting 'tetragonal'
loop_
_space_group_symop_operation_xyz
x,y,z
y,-x,-z
-x,-y,z
-y,x,-z
y,x,-z
-y,-x,-z
-x,y,z
x,-y,z
loop_
_atom_site_type_symbol
_atom_site_label
_atom_site_fract_x
_atom_site_fract_y
_atom_site_fract_z
Si Si1 0.338968 0.218228 0.044919
Si Si2 0.106410 0.605042 0.795601
Si Si3 0.603199 0.602012 0.865403
Si Si4 0.608617 0.255768 0.537701
Si Si5 0.393635 0.763783 0.737283
Si Si6 0.391709 0.899414 0.404587
Si Si7 0.100545 0.604477 0.117542
O O1 0.330584 0.163102 0.137402
O O2 0.385488 0.317552 0.060892
O O3 0.239731 0.239731 0.000000
O O4 0.393991 0.157402 0.974376
O O5 0.136936 0.500000 0.810045
O O6 0.128865 0.639140 0.695461
O O7 0.000000 0.615348 0.816497
O O8 0.500000 0.622578 0.904199
O O9 0.606390 0.500000 0.827695
O O10 0.625365 0.665885 0.781176
O O11 0.651121 0.348880 0.500000
O O12 0.500000 0.267375 0.535104
O O13 0.646684 0.235361 0.637262
O O14 0.644365 0.172476 0.476643
O O15 0.500000 0.783224 0.729944
O O16 0.349130 0.842080 0.801099
O O17 0.500000 0.903666 0.405238
O O18 0.353042 0.000000 0.428657
O O19 0.085863 0.500000 0.141763
O O20 0.000000 0.651102 0.108135
#
# Coordination Sequence:
#
# PCOD8309663 Si02
#       7
#     8   8   8   8   8   8   8
#     4  12  22  31  47  72 101 132 169 208 251 296
#     4   9  18  33  53  74  95 125 168 217 266 308
#     4  10  21  34  47  65  98 142 180 212 241 283
#     4  10  21  33  50  73 102 139 178 214 248 296
#     4   9  19  35  47  66  95 132 180 214 244 291
#     4   8  16  32  52  73  94 120 164 219 269 308
#     4  10  20  35  52  69  94 129 171 218 263 305
#
# _framework density 17.423112
#
# number of rings (size 3 to 8) (size 9 to 14) (size 15 to 20)
#    0.000    2.286    1.429    2.571    2.000    3.571 
#    0.000    5.000    0.000    0.000    0.000    0.000 
#    0.000    4.857    0.000    6.714    0.000    0.000 
#
# Total GULP energy -693897.369144 kJ/mol
# GULP energy per Si atom -12391.024449 kJ/mol
# Density = 1.738346 g / cm^3
# Si number density = 17.423112 Si / 1000 Ang^3
#
#
#
# Elastic Constant Matrix: (Units=GPa)
#
#
# Indices 1 2 3 4 5 6 
#
# 1 81.3743 27.5708 57.2639 0.0000 0.0000 0.0000
# 2 27.5708 81.3726 57.2630 0.0000 0.0000 0.0000
# 3 57.2639 57.2630 141.2538 0.0000 0.0000 0.0000
# 4 0.0000 0.0000 0.0000 22.7954 0.0000 0.0000
# 5 0.0000 0.0000 0.0000 0.0000 22.7959 0.0000
# 6 0.0000 0.0000 0.0000 0.0000 0.0000 11.6524
#
#
#
# Elastic Compliance Matrix: (Units=1/GPa)
#
#
# Indices 1 2 3 4 5 6 
#
# 1 0.017291 -0.001295 -0.006485 0.000000 0.000000 0.000000
# 2 -0.001295 0.017291 -0.006485 0.000000 0.000000 0.000000
# 3 -0.006485 -0.006485 0.012337 0.000000 0.000000 0.000000
# 4 0.000000 0.000000 0.000000 0.043869 0.000000 0.000000
# 5 0.000000 0.000000 0.000000 0.000000 0.043868 0.000000
# 6 0.000000 0.000000 0.000000 0.000000 0.000000 0.085820
#
#
# Mechanical properties :
#
#
# Convention : Reuss Voigt Hill
#
# Bulk Modulus (GPa) = 54.37615 65.35510 59.86563
# Shear Modulus (GPa) = 19.59750 22.24225 20.91988
#
# Velocity S-wave (km/s) = 3.35744 3.57682 3.46887
# Velocity P-wave (km/s) = 6.80491 7.39258 7.10482
#
# Compressibility (1/GPa) = 0.01839041
#
# Stress axis : x y z
#
# Youngs Moduli (GPa) = 57.83337 57.83238 81.05607
#
# Poissons Ratio (x) = 0.07491 0.52562
# Poissons Ratio (y) = 0.07491 0.52562
# Poissons Ratio (z) = 0.37503 0.37502
#
# Static dielectric constant tensor:
#      x y z
#    x 3.202480 0.000000 0.000000 
#    y 0.000000 3.202480 0.000000 
#    z 0.000000 0.000000 3.509250 
# 
# 
# High freq. dielectric constant tensor:
#      x y z
#    x 1.639630 0.000000 0.000000 
#    y 0.000000 1.639630 0.000000 
#    z 0.000000 0.000000 1.687400 
# 
# From -- ./inp_files/3830.got.cif
#   From: 2010.03.12/outbox.cif.g09.slc.cpg/sg115_2_cif.got.tgz:3830.got - 2010.04.14 02:11:21.
