data_PCOD8309878
_publ_section_title
;
Structure prediction by ZEFSAII (Michael W. Deem and Ramdas Pophale) SiO2 
 PCOD8309878
Probable space group: P -4 M 2
;
_chemical_formula_sum "Si O2"
_cell_formula_units_Z 36
_cell_length_a 9.153729
_cell_length_b 9.153729
_cell_length_c 22.934637
_cell_angle_alpha 90.000000
_cell_angle_beta 90.000000
_cell_angle_gamma 90.000000
_cell_volume 1921.710541
_symmetry_space_group_name_H-M "P -4 M 2"
_symmetry_group_IT_number 115
_symmetry_cell_setting 'tetragonal'
loop_
_space_group_symop_operation_xyz
x,y,z
y,-x,-z
-x,-y,z
-y,x,-z
y,x,-z
-y,-x,-z
-x,y,z
x,-y,z
loop_
_atom_site_type_symbol
_atom_site_label
_atom_site_fract_x
_atom_site_fract_y
_atom_site_fract_z
Si Si1 0.335351 0.827004 0.178701
Si Si2 0.330649 0.328359 0.603899
Si Si3 0.330548 0.167904 0.721575
Si Si4 0.672208 0.161917 0.048711
Si Si5 0.829056 0.829056 0.500000
O O1 0.500000 0.770395 0.191652
O O2 0.221113 0.757482 0.222664
O O3 0.286034 0.781480 0.113406
O O4 0.330844 0.000000 0.185066
O O5 0.500000 0.294179 0.589790
O O6 0.300060 0.500000 0.604429
O O7 0.284278 0.263350 0.666019
O O8 0.229566 0.253915 0.556262
O O9 0.500000 0.188627 0.735594
O O10 0.291392 0.000000 0.708590
O O11 0.500000 0.156175 0.043320
O O12 0.737381 0.000000 0.038596
O O13 0.730834 0.269167 0.000000
O O14 0.000000 0.796670 0.492996
#
# Coordination Sequence:
#
# PCOD8309878 Si02
#       5
#     8   8   8   8   4
#     4   9  19  36  55  75 103 140 179 218 263 316
#     4  10  21  38  60  83 107 140 181 220 262 314
#     4  10  21  36  55  81 111 141 175 218 266 314
#     4   9  19  35  53  75 104 137 175 219 265 316
#     4  11  24  39  56  82 114 145 178 217 262 312
#
# _framework density 18.733309999999999
#
# number of rings (size 3 to 8) (size 9 to 14) (size 15 to 20)
#    0.000    2.333    0.000    3.333    0.000    8.444 
#    0.000    6.667    0.000    0.000    0.000    0.000 
#    0.000    0.000    0.000    0.000    0.000    0.000 
#
# Total GULP energy -446460.266853 kJ/mol
# GULP energy per Si atom -12401.674079 kJ/mol
# Density = 1.869067 g / cm^3
# Si number density = 18.733310 Si / 1000 Ang^3
#
#
#
# Elastic Constant Matrix: (Units=GPa)
#
#
# Indices 1 2 3 4 5 6 
#
# 1 74.6210 45.6928 64.2503 0.0000 0.0000 0.0000
# 2 45.6928 74.6191 64.2498 0.0000 0.0000 0.0000
# 3 64.2503 64.2498 146.5661 0.0000 0.0000 0.0000
# 4 0.0000 0.0000 0.0000 40.8215 0.0000 0.0000
# 5 0.0000 0.0000 0.0000 0.0000 40.8207 0.0000
# 6 0.0000 0.0000 0.0000 0.0000 0.0000 31.9942
#
#
#
# Elastic Compliance Matrix: (Units=1/GPa)
#
#
# Indices 1 2 3 4 5 6 
#
# 1 0.025099 -0.009470 -0.006851 0.000000 0.000000 0.000000
# 2 -0.009470 0.025100 -0.006851 0.000000 0.000000 0.000000
# 3 -0.006851 -0.006851 0.012830 0.000000 0.000000 0.000000
# 4 0.000000 0.000000 0.000000 0.024497 0.000000 0.000000
# 5 0.000000 0.000000 0.000000 0.000000 0.024497 0.000000
# 6 0.000000 0.000000 0.000000 0.000000 0.000000 0.031256
#
#
# Mechanical properties :
#
#
# Convention : Reuss Voigt Hill
#
# Bulk Modulus (GPa) = 59.94221 71.57688 65.75954
# Shear Modulus (GPa) = 25.61670 30.83484 28.22577
#
# Velocity S-wave (km/s) = 3.70190 4.06148 3.88585
# Velocity P-wave (km/s) = 7.09502 7.76437 7.43723
#
# Compressibility (1/GPa) = 0.01668274
#
# Stress axis : x y z
#
# Youngs Moduli (GPa) = 39.84221 39.84098 77.94395
#
# Poissons Ratio (x) = 0.37730 0.53402
# Poissons Ratio (y) = 0.37731 0.53403
# Poissons Ratio (z) = 0.27297 0.27297
#
# Static dielectric constant tensor:
#      x y z
#    x 3.449040 0.000000 0.000000 
#    y 0.000000 3.449040 0.000000 
#    z 0.000000 0.000000 3.605300 
# 
# 
# High freq. dielectric constant tensor:
#      x y z
#    x 1.725530 0.000000 0.000000 
#    y 0.000000 1.725530 0.000000 
#    z 0.000000 0.000000 1.740040 
# 
# From -- ./inp_files/5128.got.cif
#   From: 2010.03.12/outbox.cif.g09.slc.cpg/sg115_3_cif.got.tgz:5128.got - 2010.04.14 02:11:21.
