data_PCOD8309160
_publ_section_title
;
Structure prediction by ZEFSAII (Michael W. Deem and Ramdas Pophale) SiO2 
 PCOD8309160
Probable space group: P -4 M 2
;
_chemical_formula_sum "Si O2"
_cell_formula_units_Z 56
_cell_length_a 14.102999
_cell_length_b 14.102999
_cell_length_c 18.486694
_cell_angle_alpha 90.000000
_cell_angle_beta 90.000000
_cell_angle_gamma 90.000000
_cell_volume 3676.903253
_symmetry_space_group_name_H-M "P -4 M 2"
_symmetry_group_IT_number 115
_symmetry_cell_setting 'tetragonal'
loop_
_space_group_symop_operation_xyz
x,y,z
y,-x,-z
-x,-y,z
-y,x,-z
y,x,-z
-y,-x,-z
-x,y,z
x,-y,z
loop_
_atom_site_type_symbol
_atom_site_label
_atom_site_fract_x
_atom_site_fract_y
_atom_site_fract_z
Si Si1 0.887777 0.603689 0.134062
Si Si2 0.107095 0.888719 0.215405
Si Si3 0.889590 0.394267 0.562119
Si Si4 0.786330 0.110280 0.359159
Si Si5 0.111372 0.207555 0.067206
Si Si6 0.727305 0.112711 0.573176
Si Si7 0.605236 0.112406 0.705760
O O1 0.845719 0.500000 0.112974
O O2 0.859094 0.681927 0.074811
O O3 0.852741 0.636023 0.213996
O O4 0.000000 0.596207 0.137932
O O5 0.177440 0.858281 0.279928
O O6 0.143108 0.843983 0.140745
O O7 0.000000 0.852832 0.234103
O O8 0.107493 0.000000 0.203957
O O9 0.843012 0.500000 0.570803
O O10 0.872002 0.327652 0.632918
O O11 0.848744 0.336326 0.493250
O O12 0.000000 0.409506 0.548865
O O13 0.840251 0.168260 0.422697
O O14 0.810171 0.000000 0.373590
O O15 0.000000 0.192981 0.053511
O O16 0.167599 0.167599 0.000000
O O17 0.676821 0.151371 0.645966
O O18 0.738970 0.000000 0.569270
O O19 0.500000 0.151044 0.688774
O O20 0.604685 0.000000 0.701414
#
# Coordination Sequence:
#
# PCOD8309160 Si02
#       7
#     8   8   8   8   8   8   8
#     4   8  14  24  37  54  78 108 138 167 204 246
#     4   9  17  28  41  59  85 115 143 168 196 236
#     4   9  18  31  43  54  72 103 142 180 213 239
#     4  10  19  29  41  58  83 114 142 166 198 244
#     4  10  18  27  41  61  85 113 142 171 203 241
#     4  10  17  25  40  62  87 111 135 165 200 241
#     4   8  13  22  38  60  84 109 136 166 201 240
#
# _framework density 15.230207
#
# number of rings (size 3 to 8) (size 9 to 14) (size 15 to 20)
#    0.000    2.857    0.000    3.429    0.000    5.571 
#    0.000    0.714    0.000    6.000    0.000    4.000 
#    0.000   10.000    0.000    3.857    0.000    0.286 
#
# Total GULP energy -693833.661982 kJ/mol
# GULP energy per Si atom -12389.886821 kJ/mol
# Density = 1.519554 g / cm^3
# Si number density = 15.230207 Si / 1000 Ang^3
#
#
#
# Elastic Constant Matrix: (Units=GPa)
#
#
# Indices 1 2 3 4 5 6 
#
# 1 63.6673 22.6722 47.4449 0.0000 0.0000 0.0000
# 2 22.6722 63.6673 47.4449 0.0000 0.0000 0.0000
# 3 47.4449 47.4449 102.4732 0.0000 0.0000 0.0000
# 4 0.0000 0.0000 0.0000 18.2123 0.0000 0.0000
# 5 0.0000 0.0000 0.0000 0.0000 18.2123 0.0000
# 6 0.0000 0.0000 0.0000 0.0000 0.0000 5.7474
#
#
#
# Elastic Compliance Matrix: (Units=1/GPa)
#
#
# Indices 1 2 3 4 5 6 
#
# 1 0.023987 -0.000406 -0.010918 0.000000 0.000000 0.000000
# 2 -0.000406 0.023987 -0.010918 0.000000 0.000000 0.000000
# 3 -0.010918 -0.010918 0.019869 0.000000 0.000000 0.000000
# 4 0.000000 0.000000 0.000000 0.054908 0.000000 0.000000
# 5 0.000000 0.000000 0.000000 0.000000 0.054908 0.000000
# 6 0.000000 0.000000 0.000000 0.000000 0.000000 0.173991
#
#
# Mechanical properties :
#
#
# Convention : Reuss Voigt Hill
#
# Bulk Modulus (GPa) = 42.80964 51.65910 47.23437
# Shear Modulus (GPa) = 12.37863 15.91745 14.14804
#
# Velocity S-wave (km/s) = 2.85400 3.23634 3.05117
# Velocity P-wave (km/s) = 6.24739 6.92515 6.59498
#
# Compressibility (1/GPa) = 0.02335922
#
# Stress axis : x y z
#
# Youngs Moduli (GPa) = 41.68848 41.68848 50.32975
#
# Poissons Ratio (x) = 0.01691 0.54952
# Poissons Ratio (y) = 0.01691 0.54952
# Poissons Ratio (z) = 0.45517 0.45517
#
# Static dielectric constant tensor:
#      x y z
#    x 2.941630 0.000000 0.000000 
#    y 0.000000 2.941630 0.000000 
#    z 0.000000 0.000000 2.953920 
# 
# 
# High freq. dielectric constant tensor:
#      x y z
#    x 1.554180 0.000000 0.000000 
#    y 0.000000 1.554180 0.000000 
#    z 0.000000 0.000000 1.579740 
# 
# From -- ./inp_files/4350.got.cif
#   From: 2010.03.12/outbox.cif.g09.slc.cpg/sg115_3_cif.got.tgz:4350.got - 2010.04.14 02:11:21.
