data_PCOD8309854
_publ_section_title
;
Structure prediction by ZEFSAII (Michael W. Deem and Ramdas Pophale) SiO2 
 PCOD8309854
Probable space group: P -4 M 2
;
_chemical_formula_sum "Si O2"
_cell_formula_units_Z 48
_cell_length_a 9.172411
_cell_length_b 9.172411
_cell_length_c 30.665117
_cell_angle_alpha 90.000000
_cell_angle_beta 90.000000
_cell_angle_gamma 90.000000
_cell_volume 2579.952077
_symmetry_space_group_name_H-M "P -4 M 2"
_symmetry_group_IT_number 115
_symmetry_cell_setting 'tetragonal'
loop_
_space_group_symop_operation_xyz
x,y,z
y,-x,-z
-x,-y,z
-y,x,-z
y,x,-z
-y,-x,-z
-x,y,z
x,-y,z
loop_
_atom_site_type_symbol
_atom_site_label
_atom_site_fract_x
_atom_site_fract_y
_atom_site_fract_z
Si Si1 0.329517 0.329517 0.000000
Si Si2 0.168105 0.171190 0.327970
Si Si3 0.332854 0.167903 0.835351
Si Si4 0.170269 0.332184 0.414407
Si Si5 0.330672 0.669329 0.500000
Si Si6 0.328678 0.332520 0.251744
Si Si7 0.829109 0.168737 0.922932
O O1 0.270003 0.249207 0.042369
O O2 0.296805 0.500000 0.004564
O O3 0.224988 0.241599 0.372838
O O4 0.263149 0.231317 0.288744
O O5 0.000000 0.213512 0.319774
O O6 0.190768 0.000000 0.331330
O O7 0.500000 0.200150 0.848387
O O8 0.282798 0.264317 0.794561
O O9 0.231006 0.211577 0.875580
O O10 0.311090 0.000000 0.822254
O O11 0.212572 0.500000 0.406166
O O12 0.249586 0.270230 0.457269
O O13 0.000000 0.311247 0.422068
O O14 0.500000 0.702657 0.493496
O O15 0.500000 0.309225 0.250239
O O16 0.286234 0.500000 0.261410
O O17 0.000000 0.200317 0.924144
O O18 0.794836 0.000000 0.933716
#
# Coordination Sequence:
#
# PCOD8309854 Si02
#       7
#     4   8   8   8   4   8   8
#     4  11  24  39  56  80 110 145 184 225 268 314
#     4  10  21  36  54  77 105 138 177 220 265 313
#     4   9  18  34  56  80 108 144 182 218 259 311
#     4   9  18  33  52  73  99 133 171 210 256 312
#     4   9  18  32  50  73 100 130 166 209 256 307
#     4  10  21  36  55  80 109 141 177 218 264 314
#     4  10  21  37  58  84 112 142 178 220 266 317
#
# _framework density 18.604996
#
# number of rings (size 3 to 8) (size 9 to 14) (size 15 to 20)
#    0.000    2.333    0.000    2.000    0.000    7.333 
#    0.000    5.000    0.000    0.000    0.000    0.000 
#    0.000    0.000    0.000    0.000    0.000    0.000 
#
# Total GULP energy -595402.982911 kJ/mol
# GULP energy per Si atom -12404.228811 kJ/mol
# Density = 1.856265 g / cm^3
# Si number density = 18.604996 Si / 1000 Ang^3
#
#
#
# Elastic Constant Matrix: (Units=GPa)
#
#
# Indices 1 2 3 4 5 6 
#
# 1 79.5422 50.4920 76.0098 0.0000 0.0000 0.0000
# 2 50.4920 79.5419 76.0098 0.0000 0.0000 0.0000
# 3 76.0098 76.0098 163.8230 0.0000 0.0000 0.0000
# 4 0.0000 0.0000 0.0000 38.7914 0.0000 0.0000
# 5 0.0000 0.0000 0.0000 0.0000 38.7914 0.0000
# 6 0.0000 0.0000 0.0000 0.0000 0.0000 25.6225
#
#
#
# Elastic Compliance Matrix: (Units=1/GPa)
#
#
# Indices 1 2 3 4 5 6 
#
# 1 0.025615 -0.008808 -0.007798 0.000000 0.000000 0.000000
# 2 -0.008808 0.025615 -0.007798 0.000000 0.000000 0.000000
# 3 -0.007798 -0.007798 0.013340 0.000000 0.000000 0.000000
# 4 0.000000 0.000000 0.000000 0.025779 0.000000 0.000000
# 5 0.000000 0.000000 0.000000 0.000000 0.025779 0.000000
# 6 0.000000 0.000000 0.000000 0.000000 0.000000 0.039028
#
#
# Mechanical properties :
#
#
# Convention : Reuss Voigt Hill
#
# Bulk Modulus (GPa) = 63.44400 80.88115 72.16257
# Shear Modulus (GPa) = 23.89851 28.66743 26.28297
#
# Velocity S-wave (km/s) = 3.58791 3.92962 3.76265
# Velocity P-wave (km/s) = 7.16510 8.00977 7.59918
#
# Compressibility (1/GPa) = 0.01576193
#
# Stress axis : x y z
#
# Youngs Moduli (GPa) = 39.03988 39.03952 74.96186
#
# Poissons Ratio (x) = 0.34388 0.58453
# Poissons Ratio (y) = 0.34388 0.58454
# Poissons Ratio (z) = 0.30442 0.30442
#
# Static dielectric constant tensor:
#      x y z
#    x 3.394550 0.000000 0.000000 
#    y 0.000000 3.394560 0.000000 
#    z 0.000000 0.000000 3.563460 
# 
# 
# High freq. dielectric constant tensor:
#      x y z
#    x 1.718740 0.000000 0.000000 
#    y 0.000000 1.718740 0.000000 
#    z 0.000000 0.000000 1.734440 
# 
# From -- ./inp_files/6143.got.cif
#   From: 2010.03.12/outbox.cif.g09.slc.cpg/sg115_4_cif.got.tgz:6143.got - 2010.04.14 02:11:21.
