data_PCOD8309072
_publ_section_title
;
Structure prediction by ZEFSAII (Michael W. Deem and Ramdas Pophale) SiO2 
 PCOD8309072
Probable space group: P -4 21 C
;
_chemical_formula_sum "Si O2"
_cell_formula_units_Z 56
_cell_length_a 14.474957
_cell_length_b 14.474957
_cell_length_c 13.072776
_cell_angle_alpha 90.000000
_cell_angle_beta 90.000000
_cell_angle_gamma 90.000000
_cell_volume 2739.065288
_symmetry_space_group_name_H-M "P -4 21 C"
_symmetry_group_IT_number 114
_symmetry_cell_setting 'tetragonal'
loop_
_space_group_symop_operation_xyz
x,y,z
y,-x,-z
-x,-y,z
-y,x,-z
1/2+x,1/2-y,1/2-z
1/2-x,1/2+y,1/2-z
1/2-y,1/2-x,1/2+z
1/2+y,1/2+x,1/2+z
loop_
_atom_site_type_symbol
_atom_site_label
_atom_site_fract_x
_atom_site_fract_y
_atom_site_fract_z
Si Si1 0.761273 0.046741 0.810659
Si Si2 0.366265 0.285651 0.779601
Si Si3 0.117034 0.306528 0.982792
Si Si4 0.076170 0.660715 0.907386
Si Si5 0.963384 0.144840 0.520334
Si Si6 0.766101 0.848218 0.899467
Si Si7 0.313408 0.986003 0.599525
O O1 0.841618 0.117748 0.777070
O O2 0.691312 0.038650 0.717885
O O3 0.797420 0.943425 0.842529
O O4 0.700038 0.091793 0.898908
O O5 0.404671 0.214796 0.696886
O O6 0.439113 0.314582 0.867499
O O7 0.281236 0.228573 0.827422
O O8 0.145827 0.204798 0.944672
O O9 0.187681 0.391852 0.968250
O O10 0.032478 0.336474 0.914012
O O11 0.098834 0.552287 0.907882
O O12 0.127796 0.702205 0.005044
O O13 0.067524 0.106899 0.519810
O O14 0.955111 0.224896 0.436165
#
# Coordination Sequence:
#
# PCOD8309072 Si02
#       7
#     8   8   8   8   8   8   8
#     4  11  24  41  71 101 130 181 230 270 342 415
#     4  12  22  43  70  96 133 183 222 278 345 401
#     4  11  25  44  68  97 137 179 221 280 343 408
#     4  11  25  43  65 102 135 173 230 278 339 409
#     4  11  24  40  64 100 134 170 223 284 337 396
#     4  11  22  43  67  96 136 177 221 280 333 401
#     4  12  23  44  70  98 136 173 227 283 337 407
#
# _framework density 20.444932000000001
#
# number of rings (size 3 to 8) (size 9 to 14) (size 15 to 20)
#    0.000    0.714    7.143    0.429    0.000    2.286 
#    0.000    1.429    0.000    0.000    0.000    0.000 
#    0.000    0.000    0.000    0.000    0.000    0.000 
#
# Total GULP energy -694097.760292 kJ/mol
# GULP energy per Si atom -12394.602862 kJ/mol
# Density = 2.039840 g / cm^3
# Si number density = 20.444932 Si / 1000 Ang^3
#
#
#
# Elastic Constant Matrix: (Units=GPa)
#
#
# Indices 1 2 3 4 5 6 
#
# 1 95.7334 24.6180 40.7976 0.0000 0.0000 0.0000
# 2 24.6180 95.7334 40.7976 0.0000 0.0000 0.0000
# 3 40.7976 40.7976 118.5820 0.0000 0.0000 0.0000
# 4 0.0000 0.0000 0.0000 32.0643 0.0000 0.0000
# 5 0.0000 0.0000 0.0000 0.0000 32.0643 0.0000
# 6 0.0000 0.0000 0.0000 0.0000 0.0000 26.5652
#
#
#
# Elastic Compliance Matrix: (Units=1/GPa)
#
#
# Indices 1 2 3 4 5 6 
#
# 1 0.012449 -0.001612 -0.003728 0.000000 0.000000 0.000000
# 2 -0.001612 0.012449 -0.003728 0.000000 0.000000 0.000000
# 3 -0.003728 -0.003728 0.010998 0.000000 0.000000 0.000000
# 4 0.000000 0.000000 0.000000 0.031187 0.000000 0.000000
# 5 0.000000 0.000000 0.000000 0.000000 0.031187 0.000000
# 6 0.000000 0.000000 0.000000 0.000000 0.000000 0.037643
#
#
# Mechanical properties :
#
#
# Convention : Reuss Voigt Hill
#
# Bulk Modulus (GPa) = 56.31093 58.05279 57.18186
# Shear Modulus (GPa) = 31.25543 31.72784 31.49163
#
# Velocity S-wave (km/s) = 3.91418 3.94365 3.92894
# Velocity P-wave (km/s) = 6.93039 7.01376 6.97220
#
# Compressibility (1/GPa) = 0.01775854
#
# Stress axis : x y z
#
# Youngs Moduli (GPa) = 80.32662 80.32662 90.92234
#
# Poissons Ratio (x) = 0.12953 0.33899
# Poissons Ratio (y) = 0.12953 0.33899
# Poissons Ratio (z) = 0.29948 0.29948
#
# Static dielectric constant tensor:
#      x y z
#    x 3.982470 0.000000 0.000000 
#    y 0.000000 3.982470 0.000000 
#    z 0.000000 0.000000 3.869110 
# 
# 
# High freq. dielectric constant tensor:
#      x y z
#    x 1.801970 0.000000 0.000000 
#    y 0.000000 1.801970 0.000000 
#    z 0.000000 0.000000 1.811990 
# 
# From -- ./inp_files/1743.got.cif
#   From: 2010.03.12/outbox.cif.g09.slc.cpg/sg114_1_cif.got.tgz:1743.got - 2010.04.14 02:08:34.
