data_PCOD8309840
_publ_section_title
;
Structure prediction by ZEFSAII (Michael W. Deem and Ramdas Pophale) SiO2 
 PCOD8309840
Probable space group: P -4 M 2
;
_chemical_formula_sum "Si O2"
_cell_formula_units_Z 44
_cell_length_a 9.415525
_cell_length_b 9.415525
_cell_length_c 28.060012
_cell_angle_alpha 90.000000
_cell_angle_beta 90.000000
_cell_angle_gamma 90.000000
_cell_volume 2487.579299
_symmetry_space_group_name_H-M "P -4 M 2"
_symmetry_group_IT_number 115
_symmetry_cell_setting 'tetragonal'
loop_
_space_group_symop_operation_xyz
x,y,z
y,-x,-z
-x,-y,z
-y,x,-z
y,x,-z
-y,-x,-z
-x,y,z
x,-y,z
loop_
_atom_site_type_symbol
_atom_site_label
_atom_site_fract_x
_atom_site_fract_y
_atom_site_fract_z
Si Si1 0.332940 0.835496 0.039432
Si Si2 0.164428 0.335431 0.225131
Si Si3 0.164706 0.164706 0.500000
Si Si4 0.664675 0.335133 0.683403
Si Si5 0.164550 0.837333 0.866867
Si Si6 0.335267 0.164721 0.408275
O O1 0.500000 0.805709 0.042169
O O2 0.263187 0.792845 0.089522
O O3 0.300763 0.000000 0.027217
O O4 0.264133 0.735867 0.000000
O O5 0.195876 0.500000 0.215628
O O6 0.251102 0.279319 0.270572
O O7 0.216559 0.251396 0.178728
O O8 0.000000 0.305851 0.235478
O O9 0.250080 0.219744 0.454158
O O10 0.000000 0.195216 0.490318
O O11 0.500000 0.303405 0.673996
O O12 0.694440 0.500000 0.692783
O O13 0.749895 0.279974 0.637540
O O14 0.000000 0.822878 0.854105
O O15 0.203941 0.000000 0.879975
O O16 0.500000 0.195308 0.417881
O O17 0.304799 0.000000 0.398607
#
# Coordination Sequence:
#
# PCOD8309840 Si02
#       6
#     8   8   4   8   8   8
#     4  10  21  36  54  77 104 134 169 208 250 297
#     4   9  18  32  49  70  96 125 158 196 237 282
#     4   9  18  32  48  67  92 120 150 187 232 278
#     4   9  18  32  48  67  93 124 156 190 231 279
#     4   9  18  33  52  73  98 129 164 201 242 289
#     4   9  18  32  48  67  92 121 153 189 230 276
#
# _framework density 17.687878999999999
#
# number of rings (size 3 to 8) (size 9 to 14) (size 15 to 20)
#    0.000    2.818    0.000    0.545    0.000    4.727 
#    0.000    1.818    0.000    0.000    0.000    0.000 
#    0.000    0.000    0.000    0.000    0.000    0.000 
#
# Total GULP energy -545725.673113 kJ/mol
# GULP energy per Si atom -12402.856207 kJ/mol
# Density = 1.764762 g / cm^3
# Si number density = 17.687879 Si / 1000 Ang^3
#
#
#
# Elastic Constant Matrix: (Units=GPa)
#
#
# Indices 1 2 3 4 5 6 
#
# 1 69.1503 44.4933 83.3762 0.0000 0.0000 0.0000
# 2 44.4933 69.1503 83.3762 0.0000 0.0000 0.0000
# 3 83.3762 83.3762 192.2868 0.0000 0.0000 0.0000
# 4 0.0000 0.0000 0.0000 27.2344 0.0000 0.0000
# 5 0.0000 0.0000 0.0000 0.0000 27.2344 0.0000
# 6 0.0000 0.0000 0.0000 0.0000 0.0000 21.6801
#
#
#
# Elastic Compliance Matrix: (Units=1/GPa)
#
#
# Indices 1 2 3 4 5 6 
#
# 1 0.032373 -0.008183 -0.010489 0.000000 0.000000 0.000000
# 2 -0.008183 0.032373 -0.010489 0.000000 0.000000 0.000000
# 3 -0.010489 -0.010489 0.014297 0.000000 0.000000 0.000000
# 4 0.000000 0.000000 0.000000 0.036718 0.000000 0.000000
# 5 0.000000 0.000000 0.000000 0.000000 0.036718 0.000000
# 6 0.000000 0.000000 0.000000 0.000000 0.000000 0.046125
#
#
# Mechanical properties :
#
#
# Convention : Reuss Voigt Hill
#
# Bulk Modulus (GPa) = 48.25973 83.67542 65.96758
# Shear Modulus (GPa) = 18.95130 23.18588 21.06859
#
# Velocity S-wave (km/s) = 3.27682 3.62447 3.45502
# Velocity P-wave (km/s) = 6.45446 8.05761 7.30018
#
# Compressibility (1/GPa) = 0.02072121
#
# Stress axis : x y z
#
# Youngs Moduli (GPa) = 30.88968 30.88968 69.94654
#
# Poissons Ratio (x) = 0.25277 0.73366
# Poissons Ratio (y) = 0.25277 0.73366
# Poissons Ratio (z) = 0.32400 0.32400
#
# Static dielectric constant tensor:
#      x y z
#    x 3.238580 0.000000 0.000000 
#    y 0.000000 3.238580 0.000000 
#    z 0.000000 0.000000 3.411230 
# 
# 
# High freq. dielectric constant tensor:
#      x y z
#    x 1.678460 0.000000 0.000000 
#    y 0.000000 1.678460 0.000000 
#    z 0.000000 0.000000 1.691290 
# 
# From -- ./inp_files/5746.got.cif
#   From: 2010.03.12/outbox.cif.g09.slc.cpg/sg115_3_cif.got.tgz:5746.got - 2010.04.14 02:11:21.
