data_PCOD8309175
_publ_section_title
;
Structure prediction by ZEFSAII (Michael W. Deem and Ramdas Pophale) SiO2 
 PCOD8309175
Probable space group: P -4 M 2
;
_chemical_formula_sum "Si O2"
_cell_formula_units_Z 36
_cell_length_a 13.988376
_cell_length_b 13.988376
_cell_length_c 12.897892
_cell_angle_alpha 90.000000
_cell_angle_beta 90.000000
_cell_angle_gamma 90.000000
_cell_volume 2523.790672
_symmetry_space_group_name_H-M "P -4 M 2"
_symmetry_group_IT_number 115
_symmetry_cell_setting 'tetragonal'
loop_
_space_group_symop_operation_xyz
x,y,z
y,-x,-z
-x,-y,z
-y,x,-z
y,x,-z
-y,-x,-z
-x,y,z
x,-y,z
loop_
_atom_site_type_symbol
_atom_site_label
_atom_site_fract_x
_atom_site_fract_y
_atom_site_fract_z
Si Si1 0.289202 0.289202 0.000000
Si Si2 0.611553 0.608866 0.811843
Si Si3 0.388451 0.109703 0.935499
Si Si4 0.705248 0.387445 0.401534
Si Si5 0.613147 0.103402 0.698462
O O1 0.328819 0.335176 0.104129
O O2 0.176483 0.316524 0.997299
O O3 0.500000 0.625163 0.830351
O O4 0.642089 0.500000 0.827244
O O5 0.639595 0.639611 0.696059
O O6 0.500000 0.138691 0.951912
O O7 0.356793 0.123998 0.816412
O O8 0.373022 0.000000 0.970272
O O9 0.670091 0.329910 0.500000
O O10 0.700022 0.500000 0.425247
O O11 0.813023 0.351376 0.377631
O O12 0.500000 0.100239 0.696258
O O13 0.654231 0.000000 0.661857
#
# Coordination Sequence:
#
# PCOD8309175 Si02
#       5
#     4   8   8   8   8
#     4  12  18  27  46  65  88 116 154 190 222 264
#     4  10  19  27  37  60  92 123 149 174 210 260
#     4   9  17  29  45  66  91 118 151 190 229 268
#     4  10  18  28  41  60  88 120 150 176 212 261
#     4   8  14  27  45  62  81 108 149 193 220 247
#
# _framework density 14.264258999999999
#
# number of rings (size 3 to 8) (size 9 to 14) (size 15 to 20)
#    0.000    2.444    2.222    4.000    0.000    2.000 
#    0.000    0.000    0.000    1.667    0.000    3.111 
#    0.000    0.444    0.000    0.000    0.000    0.000 
#
# Total GULP energy -446176.896980 kJ/mol
# GULP energy per Si atom -12393.802694 kJ/mol
# Density = 1.423179 g / cm^3
# Si number density = 14.264259 Si / 1000 Ang^3
#
#
#
# Elastic Constant Matrix: (Units=GPa)
#
#
# Indices 1 2 3 4 5 6 
#
# 1 45.9616 57.4477 25.6602 0.0000 0.0000 0.0000
# 2 57.4477 45.9619 25.6608 0.0000 0.0000 0.0000
# 3 25.6602 25.6608 45.8942 0.0000 0.0000 0.0000
# 4 0.0000 0.0000 0.0000 -8.0235 0.0000 0.0000
# 5 0.0000 0.0000 0.0000 0.0000 -8.0240 0.0000
# 6 0.0000 0.0000 0.0000 0.0000 0.0000 15.3483
#
#
#
# Elastic Compliance Matrix: (Units=1/GPa)
#
#
# Indices 1 2 3 4 5 6 
#
# 1 -0.036839 0.050224 -0.007484 0.000000 0.000000 0.000000
# 2 0.050224 -0.036840 -0.007483 0.000000 0.000000 0.000000
# 3 -0.007484 -0.007483 0.030158 0.000000 0.000000 0.000000
# 4 0.000000 0.000000 0.000000 -0.124634 0.000000 0.000000
# 5 0.000000 0.000000 0.000000 0.000000 -0.124626 0.000000
# 6 0.000000 0.000000 0.000000 0.000000 0.000000 0.065154
#
#
# Mechanical properties :
#
#
# Convention : Reuss Voigt Hill
#
# Bulk Modulus (GPa) = 37.04756 39.48387 38.26571
# Shear Modulus (GPa) = -17.29250 1.79675 -7.74788
#
# Velocity S-wave (km/s) = -3.48558 1.12354 -2.33312
# Velocity P-wave (km/s) = 3.13523 5.42434 4.43019
#
# Compressibility (1/GPa) = 0.02699233
#
# Stress axis : x y z
#
# Youngs Moduli (GPa) = -27.14508 -27.14472 33.15916
#
# Poissons Ratio (x) = 1.36331 0.24817
# Poissons Ratio (y) = 1.36332 0.24812
# Poissons Ratio (z) = -0.20316 -0.20312
#
# Static dielectric constant tensor:
#      x y z
#    x 3.284190 0.000000 0.000000 
#    y 0.000000 3.284140 0.000000 
#    z 0.000000 0.000000 2.709250 
# 
# 
# High freq. dielectric constant tensor:
#      x y z
#    x 1.525710 0.000000 0.000000 
#    y 0.000000 1.525710 0.000000 
#    z 0.000000 0.000000 1.533640 
# 
# From -- ./inp_files/2729.got.cif
#   From: 2010.03.12/outbox.cif.g09.slc.cpg/sg115_2_cif.got.tgz:2729.got - 2010.04.14 02:11:21.
