data_PCOD8309902
_publ_section_title
;
Structure prediction by ZEFSAII (Michael W. Deem and Ramdas Pophale) SiO2 
 PCOD8309902
Probable space group: P -4 M 2
;
_chemical_formula_sum "Si O2"
_cell_formula_units_Z 48
_cell_length_a 9.222530
_cell_length_b 9.222530
_cell_length_c 30.365871
_cell_angle_alpha 90.000000
_cell_angle_beta 90.000000
_cell_angle_gamma 90.000000
_cell_volume 2582.770968
_symmetry_space_group_name_H-M "P -4 M 2"
_symmetry_group_IT_number 115
_symmetry_cell_setting 'tetragonal'
loop_
_space_group_symop_operation_xyz
x,y,z
y,-x,-z
-x,-y,z
-y,x,-z
y,x,-z
-y,-x,-z
-x,y,z
x,-y,z
loop_
_atom_site_type_symbol
_atom_site_label
_atom_site_fract_x
_atom_site_fract_y
_atom_site_fract_z
Si Si1 0.831787 0.168214 0.000000
Si Si2 0.330721 0.833684 0.086213
Si Si3 0.831841 0.170732 0.748836
Si Si4 0.168424 0.831577 0.500000
Si Si5 0.669043 0.330503 0.173500
Si Si6 0.667028 0.665367 0.573730
Si Si7 0.333731 0.667991 0.675251
O O1 0.773444 0.250704 0.957003
O O2 0.000000 0.200888 0.007368
O O3 0.500000 0.817651 0.077446
O O4 0.280322 0.737616 0.127351
O O5 0.286871 0.000000 0.095869
O O6 0.742836 0.240252 0.788283
O O7 0.773988 0.232489 0.702849
O O8 0.000000 0.211634 0.753964
O O9 0.806963 0.000000 0.749372
O O10 0.230964 0.762797 0.455835
O O11 0.000000 0.796849 0.501436
O O12 0.500000 0.299469 0.182155
O O13 0.703340 0.500000 0.172547
O O14 0.500000 0.687018 0.560779
O O15 0.713612 0.500000 0.565104
O O16 0.692757 0.706581 0.624422
O O17 0.500000 0.700750 0.688500
O O18 0.298916 0.500000 0.684566
#
# Coordination Sequence:
#
# PCOD8309902 Si02
#       7
#     4   8   8   4   8   8   8
#     4   9  18  32  50  73 102 136 172 211 256 307
#     4   9  18  33  52  74 102 136 172 211 259 314
#     4  11  24  38  53  78 111 144 177 215 261 314
#     4  11  24  37  50  76 114 149 180 219 266 314
#     4  10  21  37  57  80 105 136 177 223 268 314
#     4   9  19  37  60  83 106 136 178 224 266 313
#     4   9  19  37  60  84 108 136 174 220 267 315
#
# _framework density 18.584692
#
# number of rings (size 3 to 8) (size 9 to 14) (size 15 to 20)
#    0.000    2.333    0.000    3.000    0.000    9.333 
#    0.000    6.667    0.000    0.000    0.000    0.000 
#    0.000    0.000    0.000    0.000    0.000    0.000 
#
# Total GULP energy -595363.427076 kJ/mol
# GULP energy per Si atom -12403.404731 kJ/mol
# Density = 1.854239 g / cm^3
# Si number density = 18.584692 Si / 1000 Ang^3
#
#
#
# Elastic Constant Matrix: (Units=GPa)
#
#
# Indices 1 2 3 4 5 6 
#
# 1 81.1270 66.3009 68.7162 0.0000 0.0000 0.0000
# 2 66.3009 81.1279 68.7166 0.0000 0.0000 0.0000
# 3 68.7162 68.7166 135.1108 0.0000 0.0000 0.0000
# 4 0.0000 0.0000 0.0000 -82.7599 0.0000 0.0000
# 5 0.0000 0.0000 0.0000 0.0000 -82.7810 0.0000
# 6 0.0000 0.0000 0.0000 0.0000 0.0000 30.5198
#
#
#
# Elastic Compliance Matrix: (Units=1/GPa)
#
#
# Indices 1 2 3 4 5 6 
#
# 1 0.040172 -0.027274 -0.006560 0.000000 0.000000 0.000000
# 2 -0.027274 0.040172 -0.006560 0.000000 0.000000 0.000000
# 3 -0.006560 -0.006560 0.014074 0.000000 0.000000 0.000000
# 4 0.000000 0.000000 0.000000 -0.012083 0.000000 0.000000
# 5 0.000000 0.000000 0.000000 0.000000 -0.012080 0.000000
# 6 0.000000 0.000000 0.000000 0.000000 0.000000 0.032766
#
#
# Mechanical properties :
#
#
# Convention : Reuss Voigt Hill
#
# Bulk Modulus (GPa) = 73.36429 78.31479 75.83954
# Shear Modulus (GPa) = 26.54603 -20.76206 2.89198
#
# Velocity S-wave (km/s) = 3.78349 -3.34602 1.24879
# Velocity P-wave (km/s) = 7.65818 5.22524 6.55557
#
# Compressibility (1/GPa) = 0.01363061
#
# Stress axis : x y z
#
# Youngs Moduli (GPa) = 24.89268 24.89295 71.05336
#
# Poissons Ratio (x) = 0.67893 0.46610
# Poissons Ratio (y) = 0.67893 0.46610
# Poissons Ratio (z) = 0.16329 0.16329
#
# Static dielectric constant tensor:
#      x y z
#    x 3.409240 0.000000 0.000000 
#    y 0.000000 3.409220 0.000000 
#    z 0.000000 0.000000 3.528220 
# 
# 
# High freq. dielectric constant tensor:
#      x y z
#    x 1.718570 0.000000 0.000000 
#    y 0.000000 1.718570 0.000000 
#    z 0.000000 0.000000 1.735600 
# 
# From -- ./inp_files/6225.got.cif
#   From: 2010.03.12/outbox.cif.g09.slc.cpg/sg115_4_cif.got.tgz:6225.got - 2010.04.14 02:11:21.
