data_PCOD8309465
_publ_section_title
;
Structure prediction by ZEFSAII (Michael W. Deem and Ramdas Pophale) SiO2 
 PCOD8309465
Probable space group: P -4 M 2
;
_chemical_formula_sum "Si O2"
_cell_formula_units_Z 48
_cell_length_a 9.077777
_cell_length_b 9.077777
_cell_length_c 30.790983
_cell_angle_alpha 90.000000
_cell_angle_beta 90.000000
_cell_angle_gamma 90.000000
_cell_volume 2537.362831
_symmetry_space_group_name_H-M "P -4 M 2"
_symmetry_group_IT_number 115
_symmetry_cell_setting 'tetragonal'
loop_
_space_group_symop_operation_xyz
x,y,z
y,-x,-z
-x,-y,z
-y,x,-z
y,x,-z
-y,-x,-z
-x,y,z
x,-y,z
loop_
_atom_site_type_symbol
_atom_site_label
_atom_site_fract_x
_atom_site_fract_y
_atom_site_fract_z
Si Si1 0.672100 0.172743 0.039866
Si Si2 0.829130 0.673102 0.118321
Si Si3 0.674955 0.833784 0.461393
Si Si4 0.675003 0.336301 0.378457
Si Si5 0.326338 0.332129 0.281851
Si Si6 0.828683 0.168360 0.205918
O O1 0.500000 0.205351 0.033320
O O2 0.726652 0.247519 0.083734
O O3 0.704590 0.000000 0.042360
O O4 0.760510 0.239491 0.000000
O O5 0.799914 0.500000 0.116426
O O6 0.780439 0.732195 0.165260
O O7 0.000000 0.710527 0.108734
O O8 0.736239 0.736239 0.500000
O O9 0.500000 0.823836 0.462894
O O10 0.735877 0.773503 0.415282
O O11 0.731354 0.000000 0.466536
O O12 0.500000 0.339959 0.379315
O O13 0.735948 0.500000 0.388390
O O14 0.726082 0.285980 0.330386
O O15 0.500000 0.317366 0.277400
O O16 0.277051 0.500000 0.272121
O O17 0.254052 0.220305 0.248644
O O18 0.000000 0.186708 0.215189
O O19 0.786265 0.000000 0.195704
#
# Coordination Sequence:
#
# PCOD8309465 Si02
#       6
#     8   8   8   8   8   8
#     4  11  24  40  59  85 115 146 181 220 265 318
#     4  10  21  38  60  83 107 140 183 227 270 315
#     4  10  20  33  51  75 101 131 169 211 257 310
#     4   8  15  30  52  76 101 131 170 215 260 308
#     4   9  18  33  54  80 107 135 171 216 265 315
#     4  10  21  36  54  78 109 145 183 220 262 315
#
# _framework density 18.917280000000002
#
# number of rings (size 3 to 8) (size 9 to 14) (size 15 to 20)
#    0.000    2.333    0.000    3.500    0.000    8.000 
#    0.000    2.500    0.000    1.000    0.000    0.000 
#    0.000    0.000    0.000    0.000    0.000    0.000 
#
# Total GULP energy -595225.739305 kJ/mol
# GULP energy per Si atom -12400.536236 kJ/mol
# Density = 1.887422 g / cm^3
# Si number density = 18.917280 Si / 1000 Ang^3
#
#
#
# Elastic Constant Matrix: (Units=GPa)
#
#
# Indices 1 2 3 4 5 6 
#
# 1 65.4121 43.1651 48.8104 0.0000 0.0000 0.0000
# 2 43.1651 65.4144 48.8121 0.0000 0.0000 0.0000
# 3 48.8104 48.8121 134.3231 0.0000 0.0000 0.0000
# 4 0.0000 0.0000 0.0000 79.3774 0.0000 0.0000
# 5 0.0000 0.0000 0.0000 0.0000 79.3702 0.0000
# 6 0.0000 0.0000 0.0000 0.0000 0.0000 26.9461
#
#
#
# Elastic Compliance Matrix: (Units=1/GPa)
#
#
# Indices 1 2 3 4 5 6 
#
# 1 0.029314 -0.015634 -0.004971 0.000000 0.000000 0.000000
# 2 -0.015634 0.029313 -0.004971 0.000000 0.000000 0.000000
# 3 -0.004971 -0.004971 0.011057 0.000000 0.000000 0.000000
# 4 0.000000 0.000000 0.000000 0.012598 0.000000 0.000000
# 5 0.000000 0.000000 0.000000 0.000000 0.012599 0.000000
# 6 0.000000 0.000000 0.000000 0.000000 0.000000 0.037111
#
#
# Mechanical properties :
#
#
# Convention : Reuss Voigt Hill
#
# Bulk Modulus (GPa) = 53.95936 60.74719 57.35328
# Shear Modulus (GPa) = 26.41007 45.42954 35.91980
#
# Velocity S-wave (km/s) = 3.74047 4.90581 4.36223
# Velocity P-wave (km/s) = 6.87318 8.01692 7.46698
#
# Compressibility (1/GPa) = 0.01853247
#
# Stress axis : x y z
#
# Youngs Moduli (GPa) = 34.11375 34.11445 90.43707
#
# Poissons Ratio (x) = 0.53335 0.44953
# Poissons Ratio (y) = 0.53334 0.44957
# Poissons Ratio (z) = 0.16957 0.16958
#
# Static dielectric constant tensor:
#      x y z
#    x 3.429260 0.000000 0.000000 
#    y 0.000000 3.429260 0.000000 
#    z 0.000000 0.000000 3.771520 
# 
# 
# High freq. dielectric constant tensor:
#      x y z
#    x 1.725570 0.000000 0.000000 
#    y 0.000000 1.725570 0.000000 
#    z 0.000000 0.000000 1.751650 
# 
# From -- ./inp_files/5970.got.cif
#   From: 2010.03.12/outbox.cif.g09.slc.cpg/sg115_3_cif.got.tgz:5970.got - 2010.04.14 02:11:21.
