data_PCOD8309521
_publ_section_title
;
Structure prediction by ZEFSAII (Michael W. Deem and Ramdas Pophale) SiO2 
 PCOD8309521
Probable space group: P -4 M 2
;
_chemical_formula_sum "Si O2"
_cell_formula_units_Z 40
_cell_length_a 9.185931
_cell_length_b 9.185931
_cell_length_c 25.640388
_cell_angle_alpha 90.000000
_cell_angle_beta 90.000000
_cell_angle_gamma 90.000000
_cell_volume 2163.569999
_symmetry_space_group_name_H-M "P -4 M 2"
_symmetry_group_IT_number 115
_symmetry_cell_setting 'tetragonal'
loop_
_space_group_symop_operation_xyz
x,y,z
y,-x,-z
-x,-y,z
-y,x,-z
y,x,-z
-y,-x,-z
-x,y,z
x,-y,z
loop_
_atom_site_type_symbol
_atom_site_label
_atom_site_fract_x
_atom_site_fract_y
_atom_site_fract_z
Si Si1 0.828554 0.661208 0.456952
Si Si2 0.835790 0.827152 0.149249
Si Si3 0.671303 0.169136 0.046050
Si Si4 0.328204 0.165527 0.659947
Si Si5 0.170986 0.331813 0.749487
O O1 0.769123 0.769123 0.500000
O O2 0.763890 0.500000 0.466424
O O3 0.787796 0.715153 0.398828
O O4 0.000000 0.656162 0.462370
O O5 0.746829 0.774367 0.098878
O O6 0.756836 0.767106 0.200934
O O7 0.000000 0.764807 0.146862
O O8 0.837050 0.000000 0.150858
O O9 0.500000 0.194243 0.051472
O O10 0.707995 0.000000 0.035264
O O11 0.733579 0.266422 0.000000
O O12 0.500000 0.178725 0.667815
O O13 0.247695 0.276043 0.697681
O O14 0.277504 0.000000 0.671388
O O15 0.209202 0.500000 0.758224
O O16 0.000000 0.307193 0.742919
#
# Coordination Sequence:
#
# PCOD8309521 Si02
#       5
#     8   8   8   8   8
#     4   9  19  35  53  74 101 132 168 211 257 305
#     4   9  17  31  53  78 103 134 172 212 254 302
#     4  10  20  34  53  77 105 136 170 210 255 302
#     4   9  19  36  54  72  99 136 174 211 253 303
#     4  10  20  33  51  78 109 137 168 210 258 305
#
# _framework density 18.487960999999999
#
# number of rings (size 3 to 8) (size 9 to 14) (size 15 to 20)
#    0.000    2.600    0.000    3.000    0.000    7.200 
#    0.000    7.000    0.000    6.000    0.000    0.000 
#    0.000    0.000    0.000    0.000    0.000    0.000 
#
# Total GULP energy -496011.974592 kJ/mol
# GULP energy per Si atom -12400.299365 kJ/mol
# Density = 1.844588 g / cm^3
# Si number density = 18.487961 Si / 1000 Ang^3
#
#
#
# Elastic Constant Matrix: (Units=GPa)
#
#
# Indices 1 2 3 4 5 6 
#
# 1 71.2982 39.1042 63.1315 0.0000 0.0000 0.0000
# 2 39.1042 71.2972 63.1302 0.0000 0.0000 0.0000
# 3 63.1315 63.1302 162.4268 0.0000 0.0000 0.0000
# 4 0.0000 0.0000 0.0000 3.7560 0.0000 0.0000
# 5 0.0000 0.0000 0.0000 0.0000 3.7569 0.0000
# 6 0.0000 0.0000 0.0000 0.0000 0.0000 25.4796
#
#
#
# Elastic Compliance Matrix: (Units=1/GPa)
#
#
# Indices 1 2 3 4 5 6 
#
# 1 0.023684 -0.007378 -0.006338 0.000000 0.000000 0.000000
# 2 -0.007378 0.023684 -0.006338 0.000000 0.000000 0.000000
# 3 -0.006338 -0.006338 0.011083 0.000000 0.000000 0.000000
# 4 0.000000 0.000000 0.000000 0.266239 0.000000 0.000000
# 5 0.000000 0.000000 0.000000 0.000000 0.266174 0.000000
# 6 0.000000 0.000000 0.000000 0.000000 0.000000 0.039247
#
#
# Mechanical properties :
#
#
# Convention : Reuss Voigt Hill
#
# Bulk Modulus (GPa) = 54.51268 70.63935 62.57601
# Shear Modulus (GPa) = 7.39280 15.90892 11.65086
#
# Velocity S-wave (km/s) = 2.00185 2.93661 2.51307
# Velocity P-wave (km/s) = 5.90700 7.05617 6.50700
#
# Compressibility (1/GPa) = 0.01834436
#
# Stress axis : x y z
#
# Youngs Moduli (GPa) = 42.22251 42.22256 90.22681
#
# Poissons Ratio (x) = 0.31152 0.57184
# Poissons Ratio (y) = 0.31152 0.57182
# Poissons Ratio (z) = 0.26760 0.26759
#
# Static dielectric constant tensor:
#      x y z
#    x 3.320170 0.000000 0.000000 
#    y 0.000000 3.320170 0.000000 
#    z 0.000000 0.000000 3.565000 
# 
# 
# High freq. dielectric constant tensor:
#      x y z
#    x 1.704260 0.000000 0.000000 
#    y 0.000000 1.704260 0.000000 
#    z 0.000000 0.000000 1.731890 
# 
# From -- ./inp_files/5060.got.cif
#   From: 2010.03.12/outbox.cif.g09.slc.cpg/sg115_3_cif.got.tgz:5060.got - 2010.04.14 02:11:21.
