data_PCOD8309688
_publ_section_title
;
Structure prediction by ZEFSAII (Michael W. Deem and Ramdas Pophale) SiO2 
 PCOD8309688
Probable space group: P -4 M 2
;
_chemical_formula_sum "Si O2"
_cell_formula_units_Z 48
_cell_length_a 9.059834
_cell_length_b 9.059834
_cell_length_c 30.904150
_cell_angle_alpha 90.000000
_cell_angle_beta 90.000000
_cell_angle_gamma 90.000000
_cell_volume 2536.630931
_symmetry_space_group_name_H-M "P -4 M 2"
_symmetry_group_IT_number 115
_symmetry_cell_setting 'tetragonal'
loop_
_space_group_symop_operation_xyz
x,y,z
y,-x,-z
-x,-y,z
-y,x,-z
y,x,-z
-y,-x,-z
-x,y,z
x,-y,z
loop_
_atom_site_type_symbol
_atom_site_label
_atom_site_fract_x
_atom_site_fract_y
_atom_site_fract_z
Si Si1 0.673149 0.827429 0.039885
Si Si2 0.170058 0.673654 0.289972
Si Si3 0.665467 0.674072 0.548605
Si Si4 0.671700 0.826180 0.881160
Si Si5 0.334245 0.324821 0.205482
Si Si6 0.170101 0.171591 0.375959
O O1 0.500000 0.795159 0.043307
O O2 0.751124 0.772398 0.083064
O O3 0.705405 0.000000 0.033113
O O4 0.738003 0.738003 0.000000
O O5 0.191066 0.500000 0.294725
O O6 0.260926 0.737425 0.249272
O O7 0.233386 0.746953 0.333534
O O8 0.000000 0.716879 0.282586
O O9 0.715744 0.715744 0.500000
O O10 0.500000 0.733789 0.557590
O O11 0.668069 0.500000 0.554464
O O12 0.779368 0.745018 0.581456
O O13 0.500000 0.788753 0.889990
O O14 0.726060 0.762415 0.835334
O O15 0.698803 0.000000 0.881400
O O16 0.500000 0.261750 0.201054
O O17 0.336009 0.500000 0.207715
O O18 0.000000 0.213373 0.382450
O O19 0.195251 0.000000 0.368935
#
# Coordination Sequence:
#
# PCOD8309688 Si02
#       6
#     8   8   8   8   8   8
#     4  11  24  40  58  82 111 143 181 223 267 317
#     4   9  17  31  51  73  99 135 178 220 262 311
#     4   9  19  36  56  77 101 131 170 215 261 311
#     4  10  20  35  57  84 112 143 180 220 263 314
#     4   9  17  30  51  79 107 136 175 223 270 313
#     4  10  21  35  51  75 107 140 174 213 259 313
#
# _framework density 18.922737000000001
#
# number of rings (size 3 to 8) (size 9 to 14) (size 15 to 20)
#    0.000    2.333    0.000    3.000    0.000    9.000 
#    0.000    5.000    0.000    3.000    0.000    0.000 
#    0.000    0.000    0.000    0.000    0.000    0.000 
#
# Total GULP energy -595295.757163 kJ/mol
# GULP energy per Si atom -12401.994941 kJ/mol
# Density = 1.887967 g / cm^3
# Si number density = 18.922737 Si / 1000 Ang^3
#
#
#
# Elastic Constant Matrix: (Units=GPa)
#
#
# Indices 1 2 3 4 5 6 
#
# 1 66.7140 36.0123 51.9926 0.0000 0.0000 0.0000
# 2 36.0123 66.7140 51.9926 0.0000 0.0000 0.0000
# 3 51.9926 51.9926 155.5762 0.0000 0.0000 0.0000
# 4 0.0000 0.0000 0.0000 -245.2140 0.0000 0.0000
# 5 0.0000 0.0000 0.0000 0.0000 -245.2140 0.0000
# 6 0.0000 0.0000 0.0000 0.0000 0.0000 24.9285
#
#
#
# Elastic Compliance Matrix: (Units=1/GPa)
#
#
# Indices 1 2 3 4 5 6 
#
# 1 0.023641 -0.008930 -0.004916 0.000000 0.000000 0.000000
# 2 -0.008930 0.023641 -0.004916 0.000000 0.000000 0.000000
# 3 -0.004916 -0.004916 0.009714 0.000000 0.000000 0.000000
# 4 0.000000 0.000000 0.000000 -0.004078 0.000000 0.000000
# 5 0.000000 0.000000 0.000000 0.000000 -0.004078 0.000000
# 6 0.000000 0.000000 0.000000 0.000000 0.000000 0.040115
#
#
# Mechanical properties :
#
#
# Convention : Reuss Voigt Hill
#
# Bulk Modulus (GPa) = 51.35927 63.22214 57.29071
# Shear Modulus (GPa) = 37.60209 -83.16612 -22.78202
#
# Velocity S-wave (km/s) = 4.46257 -6.63670 -3.47356
# Velocity P-wave (km/s) = 7.33166 5.02439 3.77549
#
# Compressibility (1/GPa) = 0.01947068
#
# Stress axis : x y z
#
# Youngs Moduli (GPa) = 42.29871 42.29871 102.94637
#
# Poissons Ratio (x) = 0.37773 0.50613
# Poissons Ratio (y) = 0.37773 0.50613
# Poissons Ratio (z) = 0.20796 0.20796
#
# Static dielectric constant tensor:
#      x y z
#    x 3.414510 0.000000 0.000000 
#    y 0.000000 3.414510 0.000000 
#    z 0.000000 0.000000 3.777980 
# 
# 
# High freq. dielectric constant tensor:
#      x y z
#    x 1.724720 0.000000 0.000000 
#    y 0.000000 1.724720 0.000000 
#    z 0.000000 0.000000 1.752600 
# 
# From -- ./inp_files/6002.got.cif
#   From: 2010.03.12/outbox.cif.g09.slc.cpg/sg115_4_cif.got.tgz:6002.got - 2010.04.14 02:11:21.
