data_PCOD8309547
_publ_section_title
;
Structure prediction by ZEFSAII (Michael W. Deem and Ramdas Pophale) SiO2 
 PCOD8309547
Probable space group: P -4 M 2
;
_chemical_formula_sum "Si O2"
_cell_formula_units_Z 44
_cell_length_a 8.075398
_cell_length_b 8.075398
_cell_length_c 31.889659
_cell_angle_alpha 90.000000
_cell_angle_beta 90.000000
_cell_angle_gamma 90.000000
_cell_volume 2079.590128
_symmetry_space_group_name_H-M "P -4 M 2"
_symmetry_group_IT_number 115
_symmetry_cell_setting 'tetragonal'
loop_
_space_group_symop_operation_xyz
x,y,z
y,-x,-z
-x,-y,z
-y,x,-z
y,x,-z
-y,-x,-z
-x,y,z
x,-y,z
loop_
_atom_site_type_symbol
_atom_site_label
_atom_site_fract_x
_atom_site_fract_y
_atom_site_fract_z
Si Si1 0.302171 0.500000 0.734588
Si Si2 0.307841 0.307841 0.500000
Si Si3 0.183499 0.696792 0.411461
Si Si4 0.806013 0.184023 0.127604
Si Si5 0.697386 0.500000 0.639109
Si Si6 0.689725 0.816664 0.958012
Si Si7 0.814124 0.689648 0.215319
O O1 0.500000 0.500000 0.738755
O O2 0.241239 0.500000 0.686830
O O3 0.230152 0.668871 0.755980
O O4 0.275469 0.500000 0.509356
O O5 0.244730 0.207958 0.540577
O O6 0.193224 0.500000 0.409743
O O7 0.332254 0.768702 0.382634
O O8 0.000000 0.756985 0.396253
O O9 0.724680 0.230617 0.082698
O O10 0.754090 0.297222 0.166928
O O11 0.000000 0.203556 0.119947
O O12 0.752429 0.000000 0.140097
O O13 0.500000 0.500000 0.636197
O O14 0.500000 0.831038 0.946726
O O15 0.765630 0.000000 0.965831
O O16 0.711510 0.711510 0.000000
O O17 0.830865 0.500000 0.227901
O O18 0.000000 0.771723 0.221504
#
# Coordination Sequence:
#
# PCOD8309547 Si02
#       7
#     4   4   8   8   4   8   8
#     4   9  18  30  47  71 103 139 177 217 271 325
#     4   9  14  24  42  63  94 134 170 215 270 313
#     4   9  16  25  41  68 100 138 181 220 267 323
#     4   9  17  31  53  77  99 127 165 211 259 306
#     4   9  16  28  42  67 105 141 175 222 272 322
#     4  10  20  34  52  75 104 138 174 210 253 311
#     4   9  17  31  50  73 101 134 172 216 270 325
#
# _framework density 21.158017000000001
#
# number of rings (size 3 to 8) (size 9 to 14) (size 15 to 20)
#    0.000    2.818    0.909    1.091    0.000    4.000 
#    1.636    4.091    0.000    0.273    0.000    2.545 
#    0.000    0.000    0.000    0.000    0.000    0.000 
#
# Total GULP energy -545145.553304 kJ/mol
# GULP energy per Si atom -12389.671666 kJ/mol
# Density = 2.110986 g / cm^3
# Si number density = 21.158017 Si / 1000 Ang^3
#
#
#
# Elastic Constant Matrix: (Units=GPa)
#
#
# Indices 1 2 3 4 5 6 
#
# 1 72.4803 19.3359 47.9374 0.0000 0.0000 0.0000
# 2 19.3359 72.4803 47.9374 0.0000 0.0000 0.0000
# 3 47.9374 47.9374 166.1158 0.0000 0.0000 0.0000
# 4 0.0000 0.0000 0.0000 12.8729 0.0000 0.0000
# 5 0.0000 0.0000 0.0000 0.0000 12.8729 0.0000
# 6 0.0000 0.0000 0.0000 0.0000 0.0000 6.4523
#
#
#
# Elastic Compliance Matrix: (Units=1/GPa)
#
#
# Indices 1 2 3 4 5 6 
#
# 1 0.017203 -0.001614 -0.004499 0.000000 0.000000 0.000000
# 2 -0.001614 0.017203 -0.004499 0.000000 0.000000 0.000000
# 3 -0.004499 -0.004499 0.008616 0.000000 0.000000 0.000000
# 4 0.000000 0.000000 0.000000 0.077682 0.000000 0.000000
# 5 0.000000 0.000000 0.000000 0.000000 0.077682 0.000000
# 6 0.000000 0.000000 0.000000 0.000000 0.000000 0.154983
#
#
# Mechanical properties :
#
#
# Convention : Reuss Voigt Hill
#
# Bulk Modulus (GPa) = 45.87264 60.16644 53.01954
# Shear Modulus (GPa) = 13.09387 19.49735 16.29561
#
# Velocity S-wave (km/s) = 2.49039 3.03893 2.77823
# Velocity P-wave (km/s) = 5.47699 6.38842 5.95018
#
# Compressibility (1/GPa) = 0.02179949
#
# Stress axis : x y z
#
# Youngs Moduli (GPa) = 58.13040 58.13040 116.05933
#
# Poissons Ratio (x) = 0.09382 0.52210
# Poissons Ratio (y) = 0.09382 0.52210
# Poissons Ratio (z) = 0.26150 0.26150
#
# Static dielectric constant tensor:
#      x y z
#    x 3.610970 0.000000 0.000000 
#    y 0.000000 3.610970 0.000000 
#    z 0.000000 0.000000 3.869050 
# 
# 
# High freq. dielectric constant tensor:
#      x y z
#    x 1.797110 0.000000 0.000000 
#    y 0.000000 1.797110 0.000000 
#    z 0.000000 0.000000 1.830050 
# 
# From -- ./inp_files/5864.got.cif
#   From: 2010.03.12/outbox.cif.g09.slc.cpg/sg115_3_cif.got.tgz:5864.got - 2010.04.14 02:11:21.
