data_PCOD8309435
_publ_section_title
;
Structure prediction by ZEFSAII (Michael W. Deem and Ramdas Pophale) SiO2 
 PCOD8309435
Probable space group: P -4 M 2
;
_chemical_formula_sum "Si O2"
_cell_formula_units_Z 40
_cell_length_a 9.116804
_cell_length_b 9.116804
_cell_length_c 25.843821
_cell_angle_alpha 90.000000
_cell_angle_beta 90.000000
_cell_angle_gamma 90.000000
_cell_volume 2148.038003
_symmetry_space_group_name_H-M "P -4 M 2"
_symmetry_group_IT_number 115
_symmetry_cell_setting 'tetragonal'
loop_
_space_group_symop_operation_xyz
x,y,z
y,-x,-z
-x,-y,z
-y,x,-z
y,x,-z
-y,-x,-z
-x,y,z
x,-y,z
loop_
_atom_site_type_symbol
_atom_site_label
_atom_site_fract_x
_atom_site_fract_y
_atom_site_fract_z
Si Si1 0.165185 0.825623 0.649152
Si Si2 0.169574 0.327555 0.453948
Si Si3 0.830006 0.829728 0.149525
Si Si4 0.665498 0.174825 0.748876
Si Si5 0.831635 0.672382 0.954330
O O1 0.251981 0.773437 0.598469
O O2 0.246025 0.761523 0.699787
O O3 0.000000 0.763082 0.647140
O O4 0.163420 0.000000 0.651949
O O5 0.268470 0.268470 0.500000
O O6 0.191986 0.500000 0.447846
O O7 0.000000 0.287792 0.464927
O O8 0.768696 0.740344 0.198499
O O9 0.741791 0.776849 0.099347
O O10 0.000000 0.795581 0.139288
O O11 0.803537 0.000000 0.161431
O O12 0.500000 0.234651 0.746510
O O13 0.668546 0.000000 0.747475
O O14 0.811224 0.500000 0.950468
O O15 0.000000 0.716898 0.965023
O O16 0.732168 0.732168 0.000000
#
# Coordination Sequence:
#
# PCOD8309435 Si02
#       5
#     8   8   8   8   8
#     4   9  16  27  46  72 101 131 164 206 255 303
#     4  10  20  33  50  73 101 133 169 209 254 304
#     4   9  17  30  49  72  98 129 165 205 250 300
#     4   9  16  26  43  70 102 132 164 205 251 298
#     4  10  21  36  54  76 102 133 170 212 258 307
#
# _framework density 18.621644
#
# number of rings (size 3 to 8) (size 9 to 14) (size 15 to 20)
#    0.000    2.600    0.000    2.400    0.000    8.000 
#    0.000    2.000    0.000    1.200    0.000    2.800 
#    0.000    0.000    0.000    0.000    0.000    0.000 
#
# Total GULP energy -496070.960944 kJ/mol
# GULP energy per Si atom -12401.774024 kJ/mol
# Density = 1.857926 g / cm^3
# Si number density = 18.621644 Si / 1000 Ang^3
#
#
#
# Elastic Constant Matrix: (Units=GPa)
#
#
# Indices 1 2 3 4 5 6 
#
# 1 77.7915 33.6159 66.6416 0.0000 0.0000 0.0000
# 2 33.6159 77.7915 66.6416 0.0000 0.0000 0.0000
# 3 66.6416 66.6416 186.9191 0.0000 0.0000 0.0000
# 4 0.0000 0.0000 0.0000 3.2961 0.0000 0.0000
# 5 0.0000 0.0000 0.0000 0.0000 3.2961 0.0000
# 6 0.0000 0.0000 0.0000 0.0000 0.0000 15.9984
#
#
#
# Elastic Compliance Matrix: (Units=1/GPa)
#
#
# Indices 1 2 3 4 5 6 
#
# 1 0.019145 -0.003492 -0.005580 0.000000 0.000000 0.000000
# 2 -0.003492 0.019145 -0.005580 0.000000 0.000000 0.000000
# 3 -0.005580 -0.005580 0.009329 0.000000 0.000000 0.000000
# 4 0.000000 0.000000 0.000000 0.303390 0.000000 0.000000
# 5 0.000000 0.000000 0.000000 0.000000 0.303390 0.000000
# 6 0.000000 0.000000 0.000000 0.000000 0.000000 0.062506
#
#
# Mechanical properties :
#
#
# Convention : Reuss Voigt Hill
#
# Bulk Modulus (GPa) = 54.60954 75.14450 64.87702
# Shear Modulus (GPa) = 6.64615 16.22498 11.43557
#
# Velocity S-wave (km/s) = 1.89124 2.95498 2.48079
# Velocity P-wave (km/s) = 5.84453 7.21688 6.56666
#
# Compressibility (1/GPa) = 0.01831182
#
# Stress axis : x y z
#
# Youngs Moduli (GPa) = 52.23404 52.23404 107.19181
#
# Poissons Ratio (x) = 0.18242 0.59818
# Poissons Ratio (y) = 0.18242 0.59818
# Poissons Ratio (z) = 0.29149 0.29149
#
# Static dielectric constant tensor:
#      x y z
#    x 3.230060 0.000000 0.000000 
#    y 0.000000 3.230060 0.000000 
#    z 0.000000 0.000000 3.627020 
# 
# 
# High freq. dielectric constant tensor:
#      x y z
#    x 1.699180 0.000000 0.000000 
#    y 0.000000 1.699180 0.000000 
#    z 0.000000 0.000000 1.740310 
# 
# From -- ./inp_files/5093.got.cif
#   From: 2010.03.12/outbox.cif.g09.slc.cpg/sg115_3_cif.got.tgz:5093.got - 2010.04.14 02:11:21.
