data_PCOD8309103
_publ_section_title
;
Structure prediction by ZEFSAII (Michael W. Deem and Ramdas Pophale) SiO2 
 PCOD8309103
Probable space group: P -4 21 C
;
_chemical_formula_sum "Si O2"
_cell_formula_units_Z 40
_cell_length_a 14.310014
_cell_length_b 14.310014
_cell_length_c 8.035000
_cell_angle_alpha 90.000000
_cell_angle_beta 90.000000
_cell_angle_gamma 90.000000
_cell_volume 1645.379183
_symmetry_space_group_name_H-M "P -4 21 C"
_symmetry_group_IT_number 114
_symmetry_cell_setting 'tetragonal'
loop_
_space_group_symop_operation_xyz
x,y,z
y,-x,-z
-x,-y,z
-y,x,-z
1/2+x,1/2-y,1/2-z
1/2-x,1/2+y,1/2-z
1/2-y,1/2-x,1/2+z
1/2+y,1/2+x,1/2+z
loop_
_atom_site_type_symbol
_atom_site_label
_atom_site_fract_x
_atom_site_fract_y
_atom_site_fract_z
Si Si1 0.133296 0.938389 0.525438
Si Si2 0.295601 0.306680 0.690396
Si Si3 0.489230 0.817478 0.852876
Si Si4 0.358170 0.198336 0.397807
Si Si5 0.446816 0.843131 0.467308
O O1 0.149946 0.879514 0.693484
O O2 0.224563 0.934529 0.410250
O O3 0.045714 0.892446 0.426482
O O4 0.369244 0.258132 0.566248
O O5 0.216813 0.357956 0.586394
O O6 0.247264 0.216008 0.780501
O O7 0.477805 0.828484 0.655608
O O8 0.596102 0.809782 0.914672
O O9 0.448625 0.910495 0.942053
O O10 0.465961 0.181528 0.342305
#
# Coordination Sequence:
#
# PCOD8309103 Si02
#       5
#     8   8   8   8   8
#     4  11  24  47  76 108 155 210 262 321 387 464
#     4  12  27  46  75 110 152 204 258 321 386 468
#     4  12  26  48  75 115 155 200 263 323 390 471
#     4  12  26  50  73 110 155 200 257 327 389 460
#     4  12  28  45  77 111 152 203 258 321 397 463
#
# _framework density 24.310506
#
# number of rings (size 3 to 8) (size 9 to 14) (size 15 to 20)
#    0.000    0.200    4.000    4.200    5.600    3.200 
#    0.000    0.000    0.000    0.000    0.000    0.000 
#    0.000    0.000    0.000    0.000    0.000    0.000 
#
# Total GULP energy -495654.221270 kJ/mol
# GULP energy per Si atom -12391.355532 kJ/mol
# Density = 2.425517 g / cm^3
# Si number density = 24.310506 Si / 1000 Ang^3
#
#
#
# Elastic Constant Matrix: (Units=GPa)
#
#
# Indices 1 2 3 4 5 6 
#
# 1 133.4283 21.4241 36.3357 0.0000 0.0000 0.0000
# 2 21.4241 133.4283 36.3357 0.0000 0.0000 0.0000
# 3 36.3357 36.3357 60.6677 0.0000 0.0000 0.0000
# 4 0.0000 0.0000 0.0000 28.4170 0.0000 0.0000
# 5 0.0000 0.0000 0.0000 0.0000 28.4170 0.0000
# 6 0.0000 0.0000 0.0000 0.0000 0.0000 34.5158
#
#
#
# Elastic Compliance Matrix: (Units=1/GPa)
#
#
# Indices 1 2 3 4 5 6 
#
# 1 0.008955 0.000027 -0.005380 0.000000 0.000000 0.000000
# 2 0.000027 0.008955 -0.005380 0.000000 0.000000 0.000000
# 3 -0.005380 -0.005380 0.022928 0.000000 0.000000 0.000000
# 4 0.000000 0.000000 0.000000 0.035190 0.000000 0.000000
# 5 0.000000 0.000000 0.000000 0.000000 0.035190 0.000000
# 6 0.000000 0.000000 0.000000 0.000000 0.000000 0.028972
#
#
# Mechanical properties :
#
#
# Convention : Reuss Voigt Hill
#
# Bulk Modulus (GPa) = 51.61812 57.30170 54.45991
# Shear Modulus (GPa) = 29.74171 33.83187 31.78679
#
# Velocity S-wave (km/s) = 3.50152 3.73454 3.61991
# Velocity P-wave (km/s) = 6.13404 6.49751 6.31839
#
# Compressibility (1/GPa) = 0.01937304
#
# Stress axis : x y z
#
# Youngs Moduli (GPa) = 111.66471 111.66471 43.61554
#
# Poissons Ratio (x) = -0.00303 0.23465
# Poissons Ratio (y) = -0.00303 0.23465
# Poissons Ratio (z) = 0.60075 0.60075
#
# Static dielectric constant tensor:
#      x y z
#    x 4.687060 0.000000 0.000000 
#    y 0.000000 4.687060 0.000000 
#    z 0.000000 0.000000 4.280760 
# 
# 
# High freq. dielectric constant tensor:
#      x y z
#    x 1.983900 0.000000 0.000000 
#    y 0.000000 1.983900 0.000000 
#    z 0.000000 0.000000 1.944960 
# 
# From -- ./inp_files/713.got.cif
#   From: 2010.03.12/outbox.cif.g09.slc.cpg/sg114_1_cif.got.tgz:713.got - 2010.04.14 02:08:34.
