data_PCOD8309271
_publ_section_title
;
Structure prediction by ZEFSAII (Michael W. Deem and Ramdas Pophale) SiO2 
 PCOD8309271
Probable space group: P -4 M 2
;
_chemical_formula_sum "Si O2"
_cell_formula_units_Z 64
_cell_length_a 13.466719
_cell_length_b 13.466719
_cell_length_c 18.769748
_cell_angle_alpha 90.000000
_cell_angle_beta 90.000000
_cell_angle_gamma 90.000000
_cell_volume 3403.941111
_symmetry_space_group_name_H-M "P -4 M 2"
_symmetry_group_IT_number 115
_symmetry_cell_setting 'tetragonal'
loop_
_space_group_symop_operation_xyz
x,y,z
y,-x,-z
-x,-y,z
-y,x,-z
y,x,-z
-y,-x,-z
-x,y,z
x,-y,z
loop_
_atom_site_type_symbol
_atom_site_label
_atom_site_fract_x
_atom_site_fract_y
_atom_site_fract_z
Si Si1 0.888439 0.615765 0.511392
Si Si2 0.887647 0.113084 0.719028
Si Si3 0.239051 0.763306 0.175356
Si Si4 0.614339 0.716417 0.715410
Si Si5 0.390449 0.113851 0.908249
Si Si6 0.613900 0.310463 0.425165
Si Si7 0.258202 0.115575 0.039421
Si Si8 0.697007 0.887980 0.637567
O O1 0.886399 0.500000 0.491000
O O2 0.808500 0.638410 0.573481
O O3 0.849385 0.675642 0.442115
O O4 0.000000 0.648032 0.535181
O O5 0.849693 0.184549 0.781125
O O6 0.815362 0.124185 0.650691
O O7 0.000000 0.142954 0.697074
O O8 0.884714 0.000000 0.747534
O O9 0.315339 0.695749 0.223633
O O10 0.161483 0.682777 0.148011
O O11 0.289345 0.821586 0.109710
O O12 0.500000 0.696673 0.739075
O O13 0.637265 0.665474 0.640708
O O14 0.633933 0.832518 0.698872
O O15 0.500000 0.162694 0.902960
O O16 0.395706 0.000000 0.887279
O O17 0.352969 0.127211 0.988890
O O18 0.640675 0.359326 0.500000
O O19 0.500000 0.328794 0.410917
O O20 0.235955 0.000000 0.057350
O O21 0.160952 0.160952 0.000000
O O22 0.659956 0.000000 0.642884
#
# Coordination Sequence:
#
# PCOD8309271 Si02
#       8
#     8   8   8   8   8   8   8   8
#     4   9  17  32  55  78  99 125 162 215 274 326
#     4   9  17  28  43  67 102 142 177 205 240 296
#     4  10  19  32  49  72 105 139 173 214 259 311
#     4  11  22  35  52  77 106 136 176 226 277 329
#     4   9  17  31  52  77 102 128 165 213 260 303
#     4  11  22  37  57  78 103 135 176 227 285 344
#     4   9  18  32  51  77 108 142 178 212 251 306
#     4   9  17  30  49  72  98 129 167 213 264 317
#
# _framework density 18.801735999999998
#
# number of rings (size 3 to 8) (size 9 to 14) (size 15 to 20)
#    0.000    2.375    1.250    1.875    0.000    2.750 
#    0.000    3.750    0.000    0.750    0.000    0.000 
#    0.000   12.250    0.000    0.000    0.000    0.000 
#
# Total GULP energy -793084.435747 kJ/mol
# GULP energy per Si atom -12391.944309 kJ/mol
# Density = 1.875894 g / cm^3
# Si number density = 18.801736 Si / 1000 Ang^3
#
#
#
# Elastic Constant Matrix: (Units=GPa)
#
#
# Indices 1 2 3 4 5 6 
#
# 1 68.0355 18.7317 25.3185 0.0000 0.0000 0.0000
# 2 18.7317 68.0326 25.3179 0.0000 0.0000 0.0000
# 3 25.3185 25.3179 77.3134 0.0000 0.0000 0.0000
# 4 0.0000 0.0000 0.0000 16.3788 0.0000 0.0000
# 5 0.0000 0.0000 0.0000 0.0000 16.3790 0.0000
# 6 0.0000 0.0000 0.0000 0.0000 0.0000 19.5998
#
#
#
# Elastic Compliance Matrix: (Units=1/GPa)
#
#
# Indices 1 2 3 4 5 6 
#
# 1 0.017265 -0.003017 -0.004666 0.000000 0.000000 0.000000
# 2 -0.003017 0.017266 -0.004666 0.000000 0.000000 0.000000
# 3 -0.004666 -0.004666 0.015990 0.000000 0.000000 0.000000
# 4 0.000000 0.000000 0.000000 0.061054 0.000000 0.000000
# 5 0.000000 0.000000 0.000000 0.000000 0.061054 0.000000
# 6 0.000000 0.000000 0.000000 0.000000 0.000000 0.051021
#
#
# Mechanical properties :
#
#
# Convention : Reuss Voigt Hill
#
# Bulk Modulus (GPa) = 38.72498 39.12421 38.92459
# Shear Modulus (GPa) = 19.45851 20.07242 19.76546
#
# Velocity S-wave (km/s) = 3.22052 3.27093 3.24583
# Velocity P-wave (km/s) = 5.87114 5.92616 5.89871
#
# Compressibility (1/GPa) = 0.02582313
#
# Stress axis : x y z
#
# Youngs Moduli (GPa) = 57.91955 57.91718 62.53770
#
# Poissons Ratio (x) = 0.17475 0.29180
# Poissons Ratio (y) = 0.17476 0.29180
# Poissons Ratio (z) = 0.27025 0.27024
#
# Static dielectric constant tensor:
#      x y z
#    x 3.543980 0.000000 0.000000 
#    y 0.000000 3.543980 0.000000 
#    z 0.000000 0.000000 3.447890 
# 
# 
# High freq. dielectric constant tensor:
#      x y z
#    x 1.721960 0.000000 0.000000 
#    y 0.000000 1.721960 0.000000 
#    z 0.000000 0.000000 1.719380 
# 
# From -- ./inp_files/4470.got.cif
#   From: 2010.03.12/outbox.cif.g09.slc.cpg/sg115_3_cif.got.tgz:4470.got - 2010.04.14 02:11:21.
