data_PCOD8309471
_publ_section_title
;
Structure prediction by ZEFSAII (Michael W. Deem and Ramdas Pophale) SiO2 
 PCOD8309471
Probable space group: P -4 M 2
;
_chemical_formula_sum "Si O2"
_cell_formula_units_Z 48
_cell_length_a 9.356846
_cell_length_b 9.356846
_cell_length_c 30.731777
_cell_angle_alpha 90.000000
_cell_angle_beta 90.000000
_cell_angle_gamma 90.000000
_cell_volume 2690.584503
_symmetry_space_group_name_H-M "P -4 M 2"
_symmetry_group_IT_number 115
_symmetry_cell_setting 'tetragonal'
loop_
_space_group_symop_operation_xyz
x,y,z
y,-x,-z
-x,-y,z
-y,x,-z
y,x,-z
-y,-x,-z
-x,y,z
x,-y,z
loop_
_atom_site_type_symbol
_atom_site_label
_atom_site_fract_x
_atom_site_fract_y
_atom_site_fract_z
Si Si1 0.831417 0.835078 0.379964
Si Si2 0.838586 0.669371 0.964517
Si Si3 0.832294 0.165119 0.213421
Si Si4 0.658335 0.830142 0.131390
Si Si5 0.170067 0.338052 0.296468
Si Si6 0.337693 0.334742 0.550487
O O1 0.773256 0.746848 0.338539
O O2 0.759409 0.774017 0.423093
O O3 0.000000 0.817131 0.385136
O O4 0.788599 0.000000 0.373728
O O5 0.832633 0.500000 0.968720
O O6 0.782714 0.714675 0.916312
O O7 0.000000 0.724459 0.972068
O O8 0.736520 0.736520 0.000000
O O9 0.762028 0.225925 0.169302
O O10 0.772481 0.257804 0.253562
O O11 0.000000 0.184381 0.207902
O O12 0.791821 0.000000 0.221994
O O13 0.500000 0.767772 0.140013
O O14 0.651892 0.000000 0.131600
O O15 0.229257 0.500000 0.297457
O O16 0.000000 0.336780 0.296210
O O17 0.306840 0.306840 0.500000
O O18 0.500000 0.289079 0.561950
O O19 0.314350 0.500000 0.562104
#
# Coordination Sequence:
#
# PCOD8309471 Si02
#       6
#     8   8   8   8   8   8
#     4  10  20  33  51  76 103 130 164 205 244 285
#     4   9  18  32  49  70  96 126 161 200 241 287
#     4   9  16  27  46  70  92 116 152 196 237 280
#     4   8  15  29  47  66  91 122 153 188 234 286
#     4   9  17  30  48  69  95 128 162 196 239 288
#     4   9  19  36  55  74  99 132 167 202 243 291
#
# _framework density 17.839988999999999
#
# number of rings (size 3 to 8) (size 9 to 14) (size 15 to 20)
#    0.000    3.000    0.000    2.500    0.000    5.000 
#    0.000    5.833    0.000    6.500    0.000    0.000 
#    0.000    0.000    0.000    0.000    0.000    0.000 
#
# Total GULP energy -595088.680353 kJ/mol
# GULP energy per Si atom -12397.680841 kJ/mol
# Density = 1.779938 g / cm^3
# Si number density = 17.839989 Si / 1000 Ang^3
#
#
#
# Elastic Constant Matrix: (Units=GPa)
#
#
# Indices 1 2 3 4 5 6 
#
# 1 64.9252 35.9968 59.8657 0.0000 0.0000 0.0000
# 2 35.9968 64.9252 59.8657 0.0000 0.0000 0.0000
# 3 59.8657 59.8657 147.3638 0.0000 0.0000 0.0000
# 4 0.0000 0.0000 0.0000 12.5644 0.0000 0.0000
# 5 0.0000 0.0000 0.0000 0.0000 12.5644 0.0000
# 6 0.0000 0.0000 0.0000 0.0000 0.0000 21.9019
#
#
#
# Elastic Compliance Matrix: (Units=1/GPa)
#
#
# Indices 1 2 3 4 5 6 
#
# 1 0.026848 -0.007720 -0.007770 0.000000 0.000000 0.000000
# 2 -0.007720 0.026848 -0.007770 0.000000 0.000000 0.000000
# 3 -0.007770 -0.007770 0.013099 0.000000 0.000000 0.000000
# 4 0.000000 0.000000 0.000000 0.079590 0.000000 0.000000
# 5 0.000000 0.000000 0.000000 0.000000 0.079590 0.000000
# 6 0.000000 0.000000 0.000000 0.000000 0.000000 0.045658
#
#
# Mechanical properties :
#
#
# Convention : Reuss Voigt Hill
#
# Bulk Modulus (GPa) = 49.32834 65.40783 57.36809
# Shear Modulus (GPa) = 15.38881 17.50523 16.44702
#
# Velocity S-wave (km/s) = 2.94019 3.13587 3.03961
# Velocity P-wave (km/s) = 6.26393 7.06079 6.67426
#
# Compressibility (1/GPa) = 0.02027232
#
# Stress axis : x y z
#
# Youngs Moduli (GPa) = 37.24724 37.24724 76.34053
#
# Poissons Ratio (x) = 0.28757 0.59319
# Poissons Ratio (y) = 0.28757 0.59319
# Poissons Ratio (z) = 0.28942 0.28942
#
# Static dielectric constant tensor:
#      x y z
#    x 3.156930 0.000000 0.000000 
#    y 0.000000 3.156930 0.000000 
#    z 0.000000 0.000000 3.530980 
# 
# 
# High freq. dielectric constant tensor:
#      x y z
#    x 1.669080 0.000000 0.000000 
#    y 0.000000 1.669080 0.000000 
#    z 0.000000 0.000000 1.704580 
# 
# From -- ./inp_files/5944.got.cif
#   From: 2010.03.12/outbox.cif.g09.slc.cpg/sg115_3_cif.got.tgz:5944.got - 2010.04.14 02:11:21.
