data_PCOD8309449
_publ_section_title
;
Structure prediction by ZEFSAII (Michael W. Deem and Ramdas Pophale) SiO2 
 PCOD8309449
Probable space group: P -4 M 2
;
_chemical_formula_sum "Si O2"
_cell_formula_units_Z 40
_cell_length_a 9.084024
_cell_length_b 9.084024
_cell_length_c 25.932665
_cell_angle_alpha 90.000000
_cell_angle_beta 90.000000
_cell_angle_gamma 90.000000
_cell_volume 2139.950343
_symmetry_space_group_name_H-M "P -4 M 2"
_symmetry_group_IT_number 115
_symmetry_cell_setting 'tetragonal'
loop_
_space_group_symop_operation_xyz
x,y,z
y,-x,-z
-x,-y,z
-y,x,-z
y,x,-z
-y,-x,-z
-x,y,z
x,-y,z
loop_
_atom_site_type_symbol
_atom_site_label
_atom_site_fract_x
_atom_site_fract_y
_atom_site_fract_z
Si Si1 0.174880 0.834009 0.351154
Si Si2 0.327120 0.830224 0.156789
Si Si3 0.836266 0.174974 0.055982
Si Si4 0.829628 0.326936 0.453655
Si Si5 0.671753 0.828454 0.750499
O O1 0.230630 0.748481 0.401630
O O2 0.234423 0.752725 0.300240
O O3 0.000000 0.832858 0.350333
O O4 0.237155 0.000000 0.352203
O O5 0.500000 0.809981 0.158037
O O6 0.269958 0.771110 0.101621
O O7 0.257320 0.730554 0.200493
O O8 0.280716 0.000000 0.165584
O O9 0.000000 0.239286 0.066165
O O10 0.844021 0.000000 0.054212
O O11 0.773244 0.226757 0.000000
O O12 0.731983 0.268018 0.500000
O O13 0.807763 0.500000 0.447748
O O14 0.000000 0.286144 0.463809
O O15 0.500000 0.798347 0.743551
O O16 0.706068 0.000000 0.758433
#
# Coordination Sequence:
#
# PCOD8309449 Si02
#       5
#     8   8   8   8   8
#     4   9  17  31  54  81 105 131 167 213 261 305
#     4  10  20  33  50  74 104 137 171 208 253 305
#     4   8  14  27  49  74  98 128 169 215 258 299
#     4  10  20  34  53  78 108 140 173 210 252 300
#     4  10  20  34  53  77 104 135 172 213 257 305
#
# _framework density 18.692021
#
# number of rings (size 3 to 8) (size 9 to 14) (size 15 to 20)
#    0.000    2.600    0.000    3.000    0.000    6.000 
#    0.000    2.000    0.000    9.600    0.000    0.000 
#    0.000    0.000    0.000    0.000    0.000    0.000 
#
# Total GULP energy -495983.696151 kJ/mol
# GULP energy per Si atom -12399.592404 kJ/mol
# Density = 1.864948 g / cm^3
# Si number density = 18.692021 Si / 1000 Ang^3
#
#
#
# Elastic Constant Matrix: (Units=GPa)
#
#
# Indices 1 2 3 4 5 6 
#
# 1 68.9739 37.1575 56.7166 0.0000 0.0000 0.0000
# 2 37.1575 68.9724 56.7151 0.0000 0.0000 0.0000
# 3 56.7166 56.7151 180.2952 0.0000 0.0000 0.0000
# 4 0.0000 0.0000 0.0000 -0.2623 0.0000 0.0000
# 5 0.0000 0.0000 0.0000 0.0000 -0.2618 0.0000
# 6 0.0000 0.0000 0.0000 0.0000 0.0000 20.0077
#
#
#
# Elastic Compliance Matrix: (Units=1/GPa)
#
#
# Indices 1 2 3 4 5 6 
#
# 1 0.022813 -0.008618 -0.004465 0.000000 0.000000 0.000000
# 2 -0.008618 0.022813 -0.004465 0.000000 0.000000 0.000000
# 3 -0.004465 -0.004465 0.008356 0.000000 0.000000 0.000000
# 4 0.000000 0.000000 0.000000 -3.812931 0.000000 0.000000
# 5 0.000000 0.000000 0.000000 0.000000 -3.820392 0.000000
# 6 0.000000 0.000000 0.000000 0.000000 0.000000 0.049981
#
#
# Mechanical properties :
#
#
# Convention : Reuss Voigt Hill
#
# Bulk Modulus (GPa) = 52.95420 68.82444 60.88932
# Shear Modulus (GPa) = -0.66774 15.07354 7.20290
#
# Velocity S-wave (km/s) = -0.59834 2.84283 1.96515
# Velocity P-wave (km/s) = 5.28337 6.90476 6.14775
#
# Compressibility (1/GPa) = 0.01888424
#
# Stress axis : x y z
#
# Youngs Moduli (GPa) = 43.83498 43.83451 119.67755
#
# Poissons Ratio (x) = 0.37777 0.53441
# Poissons Ratio (y) = 0.37777 0.53439
# Poissons Ratio (z) = 0.19574 0.19573
#
# Static dielectric constant tensor:
#      x y z
#    x 3.244330 0.000000 0.000000 
#    y 0.000000 3.244330 0.000000 
#    z 0.000000 0.000000 3.777550 
# 
# 
# High freq. dielectric constant tensor:
#      x y z
#    x 1.701990 0.000000 0.000000 
#    y 0.000000 1.701990 0.000000 
#    z 0.000000 0.000000 1.746250 
# 
# From -- ./inp_files/5084.got.cif
#   From: 2010.03.12/outbox.cif.g09.slc.cpg/sg115_3_cif.got.tgz:5084.got - 2010.04.14 02:11:21.
