data_PCOD8309643
_publ_section_title
;
Structure prediction by ZEFSAII (Michael W. Deem and Ramdas Pophale) SiO2 
 PCOD8309643
Probable space group: P -4 M 2
;
_chemical_formula_sum "Si O2"
_cell_formula_units_Z 44
_cell_length_a 9.107976
_cell_length_b 9.107976
_cell_length_c 28.712028
_cell_angle_alpha 90.000000
_cell_angle_beta 90.000000
_cell_angle_gamma 90.000000
_cell_volume 2381.812795
_symmetry_space_group_name_H-M "P -4 M 2"
_symmetry_group_IT_number 115
_symmetry_cell_setting 'tetragonal'
loop_
_space_group_symop_operation_xyz
x,y,z
y,-x,-z
-x,-y,z
-y,x,-z
y,x,-z
-y,-x,-z
-x,y,z
x,-y,z
loop_
_atom_site_type_symbol
_atom_site_label
_atom_site_fract_x
_atom_site_fract_y
_atom_site_fract_z
Si Si1 0.329970 0.172850 0.873393
Si Si2 0.670712 0.329289 0.500000
Si Si3 0.828191 0.327442 0.957245
Si Si4 0.674579 0.666310 0.400188
Si Si5 0.162780 0.825927 0.782835
Si Si6 0.164172 0.173724 0.319353
O O1 0.500000 0.213668 0.879253
O O2 0.234327 0.262123 0.909847
O O3 0.277331 0.224327 0.822252
O O4 0.303522 0.000000 0.881146
O O5 0.500000 0.297320 0.503967
O O6 0.734415 0.269328 0.549555
O O7 0.797346 0.500000 0.958839
O O8 0.000000 0.292095 0.960501
O O9 0.747219 0.252782 0.000000
O O10 0.500000 0.668327 0.400152
O O11 0.731681 0.500000 0.393294
O O12 0.730385 0.764766 0.358492
O O13 0.218719 0.773452 0.731863
O O14 0.000000 0.761794 0.793985
O O15 0.151285 0.000000 0.781038
O O16 0.000000 0.236673 0.326745
O O17 0.162066 0.000000 0.322921
#
# Coordination Sequence:
#
# PCOD8309643 Si02
#       6
#     8   4   8   8   8   8
#     4  10  20  34  55  83 109 133 167 210 254 299
#     4   7  12  26  46  65  88 120 158 201 246 293
#     4  11  24  40  58  81 108 139 175 211 249 296
#     4   9  17  30  49  71  93 121 161 206 250 298
#     4   8  15  30  51  72  97 133 173 208 243 289
#     4   9  18  32  49  71 100 132 165 202 247 298
#
# _framework density 18.473324000000002
#
# number of rings (size 3 to 8) (size 9 to 14) (size 15 to 20)
#    0.000    2.818    0.000    3.818    0.000    6.182 
#    0.000    3.636    0.000    5.455    0.000    0.000 
#    0.000    0.000    0.000    0.000    0.000    0.000 
#
# Total GULP energy -545232.842438 kJ/mol
# GULP energy per Si atom -12391.655510 kJ/mol
# Density = 1.843128 g / cm^3
# Si number density = 18.473324 Si / 1000 Ang^3
#
#
#
# Elastic Constant Matrix: (Units=GPa)
#
#
# Indices 1 2 3 4 5 6 
#
# 1 52.0754 32.7170 49.8930 0.0000 0.0000 0.0000
# 2 32.7170 52.0715 49.8910 0.0000 0.0000 0.0000
# 3 49.8930 49.8910 174.0091 0.0000 0.0000 0.0000
# 4 0.0000 0.0000 0.0000 32.7293 0.0000 0.0000
# 5 0.0000 0.0000 0.0000 0.0000 32.7292 0.0000
# 6 0.0000 0.0000 0.0000 0.0000 0.0000 24.7451
#
#
#
# Elastic Compliance Matrix: (Units=1/GPa)
#
#
# Indices 1 2 3 4 5 6 
#
# 1 0.034730 -0.016931 -0.005104 0.000000 0.000000 0.000000
# 2 -0.016931 0.034732 -0.005104 0.000000 0.000000 0.000000
# 3 -0.005104 -0.005104 0.008673 0.000000 0.000000 0.000000
# 4 0.000000 0.000000 0.000000 0.030554 0.000000 0.000000
# 5 0.000000 0.000000 0.000000 0.000000 0.030554 0.000000
# 6 0.000000 0.000000 0.000000 0.000000 0.000000 0.040412
#
#
# Mechanical properties :
#
#
# Convention : Reuss Voigt Hill
#
# Bulk Modulus (GPa) = 41.91330 60.35090 51.13210
# Shear Modulus (GPa) = 20.67100 27.75106 24.21103
#
# Velocity S-wave (km/s) = 3.34872 3.88006 3.62414
# Velocity P-wave (km/s) = 6.13920 7.26727 6.72692
#
# Compressibility (1/GPa) = 0.02385877
#
# Stress axis : x y z
#
# Youngs Moduli (GPa) = 28.79365 28.79165 115.29469
#
# Poissons Ratio (x) = 0.48748 0.58841
# Poissons Ratio (y) = 0.48751 0.58842
# Poissons Ratio (z) = 0.14695 0.14694
#
# Static dielectric constant tensor:
#      x y z
#    x 3.205790 0.000000 0.000000 
#    y 0.000000 3.205780 0.000000 
#    z 0.000000 0.000000 3.963170 
# 
# 
# High freq. dielectric constant tensor:
#      x y z
#    x 1.691750 0.000000 0.000000 
#    y 0.000000 1.691750 0.000000 
#    z 0.000000 0.000000 1.743220 
# 
# From -- ./inp_files/5772.got.cif
#   From: 2010.03.12/outbox.cif.g09.slc.cpg/sg115_3_cif.got.tgz:5772.got - 2010.04.14 02:11:21.
