data_PCOD8309570
_publ_section_title
;
Structure prediction by ZEFSAII (Michael W. Deem and Ramdas Pophale) SiO2 
 PCOD8309570
Probable space group: P -4 M 2
;
_chemical_formula_sum "Si O2"
_cell_formula_units_Z 48
_cell_length_a 9.097590
_cell_length_b 9.097590
_cell_length_c 30.827782
_cell_angle_alpha 90.000000
_cell_angle_beta 90.000000
_cell_angle_gamma 90.000000
_cell_volume 2551.496638
_symmetry_space_group_name_H-M "P -4 M 2"
_symmetry_group_IT_number 115
_symmetry_cell_setting 'tetragonal'
loop_
_space_group_symop_operation_xyz
x,y,z
y,-x,-z
-x,-y,z
-y,x,-z
y,x,-z
-y,-x,-z
-x,y,z
x,-y,z
loop_
_atom_site_type_symbol
_atom_site_label
_atom_site_fract_x
_atom_site_fract_y
_atom_site_fract_z
Si Si1 0.171934 0.169197 0.626371
Si Si2 0.174708 0.165599 0.124827
Si Si3 0.672839 0.170036 0.961104
Si Si4 0.672310 0.168949 0.538318
Si Si5 0.170472 0.329263 0.209595
Si Si6 0.331590 0.327045 0.703069
O O1 0.250805 0.220669 0.582482
O O2 0.229155 0.268489 0.665164
O O3 0.000000 0.195229 0.620311
O O4 0.209376 0.000000 0.636749
O O5 0.230590 0.254449 0.083013
O O6 0.234873 0.240832 0.168570
O O7 0.000000 0.169316 0.125945
O O8 0.235515 0.000000 0.122159
O O9 0.500000 0.191834 0.956929
O O10 0.714501 0.000000 0.969314
O O11 0.733127 0.266873 0.000000
O O12 0.729326 0.270675 0.500000
O O13 0.500000 0.192561 0.543959
O O14 0.711968 0.000000 0.527831
O O15 0.196079 0.500000 0.199841
O O16 0.257959 0.276765 0.251875
O O17 0.000000 0.293677 0.217628
O O18 0.500000 0.280792 0.693771
O O19 0.313654 0.500000 0.706377
#
# Coordination Sequence:
#
# PCOD8309570 Si02
#       6
#     8   8   8   8   8   8
#     4  10  21  37  58  82 107 139 180 224 268 314
#     4   9  17  30  51  78 104 132 171 219 266 311
#     4  10  20  34  53  77 105 137 174 215 260 312
#     4  10  21  37  58  83 110 141 177 217 263 315
#     4   9  17  31  52  76 103 137 176 217 262 314
#     4  10  21  36  54  78 109 144 180 218 263 315
#
# _framework density 18.812487999999998
#
# number of rings (size 3 to 8) (size 9 to 14) (size 15 to 20)
#    0.000    2.333    0.000    2.500    0.000    7.333 
#    0.000    2.500    0.000    3.000    0.000    0.000 
#    0.000    0.000    0.000    0.000    0.000    0.000 
#
# Total GULP energy -595385.835222 kJ/mol
# GULP energy per Si atom -12403.871567 kJ/mol
# Density = 1.876967 g / cm^3
# Si number density = 18.812488 Si / 1000 Ang^3
#
#
#
# Elastic Constant Matrix: (Units=GPa)
#
#
# Indices 1 2 3 4 5 6 
#
# 1 78.3039 39.2717 66.6855 0.0000 0.0000 0.0000
# 2 39.2717 78.3030 66.6844 0.0000 0.0000 0.0000
# 3 66.6855 66.6844 173.1722 0.0000 0.0000 0.0000
# 4 0.0000 0.0000 0.0000 -2.7805 0.0000 0.0000
# 5 0.0000 0.0000 0.0000 0.0000 -2.7798 0.0000
# 6 0.0000 0.0000 0.0000 0.0000 0.0000 24.0433
#
#
#
# Elastic Compliance Matrix: (Units=1/GPa)
#
#
# Indices 1 2 3 4 5 6 
#
# 1 0.020361 -0.005259 -0.005815 0.000000 0.000000 0.000000
# 2 -0.005259 0.020361 -0.005815 0.000000 0.000000 0.000000
# 3 -0.005815 -0.005815 0.010253 0.000000 0.000000 0.000000
# 4 0.000000 0.000000 0.000000 -0.359652 0.000000 0.000000
# 5 0.000000 0.000000 0.000000 0.000000 -0.359733 0.000000
# 6 0.000000 0.000000 0.000000 0.000000 0.000000 0.041592
#
#
# Mechanical properties :
#
#
# Convention : Reuss Voigt Hill
#
# Bulk Modulus (GPa) = 58.15496 75.00691 66.58093
# Shear Modulus (GPa) = -8.51344 14.17244 2.82950
#
# Velocity S-wave (km/s) = -2.12961 2.74770 1.22773
# Velocity P-wave (km/s) = 4.99330 7.07276 6.12197
#
# Compressibility (1/GPa) = 0.01719544
#
# Stress axis : x y z
#
# Youngs Moduli (GPa) = 49.11351 49.11349 97.52899
#
# Poissons Ratio (x) = 0.25830 0.56718
# Poissons Ratio (y) = 0.25830 0.56716
# Poissons Ratio (z) = 0.28562 0.28561
#
# Static dielectric constant tensor:
#      x y z
#    x 3.359160 0.000000 0.000000 
#    y 0.000000 3.359160 0.000000 
#    z 0.000000 0.000000 3.621110 
# 
# 
# High freq. dielectric constant tensor:
#      x y z
#    x 1.720350 0.000000 0.000000 
#    y 0.000000 1.720350 0.000000 
#    z 0.000000 0.000000 1.745480 
# 
# From -- ./inp_files/5907.got.cif
#   From: 2010.03.12/outbox.cif.g09.slc.cpg/sg115_3_cif.got.tgz:5907.got - 2010.04.14 02:11:21.
