data_PCOD8309004
_publ_section_title
;
Structure prediction by ZEFSAII (Michael W. Deem and Ramdas Pophale) SiO2 
 PCOD8309004
Probable space group: P -4 21 C
;
_chemical_formula_sum "Si O2"
_cell_formula_units_Z 36
_cell_length_a 15.005442
_cell_length_b 15.005442
_cell_length_c 7.705567
_cell_angle_alpha 90.000000
_cell_angle_beta 90.000000
_cell_angle_gamma 90.000000
_cell_volume 1735.010814
_symmetry_space_group_name_H-M "P -4 21 C"
_symmetry_group_IT_number 114
_symmetry_cell_setting 'tetragonal'
loop_
_space_group_symop_operation_xyz
x,y,z
y,-x,-z
-x,-y,z
-y,x,-z
1/2+x,1/2-y,1/2-z
1/2-x,1/2+y,1/2-z
1/2-y,1/2-x,1/2+z
1/2+y,1/2+x,1/2+z
loop_
_atom_site_type_symbol
_atom_site_label
_atom_site_fract_x
_atom_site_fract_y
_atom_site_fract_z
Si Si1 0.904288 0.893074 0.471653
Si Si2 0.996216 0.654447 0.182328
Si Si3 0.837300 0.218896 0.227798
Si Si4 0.155365 0.207096 0.147223
Si Si5 0.500000 0.000000 0.566188
O O1 0.849046 0.837331 0.612014
O O2 0.893697 0.862279 0.273147
O O3 0.005204 0.876111 0.524379
O O4 0.075906 0.719400 0.235673
O O5 0.031329 0.588317 0.034083
O O6 0.906874 0.706298 0.127270
O O7 0.968382 0.588396 0.335910
O O8 0.748180 0.275338 0.254773
O O9 0.835744 0.169112 0.042250
#
# Coordination Sequence:
#
# PCOD8309004 Si02
#       5
#     8   8   8   8   4
#     4  11  26  46  68  98 138 181 226 282 340 407
#     4  11  24  46  65 106 136 176 233 280 342 417
#     4  12  25  44  70 104 138 182 228 280 347 409
#     4  12  25  44  70 104 138 182 228 280 347 409
#     4  10  24  42  72  94 140 178 220 290 348 394
#
# _framework density 20.74915
#
# number of rings (size 3 to 8) (size 9 to 14) (size 15 to 20)
#    0.000    0.667    4.444    2.667    3.111    0.000 
#    4.000    2.222    0.000    0.000    0.000    0.000 
#    0.000    0.000    0.000    0.000    0.000    0.000 
#
# Total GULP energy -446402.414458 kJ/mol
# GULP energy per Si atom -12400.067068 kJ/mol
# Density = 2.070192 g / cm^3
# Si number density = 20.749150 Si / 1000 Ang^3
#
#
#
# Elastic Constant Matrix: (Units=GPa)
#
#
# Indices 1 2 3 4 5 6 
#
# 1 68.1019 36.8014 17.4176 0.0000 0.0000 0.0000
# 2 36.8014 68.1019 17.4176 0.0000 0.0000 0.0000
# 3 17.4176 17.4176 113.5154 0.0000 0.0000 0.0000
# 4 0.0000 0.0000 0.0000 18.5746 0.0000 0.0000
# 5 0.0000 0.0000 0.0000 0.0000 18.5746 0.0000
# 6 0.0000 0.0000 0.0000 0.0000 0.0000 40.7528
#
#
#
# Elastic Compliance Matrix: (Units=1/GPa)
#
#
# Indices 1 2 3 4 5 6 
#
# 1 0.020996 -0.010952 -0.001541 0.000000 0.000000 0.000000
# 2 -0.010952 0.020996 -0.001541 0.000000 0.000000 0.000000
# 3 -0.001541 -0.001541 0.009282 0.000000 0.000000 0.000000
# 4 0.000000 0.000000 0.000000 0.053837 0.000000 0.000000
# 5 0.000000 0.000000 0.000000 0.000000 0.053837 0.000000
# 6 0.000000 0.000000 0.000000 0.000000 0.000000 0.024538
#
#
# Mechanical properties :
#
#
# Convention : Reuss Voigt Hill
#
# Bulk Modulus (GPa) = 43.09170 43.66580 43.37875
# Shear Modulus (GPa) = 22.80075 27.45260 25.12667
#
# Velocity S-wave (km/s) = 3.31853 3.64135 3.48368
# Velocity P-wave (km/s) = 5.95790 6.22652 6.09369
#
# Compressibility (1/GPa) = 0.02320632
#
# Stress axis : x y z
#
# Youngs Moduli (GPa) = 47.62738 47.62738 107.73161
#
# Poissons Ratio (x) = 0.52161 0.16603
# Poissons Ratio (y) = 0.52161 0.16603
# Poissons Ratio (z) = 0.07340 0.07340
#
# Static dielectric constant tensor:
#      x y z
#    x 3.784020 0.000000 0.000000 
#    y 0.000000 3.784020 0.000000 
#    z 0.000000 0.000000 4.018080 
# 
# 
# High freq. dielectric constant tensor:
#      x y z
#    x 1.820400 0.000000 0.000000 
#    y 0.000000 1.820400 0.000000 
#    z 0.000000 0.000000 1.824120 
# 
# From -- ./inp_files/705.got.cif
#   From: 2010.03.12/outbox.cif.g09.slc.cpg/sg114_1_cif.got.tgz:705.got - 2010.04.14 02:08:34.
