data_PCOD8309225
_publ_section_title
;
Structure prediction by ZEFSAII (Michael W. Deem and Ramdas Pophale) SiO2 
 PCOD8309225
Probable space group: P -4 M 2
;
_chemical_formula_sum "Si O2"
_cell_formula_units_Z 48
_cell_length_a 13.698969
_cell_length_b 13.698969
_cell_length_c 15.902505
_cell_angle_alpha 90.000000
_cell_angle_beta 90.000000
_cell_angle_gamma 90.000000
_cell_volume 2984.291944
_symmetry_space_group_name_H-M "P -4 M 2"
_symmetry_group_IT_number 115
_symmetry_cell_setting 'tetragonal'
loop_
_space_group_symop_operation_xyz
x,y,z
y,-x,-z
-x,-y,z
-y,x,-z
y,x,-z
-y,-x,-z
-x,y,z
x,-y,z
loop_
_atom_site_type_symbol
_atom_site_label
_atom_site_fract_x
_atom_site_fract_y
_atom_site_fract_z
Si Si1 0.614949 0.894025 0.163249
Si Si2 0.280326 0.383389 0.422942
Si Si3 0.385280 0.702591 0.082729
Si Si4 0.615309 0.390264 0.743711
Si Si5 0.115422 0.607582 0.654119
Si Si6 0.884729 0.732216 0.495214
O O1 0.500000 0.908491 0.167063
O O2 0.642516 0.817128 0.091029
O O3 0.645151 0.848093 0.254260
O O4 0.664383 0.000000 0.144908
O O5 0.347899 0.347899 0.500000
O O6 0.270149 0.500000 0.425420
O O7 0.327897 0.345892 0.335474
O O8 0.172632 0.333612 0.426770
O O9 0.500000 0.684120 0.072343
O O10 0.346105 0.647864 0.166246
O O11 0.332990 0.667011 0.000000
O O12 0.500000 0.391789 0.741236
O O13 0.657877 0.500000 0.734869
O O14 0.157725 0.500000 0.630817
O O15 0.145094 0.685173 0.584260
O O16 0.000000 0.599703 0.660706
O O17 0.842858 0.842858 0.500000
O O18 0.000000 0.733069 0.475664
#
# Coordination Sequence:
#
# PCOD8309225 Si02
#       6
#     8   8   8   8   8   8
#     4   8  15  27  45  69  93 116 146 192 244 284
#     4  10  20  31  47  70  98 131 164 198 236 288
#     4  10  19  29  46  69  95 127 160 194 232 281
#     4   9  18  31  45  65  97 132 163 194 228 274
#     4   8  14  27  47  70  93 115 145 190 244 291
#     4  10  21  33  47  68  93 126 165 206 246 289
#
# _framework density 16.084216999999999
#
# number of rings (size 3 to 8) (size 9 to 14) (size 15 to 20)
#    0.000    2.833    0.000    2.500    4.667    2.833 
#    0.000    0.000    0.000    1.000    0.000    2.333 
#    0.000    0.333    0.000    0.000    0.000    0.000 
#
# Total GULP energy -594806.418737 kJ/mol
# GULP energy per Si atom -12391.800390 kJ/mol
# Density = 1.604761 g / cm^3
# Si number density = 16.084217 Si / 1000 Ang^3
#
#
#
# Elastic Constant Matrix: (Units=GPa)
#
#
# Indices 1 2 3 4 5 6 
#
# 1 71.6059 34.3554 50.2898 0.0000 0.0000 0.0000
# 2 34.3554 71.6060 50.2897 0.0000 0.0000 0.0000
# 3 50.2898 50.2897 132.5998 0.0000 0.0000 0.0000
# 4 0.0000 0.0000 0.0000 19.9526 0.0000 0.0000
# 5 0.0000 0.0000 0.0000 0.0000 19.9527 0.0000
# 6 0.0000 0.0000 0.0000 0.0000 0.0000 18.3866
#
#
#
# Elastic Compliance Matrix: (Units=1/GPa)
#
#
# Indices 1 2 3 4 5 6 
#
# 1 0.020796 -0.006050 -0.005593 0.000000 0.000000 0.000000
# 2 -0.006050 0.020795 -0.005592 0.000000 0.000000 0.000000
# 3 -0.005593 -0.005592 0.011784 0.000000 0.000000 0.000000
# 4 0.000000 0.000000 0.000000 0.050119 0.000000 0.000000
# 5 0.000000 0.000000 0.000000 0.000000 0.050118 0.000000
# 6 0.000000 0.000000 0.000000 0.000000 0.000000 0.054388
#
#
# Mechanical properties :
#
#
# Convention : Reuss Voigt Hill
#
# Bulk Modulus (GPa) = 52.89549 60.63128 56.76339
# Shear Modulus (GPa) = 20.09885 21.05017 20.57451
#
# Velocity S-wave (km/s) = 3.53880 3.62159 3.58043
# Velocity P-wave (km/s) = 7.04666 7.43410 7.24297
#
# Compressibility (1/GPa) = 0.01890520
#
# Stress axis : x y z
#
# Youngs Moduli (GPa) = 48.08716 48.08733 84.86429
#
# Poissons Ratio (x) = 0.29091 0.47461
# Poissons Ratio (y) = 0.29091 0.47460
# Poissons Ratio (z) = 0.26893 0.26893
#
# Static dielectric constant tensor:
#      x y z
#    x 3.107910 0.000000 0.000000 
#    y 0.000000 3.107930 0.000000 
#    z 0.000000 0.000000 3.180870 
# 
# 
# High freq. dielectric constant tensor:
#      x y z
#    x 1.603510 0.000000 0.000000 
#    y 0.000000 1.603510 0.000000 
#    z 0.000000 0.000000 1.609400 
# 
# From -- ./inp_files/3721.got.cif
#   From: 2010.03.12/outbox.cif.g09.slc.cpg/sg115_2_cif.got.tgz:3721.got - 2010.04.14 02:11:21.
