data_PCOD8309943
_publ_section_title
;
Structure prediction by ZEFSAII (Michael W. Deem and Ramdas Pophale) SiO2 
 PCOD8309943
Probable space group: P -4 M 2
;
_chemical_formula_sum "Si O2"
_cell_formula_units_Z 32
_cell_length_a 18.263311
_cell_length_b 18.263311
_cell_length_c 5.227640
_cell_angle_alpha 90.000000
_cell_angle_beta 90.000000
_cell_angle_gamma 90.000000
_cell_volume 1743.671630
_symmetry_space_group_name_H-M "P -4 M 2"
_symmetry_group_IT_number 115
_symmetry_cell_setting 'tetragonal'
loop_
_space_group_symop_operation_xyz
x,y,z
y,-x,-z
-x,-y,z
-y,x,-z
y,x,-z
-y,-x,-z
-x,y,z
x,-y,z
loop_
_atom_site_type_symbol
_atom_site_label
_atom_site_fract_x
_atom_site_fract_y
_atom_site_fract_z
Si Si1 0.416909 0.184903 0.280424
Si Si2 0.648211 0.417513 0.748354
Si Si3 0.084841 0.309391 0.960844
Si Si4 0.723760 0.155067 0.532380
O O1 0.500000 0.163994 0.358637
O O2 0.412023 0.266905 0.172900
O O3 0.386580 0.128929 0.063169
O O4 0.362189 0.179273 0.524568
O O5 0.631751 0.368250 0.500000
O O6 0.626832 0.500000 0.672626
O O7 0.604220 0.395780 0.000000
O O8 0.099736 0.260890 0.705627
O O9 0.000000 0.327254 0.995915
O O10 0.113960 0.262390 0.201270
O O11 0.774443 0.225558 0.500000
#
# Coordination Sequence:
#
# PCOD8309943 Si02
#       4
#     8   8   8   8
#     4   9  23  37  57  85 117 157 199 239 288 343
#     4  11  24  39  58  81 111 152 203 257 303 346
#     4  10  22  38  59  87 120 151 192 237 285 348
#     4  10  21  37  62  85 115 156 194 235 286 335
#
# _framework density 18.352079
#
# number of rings (size 3 to 8) (size 9 to 14) (size 15 to 20)
#    1.500    0.500    0.000    3.000    7.000    3.000 
#    0.000    0.000    0.000    0.000    0.000    0.000 
#    0.000   35.000    0.000    0.000    0.000    0.000 
#
# Total GULP energy -396466.247569 kJ/mol
# GULP energy per Si atom -12389.570237 kJ/mol
# Density = 1.831031 g / cm^3
# Si number density = 18.352079 Si / 1000 Ang^3
#
#
#
# Elastic Constant Matrix: (Units=GPa)
#
#
# Indices 1 2 3 4 5 6 
#
# 1 96.3217 57.3201 43.2272 0.0000 0.0000 0.0000
# 2 57.3201 96.3181 43.2274 0.0000 0.0000 0.0000
# 3 43.2272 43.2274 127.8748 0.0000 0.0000 0.0000
# 4 0.0000 0.0000 0.0000 21.3345 0.0000 0.0000
# 5 0.0000 0.0000 0.0000 0.0000 21.3356 0.0000
# 6 0.0000 0.0000 0.0000 0.0000 0.0000 8.4681
#
#
#
# Elastic Compliance Matrix: (Units=1/GPa)
#
#
# Indices 1 2 3 4 5 6 
#
# 1 0.016839 -0.008802 -0.002717 0.000000 0.000000 0.000000
# 2 -0.008802 0.016840 -0.002717 0.000000 0.000000 0.000000
# 3 -0.002717 -0.002717 0.009657 0.000000 0.000000 0.000000
# 4 0.000000 0.000000 0.000000 0.046872 0.000000 0.000000
# 5 0.000000 0.000000 0.000000 0.000000 0.046870 0.000000
# 6 0.000000 0.000000 0.000000 0.000000 0.000000 0.118090
#
#
# Mechanical properties :
#
#
# Convention : Reuss Voigt Hill
#
# Bulk Modulus (GPa) = 67.27613 67.56267 67.41940
# Shear Modulus (GPa) = 17.32532 22.01030 19.66781
#
# Velocity S-wave (km/s) = 3.07588 3.46690 3.27723
# Velocity P-wave (km/s) = 7.02516 7.27465 7.15099
#
# Compressibility (1/GPa) = 0.01486411
#
# Stress axis : x y z
#
# Youngs Moduli (GPa) = 59.38588 59.38317 103.55037
#
# Poissons Ratio (x) = 0.52268 0.28134
# Poissons Ratio (y) = 0.52270 0.28137
# Poissons Ratio (z) = 0.16135 0.16136
#
# Static dielectric constant tensor:
#      x y z
#    x 3.183830 0.000000 0.000000 
#    y 0.000000 3.183830 0.000000 
#    z 0.000000 0.000000 3.288890 
# 
# 
# High freq. dielectric constant tensor:
#      x y z
#    x 1.694030 0.000000 0.000000 
#    y 0.000000 1.694030 0.000000 
#    z 0.000000 0.000000 1.711770 
# 
# From -- ./inp_files/446.got.cif
#   From: 2010.03.12/outbox.cif.g09.slc.cpg/sg115_1_cif.got.tgz:446.got - 2010.04.14 02:11:21.
