data_PCOD8309044
_publ_section_title
;
Structure prediction by ZEFSAII (Michael W. Deem and Ramdas Pophale) SiO2 
 PCOD8309044
Probable space group: P -4 21 C
;
_chemical_formula_sum "Si O2"
_cell_formula_units_Z 56
_cell_length_a 11.690171
_cell_length_b 11.690171
_cell_length_c 20.754304
_cell_angle_alpha 90.000000
_cell_angle_beta 90.000000
_cell_angle_gamma 90.000000
_cell_volume 2836.285219
_symmetry_space_group_name_H-M "P -4 21 C"
_symmetry_group_IT_number 114
_symmetry_cell_setting 'tetragonal'
loop_
_space_group_symop_operation_xyz
x,y,z
y,-x,-z
-x,-y,z
-y,x,-z
1/2+x,1/2-y,1/2-z
1/2-x,1/2+y,1/2-z
1/2-y,1/2-x,1/2+z
1/2+y,1/2+x,1/2+z
loop_
_atom_site_type_symbol
_atom_site_label
_atom_site_fract_x
_atom_site_fract_y
_atom_site_fract_z
Si Si1 0.864064 0.895521 0.518697
Si Si2 0.871430 0.609755 0.400156
Si Si3 0.697966 0.805558 0.918966
Si Si4 0.836123 0.745480 0.634995
Si Si5 0.038219 0.373565 0.045550
Si Si6 0.532049 0.875350 0.808532
Si Si7 0.386950 0.120240 0.166248
O O1 0.751085 0.854722 0.482872
O O2 0.886053 0.845264 0.589542
O O3 0.968158 0.858967 0.471905
O O4 0.762837 0.692904 0.391941
O O5 0.890092 0.591219 0.475359
O O6 0.835421 0.489750 0.369157
O O7 0.989790 0.654069 0.365870
O O8 0.614050 0.810926 0.858370
O O9 0.717780 0.934194 0.946264
O O10 0.819264 0.635029 0.590511
O O11 0.718004 0.791738 0.663164
O O12 0.920710 0.708991 0.693810
O O13 0.000000 0.500000 0.068141
O O14 0.591827 0.899956 0.740966
O O15 0.500000 0.000000 0.836156
#
# Coordination Sequence:
#
# PCOD8309044 Si02
#       7
#     8   8   8   8   8   8   8
#     4  11  21  36  61  99 137 160 209 286 348 379
#     4  11  24  42  69  96 133 174 217 280 330 398
#     4  12  23  39  67  98 132 174 222 273 331 398
#     4  12  23  41  68  97 132 171 222 280 329 403
#     4  12  21  39  67  99 133 170 217 268 344 393
#     4  12  24  45  67  94 131 185 224 266 328 408
#     4  11  26  44  67  95 133 176 231 267 331 403
#
# _framework density 19.744136000000001
#
# number of rings (size 3 to 8) (size 9 to 14) (size 15 to 20)
#    0.000    0.429    8.571    1.714    2.000    0.000 
#    0.000    0.714    0.000    3.429    0.000    0.000 
#    0.000    0.000    0.000    0.000    0.000    0.000 
#
# Total GULP energy -693909.091784 kJ/mol
# GULP energy per Si atom -12391.233782 kJ/mol
# Density = 1.969920 g / cm^3
# Si number density = 19.744136 Si / 1000 Ang^3
#
#
#
# Elastic Constant Matrix: (Units=GPa)
#
#
# Indices 1 2 3 4 5 6 
#
# 1 112.7259 54.2434 34.0191 0.0000 0.0000 0.0000
# 2 54.2434 112.7259 34.0191 0.0000 0.0000 0.0000
# 3 34.0191 34.0191 102.3176 0.0000 0.0000 0.0000
# 4 0.0000 0.0000 0.0000 21.4793 0.0000 0.0000
# 5 0.0000 0.0000 0.0000 0.0000 21.4793 0.0000
# 6 0.0000 0.0000 0.0000 0.0000 0.0000 42.1282
#
#
#
# Elastic Compliance Matrix: (Units=1/GPa)
#
#
# Indices 1 2 3 4 5 6 
#
# 1 0.012013 -0.005086 -0.002303 0.000000 0.000000 0.000000
# 2 -0.005086 0.012013 -0.002303 0.000000 0.000000 0.000000
# 3 -0.002303 -0.002303 0.011305 0.000000 0.000000 0.000000
# 4 0.000000 0.000000 0.000000 0.046557 0.000000 0.000000
# 5 0.000000 0.000000 0.000000 0.000000 0.046557 0.000000
# 6 0.000000 0.000000 0.000000 0.000000 0.000000 0.023737
#
#
# Mechanical properties :
#
#
# Convention : Reuss Voigt Hill
#
# Bulk Modulus (GPa) = 62.70716 63.59251 63.14984
# Shear Modulus (GPa) = 28.26731 30.71653 29.49192
#
# Velocity S-wave (km/s) = 3.78786 3.94855 3.86904
# Velocity P-wave (km/s) = 7.13858 7.28466 7.21199
#
# Compressibility (1/GPa) = 0.01594714
#
# Stress axis : x y z
#
# Youngs Moduli (GPa) = 83.24019 83.24019 88.45526
#
# Poissons Ratio (x) = 0.42334 0.20374
# Poissons Ratio (y) = 0.42334 0.20374
# Poissons Ratio (z) = 0.19173 0.19173
#
# Static dielectric constant tensor:
#      x y z
#    x 3.860140 0.000000 0.000000 
#    y 0.000000 3.860140 0.000000 
#    z 0.000000 0.000000 3.639100 
# 
# 
# High freq. dielectric constant tensor:
#      x y z
#    x 1.765390 0.000000 0.000000 
#    y 0.000000 1.765390 0.000000 
#    z 0.000000 0.000000 1.776500 
# 
# From -- ./inp_files/3125.got.cif
#   From: 2010.03.12/outbox.cif.g09.slc.cpg/sg114_2_cif.got.tgz:3125.got - 2010.04.14 02:08:34.
