data_PCOD8309096
_publ_section_title
;
Structure prediction by ZEFSAII (Michael W. Deem and Ramdas Pophale) SiO2 
 PCOD8309096
Probable space group: P -4 21 C
;
_chemical_formula_sum "Si O2"
_cell_formula_units_Z 34
_cell_length_a 12.644521
_cell_length_b 12.644521
_cell_length_c 9.834683
_cell_angle_alpha 90.000000
_cell_angle_beta 90.000000
_cell_angle_gamma 90.000000
_cell_volume 1572.407585
_symmetry_space_group_name_H-M "P -4 21 C"
_symmetry_group_IT_number 114
_symmetry_cell_setting 'tetragonal'
loop_
_space_group_symop_operation_xyz
x,y,z
y,-x,-z
-x,-y,z
-y,x,-z
1/2+x,1/2-y,1/2-z
1/2-x,1/2+y,1/2-z
1/2-y,1/2-x,1/2+z
1/2+y,1/2+x,1/2+z
loop_
_atom_site_type_symbol
_atom_site_label
_atom_site_fract_x
_atom_site_fract_y
_atom_site_fract_z
Si Si1 0.117639 0.464114 0.640363
Si Si2 0.500000 0.500000 0.500000
Si Si3 0.170253 0.324166 0.396232
Si Si4 0.118048 0.110547 0.531592
Si Si5 0.407296 0.317744 0.334513
O O1 0.110529 0.402833 0.498045
O O2 0.166256 0.384219 0.750343
O O3 0.196699 0.563976 0.626065
O O4 0.000000 0.500000 0.681594
O O5 0.490488 0.397408 0.403551
O O6 0.169141 0.204382 0.447142
O O7 0.292759 0.353544 0.385699
O O8 0.177426 0.088845 0.671984
O O9 0.994180 0.132674 0.560791
#
# Coordination Sequence:
#
# PCOD8309096 Si02
#       5
#     8   2   8   8   8
#     4  12  28  50  72 106 149 196 242 306 372 444
#     4  12  24  48  70 108 144 180 252 306 364 424
#     4  12  26  46  72 108 143 192 248 295 375 436
#     4  11  24  44  71 103 141 189 239 298 364 433
#     4  12  26  45  77 104 144 191 245 310 360 441
#
# _framework density 21.622890000000002
#
# number of rings (size 3 to 8) (size 9 to 14) (size 15 to 20)
#    0.000    0.235    7.059    2.118    3.294    1.882 
#    0.000    0.000    0.000    0.000    0.000    0.000 
#    0.000    0.000    0.000    0.000    0.000    0.000 
#
# Total GULP energy -421830.591103 kJ/mol
# GULP energy per Si atom -12406.782091 kJ/mol
# Density = 2.157368 g / cm^3
# Si number density = 21.622890 Si / 1000 Ang^3
#
#
#
# Elastic Constant Matrix: (Units=GPa)
#
#
# Indices 1 2 3 4 5 6 
#
# 1 96.8212 14.9982 13.3654 0.0000 0.0000 0.0000
# 2 14.9982 96.8212 13.3654 0.0000 0.0000 0.0000
# 3 13.3654 13.3654 69.9764 0.0000 0.0000 0.0000
# 4 0.0000 0.0000 0.0000 35.0916 0.0000 0.0000
# 5 0.0000 0.0000 0.0000 0.0000 35.0916 0.0000
# 6 0.0000 0.0000 0.0000 0.0000 0.0000 32.1311
#
#
#
# Elastic Compliance Matrix: (Units=1/GPa)
#
#
# Indices 1 2 3 4 5 6 
#
# 1 0.010796 -0.001425 -0.001790 0.000000 0.000000 0.000000
# 2 -0.001425 0.010796 -0.001790 0.000000 0.000000 0.000000
# 3 -0.001790 -0.001790 0.014974 0.000000 0.000000 0.000000
# 4 0.000000 0.000000 0.000000 0.028497 0.000000 0.000000
# 5 0.000000 0.000000 0.000000 0.000000 0.028497 0.000000
# 6 0.000000 0.000000 0.000000 0.000000 0.000000 0.031122
#
#
# Mechanical properties :
#
#
# Convention : Reuss Voigt Hill
#
# Bulk Modulus (GPa) = 37.65534 38.56410 38.10972
# Shear Modulus (GPa) = 34.83228 35.25550 35.04389
#
# Velocity S-wave (km/s) = 4.01795 4.04229 4.03014
# Velocity P-wave (km/s) = 6.24321 6.29765 6.27049
#
# Compressibility (1/GPa) = 0.02655666
#
# Stress axis : x y z
#
# Youngs Moduli (GPa) = 92.62535 92.62535 66.78135
#
# Poissons Ratio (x) = 0.13202 0.11953
# Poissons Ratio (y) = 0.13202 0.11953
# Poissons Ratio (z) = 0.16578 0.16578
#
# Static dielectric constant tensor:
#      x y z
#    x 3.886300 0.000000 0.000000 
#    y 0.000000 3.886300 0.000000 
#    z 0.000000 0.000000 3.808520 
# 
# 
# High freq. dielectric constant tensor:
#      x y z
#    x 1.854880 0.000000 0.000000 
#    y 0.000000 1.854880 0.000000 
#    z 0.000000 0.000000 1.853030 
# 
# From -- ./inp_files/1400.got.cif
#   From: 2010.03.12/outbox.cif.g09.slc.cpg/sg114_1_cif.got.tgz:1400.got - 2010.04.14 02:08:34.
