data_PCOD8309905
_publ_section_title
;
Structure prediction by ZEFSAII (Michael W. Deem and Ramdas Pophale) SiO2 
 PCOD8309905
Probable space group: P -4 M 2
;
_chemical_formula_sum "Si O2"
_cell_formula_units_Z 44
_cell_length_a 9.268749
_cell_length_b 9.268749
_cell_length_c 28.365296
_cell_angle_alpha 90.000000
_cell_angle_beta 90.000000
_cell_angle_gamma 90.000000
_cell_volume 2436.854297
_symmetry_space_group_name_H-M "P -4 M 2"
_symmetry_group_IT_number 115
_symmetry_cell_setting 'tetragonal'
loop_
_space_group_symop_operation_xyz
x,y,z
y,-x,-z
-x,-y,z
-y,x,-z
y,x,-z
-y,-x,-z
-x,y,z
x,-y,z
loop_
_atom_site_type_symbol
_atom_site_label
_atom_site_fract_x
_atom_site_fract_y
_atom_site_fract_z
Si Si1 0.330668 0.667596 0.917927
Si Si2 0.835439 0.667297 0.823861
Si Si3 0.660765 0.672134 0.448737
Si Si4 0.832662 0.167564 0.731739
Si Si5 0.830355 0.830355 0.000000
Si Si6 0.832224 0.667704 0.359381
O O1 0.500000 0.701855 0.918954
O O2 0.301009 0.500000 0.930350
O O3 0.268512 0.707414 0.866877
O O4 0.249355 0.768458 0.954553
O O5 0.826291 0.500000 0.811460
O O6 0.777656 0.752568 0.778499
O O7 0.000000 0.711980 0.836549
O O8 0.722277 0.722277 0.500000
O O9 0.500000 0.732942 0.440669
O O10 0.658734 0.500000 0.448981
O O11 0.758740 0.731848 0.406376
O O12 0.747871 0.229584 0.686622
O O13 0.000000 0.198562 0.723032
O O14 0.799045 0.000000 0.738963
O O15 0.000000 0.798571 0.995885
O O16 0.797088 0.500000 0.353163
O O17 0.000000 0.698972 0.365069
#
# Coordination Sequence:
#
# PCOD8309905 Si02
#       6
#     8   8   8   8   4   8
#     4  10  21  37  57  81 108 137 169 207 253 301
#     4   9  18  33  52  73  99 131 164 200 243 288
#     4   8  14  26  44  64  86 114 148 185 227 276
#     4   9  18  32  48  66  92 126 159 192 234 284
#     4  11  24  39  56  80 108 139 176 213 248 292
#     4   9  17  29  45  65  89 117 150 189 232 277
#
# _framework density 18.056066999999999
#
# number of rings (size 3 to 8) (size 9 to 14) (size 15 to 20)
#    0.000    2.818    0.000    1.636    0.000    5.091 
#    0.000    2.727    0.000    1.091    0.000    0.000 
#    0.000    0.000    0.000    0.000    0.000    0.000 
#
# Total GULP energy -545562.898241 kJ/mol
# GULP energy per Si atom -12399.156778 kJ/mol
# Density = 1.801497 g / cm^3
# Si number density = 18.056067 Si / 1000 Ang^3
#
#
#
# Elastic Constant Matrix: (Units=GPa)
#
#
# Indices 1 2 3 4 5 6 
#
# 1 68.6938 44.8600 75.3521 0.0000 0.0000 0.0000
# 2 44.8600 68.6938 75.3521 0.0000 0.0000 0.0000
# 3 75.3521 75.3521 186.0984 0.0000 0.0000 0.0000
# 4 0.0000 0.0000 0.0000 19.2049 0.0000 0.0000
# 5 0.0000 0.0000 0.0000 0.0000 19.2049 0.0000
# 6 0.0000 0.0000 0.0000 0.0000 0.0000 20.4773
#
#
#
# Elastic Compliance Matrix: (Units=1/GPa)
#
#
# Indices 1 2 3 4 5 6 
#
# 1 0.030496 -0.011461 -0.007708 0.000000 0.000000 0.000000
# 2 -0.011461 0.030496 -0.007708 0.000000 0.000000 0.000000
# 3 -0.007708 -0.007708 0.011615 0.000000 0.000000 0.000000
# 4 0.000000 0.000000 0.000000 0.052070 0.000000 0.000000
# 5 0.000000 0.000000 0.000000 0.000000 0.052070 0.000000
# 6 0.000000 0.000000 0.000000 0.000000 0.000000 0.048834
#
#
# Mechanical properties :
#
#
# Convention : Reuss Voigt Hill
#
# Bulk Modulus (GPa) = 53.03349 79.40163 66.21756
# Shear Modulus (GPa) = 17.50577 20.30555 18.90566
#
# Velocity S-wave (km/s) = 3.11709 3.35712 3.23933
# Velocity P-wave (km/s) = 6.51079 7.68749 7.12348
#
# Compressibility (1/GPa) = 0.01885601
#
# Stress axis : x y z
#
# Youngs Moduli (GPa) = 32.79070 32.79070 86.09404
#
# Poissons Ratio (x) = 0.37581 0.66358
# Poissons Ratio (y) = 0.37581 0.66358
# Poissons Ratio (z) = 0.25274 0.25274
#
# Static dielectric constant tensor:
#      x y z
#    x 3.269130 0.000000 0.000000 
#    y 0.000000 3.269130 0.000000 
#    z 0.000000 0.000000 3.658310 
# 
# 
# High freq. dielectric constant tensor:
#      x y z
#    x 1.684220 0.000000 0.000000 
#    y 0.000000 1.684220 0.000000 
#    z 0.000000 0.000000 1.714820 
# 
# From -- ./inp_files/5835.got.cif
#   From: 2010.03.12/outbox.cif.g09.slc.cpg/sg115_3_cif.got.tgz:5835.got - 2010.04.14 02:11:21.
