data_PCOD8309301
_publ_section_title
;
Structure prediction by ZEFSAII (Michael W. Deem and Ramdas Pophale) SiO2 
 PCOD8309301
Probable space group: P -4 M 2
;
_chemical_formula_sum "Si O2"
_cell_formula_units_Z 48
_cell_length_a 16.631428
_cell_length_b 16.631428
_cell_length_c 9.904194
_cell_angle_alpha 90.000000
_cell_angle_beta 90.000000
_cell_angle_gamma 90.000000
_cell_volume 2739.543612
_symmetry_space_group_name_H-M "P -4 M 2"
_symmetry_group_IT_number 115
_symmetry_cell_setting 'tetragonal'
loop_
_space_group_symop_operation_xyz
x,y,z
y,-x,-z
-x,-y,z
-y,x,-z
y,x,-z
-y,-x,-z
-x,y,z
x,-y,z
loop_
_atom_site_type_symbol
_atom_site_label
_atom_site_fract_x
_atom_site_fract_y
_atom_site_fract_z
Si Si1 0.346832 0.588301 0.122389
Si Si2 0.593324 0.158556 0.477066
Si Si3 0.090592 0.407101 0.802316
Si Si4 0.904950 0.406009 0.237306
Si Si5 0.593176 0.671301 0.382207
Si Si6 0.803964 0.326024 0.015299
O O1 0.343073 0.500000 0.187293
O O2 0.361511 0.649656 0.244128
O O3 0.264803 0.610088 0.047330
O O4 0.411476 0.588525 0.000000
O O5 0.500000 0.172499 0.499603
O O6 0.609817 0.095106 0.357746
O O7 0.627084 0.125290 0.617835
O O8 0.630315 0.244879 0.436191
O O9 0.112816 0.500000 0.834110
O O10 0.000000 0.388870 0.851208
O O11 0.153526 0.348482 0.874753
O O12 0.879553 0.500000 0.209324
O O13 0.869793 0.340620 0.132306
O O14 0.000000 0.399861 0.231400
O O15 0.605762 0.605762 0.500000
O O16 0.500000 0.676919 0.344919
O O17 0.764024 0.235977 0.000000
#
# Coordination Sequence:
#
# PCOD8309301 Si02
#       6
#     8   8   8   8   8   8
#     4  11  22  34  47  63  88 128 178 228 267 295
#     4   9  18  32  49  72  98 122 156 206 264 315
#     4  10  19  33  54  77 101 130 167 212 260 315
#     4  10  19  33  55  79 101 128 166 212 259 312
#     4  11  22  34  48  66  93 133 177 219 258 297
#     4  11  22  34  48  70 100 134 168 207 260 312
#
# _framework density 17.521166999999998
#
# number of rings (size 3 to 8) (size 9 to 14) (size 15 to 20)
#    0.000    1.667    0.000    6.500    0.000    8.000 
#    0.000    0.000    0.000    0.000    0.000    0.000 
#    0.000    5.333    0.000    0.000    0.000   35.000 
#
# Total GULP energy -594874.979447 kJ/mol
# GULP energy per Si atom -12393.228738 kJ/mol
# Density = 1.748129 g / cm^3
# Si number density = 17.521167 Si / 1000 Ang^3
#
#
#
# Elastic Constant Matrix: (Units=GPa)
#
#
# Indices 1 2 3 4 5 6 
#
# 1 68.9386 33.6107 32.7624 0.0000 0.0000 0.0000
# 2 33.6107 68.9398 32.7623 0.0000 0.0000 0.0000
# 3 32.7624 32.7623 114.3241 0.0000 0.0000 0.0000
# 4 0.0000 0.0000 0.0000 26.3067 0.0000 0.0000
# 5 0.0000 0.0000 0.0000 0.0000 26.3069 0.0000
# 6 0.0000 0.0000 0.0000 0.0000 0.0000 23.0815
#
#
#
# Elastic Compliance Matrix: (Units=1/GPa)
#
#
# Indices 1 2 3 4 5 6 
#
# 1 0.020122 -0.008184 -0.003421 0.000000 0.000000 0.000000
# 2 -0.008184 0.020121 -0.003421 0.000000 0.000000 0.000000
# 3 -0.003421 -0.003421 0.010708 0.000000 0.000000 0.000000
# 4 0.000000 0.000000 0.000000 0.038013 0.000000 0.000000
# 5 0.000000 0.000000 0.000000 0.000000 0.038013 0.000000
# 6 0.000000 0.000000 0.000000 0.000000 0.000000 0.043325
#
#
# Mechanical properties :
#
#
# Convention : Reuss Voigt Hill
#
# Bulk Modulus (GPa) = 47.85033 50.05258 48.95146
# Shear Modulus (GPa) = 24.11736 25.34350 24.73043
#
# Velocity S-wave (km/s) = 3.71411 3.80735 3.76102
# Velocity P-wave (km/s) = 6.76477 6.92509 6.84540
#
# Compressibility (1/GPa) = 0.02089850
#
# Stress axis : x y z
#
# Youngs Moduli (GPa) = 49.69769 49.69874 93.39046
#
# Poissons Ratio (x) = 0.40675 0.31948
# Poissons Ratio (y) = 0.40674 0.31947
# Poissons Ratio (z) = 0.17001 0.17001
#
# Static dielectric constant tensor:
#      x y z
#    x 3.224050 0.000000 0.000000 
#    y 0.000000 3.224050 0.000000 
#    z 0.000000 0.000000 3.565980 
# 
# 
# High freq. dielectric constant tensor:
#      x y z
#    x 1.645990 0.000000 0.000000 
#    y 0.000000 1.645990 0.000000 
#    z 0.000000 0.000000 1.702870 
# 
# From -- ./inp_files/1838.got.cif
#   From: 2010.03.12/outbox.cif.g09.slc.cpg/sg115_1_cif.got.tgz:1838.got - 2010.04.14 02:11:21.
