data_PCOD8309284
_publ_section_title
;
Structure prediction by ZEFSAII (Michael W. Deem and Ramdas Pophale) SiO2 
 PCOD8309284
Probable space group: P -4 M 2
;
_chemical_formula_sum "Si O2"
_cell_formula_units_Z 32
_cell_length_a 7.864534
_cell_length_b 7.864534
_cell_length_c 24.246399
_cell_angle_alpha 90.000000
_cell_angle_beta 90.000000
_cell_angle_gamma 90.000000
_cell_volume 1499.661480
_symmetry_space_group_name_H-M "P -4 M 2"
_symmetry_group_IT_number 115
_symmetry_cell_setting 'tetragonal'
loop_
_space_group_symop_operation_xyz
x,y,z
y,-x,-z
-x,-y,z
-y,x,-z
y,x,-z
-y,-x,-z
-x,y,z
x,-y,z
loop_
_atom_site_type_symbol
_atom_site_label
_atom_site_fract_x
_atom_site_fract_y
_atom_site_fract_z
Si Si1 0.685669 0.798027 0.325519
Si Si2 0.202855 0.809758 0.559242
Si Si3 0.201988 0.000000 0.868724
Si Si4 0.203424 0.000000 0.744914
Si Si5 0.309705 0.802568 0.057410
O O1 0.500000 0.740826 0.303343
O O2 0.702889 0.730287 0.388430
O O3 0.832477 0.724324 0.285920
O O4 0.701768 0.000000 0.326063
O O5 0.266427 0.733574 0.500000
O O6 0.000000 0.811626 0.557002
O O7 0.272307 0.000000 0.567827
O O8 0.276354 0.000000 0.806953
O O9 0.268161 0.170181 0.899500
O O10 0.000000 0.000000 0.866258
O O11 0.000000 0.000000 0.744859
O O12 0.500000 0.774445 0.081619
O O13 0.273908 0.000000 0.045294
O O14 0.296428 0.703573 0.000000
#
# Coordination Sequence:
#
# PCOD8309284 Si02
#       5
#     8   8   4   4   8
#     4   9  15  22  34  53  84 125 169 219 268 319
#     4   8  12  19  32  49  72 108 156 205 259 323
#     4   9  18  30  47  69 101 142 183 230 272 322
#     4   9  16  26  38  57  91 135 176 214 265 319
#     4  10  19  32  53  77 104 142 184 226 279 334
#
# _framework density 21.338149000000001
#
# number of rings (size 3 to 8) (size 9 to 14) (size 15 to 20)
#    0.000    3.000    2.500    0.750    0.000    1.250 
#    0.000    5.000    0.000    0.000    0.000    0.000 
#    0.000    4.500    0.000    1.250    0.000    0.500 
#
# Total GULP energy -396522.283415 kJ/mol
# GULP energy per Si atom -12391.321357 kJ/mol
# Density = 2.128958 g / cm^3
# Si number density = 21.338149 Si / 1000 Ang^3
#
#
#
# Elastic Constant Matrix: (Units=GPa)
#
#
# Indices 1 2 3 4 5 6 
#
# 1 90.4215 18.7477 52.3693 0.0000 0.0000 0.0000
# 2 18.7477 90.4221 52.3700 0.0000 0.0000 0.0000
# 3 52.3693 52.3700 186.6814 0.0000 0.0000 0.0000
# 4 0.0000 0.0000 0.0000 4.1471 0.0000 0.0000
# 5 0.0000 0.0000 0.0000 0.0000 4.1469 0.0000
# 6 0.0000 0.0000 0.0000 0.0000 0.0000 3.3185
#
#
#
# Elastic Compliance Matrix: (Units=1/GPa)
#
#
# Indices 1 2 3 4 5 6 
#
# 1 0.013243 -0.000709 -0.003516 0.000000 0.000000 0.000000
# 2 -0.000709 0.013243 -0.003516 0.000000 0.000000 0.000000
# 3 -0.003516 -0.003516 0.007329 0.000000 0.000000 0.000000
# 4 0.000000 0.000000 0.000000 0.241135 0.000000 0.000000
# 5 0.000000 0.000000 0.000000 0.000000 0.241143 0.000000
# 6 0.000000 0.000000 0.000000 0.000000 0.000000 0.301337
#
#
# Mechanical properties :
#
#
# Convention : Reuss Voigt Hill
#
# Bulk Modulus (GPa) = 54.54879 68.27766 61.41322
# Shear Modulus (GPa) = 5.95931 18.59171 12.27551
#
# Velocity S-wave (km/s) = 1.67298 2.95496 2.40111
# Velocity P-wave (km/s) = 5.41768 6.61134 6.04405
#
# Compressibility (1/GPa) = 0.01833221
#
# Stress axis : x y z
#
# Youngs Moduli (GPa) = 75.51318 75.51338 136.43697
#
# Poissons Ratio (x) = 0.05356 0.47971
# Poissons Ratio (y) = 0.05356 0.47971
# Poissons Ratio (z) = 0.26550 0.26551
#
# Static dielectric constant tensor:
#      x y z
#    x 3.503080 0.000000 0.000000 
#    y 0.000000 3.503080 0.000000 
#    z 0.000000 0.000000 4.062680 
# 
# 
# High freq. dielectric constant tensor:
#      x y z
#    x 1.800230 0.000000 0.000000 
#    y 0.000000 1.800230 0.000000 
#    z 0.000000 0.000000 1.832970 
# 
# From -- ./inp_files/5027.got.cif
#   From: 2010.03.12/outbox.cif.g09.slc.cpg/sg115_3_cif.got.tgz:5027.got - 2010.04.14 02:11:21.
