data_PCOD8309095
_publ_section_title
;
Structure prediction by ZEFSAII (Michael W. Deem and Ramdas Pophale) SiO2 
 PCOD8309095
Probable space group: P -4 21 C
;
_chemical_formula_sum "Si O2"
_cell_formula_units_Z 34
_cell_length_a 8.435009
_cell_length_b 8.435009
_cell_length_c 20.741319
_cell_angle_alpha 90.000000
_cell_angle_beta 90.000000
_cell_angle_gamma 90.000000
_cell_volume 1475.731921
_symmetry_space_group_name_H-M "P -4 21 C"
_symmetry_group_IT_number 114
_symmetry_cell_setting 'tetragonal'
loop_
_space_group_symop_operation_xyz
x,y,z
y,-x,-z
-x,-y,z
-y,x,-z
1/2+x,1/2-y,1/2-z
1/2-x,1/2+y,1/2-z
1/2-y,1/2-x,1/2+z
1/2+y,1/2+x,1/2+z
loop_
_atom_site_type_symbol
_atom_site_label
_atom_site_fract_x
_atom_site_fract_y
_atom_site_fract_z
Si Si1 0.500000 0.500000 0.500000
Si Si2 0.883961 0.225347 0.809810
Si Si3 0.741947 0.788588 0.056864
Si Si4 0.761255 0.881565 0.810895
Si Si5 0.831483 0.442276 0.071776
O O1 0.420211 0.639011 0.456161
O O2 0.866369 0.321239 0.877098
O O3 0.839226 0.340559 0.752030
O O4 0.063592 0.179371 0.799433
O O5 0.767060 0.072599 0.816728
O O6 0.724529 0.599107 0.065754
O O7 0.632560 0.840044 0.998510
O O8 0.684859 0.787112 0.872464
O O9 0.000000 0.500000 0.095388
#
# Coordination Sequence:
#
# PCOD8309095 Si02
#       5
#     2   8   8   8   8
#     4  12  20  40  72 100 132 184 244 282 352 424
#     4  11  24  44  70 104 140 184 240 284 347 419
#     4  12  24  43  69 101 136 182 235 295 349 426
#     4  11  25  44  71 102 142 187 232 290 347 420
#     4  12  25  43  71 100 136 182 234 292 358 416
#
# _framework density 23.039413
#
# number of rings (size 3 to 8) (size 9 to 14) (size 15 to 20)
#    0.000    0.471    4.706    4.235    0.000    2.353 
#    0.000    0.000    0.000    0.000    0.000    0.000 
#    0.000    0.000    0.000    0.000    0.000    0.000 
#
# Total GULP energy -421505.363088 kJ/mol
# GULP energy per Si atom -12397.216561 kJ/mol
# Density = 2.298697 g / cm^3
# Si number density = 23.039413 Si / 1000 Ang^3
#
#
#
# Elastic Constant Matrix: (Units=GPa)
#
#
# Indices 1 2 3 4 5 6 
#
# 1 66.4839 20.2642 25.4037 0.0000 0.0000 0.0000
# 2 20.2642 66.4839 25.4037 0.0000 0.0000 0.0000
# 3 25.4037 25.4037 182.0964 0.0000 0.0000 0.0000
# 4 0.0000 0.0000 0.0000 24.8238 0.0000 0.0000
# 5 0.0000 0.0000 0.0000 0.0000 24.8238 0.0000
# 6 0.0000 0.0000 0.0000 0.0000 0.0000 21.6392
#
#
#
# Elastic Compliance Matrix: (Units=1/GPa)
#
#
# Indices 1 2 3 4 5 6 
#
# 1 0.017095 -0.004541 -0.001751 0.000000 0.000000 0.000000
# 2 -0.004541 0.017095 -0.001751 0.000000 0.000000 0.000000
# 3 -0.001751 -0.001751 0.005980 0.000000 0.000000 0.000000
# 4 0.000000 0.000000 0.000000 0.040284 0.000000 0.000000
# 5 0.000000 0.000000 0.000000 0.000000 0.040284 0.000000
# 6 0.000000 0.000000 0.000000 0.000000 0.000000 0.046212
#
#
# Mechanical properties :
#
#
# Convention : Reuss Voigt Hill
#
# Bulk Modulus (GPa) = 41.52519 50.80085 46.16302
# Shear Modulus (GPa) = 26.16920 30.52355 28.34637
#
# Velocity S-wave (km/s) = 3.37389 3.64378 3.51143
# Velocity P-wave (km/s) = 5.76543 6.30875 6.04320
#
# Compressibility (1/GPa) = 0.02408177
#
# Stress axis : x y z
#
# Youngs Moduli (GPa) = 58.49815 58.49815 167.21776
#
# Poissons Ratio (x) = 0.26565 0.29284
# Poissons Ratio (y) = 0.26565 0.29284
# Poissons Ratio (z) = 0.10245 0.10245
#
# Static dielectric constant tensor:
#      x y z
#    x 4.238530 0.000000 0.000000 
#    y 0.000000 4.238530 0.000000 
#    z 0.000000 0.000000 4.227150 
# 
# 
# High freq. dielectric constant tensor:
#      x y z
#    x 1.899470 0.000000 0.000000 
#    y 0.000000 1.899470 0.000000 
#    z 0.000000 0.000000 1.931010 
# 
# From -- ./inp_files/2969.got.cif
#   From: 2010.03.12/outbox.cif.g09.slc.cpg/sg114_2_cif.got.tgz:2969.got - 2010.04.14 02:08:34.
