data_PCOD8309021
_publ_section_title
;
Structure prediction by ZEFSAII (Michael W. Deem and Ramdas Pophale) SiO2 
 PCOD8309021
Probable space group: P -4 21 C
;
_chemical_formula_sum "Si O2"
_cell_formula_units_Z 26
_cell_length_a 11.862504
_cell_length_b 11.862504
_cell_length_c 8.505175
_cell_angle_alpha 90.000000
_cell_angle_beta 90.000000
_cell_angle_gamma 90.000000
_cell_volume 1196.839731
_symmetry_space_group_name_H-M "P -4 21 C"
_symmetry_group_IT_number 114
_symmetry_cell_setting 'tetragonal'
loop_
_space_group_symop_operation_xyz
x,y,z
y,-x,-z
-x,-y,z
-y,x,-z
1/2+x,1/2-y,1/2-z
1/2-x,1/2+y,1/2-z
1/2-y,1/2-x,1/2+z
1/2+y,1/2+x,1/2+z
loop_
_atom_site_type_symbol
_atom_site_label
_atom_site_fract_x
_atom_site_fract_y
_atom_site_fract_z
Si Si1 0.630313 0.992585 0.221991
Si Si2 0.144248 0.185616 0.666206
Si Si3 0.849711 0.297325 0.051318
Si Si4 0.500000 0.500000 0.000000
O O1 0.636319 0.920509 0.378864
O O2 0.500000 0.000000 0.166749
O O3 0.690535 0.108028 0.272415
O O4 0.710927 0.941769 0.086370
O O5 0.206674 0.124901 0.812322
O O6 0.225212 0.213055 0.520529
O O7 0.044108 0.102890 0.609055
#
# Coordination Sequence:
#
# PCOD8309021 Si02
#       4
#     8   8   8   2
#     4  11  24  43  70 101 136 183 235 286 343 414
#     4  11  25  45  71  98 146 180 231 291 350 416
#     4  10  25  43  66 104 133 181 237 278 357 412
#     4  12  24  48  74 104 144 180 226 300 352 416
#
# _framework density 21.723876000000001
#
# number of rings (size 3 to 8) (size 9 to 14) (size 15 to 20)
#    0.000    1.231    3.077    0.923    8.615    2.462 
#    0.000    0.000    0.000    0.000    0.000    0.000 
#    0.000    0.000    0.000    0.000    0.000    0.000 
#
# Total GULP energy -322325.338716 kJ/mol
# GULP energy per Si atom -12397.128412 kJ/mol
# Density = 2.167443 g / cm^3
# Si number density = 21.723876 Si / 1000 Ang^3
#
#
#
# Elastic Constant Matrix: (Units=GPa)
#
#
# Indices 1 2 3 4 5 6 
#
# 1 83.6236 42.7108 28.6477 0.0000 0.0000 0.0000
# 2 42.7108 83.6236 28.6477 0.0000 0.0000 0.0000
# 3 28.6477 28.6477 94.4894 0.0000 0.0000 0.0000
# 4 0.0000 0.0000 0.0000 23.4802 0.0000 0.0000
# 5 0.0000 0.0000 0.0000 0.0000 23.4802 0.0000
# 6 0.0000 0.0000 0.0000 0.0000 0.0000 34.0725
#
#
#
# Elastic Compliance Matrix: (Units=1/GPa)
#
#
# Indices 1 2 3 4 5 6 
#
# 1 0.016810 -0.007632 -0.002782 0.000000 0.000000 0.000000
# 2 -0.007632 0.016810 -0.002782 0.000000 0.000000 0.000000
# 3 -0.002782 -0.002782 0.012270 0.000000 0.000000 0.000000
# 4 0.000000 0.000000 0.000000 0.042589 0.000000 0.000000
# 5 0.000000 0.000000 0.000000 0.000000 0.042589 0.000000
# 6 0.000000 0.000000 0.000000 0.000000 0.000000 0.029349
#
#
# Mechanical properties :
#
#
# Convention : Reuss Voigt Hill
#
# Bulk Modulus (GPa) = 51.29415 51.30547 51.29981
# Shear Modulus (GPa) = 25.86513 26.98860 26.42687
#
# Velocity S-wave (km/s) = 3.45430 3.52852 3.49160
# Velocity P-wave (km/s) = 6.29068 6.34578 6.31829
#
# Compressibility (1/GPa) = 0.01949540
#
# Stress axis : x y z
#
# Youngs Moduli (GPa) = 59.48901 59.48901 81.49697
#
# Poissons Ratio (x) = 0.45405 0.22676
# Poissons Ratio (y) = 0.45405 0.22676
# Poissons Ratio (z) = 0.16553 0.16553
#
# Static dielectric constant tensor:
#      x y z
#    x 3.846390 0.000000 0.000000 
#    y 0.000000 3.846390 0.000000 
#    z 0.000000 0.000000 4.008790 
# 
# 
# High freq. dielectric constant tensor:
#      x y z
#    x 1.845180 0.000000 0.000000 
#    y 0.000000 1.845180 0.000000 
#    z 0.000000 0.000000 1.875640 
# 
# From -- ./inp_files/478.got.cif
#   From: 2010.03.12/outbox.cif.g09.slc.cpg/sg114_1_cif.got.tgz:478.got - 2010.04.14 02:08:34.
