data_PCOD8309153
_publ_section_title
;
Structure prediction by ZEFSAII (Michael W. Deem and Ramdas Pophale) SiO2 
 PCOD8309153
Probable space group: P -4 M 2
;
_chemical_formula_sum "Si O2"
_cell_formula_units_Z 64
_cell_length_a 27.004115
_cell_length_b 27.004115
_cell_length_c 5.299496
_cell_angle_alpha 90.000000
_cell_angle_beta 90.000000
_cell_angle_gamma 90.000000
_cell_volume 3864.510275
_symmetry_space_group_name_H-M "P -4 M 2"
_symmetry_group_IT_number 115
_symmetry_cell_setting 'tetragonal'
loop_
_space_group_symop_operation_xyz
x,y,z
y,-x,-z
-x,-y,z
-y,x,-z
y,x,-z
-y,-x,-z
-x,y,z
x,-y,z
loop_
_atom_site_type_symbol
_atom_site_label
_atom_site_fract_x
_atom_site_fract_y
_atom_site_fract_z
Si Si1 0.377220 0.894325 0.987613
Si Si2 0.350894 0.784107 0.984676
Si Si3 0.270476 0.057297 0.994924
Si Si4 0.399687 0.681682 0.998935
Si Si5 0.057445 0.380166 0.512369
Si Si6 0.792460 0.711775 0.513278
Si Si7 0.907519 0.268456 0.504898
Si Si8 0.557174 0.361847 0.498844
O O1 0.381683 0.835105 0.988595
O O2 0.319505 0.908917 0.985072
O O3 0.403181 0.916715 0.237832
O O4 0.403160 0.916501 0.736781
O O5 0.314117 0.781391 0.221521
O O6 0.389962 0.740026 0.007032
O O7 0.322629 0.777464 0.720341
O O8 0.239590 0.074529 0.242386
O O9 0.284859 0.000000 0.003341
O O10 0.239709 0.071720 0.742526
O O11 0.429941 0.670132 0.745506
O O12 0.347696 0.652305 0.000000
O O13 0.431337 0.668714 0.245925
O O14 0.064206 0.321118 0.515119
O O15 0.000000 0.394305 0.511167
O O16 0.762195 0.762195 0.500000
O O17 0.849361 0.725941 0.492303
O O18 0.586895 0.413106 0.500000
O O19 0.500000 0.376223 0.503960
#
# Coordination Sequence:
#
# PCOD8309153 Si02
#       8
#     8   8   8   8   8   8   8   8
#     4  10  16  26  38  56  80 109 149 193 225 284
#     4  12  20  34  45  63  93 125 164 201 228 263
#     4  10  16  25  40  54  74 104 143 194 248 285
#     4  10  21  35  53  78 104 135 168 193 226 277
#     4  10  16  25  39  54  76 106 146 195 248 288
#     4  12  21  30  42  56  81 121 161 204 238 261
#     4  10  16  27  34  53  74  96 143 195 228 288
#     4  10  21  39  61  85 110 131 159 197 235 281
#
# _framework density 16.560959
#
# number of rings (size 3 to 8) (size 9 to 14) (size 15 to 20)
#    0.000    1.500    5.000    6.000    0.000    1.125 
#    0.000    0.000    0.000    2.250    0.000    0.000 
#    0.000    0.000    0.000    0.000    0.000   72.500 
#
# Total GULP energy -793311.446646 kJ/mol
# GULP energy per Si atom -12395.491354 kJ/mol
# Density = 1.652327 g / cm^3
# Si number density = 16.560959 Si / 1000 Ang^3
#
#
#
# Elastic Constant Matrix: (Units=GPa)
#
#
# Indices 1 2 3 4 5 6 
#
# 1 81.8707 34.5436 27.9100 0.0000 0.0000 0.0000
# 2 34.5436 81.8721 27.9100 0.0000 0.0000 0.0000
# 3 27.9100 27.9100 157.3916 0.0000 0.0000 0.0000
# 4 0.0000 0.0000 0.0000 12.2369 0.0000 0.0000
# 5 0.0000 0.0000 0.0000 0.0000 12.2348 0.0000
# 6 0.0000 0.0000 0.0000 0.0000 0.0000 4.8134
#
#
#
# Elastic Compliance Matrix: (Units=1/GPa)
#
#
# Indices 1 2 3 4 5 6 
#
# 1 0.015259 -0.005871 -0.001665 0.000000 0.000000 0.000000
# 2 -0.005871 0.015259 -0.001665 0.000000 0.000000 0.000000
# 3 -0.001665 -0.001665 0.006944 0.000000 0.000000 0.000000
# 4 0.000000 0.000000 0.000000 0.081720 0.000000 0.000000
# 5 0.000000 0.000000 0.000000 0.000000 0.081734 0.000000
# 6 0.000000 0.000000 0.000000 0.000000 0.000000 0.207752
#
#
# Mechanical properties :
#
#
# Convention : Reuss Voigt Hill
#
# Bulk Modulus (GPa) = 52.46247 55.76241 54.11244
# Shear Modulus (GPa) = 11.53610 21.24174 16.38892
#
# Velocity S-wave (km/s) = 2.64215 3.58528 3.14922
# Velocity P-wave (km/s) = 6.40743 7.13324 6.78005
#
# Compressibility (1/GPa) = 0.01906125
#
# Stress axis : x y z
#
# Youngs Moduli (GPa) = 65.53574 65.53693 144.00905
#
# Poissons Ratio (x) = 0.38473 0.23975
# Poissons Ratio (y) = 0.38473 0.23974
# Poissons Ratio (z) = 0.10910 0.10910
#
# Static dielectric constant tensor:
#      x y z
#    x 2.795700 0.000000 0.000000 
#    y 0.000000 2.795710 0.000000 
#    z 0.000000 0.000000 5.431810 
# 
# 
# High freq. dielectric constant tensor:
#      x y z
#    x 1.594260 0.000000 0.000000 
#    y 0.000000 1.594260 0.000000 
#    z 0.000000 0.000000 1.683860 
# 
# From -- ./inp_files/817.got.cif
#   From: 2010.03.12/outbox.cif.g09.slc.cpg/sg115_1_cif.got.tgz:817.got - 2010.04.14 02:11:21.
