data_PCOD8309269
_publ_section_title
;
Structure prediction by ZEFSAII (Michael W. Deem and Ramdas Pophale) SiO2 
 PCOD8309269
Probable space group: P -4 M 2
;
_chemical_formula_sum "Si O2"
_cell_formula_units_Z 64
_cell_length_a 14.236816
_cell_length_b 14.236816
_cell_length_c 17.648769
_cell_angle_alpha 90.000000
_cell_angle_beta 90.000000
_cell_angle_gamma 90.000000
_cell_volume 3577.174804
_symmetry_space_group_name_H-M "P -4 M 2"
_symmetry_group_IT_number 115
_symmetry_cell_setting 'tetragonal'
loop_
_space_group_symop_operation_xyz
x,y,z
y,-x,-z
-x,-y,z
-y,x,-z
y,x,-z
-y,-x,-z
-x,y,z
x,-y,z
loop_
_atom_site_type_symbol
_atom_site_label
_atom_site_fract_x
_atom_site_fract_y
_atom_site_fract_z
Si Si1 0.334864 0.777932 0.949648
Si Si2 0.736969 0.890250 0.510326
Si Si3 0.605776 0.897829 0.081641
Si Si4 0.395669 0.888646 0.643489
Si Si5 0.214513 0.389915 0.778103
Si Si6 0.107771 0.608441 0.633397
Si Si7 0.604905 0.606816 0.860146
Si Si8 0.890904 0.609303 0.185969
O O1 0.378939 0.675660 0.931294
O O2 0.322342 0.832939 0.870193
O O3 0.239774 0.760227 0.000000
O O4 0.399471 0.841856 0.002789
O O5 0.833058 0.833058 0.500000
O O6 0.682143 0.851941 0.584580
O O7 0.668107 0.871497 0.440721
O O8 0.763484 0.000000 0.517570
O O9 0.500000 0.914972 0.107410
O O10 0.655782 0.838314 0.148741
O O11 0.655596 0.000000 0.071828
O O12 0.500000 0.847804 0.625118
O O13 0.365337 0.859962 0.728582
O O14 0.402320 0.000000 0.637500
O O15 0.194559 0.500000 0.775012
O O16 0.174071 0.348658 0.699752
O O17 0.325235 0.368978 0.790138
O O18 0.131050 0.500000 0.614622
O O19 0.000000 0.618875 0.659941
O O20 0.500000 0.618903 0.828000
O O21 0.623283 0.500000 0.888884
O O22 0.867345 0.500000 0.168675
O O23 0.000000 0.629293 0.173373
#
# Coordination Sequence:
#
# PCOD8309269 Si02
#       8
#     8   8   8   8   8   8   8   8
#     4  12  22  32  44  67  98 130 171 205 248 297
#     4  10  20  33  50  77 108 138 169 201 247 306
#     4  10  19  32  49  67  91 124 163 212 265 307
#     4   8  15  31  55  80 103 126 160 211 267 314
#     4   9  17  31  48  71  98 130 169 206 250 299
#     4   9  17  31  54  79 101 126 160 211 266 307
#     4  10  21  34  46  63  97 144 181 206 236 289
#     4   9  18  33  54  77  99 127 164 211 266 313
#
# _framework density 17.891214000000002
#
# number of rings (size 3 to 8) (size 9 to 14) (size 15 to 20)
#    0.000    2.375    1.250    3.000    0.000    6.125 
#    0.000    0.625    0.000    0.750    0.000    0.000 
#    0.000    6.250    0.000    0.500    0.000    0.125 
#
# Total GULP energy -793033.543761 kJ/mol
# GULP energy per Si atom -12391.149121 kJ/mol
# Density = 1.785049 g / cm^3
# Si number density = 17.891214 Si / 1000 Ang^3
#
#
#
# Elastic Constant Matrix: (Units=GPa)
#
#
# Indices 1 2 3 4 5 6 
#
# 1 87.0651 34.8300 55.6257 0.0000 0.0000 0.0000
# 2 34.8300 87.0647 55.6256 0.0000 0.0000 0.0000
# 3 55.6257 55.6256 141.7206 0.0000 0.0000 0.0000
# 4 0.0000 0.0000 0.0000 24.7476 0.0000 0.0000
# 5 0.0000 0.0000 0.0000 0.0000 24.7477 0.0000
# 6 0.0000 0.0000 0.0000 0.0000 0.0000 17.0123
#
#
#
# Elastic Compliance Matrix: (Units=1/GPa)
#
#
# Indices 1 2 3 4 5 6 
#
# 1 0.015964 -0.003181 -0.005017 0.000000 0.000000 0.000000
# 2 -0.003181 0.015964 -0.005017 0.000000 0.000000 0.000000
# 3 -0.005017 -0.005017 0.010995 0.000000 0.000000 0.000000
# 4 0.000000 0.000000 0.000000 0.040408 0.000000 0.000000
# 5 0.000000 0.000000 0.000000 0.000000 0.040408 0.000000
# 6 0.000000 0.000000 0.000000 0.000000 0.000000 0.058781
#
#
# Mechanical properties :
#
#
# Convention : Reuss Voigt Hill
#
# Bulk Modulus (GPa) = 60.63766 67.55700 64.09733
# Shear Modulus (GPa) = 23.31580 24.61946 23.96763
#
# Velocity S-wave (km/s) = 3.61390 3.71356 3.66407
# Velocity P-wave (km/s) = 7.16796 7.49861 7.33515
#
# Compressibility (1/GPa) = 0.01649140
#
# Stress axis : x y z
#
# Youngs Moduli (GPa) = 62.64239 62.64209 90.95218
#
# Poissons Ratio (x) = 0.19924 0.45634
# Poissons Ratio (y) = 0.19924 0.45634
# Poissons Ratio (z) = 0.31430 0.31430
#
# Static dielectric constant tensor:
#      x y z
#    x 3.219250 0.000000 0.000000 
#    y 0.000000 3.219260 0.000000 
#    z 0.000000 0.000000 3.469610 
# 
# 
# High freq. dielectric constant tensor:
#      x y z
#    x 1.666500 0.000000 0.000000 
#    y 0.000000 1.666500 0.000000 
#    z 0.000000 0.000000 1.698740 
# 
# From -- ./inp_files/4462.got.cif
#   From: 2010.03.12/outbox.cif.g09.slc.cpg/sg115_3_cif.got.tgz:4462.got - 2010.04.14 02:11:21.
