data_PCOD8309567
_publ_section_title
;
Structure prediction by ZEFSAII (Michael W. Deem and Ramdas Pophale) SiO2 
 PCOD8309567
Probable space group: P -4 M 2
;
_chemical_formula_sum "Si O2"
_cell_formula_units_Z 44
_cell_length_a 9.155797
_cell_length_b 9.155797
_cell_length_c 28.663550
_cell_angle_alpha 90.000000
_cell_angle_beta 90.000000
_cell_angle_gamma 90.000000
_cell_volume 2402.825804
_symmetry_space_group_name_H-M "P -4 M 2"
_symmetry_group_IT_number 115
_symmetry_cell_setting 'tetragonal'
loop_
_space_group_symop_operation_xyz
x,y,z
y,-x,-z
-x,-y,z
-y,x,-z
y,x,-z
-y,-x,-z
-x,y,z
x,-y,z
loop_
_atom_site_type_symbol
_atom_site_label
_atom_site_fract_x
_atom_site_fract_y
_atom_site_fract_z
Si Si1 0.330530 0.828209 0.958565
Si Si2 0.667776 0.326088 0.600580
Si Si3 0.830994 0.170411 0.317336
Si Si4 0.670418 0.830663 0.775588
Si Si5 0.335433 0.326486 0.133664
Si Si6 0.669580 0.330421 0.500000
O O1 0.500000 0.789661 0.967763
O O2 0.272325 0.754439 0.911138
O O3 0.306339 0.000000 0.954097
O O4 0.233880 0.766121 0.000000
O O5 0.500000 0.275635 0.608092
O O6 0.676880 0.500000 0.603185
O O7 0.770124 0.258371 0.639305
O O8 0.730951 0.270728 0.549691
O O9 0.774465 0.246492 0.270204
O O10 0.000000 0.207539 0.325581
O O11 0.801919 0.000000 0.312350
O O12 0.500000 0.801026 0.767642
O O13 0.733012 0.740834 0.819506
O O14 0.702233 0.000000 0.785521
O O15 0.500000 0.264996 0.130777
O O16 0.334319 0.500000 0.134996
O O17 0.500000 0.298294 0.502655
#
# Coordination Sequence:
#
# PCOD8309567 Si02
#       6
#     8   8   8   8   8   4
#     4  10  20  34  53  77 105 137 172 208 247 293
#     4   9  17  31  53  77  98 124 162 207 252 298
#     4  10  21  35  49  69 101 138 171 203 244 295
#     4   9  17  31  51  72  95 127 168 210 250 295
#     4   9  17  30  51  78 103 127 161 208 257 300
#     4   7  12  26  48  73  98 122 154 201 252 297
#
# _framework density 18.311774
#
# number of rings (size 3 to 8) (size 9 to 14) (size 15 to 20)
#    0.000    2.818    0.000    2.727    0.000    5.455 
#    0.000    3.636    0.000    7.636    0.000    0.000 
#    0.000    0.000    0.000    0.000    0.000    0.000 
#
# Total GULP energy -545398.840809 kJ/mol
# GULP energy per Si atom -12395.428200 kJ/mol
# Density = 1.827010 g / cm^3
# Si number density = 18.311774 Si / 1000 Ang^3
#
#
#
# Elastic Constant Matrix: (Units=GPa)
#
#
# Indices 1 2 3 4 5 6 
#
# 1 59.8057 29.6582 58.3734 0.0000 0.0000 0.0000
# 2 29.6582 59.8049 58.3719 0.0000 0.0000 0.0000
# 3 58.3734 58.3719 191.9542 0.0000 0.0000 0.0000
# 4 0.0000 0.0000 0.0000 -1.7772 0.0000 0.0000
# 5 0.0000 0.0000 0.0000 0.0000 -1.7758 0.0000
# 6 0.0000 0.0000 0.0000 0.0000 0.0000 21.3213
#
#
#
# Elastic Compliance Matrix: (Units=1/GPa)
#
#
# Indices 1 2 3 4 5 6 
#
# 1 0.025851 -0.007320 -0.005636 0.000000 0.000000 0.000000
# 2 -0.007320 0.025851 -0.005635 0.000000 0.000000 0.000000
# 3 -0.005636 -0.005635 0.008637 0.000000 0.000000 0.000000
# 4 0.000000 0.000000 0.000000 -0.562671 0.000000 0.000000
# 5 0.000000 0.000000 0.000000 0.000000 -0.563118 0.000000
# 6 0.000000 0.000000 0.000000 0.000000 0.000000 0.046901
#
#
# Mechanical properties :
#
#
# Convention : Reuss Voigt Hill
#
# Bulk Modulus (GPa) = 43.18038 67.15245 55.16642
# Shear Modulus (GPa) = -5.13533 14.56440 4.71454
#
# Velocity S-wave (km/s) = -1.67645 2.82327 1.60629
# Velocity P-wave (km/s) = 4.45921 6.88325 5.79930
#
# Compressibility (1/GPa) = 0.02315867
#
# Stress axis : x y z
#
# Youngs Moduli (GPa) = 38.68289 38.68299 115.78084
#
# Poissons Ratio (x) = 0.28314 0.65249
# Poissons Ratio (y) = 0.28314 0.65246
# Poissons Ratio (z) = 0.21800 0.21799
#
# Static dielectric constant tensor:
#      x y z
#    x 3.166400 0.000000 0.000000 
#    y 0.000000 3.166400 0.000000 
#    z 0.000000 0.000000 3.741690 
# 
# 
# High freq. dielectric constant tensor:
#      x y z
#    x 1.685060 0.000000 0.000000 
#    y 0.000000 1.685060 0.000000 
#    z 0.000000 0.000000 1.733390 
# 
# From -- ./inp_files/5781.got.cif
#   From: 2010.03.12/outbox.cif.g09.slc.cpg/sg115_3_cif.got.tgz:5781.got - 2010.04.14 02:11:21.
