data_PCOD8309802
_publ_section_title
;
Structure prediction by ZEFSAII (Michael W. Deem and Ramdas Pophale) SiO2 
 PCOD8309802
Probable space group: P -4 M 2
;
_chemical_formula_sum "Si O2"
_cell_formula_units_Z 48
_cell_length_a 9.516897
_cell_length_b 9.516897
_cell_length_c 30.488982
_cell_angle_alpha 90.000000
_cell_angle_beta 90.000000
_cell_angle_gamma 90.000000
_cell_volume 2761.427605
_symmetry_space_group_name_H-M "P -4 M 2"
_symmetry_group_IT_number 115
_symmetry_cell_setting 'tetragonal'
loop_
_space_group_symop_operation_xyz
x,y,z
y,-x,-z
-x,-y,z
-y,x,-z
y,x,-z
-y,-x,-z
-x,y,z
x,-y,z
loop_
_atom_site_type_symbol
_atom_site_label
_atom_site_fract_x
_atom_site_fract_y
_atom_site_fract_z
Si Si1 0.166987 0.655532 0.298034
Si Si2 0.664669 0.159264 0.033617
Si Si3 0.335966 0.839197 0.132937
Si Si4 0.839146 0.837141 0.378764
Si Si5 0.163061 0.665754 0.535401
Si Si6 0.333967 0.159675 0.798844
O O1 0.227173 0.500000 0.307708
O O2 0.221143 0.758254 0.336073
O O3 0.215742 0.707751 0.249863
O O4 0.000000 0.650136 0.297649
O O5 0.500000 0.177634 0.027044
O O6 0.706978 0.199601 0.083235
O O7 0.710380 0.000000 0.023748
O O8 0.739912 0.260089 0.000000
O O9 0.500000 0.814238 0.140022
O O10 0.254409 0.738735 0.165293
O O11 0.296161 0.000000 0.143013
O O12 0.737654 0.797872 0.418670
O O13 0.000000 0.792307 0.390049
O O14 0.832156 0.000000 0.367504
O O15 0.264117 0.735884 0.500000
O O16 0.193657 0.500000 0.538222
O O17 0.000000 0.694823 0.523313
O O18 0.500000 0.169975 0.804970
O O19 0.282577 0.000000 0.805229
#
# Coordination Sequence:
#
# PCOD8309802 Si02
#       6
#     8   8   8   8   8   8
#     4   8  15  29  48  70  97 127 159 197 240 285
#     4   9  19  35  52  71  97 127 160 200 244 291
#     4   9  19  35  51  69  97 131 164 199 242 291
#     4   9  17  30  50  74  97 124 161 202 241 284
#     4  10  21  36  53  74 101 132 165 202 245 292
#     4   9  18  32  50  74 102 130 163 203 243 285
#
# _framework density 17.382311999999999
#
# number of rings (size 3 to 8) (size 9 to 14) (size 15 to 20)
#    0.000    3.000    0.000    2.500    0.000    4.667 
#    0.000    9.167    0.000    3.000    0.000    0.000 
#    0.000    0.000    0.000    0.000    0.000    0.000 
#
# Total GULP energy -595060.282900 kJ/mol
# GULP energy per Si atom -12397.089227 kJ/mol
# Density = 1.734275 g / cm^3
# Si number density = 17.382312 Si / 1000 Ang^3
#
#
#
# Elastic Constant Matrix: (Units=GPa)
#
#
# Indices 1 2 3 4 5 6 
#
# 1 59.7423 37.7127 64.2341 0.0000 0.0000 0.0000
# 2 37.7127 59.7382 64.2328 0.0000 0.0000 0.0000
# 3 64.2341 64.2328 145.5459 0.0000 0.0000 0.0000
# 4 0.0000 0.0000 0.0000 80.9678 0.0000 0.0000
# 5 0.0000 0.0000 0.0000 0.0000 80.9655 0.0000
# 6 0.0000 0.0000 0.0000 0.0000 0.0000 27.7704
#
#
#
# Elastic Compliance Matrix: (Units=1/GPa)
#
#
# Indices 1 2 3 4 5 6 
#
# 1 0.034965 -0.010431 -0.010828 0.000000 0.000000 0.000000
# 2 -0.010431 0.034968 -0.010829 0.000000 0.000000 0.000000
# 3 -0.010828 -0.010829 0.016428 0.000000 0.000000 0.000000
# 4 0.000000 0.000000 0.000000 0.012351 0.000000 0.000000
# 5 0.000000 0.000000 0.000000 0.000000 0.012351 0.000000
# 6 0.000000 0.000000 0.000000 0.000000 0.000000 0.036010
#
#
# Mechanical properties :
#
#
# Convention : Reuss Voigt Hill
#
# Bulk Modulus (GPa) = 45.07226 66.37618 55.72422
# Shear Modulus (GPa) = 22.86828 44.53054 33.69941
#
# Velocity S-wave (km/s) = 3.63106 5.06694 4.40786
# Velocity P-wave (km/s) = 6.60044 8.51474 7.61796
#
# Compressibility (1/GPa) = 0.02218659
#
# Stress axis : x y z
#
# Youngs Moduli (GPa) = 28.59994 28.59737 60.87048
#
# Poissons Ratio (x) = 0.29830 0.65909
# Poissons Ratio (y) = 0.29833 0.65915
# Poissons Ratio (z) = 0.30967 0.30967
#
# Static dielectric constant tensor:
#      x y z
#    x 3.095560 0.000000 0.000000 
#    y 0.000000 3.095560 0.000000 
#    z 0.000000 0.000000 3.392950 
# 
# 
# High freq. dielectric constant tensor:
#      x y z
#    x 1.659450 0.000000 0.000000 
#    y 0.000000 1.659450 0.000000 
#    z 0.000000 0.000000 1.682240 
# 
# From -- ./inp_files/6016.got.cif
#   From: 2010.03.12/outbox.cif.g09.slc.cpg/sg115_4_cif.got.tgz:6016.got - 2010.04.14 02:11:21.
