data_PCOD8309079
_publ_section_title
;
Structure prediction by ZEFSAII (Michael W. Deem and Ramdas Pophale) SiO2 
 PCOD8309079
Probable space group: P -4 21 C
;
_chemical_formula_sum "Si O2"
_cell_formula_units_Z 48
_cell_length_a 9.292226
_cell_length_b 9.292226
_cell_length_c 27.738298
_cell_angle_alpha 90.000000
_cell_angle_beta 90.000000
_cell_angle_gamma 90.000000
_cell_volume 2395.076212
_symmetry_space_group_name_H-M "P -4 21 C"
_symmetry_group_IT_number 114
_symmetry_cell_setting 'tetragonal'
loop_
_space_group_symop_operation_xyz
x,y,z
y,-x,-z
-x,-y,z
-y,x,-z
1/2+x,1/2-y,1/2-z
1/2-x,1/2+y,1/2-z
1/2-y,1/2-x,1/2+z
1/2+y,1/2+x,1/2+z
loop_
_atom_site_type_symbol
_atom_site_label
_atom_site_fract_x
_atom_site_fract_y
_atom_site_fract_z
Si Si1 0.367993 0.900653 0.851951
Si Si2 0.912147 0.143841 0.202274
Si Si3 0.725778 0.572359 0.445037
Si Si4 0.876491 0.608722 0.851299
Si Si5 0.414556 0.355674 0.191358
Si Si6 0.928822 0.774628 0.053470
O O1 0.384244 0.742639 0.830222
O O2 0.351936 0.885823 0.909775
O O3 0.500000 0.000000 0.837205
O O4 0.231757 0.985923 0.832784
O O5 0.753435 0.119716 0.180420
O O6 0.894839 0.215998 0.255407
O O7 0.000000 0.000000 0.208185
O O8 0.851948 0.610350 0.407723
O O9 0.593066 0.679709 0.437332
O O10 0.674955 0.409507 0.436735
O O11 0.785396 0.590889 0.499347
O O12 0.733815 0.515613 0.844341
O O13 0.000000 0.500000 0.834237
O O14 0.500000 0.500000 0.198593
#
# Coordination Sequence:
#
# PCOD8309079 Si02
#       6
#     8   8   8   8   8   8
#     4  12  24  40  64  89 124 166 213 259 318 390
#     4  11  23  42  65  88 120 167 220 257 314 385
#     4   9  18  35  64  93 124 158 208 262 309 365
#     4  12  23  37  64  95 127 160 209 272 326 376
#     4  11  26  42  59  89 129 167 206 265 324 385
#     4   9  18  36  62  95 122 159 210 259 303 375
#
# _framework density 20.041117
#
# number of rings (size 3 to 8) (size 9 to 14) (size 15 to 20)
#    0.000    1.333    1.667    6.000    0.000    6.000 
#    0.000    0.000    0.000    0.000    0.000    0.000 
#    0.000    0.000    0.000    0.000    0.000    0.000 
#
# Total GULP energy -595080.459106 kJ/mol
# GULP energy per Si atom -12397.509565 kJ/mol
# Density = 1.999550 g / cm^3
# Si number density = 20.041117 Si / 1000 Ang^3
#
#
#
# Elastic Constant Matrix: (Units=GPa)
#
#
# Indices 1 2 3 4 5 6 
#
# 1 102.6120 35.9054 51.3433 0.0000 0.0000 0.0000
# 2 35.9054 102.6120 51.3433 0.0000 0.0000 0.0000
# 3 51.3433 51.3433 130.3569 0.0000 0.0000 0.0000
# 4 0.0000 0.0000 0.0000 38.0187 0.0000 0.0000
# 5 0.0000 0.0000 0.0000 0.0000 38.0187 0.0000
# 6 0.0000 0.0000 0.0000 0.0000 0.0000 37.5743
#
#
#
# Elastic Compliance Matrix: (Units=1/GPa)
#
#
# Indices 1 2 3 4 5 6 
#
# 1 0.012594 -0.002397 -0.004016 0.000000 0.000000 0.000000
# 2 -0.002397 0.012594 -0.004016 0.000000 0.000000 0.000000
# 3 -0.004016 -0.004016 0.010835 0.000000 0.000000 0.000000
# 4 0.000000 0.000000 0.000000 0.026303 0.000000 0.000000
# 5 0.000000 0.000000 0.000000 0.000000 0.026303 0.000000
# 6 0.000000 0.000000 0.000000 0.000000 0.000000 0.026614
#
#
# Mechanical properties :
#
#
# Convention : Reuss Voigt Hill
#
# Bulk Modulus (GPa) = 65.94738 68.08499 67.01618
# Shear Modulus (GPa) = 35.42195 35.85492 35.63844
#
# Velocity S-wave (km/s) = 4.20868 4.23433 4.22152
# Velocity P-wave (km/s) = 7.52295 7.61265 7.56793
#
# Compressibility (1/GPa) = 0.01516360
#
# Stress axis : x y z
#
# Youngs Moduli (GPa) = 79.40426 79.40426 92.29473
#
# Poissons Ratio (x) = 0.19035 0.37066
# Poissons Ratio (y) = 0.19035 0.37066
# Poissons Ratio (z) = 0.31889 0.31889
#
# Static dielectric constant tensor:
#      x y z
#    x 3.526420 0.000000 0.000000 
#    y 0.000000 3.526420 0.000000 
#    z 0.000000 0.000000 3.943820 
# 
# 
# High freq. dielectric constant tensor:
#      x y z
#    x 1.774530 0.000000 0.000000 
#    y 0.000000 1.774530 0.000000 
#    z 0.000000 0.000000 1.800660 
# 
# From -- ./inp_files/3953.got.cif
#   From: 2010.03.12/outbox.cif.g09.slc.cpg/sg114_2_cif.got.tgz:3953.got - 2010.04.14 02:08:34.
