data_PCOD8309976
_publ_section_title
;
Structure prediction by ZEFSAII (Michael W. Deem and Ramdas Pophale) SiO2 
 PCOD8309976
Probable space group: P -4 M 2
;
_chemical_formula_sum "Si O2"
_cell_formula_units_Z 33
_cell_length_a 11.714682
_cell_length_b 11.714682
_cell_length_c 11.826101
_cell_angle_alpha 90.000000
_cell_angle_beta 90.000000
_cell_angle_gamma 90.000000
_cell_volume 1622.940476
_symmetry_space_group_name_H-M "P -4 M 2"
_symmetry_group_IT_number 115
_symmetry_cell_setting 'tetragonal'
loop_
_space_group_symop_operation_xyz
x,y,z
y,-x,-z
-x,-y,z
-y,x,-z
y,x,-z
-y,-x,-z
-x,y,z
x,-y,z
loop_
_atom_site_type_symbol
_atom_site_label
_atom_site_fract_x
_atom_site_fract_y
_atom_site_fract_z
Si Si1 0.500000 0.500000 0.000000
Si Si2 0.500000 0.870582 0.802749
Si Si3 0.500000 0.757144 0.035454
Si Si4 0.863483 0.263182 0.900285
Si Si5 0.367496 0.632505 0.500000
Si Si6 0.722501 0.791724 0.682664
Si Si7 0.122661 0.122661 0.500000
O O1 0.500000 0.621170 0.068036
O O2 0.610699 0.854155 0.727125
O O3 0.500000 0.000000 0.852811
O O4 0.500000 0.774374 0.900084
O O5 0.609425 0.818511 0.084811
O O6 0.814432 0.224622 0.780882
O O7 0.000000 0.259561 0.900070
O O8 0.818252 0.181749 0.000000
O O9 0.500000 0.660098 0.509427
O O10 0.324775 0.692222 0.384215
O O11 0.778416 0.875215 0.592286
O O12 0.000000 0.134094 0.561541
#
# Coordination Sequence:
#
# PCOD8309976 Si02
#       7
#     1   4   4   8   4   8   4
#     4  12  20  44  68  96 124 166 228 264 324 392
#     4  12  22  40  65  95 134 179 221 268 331 401
#     4  12  24  44  67  98 141 175 219 273 337 404
#     4  12  26  44  67 101 140 181 226 277 336 402
#     4  10  22  42  64  94 134 170 218 282 344 402
#     4  11  23  41  66  97 129 172 223 273 334 400
#     4  10  22  42  66  90 122 166 218 274 326 386
#
# _framework density 20.333462000000001
#
# number of rings (size 3 to 8) (size 9 to 14) (size 15 to 20)
#    0.000    0.727    4.848    2.545    1.697    1.212 
#    2.182    0.000    0.000    0.000    0.000    0.000 
#    0.000    0.000    0.000    0.000    0.000    0.000 
#
# Total GULP energy -409095.143264 kJ/mol
# GULP energy per Si atom -12396.822523 kJ/mol
# Density = 2.028718 g / cm^3
# Si number density = 20.333462 Si / 1000 Ang^3
#
#
#
# Elastic Constant Matrix: (Units=GPa)
#
#
# Indices 1 2 3 4 5 6 
#
# 1 149.6265 54.8062 41.4333 0.0000 0.0000 0.0000
# 2 54.8062 149.6223 41.4331 0.0000 0.0000 0.0000
# 3 41.4333 41.4331 102.8467 0.0000 0.0000 0.0000
# 4 0.0000 0.0000 0.0000 23.6234 0.0000 0.0000
# 5 0.0000 0.0000 0.0000 0.0000 23.6232 0.0000
# 6 0.0000 0.0000 0.0000 0.0000 0.0000 93.7533
#
#
#
# Elastic Compliance Matrix: (Units=1/GPa)
#
#
# Indices 1 2 3 4 5 6 
#
# 1 0.008196 -0.002350 -0.002355 0.000000 0.000000 0.000000
# 2 -0.002350 0.008197 -0.002355 0.000000 0.000000 0.000000
# 3 -0.002355 -0.002355 0.011621 0.000000 0.000000 0.000000
# 4 0.000000 0.000000 0.000000 0.042331 0.000000 0.000000
# 5 0.000000 0.000000 0.000000 0.000000 0.042331 0.000000
# 6 0.000000 0.000000 0.000000 0.000000 0.000000 0.010666
#
#
# Mechanical properties :
#
#
# Convention : Reuss Voigt Hill
#
# Bulk Modulus (GPa) = 71.98128 75.27118 73.62623
# Shear Modulus (GPa) = 35.18790 45.82817 40.50804
#
# Velocity S-wave (km/s) = 4.16449 4.75260 4.46823
# Velocity P-wave (km/s) = 7.65514 8.19848 7.93147
#
# Compressibility (1/GPa) = 0.01389250
#
# Stress axis : x y z
#
# Youngs Moduli (GPa) = 122.00621 122.00249 86.05171
#
# Poissons Ratio (x) = 0.28672 0.20267
# Poissons Ratio (y) = 0.28672 0.20268
# Poissons Ratio (z) = 0.28735 0.28736
#
# Static dielectric constant tensor:
#      x y z
#    x 3.855460 0.000000 0.000000 
#    y 0.000000 3.855470 0.000000 
#    z 0.000000 0.000000 3.765570 
# 
# 
# High freq. dielectric constant tensor:
#      x y z
#    x 1.808960 0.000000 0.000000 
#    y 0.000000 1.808960 0.000000 
#    z 0.000000 0.000000 1.790770 
# 
# From -- ./inp_files/2677.got.cif
#   From: 2010.03.12/outbox.cif.g09.slc.cpg/sg115_2_cif.got.tgz:2677.got - 2010.04.14 02:11:21.
