data_PCOD8309515
_publ_section_title
;
Structure prediction by ZEFSAII (Michael W. Deem and Ramdas Pophale) SiO2 
 PCOD8309515
Probable space group: P -4 M 2
;
_chemical_formula_sum "Si O2"
_cell_formula_units_Z 28
_cell_length_a 8.934314
_cell_length_b 8.934314
_cell_length_c 18.397728
_cell_angle_alpha 90.000000
_cell_angle_beta 90.000000
_cell_angle_gamma 90.000000
_cell_volume 1468.542831
_symmetry_space_group_name_H-M "P -4 M 2"
_symmetry_group_IT_number 115
_symmetry_cell_setting 'tetragonal'
loop_
_space_group_symop_operation_xyz
x,y,z
y,-x,-z
-x,-y,z
-y,x,-z
y,x,-z
-y,-x,-z
-x,y,z
x,-y,z
loop_
_atom_site_type_symbol
_atom_site_label
_atom_site_fract_x
_atom_site_fract_y
_atom_site_fract_z
Si Si1 0.322329 0.169840 0.798769
Si Si2 0.825001 0.327242 0.932654
Si Si3 0.325983 0.674018 0.500000
Si Si4 0.321264 0.330812 0.655495
O O1 0.500000 0.181239 0.803425
O O2 0.254872 0.275788 0.859623
O O3 0.262991 0.226105 0.720475
O O4 0.267809 0.000000 0.810468
O O5 0.786538 0.500000 0.947124
O O6 0.000000 0.300341 0.923615
O O7 0.768556 0.231445 0.000000
O O8 0.500000 0.707022 0.493229
O O9 0.260876 0.735652 0.422703
O O10 0.500000 0.334512 0.653697
O O11 0.261226 0.500000 0.667880
#
# Coordination Sequence:
#
# PCOD8309515 Si02
#       4
#     8   8   4   8
#     4  10  20  33  51  77 107 138 173 210 250 300
#     4  11  24  40  58  80 104 131 166 206 249 300
#     4   7  10  18  36  64  94 125 166 214 260 301
#     4   8  13  23  42  68  97 130 170 216 261 300
#
# _framework density 19.066519
#
# number of rings (size 3 to 8) (size 9 to 14) (size 15 to 20)
#    0.000    2.714    0.000    4.286    0.000    7.429 
#    0.000    0.000    0.000    1.714    0.000    8.000 
#    0.000    0.000    0.000    0.000    0.000    0.000 
#
# Total GULP energy -346940.549287 kJ/mol
# GULP energy per Si atom -12390.733903 kJ/mol
# Density = 1.902312 g / cm^3
# Si number density = 19.066519 Si / 1000 Ang^3
#
#
#
# Elastic Constant Matrix: (Units=GPa)
#
#
# Indices 1 2 3 4 5 6 
#
# 1 21.4298 30.1023 19.1939 0.0000 0.0000 0.0000
# 2 30.1023 21.4324 19.1936 0.0000 0.0000 0.0000
# 3 19.1939 19.1936 150.3936 0.0000 0.0000 0.0000
# 4 0.0000 0.0000 0.0000 -10.9584 0.0000 0.0000
# 5 0.0000 0.0000 0.0000 0.0000 -10.9607 0.0000
# 6 0.0000 0.0000 0.0000 0.0000 0.0000 17.6695
#
#
#
# Elastic Compliance Matrix: (Units=1/GPa)
#
#
# Indices 1 2 3 4 5 6 
#
# 1 -0.046944 0.068384 -0.002736 0.000000 0.000000 0.000000
# 2 0.068384 -0.046937 -0.002737 0.000000 0.000000 0.000000
# 3 -0.002736 -0.002737 0.007348 0.000000 0.000000 0.000000
# 4 0.000000 0.000000 0.000000 -0.091254 0.000000 0.000000
# 5 0.000000 0.000000 0.000000 0.000000 -0.091235 0.000000
# 6 0.000000 0.000000 0.000000 0.000000 0.000000 0.056595
#
#
# Mechanical properties :
#
#
# Convention : Reuss Voigt Hill
#
# Bulk Modulus (GPa) = 25.45310 36.69281 31.07295
# Shear Modulus (GPa) = -15.37736 7.46781 -3.95478
#
# Velocity S-wave (km/s) = -2.84300 1.98122 -1.44177
# Velocity P-wave (km/s) = 1.61300 4.95177 3.68251
#
# Compressibility (1/GPa) = 0.03928795
#
# Stress axis : x y z
#
# Youngs Moduli (GPa) = -21.30198 -21.30500 136.09609
#
# Poissons Ratio (x) = 1.45692 0.37238
# Poissons Ratio (y) = 1.45672 0.37252
# Poissons Ratio (z) = -0.05829 -0.05832
#
# Static dielectric constant tensor:
#      x y z
#    x 3.240830 0.000000 0.000000 
#    y 0.000000 3.240830 0.000000 
#    z 0.000000 0.000000 4.184130 
# 
# 
# High freq. dielectric constant tensor:
#      x y z
#    x 1.705730 0.000000 0.000000 
#    y 0.000000 1.705730 0.000000 
#    z 0.000000 0.000000 1.773650 
# 
# From -- ./inp_files/4503.got.cif
#   From: 2010.03.12/outbox.cif.g09.slc.cpg/sg115_3_cif.got.tgz:4503.got - 2010.04.14 02:11:21.
