data_PCOD8309998
_publ_section_title
;
Structure prediction by ZEFSAII (Michael W. Deem and Ramdas Pophale) SiO2 
 PCOD8309998
Probable space group: P -4 M 2
;
_chemical_formula_sum "Si O2"
_cell_formula_units_Z 21
_cell_length_a 7.916989
_cell_length_b 7.916989
_cell_length_c 15.436505
_cell_angle_alpha 90.000000
_cell_angle_beta 90.000000
_cell_angle_gamma 90.000000
_cell_volume 967.540295
_symmetry_space_group_name_H-M "P -4 M 2"
_symmetry_group_IT_number 115
_symmetry_cell_setting 'tetragonal'
loop_
_space_group_symop_operation_xyz
x,y,z
y,-x,-z
-x,-y,z
-y,x,-z
y,x,-z
-y,-x,-z
-x,y,z
x,-y,z
loop_
_atom_site_type_symbol
_atom_site_label
_atom_site_fract_x
_atom_site_fract_y
_atom_site_fract_z
Si Si1 0.191716 0.693470 0.090649
Si Si2 0.813302 0.500000 0.372767
Si Si3 0.189177 0.693563 0.732282
Si Si4 0.500000 0.500000 0.500000
O O1 0.201632 0.500000 0.119846
O O2 0.282856 0.802785 0.164279
O O3 0.000000 0.755794 0.080603
O O4 0.285851 0.714150 0.000000
O O5 0.804214 0.669010 0.314777
O O6 0.670664 0.500000 0.445174
O O7 0.000000 0.500000 0.415900
O O8 0.225102 0.500000 0.708475
O O9 0.000000 0.745768 0.701675
#
# Coordination Sequence:
#
# PCOD8309998 Si02
#       4
#     8   4   8   1
#     4  11  23  37  56  89 133 184 238 287 336 391
#     4  12  26  48  78 107 139 180 223 276 344 415
#     4  11  23  42  70 102 139 185 233 281 339 404
#     4  12  28  52  76 108 146 172 216 276 352 416
#
# _framework density 21.704522999999998
#
# number of rings (size 3 to 8) (size 9 to 14) (size 15 to 20)
#    0.000    0.762    3.810    3.429    0.000   11.429 
#    0.000    0.000    0.000    0.000    0.000    0.000 
#    0.000    0.000    0.000    0.000    0.000    0.000 
#
# Total GULP energy -260481.344634 kJ/mol
# GULP energy per Si atom -12403.873554 kJ/mol
# Density = 2.165512 g / cm^3
# Si number density = 21.704523 Si / 1000 Ang^3
#
#
#
# Elastic Constant Matrix: (Units=GPa)
#
#
# Indices 1 2 3 4 5 6 
#
# 1 131.8497 52.1847 37.2724 0.0000 0.0000 0.0000
# 2 52.1847 131.8506 37.2727 0.0000 0.0000 0.0000
# 3 37.2724 37.2727 97.8287 0.0000 0.0000 0.0000
# 4 0.0000 0.0000 0.0000 17.2901 0.0000 0.0000
# 5 0.0000 0.0000 0.0000 0.0000 17.2901 0.0000
# 6 0.0000 0.0000 0.0000 0.0000 0.0000 14.6046
#
#
#
# Elastic Compliance Matrix: (Units=1/GPa)
#
#
# Indices 1 2 3 4 5 6 
#
# 1 0.009489 -0.003064 -0.002448 0.000000 0.000000 0.000000
# 2 -0.003064 0.009489 -0.002448 0.000000 0.000000 0.000000
# 3 -0.002448 -0.002448 0.012087 0.000000 0.000000 0.000000
# 4 0.000000 0.000000 0.000000 0.057837 0.000000 0.000000
# 5 0.000000 0.000000 0.000000 0.000000 0.057837 0.000000
# 6 0.000000 0.000000 0.000000 0.000000 0.000000 0.068472
#
#
# Mechanical properties :
#
#
# Convention : Reuss Voigt Hill
#
# Bulk Modulus (GPa) = 66.02458 68.33206 67.17832
# Shear Modulus (GPa) = 21.17044 25.49022 23.33033
#
# Velocity S-wave (km/s) = 3.12652 3.43070 3.28213
# Velocity P-wave (km/s) = 6.59691 6.87344 6.73659
#
# Compressibility (1/GPa) = 0.01514588
#
# Stress axis : x y z
#
# Youngs Moduli (GPa) = 105.38567 105.38632 82.73111
#
# Poissons Ratio (x) = 0.32286 0.20253
# Poissons Ratio (y) = 0.32286 0.20253
# Poissons Ratio (z) = 0.25799 0.25799
#
# Static dielectric constant tensor:
#      x y z
#    x 4.006980 0.000000 0.000000 
#    y 0.000000 4.006970 0.000000 
#    z 0.000000 0.000000 3.643490 
# 
# 
# High freq. dielectric constant tensor:
#      x y z
#    x 1.863170 0.000000 0.000000 
#    y 0.000000 1.863170 0.000000 
#    z 0.000000 0.000000 1.832010 
# 
# From -- ./inp_files/3348.got.cif
#   From: 2010.03.12/outbox.cif.g09.slc.cpg/sg115_2_cif.got.tgz:3348.got - 2010.04.14 02:11:21.
