data_PCOD8309089
_publ_section_title
;
Structure prediction by ZEFSAII (Michael W. Deem and Ramdas Pophale) SiO2 
 PCOD8309089
Probable space group: P -4 21 C
;
_chemical_formula_sum "Si O2"
_cell_formula_units_Z 48
_cell_length_a 8.705399
_cell_length_b 8.705399
_cell_length_c 28.474697
_cell_angle_alpha 90.000000
_cell_angle_beta 90.000000
_cell_angle_gamma 90.000000
_cell_volume 2157.925633
_symmetry_space_group_name_H-M "P -4 21 C"
_symmetry_group_IT_number 114
_symmetry_cell_setting 'tetragonal'
loop_
_space_group_symop_operation_xyz
x,y,z
y,-x,-z
-x,-y,z
-y,x,-z
1/2+x,1/2-y,1/2-z
1/2-x,1/2+y,1/2-z
1/2-y,1/2-x,1/2+z
1/2+y,1/2+x,1/2+z
loop_
_atom_site_type_symbol
_atom_site_label
_atom_site_fract_x
_atom_site_fract_y
_atom_site_fract_z
Si Si1 0.275945 0.119210 0.706828
Si Si2 0.612747 0.778106 0.378894
Si Si3 0.908313 0.211304 0.017537
Si Si4 0.617220 0.233462 0.879774
Si Si5 0.688662 0.405715 0.976337
Si Si6 0.227893 0.379875 0.294098
O O1 0.179895 0.157183 0.660641
O O2 0.437382 0.208071 0.707742
O O3 0.174803 0.169007 0.750952
O O4 0.298185 0.936766 0.707928
O O5 0.646383 0.702449 0.429035
O O6 0.429132 0.796595 0.376181
O O7 0.677422 0.660205 0.340832
O O8 0.702144 0.937643 0.372728
O O9 0.863360 0.371057 0.992250
O O10 0.088191 0.186132 0.013268
O O11 0.644309 0.327419 0.927515
O O12 0.587842 0.336878 0.020874
#
# Coordination Sequence:
#
# PCOD8309089 Si02
#       6
#     8   8   8   8   8   8
#     4  11  26  46  70 103 136 173 220 275 334 400
#     4  11  24  43  68  98 135 179 224 278 336 394
#     4  11  24  41  64  96 134 179 228 273 334 393
#     4  11  24  43  68  98 135 179 224 278 336 394
#     4  11  24  41  64  96 134 179 228 273 334 393
#     4  11  26  46  70 103 136 173 220 275 334 400
#
# _framework density 22.243582
#
# number of rings (size 3 to 8) (size 9 to 14) (size 15 to 20)
#    0.000    1.000    3.333    2.000    4.667    8.000 
#    0.000    0.000    0.000    0.000    0.000    0.000 
#    0.000    0.000    0.000    0.000    0.000    0.000 
#
# Total GULP energy -595040.415471 kJ/mol
# GULP energy per Si atom -12396.675322 kJ/mol
# Density = 2.219295 g / cm^3
# Si number density = 22.243582 Si / 1000 Ang^3
#
#
#
# Elastic Constant Matrix: (Units=GPa)
#
#
# Indices 1 2 3 4 5 6 
#
# 1 33.2017 47.9703 36.7123 0.0000 0.0000 0.0000
# 2 47.9703 33.2017 36.7123 0.0000 0.0000 0.0000
# 3 36.7123 36.7123 142.2597 0.0000 0.0000 0.0000
# 4 0.0000 0.0000 0.0000 36.3610 0.0000 0.0000
# 5 0.0000 0.0000 0.0000 0.0000 36.3610 0.0000
# 6 0.0000 0.0000 0.0000 0.0000 0.0000 37.5315
#
#
#
# Elastic Compliance Matrix: (Units=1/GPa)
#
#
# Indices 1 2 3 4 5 6 
#
# 1 -0.025820 0.041891 -0.004147 0.000000 0.000000 0.000000
# 2 0.041891 -0.025820 -0.004147 0.000000 0.000000 0.000000
# 3 -0.004147 -0.004147 0.009170 0.000000 0.000000 0.000000
# 4 0.000000 0.000000 0.000000 0.027502 0.000000 0.000000
# 5 0.000000 0.000000 0.000000 0.000000 0.027502 0.000000
# 6 0.000000 0.000000 0.000000 0.000000 0.000000 0.026644
#
#
# Mechanical properties :
#
#
# Convention : Reuss Voigt Hill
#
# Bulk Modulus (GPa) = 40.44889 50.16145 45.30517
# Shear Modulus (GPa) = -252.85651 27.86860 -112.49395
#
# Velocity S-wave (km/s) = -10.67347 3.54345 -7.11923
# Velocity P-wave (km/s) = 11.56172 6.27226 6.86775
#
# Compressibility (1/GPa) = 0.02472255
#
# Stress axis : x y z
#
# Youngs Moduli (GPa) = -38.72947 -38.72947 109.05139
#
# Poissons Ratio (x) = 1.62242 0.45228
# Poissons Ratio (y) = 1.62242 0.45228
# Poissons Ratio (z) = -0.16063 -0.16063
#
# Static dielectric constant tensor:
#      x y z
#    x 4.178030 0.000000 0.000000 
#    y 0.000000 4.178030 0.000000 
#    z 0.000000 0.000000 4.087430 
# 
# 
# High freq. dielectric constant tensor:
#      x y z
#    x 1.884940 0.000000 0.000000 
#    y 0.000000 1.884940 0.000000 
#    z 0.000000 0.000000 1.883320 
# 
# From -- ./inp_files/3908.got.cif
#   From: 2010.03.12/outbox.cif.g09.slc.cpg/sg114_2_cif.got.tgz:3908.got - 2010.04.14 02:08:34.
