data_PCOD8309180
_publ_section_title
;
Structure prediction by ZEFSAII (Michael W. Deem and Ramdas Pophale) SiO2 
 PCOD8309180
Probable space group: P -4 M 2
;
_chemical_formula_sum "Si O2"
_cell_formula_units_Z 64
_cell_length_a 14.130876
_cell_length_b 14.130876
_cell_length_c 19.912001
_cell_angle_alpha 90.000000
_cell_angle_beta 90.000000
_cell_angle_gamma 90.000000
_cell_volume 3976.061344
_symmetry_space_group_name_H-M "P -4 M 2"
_symmetry_group_IT_number 115
_symmetry_cell_setting 'tetragonal'
loop_
_space_group_symop_operation_xyz
x,y,z
y,-x,-z
-x,-y,z
-y,x,-z
y,x,-z
-y,-x,-z
-x,y,z
x,-y,z
loop_
_atom_site_type_symbol
_atom_site_label
_atom_site_fract_x
_atom_site_fract_y
_atom_site_fract_z
Si Si1 0.894471 0.389557 0.462719
Si Si2 0.612409 0.105553 0.282984
Si Si3 0.612237 0.224200 0.410778
Si Si4 0.609380 0.265326 0.635817
Si Si5 0.224649 0.612002 0.842289
Si Si6 0.612199 0.104089 0.884918
Si Si7 0.389477 0.728319 0.792730
Si Si8 0.387527 0.106501 0.033837
O O1 0.907259 0.500000 0.475675
O O2 0.830310 0.349294 0.523440
O O3 0.840086 0.370050 0.392707
O O4 0.000000 0.343068 0.460612
O O5 0.500000 0.100992 0.281332
O O6 0.646591 0.161576 0.348276
O O7 0.651141 0.158002 0.217090
O O8 0.655170 0.000000 0.285136
O O9 0.500000 0.239723 0.412478
O O10 0.659020 0.327600 0.404439
O O11 0.500000 0.293296 0.623087
O O12 0.633844 0.265727 0.714267
O O13 0.227193 0.500000 0.842893
O O14 0.331801 0.645079 0.829034
O O15 0.181670 0.652627 0.911997
O O16 0.500000 0.099352 0.885657
O O17 0.646491 0.174957 0.827207
O O18 0.653307 0.000000 0.868244
O O19 0.646931 0.136539 0.959198
O O20 0.500000 0.708676 0.805809
O O21 0.500000 0.107008 0.037746
O O22 0.351690 0.000000 0.050604
#
# Coordination Sequence:
#
# PCOD8309180 Si02
#       8
#     8   8   8   8   8   8   8   8
#     4   9  18  32  49  67  87 113 148 194 243 278
#     4   9  16  26  42  64  89 118 152 190 235 278
#     4  10  18  30  47  68  94 124 155 189 227 269
#     4  10  20  32  45  65  95 130 162 190 217 261
#     4  10  18  28  42  63  93 127 158 190 227 266
#     4   8  15  29  47  64  82 110 151 199 245 279
#     4  10  20  31  43  62  92 129 166 192 215 259
#     4   8  14  26  45  66  86 111 148 195 244 283
#
# _framework density 16.096330999999999
#
# number of rings (size 3 to 8) (size 9 to 14) (size 15 to 20)
#    0.000    2.750    1.250    1.875    0.000    4.500 
#    0.000    3.750    0.000    2.250    0.000    3.500 
#    0.000   11.500    0.000    5.500    0.000    0.500 
#
# Total GULP energy -793221.175817 kJ/mol
# GULP energy per Si atom -12394.080872 kJ/mol
# Density = 1.605970 g / cm^3
# Si number density = 16.096331 Si / 1000 Ang^3
#
#
#
# Elastic Constant Matrix: (Units=GPa)
#
#
# Indices 1 2 3 4 5 6 
#
# 1 62.3116 31.6403 31.6360 0.0000 0.0000 0.0000
# 2 31.6403 62.3116 31.6360 0.0000 0.0000 0.0000
# 3 31.6360 31.6360 72.2255 0.0000 0.0000 0.0000
# 4 0.0000 0.0000 0.0000 23.3026 0.0000 0.0000
# 5 0.0000 0.0000 0.0000 0.0000 23.3026 0.0000
# 6 0.0000 0.0000 0.0000 0.0000 0.0000 2.8686
#
#
#
# Elastic Compliance Matrix: (Units=1/GPa)
#
#
# Indices 1 2 3 4 5 6 
#
# 1 0.023850 -0.008753 -0.006613 0.000000 0.000000 0.000000
# 2 -0.008753 0.023850 -0.006613 0.000000 0.000000 0.000000
# 3 -0.006613 -0.006613 0.019639 0.000000 0.000000 0.000000
# 4 0.000000 0.000000 0.000000 0.042914 0.000000 0.000000
# 5 0.000000 0.000000 0.000000 0.000000 0.042914 0.000000
# 6 0.000000 0.000000 0.000000 0.000000 0.000000 0.348598
#
#
# Mechanical properties :
#
#
# Convention : Reuss Voigt Hill
#
# Bulk Modulus (GPa) = 42.76863 42.96372 42.86617
# Shear Modulus (GPa) = 9.03315 16.69051 12.86183
#
# Velocity S-wave (km/s) = 2.37152 3.22361 2.82982
# Velocity P-wave (km/s) = 5.84183 6.37221 6.11277
#
# Compressibility (1/GPa) = 0.02338162
#
# Stress axis : x y z
#
# Youngs Moduli (GPa) = 41.92790 41.92790 50.92013
#
# Poissons Ratio (x) = 0.36701 0.33673
# Poissons Ratio (y) = 0.36701 0.33673
# Poissons Ratio (z) = 0.27726 0.27726
#
# Static dielectric constant tensor:
#      x y z
#    x 2.910200 0.000000 0.000000 
#    y 0.000000 2.910200 0.000000 
#    z 0.000000 0.000000 3.324030 
# 
# 
# High freq. dielectric constant tensor:
#      x y z
#    x 1.586630 0.000000 0.000000 
#    y 0.000000 1.586630 0.000000 
#    z 0.000000 0.000000 1.636500 
# 
# From -- ./inp_files/4444.got.cif
#   From: 2010.03.12/outbox.cif.g09.slc.cpg/sg115_3_cif.got.tgz:4444.got - 2010.04.14 02:11:21.
