data_PCOD8309144
_publ_section_title
;
Structure prediction by ZEFSAII (Michael W. Deem and Ramdas Pophale) SiO2 
 PCOD8309144
Probable space group: P -4 21 C
;
_chemical_formula_sum "Si O2"
_cell_formula_units_Z 16
_cell_length_a 8.522856
_cell_length_b 8.522856
_cell_length_c 7.888268
_cell_angle_alpha 90.000000
_cell_angle_beta 90.000000
_cell_angle_gamma 90.000000
_cell_volume 572.996486
_symmetry_space_group_name_H-M "P -4 21 C"
_symmetry_group_IT_number 114
_symmetry_cell_setting 'tetragonal'
loop_
_space_group_symop_operation_xyz
x,y,z
y,-x,-z
-x,-y,z
-y,x,-z
1/2+x,1/2-y,1/2-z
1/2-x,1/2+y,1/2-z
1/2-y,1/2-x,1/2+z
1/2+y,1/2+x,1/2+z
loop_
_atom_site_type_symbol
_atom_site_label
_atom_site_fract_x
_atom_site_fract_y
_atom_site_fract_z
Si Si1 0.563824 0.167539 0.956370
Si Si2 0.873308 0.121213 0.768590
O O1 0.750144 0.163441 0.915753
O O2 0.465100 0.223073 0.792263
O O3 0.500000 0.000000 0.013355
O O4 0.536664 0.285717 0.111687
O O5 0.000000 0.000000 0.842764
#
# Coordination Sequence:
#
# PCOD8309144 Si02
#       2
#     8   8
#     4  12  26  46  78 111 151 202 253 316 389 452
#     4  12  26  52  74 109 156 200 257 319 379 458
#
# _framework density 27.923383000000001
#
# number of rings (size 3 to 8) (size 9 to 14) (size 15 to 20)
#    0.000    0.000    5.000    4.500    7.000    0.000 
#    0.000    2.500    0.000    0.000    0.000    0.000 
#    0.000    0.000    0.000    0.000    0.000    0.000 
#
# Total GULP energy -198609.385181 kJ/mol
# GULP energy per Si atom -12413.086574 kJ/mol
# Density = 2.785983 g / cm^3
# Si number density = 27.923383 Si / 1000 Ang^3
#
#
#
# Elastic Constant Matrix: (Units=GPa)
#
#
# Indices 1 2 3 4 5 6 
#
# 1 152.1628 37.7266 11.0506 0.0000 0.0000 0.0000
# 2 37.7266 152.1628 11.0506 0.0000 0.0000 0.0000
# 3 11.0506 11.0506 62.8298 0.0000 0.0000 0.0000
# 4 0.0000 0.0000 0.0000 25.0247 0.0000 0.0000
# 5 0.0000 0.0000 0.0000 0.0000 25.0247 0.0000
# 6 0.0000 0.0000 0.0000 0.0000 0.0000 69.9764
#
#
#
# Elastic Compliance Matrix: (Units=1/GPa)
#
#
# Indices 1 2 3 4 5 6 
#
# 1 0.007057 -0.001681 -0.000946 0.000000 0.000000 0.000000
# 2 -0.001681 0.007057 -0.000946 0.000000 0.000000 0.000000
# 3 -0.000946 -0.000946 0.016249 0.000000 0.000000 0.000000
# 4 0.000000 0.000000 0.000000 0.039961 0.000000 0.000000
# 5 0.000000 0.000000 0.000000 0.000000 0.039961 0.000000
# 6 0.000000 0.000000 0.000000 0.000000 0.000000 0.014291
#
#
# Mechanical properties :
#
#
# Convention : Reuss Voigt Hill
#
# Bulk Modulus (GPa) = 43.06849 54.09012 48.57930
# Shear Modulus (GPa) = 35.85276 44.49364 40.17320
#
# Velocity S-wave (km/s) = 3.58714 3.99610 3.79713
# Velocity P-wave (km/s) = 5.71087 6.38002 6.05470
#
# Compressibility (1/GPa) = 0.02321883
#
# Stress axis : x y z
#
# Youngs Moduli (GPa) = 141.69550 141.69550 61.54362
#
# Poissons Ratio (x) = 0.23820 0.05820
# Poissons Ratio (y) = 0.23820 0.05820
# Poissons Ratio (z) = 0.13399 0.13399
#
# Static dielectric constant tensor:
#      x y z
#    x 5.169710 0.000000 0.000000 
#    y 0.000000 5.169710 0.000000 
#    z 0.000000 0.000000 4.574520 
# 
# 
# High freq. dielectric constant tensor:
#      x y z
#    x 2.140660 0.000000 0.000000 
#    y 0.000000 2.140660 0.000000 
#    z 0.000000 0.000000 2.119000 
# 
# From -- ./inp_files/325.got.cif
#   From: 2010.03.12/outbox.cif.g09.slc.cpg/sg114_1_cif.got.tgz:325.got - 2010.04.14 02:08:34.
