data_PCOD8309650
_publ_section_title
;
Structure prediction by ZEFSAII (Michael W. Deem and Ramdas Pophale) SiO2 
 PCOD8309650
Probable space group: P -4 M 2
;
_chemical_formula_sum "Si O2"
_cell_formula_units_Z 48
_cell_length_a 9.067757
_cell_length_b 9.067757
_cell_length_c 30.849125
_cell_angle_alpha 90.000000
_cell_angle_beta 90.000000
_cell_angle_gamma 90.000000
_cell_volume 2536.545149
_symmetry_space_group_name_H-M "P -4 M 2"
_symmetry_group_IT_number 115
_symmetry_cell_setting 'tetragonal'
loop_
_space_group_symop_operation_xyz
x,y,z
y,-x,-z
-x,-y,z
-y,x,-z
y,x,-z
-y,-x,-z
-x,y,z
x,-y,z
loop_
_atom_site_type_symbol
_atom_site_label
_atom_site_fract_x
_atom_site_fract_y
_atom_site_fract_z
Si Si1 0.671758 0.173356 0.960116
Si Si2 0.666017 0.674597 0.298194
Si Si3 0.830595 0.673359 0.538759
Si Si4 0.674241 0.830404 0.118345
Si Si5 0.829339 0.170848 0.625693
Si Si6 0.325253 0.663185 0.202484
O O1 0.500000 0.210758 0.965126
O O2 0.730417 0.242632 0.916013
O O3 0.700703 0.000000 0.959455
O O4 0.758320 0.241681 0.000000
O O5 0.500000 0.734939 0.306145
O O6 0.666939 0.500000 0.302691
O O7 0.777289 0.742144 0.332395
O O8 0.724084 0.719376 0.250108
O O9 0.731754 0.731754 0.500000
O O10 0.810978 0.500000 0.542420
O O11 0.772012 0.743433 0.583378
O O12 0.000000 0.719078 0.530356
O O13 0.500000 0.808864 0.112127
O O14 0.727286 0.777785 0.165887
O O15 0.719902 0.000000 0.112262
O O16 0.000000 0.204907 0.633807
O O17 0.797911 0.000000 0.617842
O O18 0.500000 0.650825 0.202877
O O19 0.259402 0.500000 0.192654
#
# Coordination Sequence:
#
# PCOD8309650 Si02
#       6
#     8   8   8   8   8   8
#     4  11  24  40  58  81 108 140 179 220 264 316
#     4   9  18  33  54  80 108 139 178 223 268 313
#     4  10  21  37  57  80 105 136 174 215 262 315
#     4  10  20  34  55  84 113 141 177 219 264 316
#     4  10  21  36  54  77 106 141 179 217 260 313
#     4   8  15  30  52  77 106 141 180 221 264 310
#
# _framework density 18.923379000000001
#
# number of rings (size 3 to 8) (size 9 to 14) (size 15 to 20)
#    0.000    2.333    0.000    3.500    0.000    8.000 
#    0.000    2.500    0.000    1.000    0.000    0.000 
#    0.000    0.000    0.000    0.000    0.000    0.000 
#
# Total GULP energy -595251.431356 kJ/mol
# GULP energy per Si atom -12401.071487 kJ/mol
# Density = 1.888031 g / cm^3
# Si number density = 18.923379 Si / 1000 Ang^3
#
#
#
# Elastic Constant Matrix: (Units=GPa)
#
#
# Indices 1 2 3 4 5 6 
#
# 1 56.5756 32.7171 44.4518 0.0000 0.0000 0.0000
# 2 32.7171 56.5799 44.4536 0.0000 0.0000 0.0000
# 3 44.4518 44.4536 146.4226 0.0000 0.0000 0.0000
# 4 0.0000 0.0000 0.0000 57.7256 0.0000 0.0000
# 5 0.0000 0.0000 0.0000 0.0000 57.7240 0.0000
# 6 0.0000 0.0000 0.0000 0.0000 0.0000 27.5963
#
#
#
# Elastic Compliance Matrix: (Units=1/GPa)
#
#
# Indices 1 2 3 4 5 6 
#
# 1 0.028981 -0.012930 -0.004873 0.000000 0.000000 0.000000
# 2 -0.012930 0.028979 -0.004873 0.000000 0.000000 0.000000
# 3 -0.004873 -0.004873 0.009788 0.000000 0.000000 0.000000
# 4 0.000000 0.000000 0.000000 0.017323 0.000000 0.000000
# 5 0.000000 0.000000 0.000000 0.000000 0.017324 0.000000
# 6 0.000000 0.000000 0.000000 0.000000 0.000000 0.036237
#
#
# Mechanical properties :
#
#
# Convention : Reuss Voigt Hill
#
# Bulk Modulus (GPa) = 44.64707 55.86926 50.25817
# Shear Modulus (GPa) = 26.11657 37.80619 31.96138
#
# Velocity S-wave (km/s) = 3.71903 4.47459 4.11419
# Velocity P-wave (km/s) = 6.48740 7.50226 7.01321
#
# Compressibility (1/GPa) = 0.02239788
#
# Stress axis : x y z
#
# Youngs Moduli (GPa) = 34.50501 34.50757 102.16377
#
# Poissons Ratio (x) = 0.44618 0.49783
# Poissons Ratio (y) = 0.44615 0.49781
# Poissons Ratio (z) = 0.16814 0.16814
#
# Static dielectric constant tensor:
#      x y z
#    x 3.385820 0.000000 0.000000 
#    y 0.000000 3.385820 0.000000 
#    z 0.000000 0.000000 3.839480 
# 
# 
# High freq. dielectric constant tensor:
#      x y z
#    x 1.725310 0.000000 0.000000 
#    y 0.000000 1.725310 0.000000 
#    z 0.000000 0.000000 1.752630 
# 
# From -- ./inp_files/5987.got.cif
#   From: 2010.03.12/outbox.cif.g09.slc.cpg/sg115_3_cif.got.tgz:5987.got - 2010.04.14 02:11:21.
