data_PCOD8309231
_publ_section_title
;
Structure prediction by ZEFSAII (Michael W. Deem and Ramdas Pophale) SiO2 
 PCOD8309231
Probable space group: P -4 M 2
;
_chemical_formula_sum "Si O2"
_cell_formula_units_Z 64
_cell_length_a 14.337853
_cell_length_b 14.337853
_cell_length_c 20.241476
_cell_angle_alpha 90.000000
_cell_angle_beta 90.000000
_cell_angle_gamma 90.000000
_cell_volume 4161.121767
_symmetry_space_group_name_H-M "P -4 M 2"
_symmetry_group_IT_number 115
_symmetry_cell_setting 'tetragonal'
loop_
_space_group_symop_operation_xyz
x,y,z
y,-x,-z
-x,-y,z
-y,x,-z
y,x,-z
-y,-x,-z
-x,y,z
x,-y,z
loop_
_atom_site_type_symbol
_atom_site_label
_atom_site_fract_x
_atom_site_fract_y
_atom_site_fract_z
Si Si1 0.892301 0.259006 0.112846
Si Si2 0.892301 0.259006 0.887154
Si Si3 0.743066 0.106318 0.262474
Si Si4 0.236434 0.609860 0.500000
Si Si5 0.396416 0.110373 0.000000
Si Si6 0.743066 0.893682 0.737526
Si Si7 0.106499 0.392188 0.378473
Si Si8 0.106499 0.392188 0.621527
O O1 0.834554 0.165447 0.098174
O O2 0.877119 0.293466 0.187965
O O3 0.000000 0.234519 0.098499
O O4 0.856344 0.341624 0.065422
O O5 0.877119 0.293466 0.812035
O O6 0.856344 0.341624 0.934578
O O7 0.000000 0.234518 0.901501
O O8 0.833942 0.166058 0.278506
O O9 0.661055 0.135301 0.311970
O O10 0.773572 0.000000 0.273002
O O11 0.332702 0.667299 0.500000
O O12 0.260709 0.500000 0.500000
O O13 0.175288 0.638445 0.436757
O O14 0.175288 0.638445 0.563243
O O15 0.500000 0.155346 0.000000
O O16 0.405423 0.000000 0.000000
O O17 0.661055 0.864699 0.688030
O O18 0.773571 0.000000 0.726998
O O19 0.118645 0.500000 0.361880
O O20 0.000000 0.370142 0.399973
O O21 0.118645 0.500000 0.638120
O O22 0.000000 0.370142 0.600027
#
# Coordination Sequence:
#
# PCOD8309231 Si02
#       8
#     8   8   8   8   8   8   8   8
#     4   9  17  28  42  61  85 112 140 169 201 240
#     4   9  17  28  42  61  85 112 140 169 201 240
#     4   9  17  28  42  61  85 112 140 169 201 239
#     4  10  19  30  45  63  84 110 137 169 210 253
#     4   9  17  28  41  57  79 107 137 169 205 242
#     4   9  17  28  42  61  85 112 140 169 201 239
#     4   9  17  29  45  64  84 107 138 174 209 245
#     4   9  17  29  45  64  84 107 138 174 209 245
#
# _framework density 15.380466999999999
#
# number of rings (size 3 to 8) (size 9 to 14) (size 15 to 20)
#    0.000    2.875    0.000    1.500    0.000    3.125 
#    0.000    7.500    0.000    2.250    0.000    0.000 
#    0.000   13.000    0.000   18.500    0.000    1.500 
#
# Total GULP energy -793493.500359 kJ/mol
# GULP energy per Si atom -12398.335943 kJ/mol
# Density = 1.534546 g / cm^3
# Si number density = 15.380467 Si / 1000 Ang^3
#
#
#
# Elastic Constant Matrix: (Units=GPa)
#
#
# Indices 1 2 3 4 5 6 
#
# 1 78.2042 49.6028 62.0335 0.0000 0.0000 0.0000
# 2 49.6028 78.2063 62.0341 0.0000 0.0000 0.0000
# 3 62.0335 62.0341 119.7056 0.0000 0.0000 0.0000
# 4 0.0000 0.0000 0.0000 24.8626 0.0000 0.0000
# 5 0.0000 0.0000 0.0000 0.0000 24.8627 0.0000
# 6 0.0000 0.0000 0.0000 0.0000 0.0000 20.2653
#
#
#
# Elastic Compliance Matrix: (Units=1/GPa)
#
#
# Indices 1 2 3 4 5 6 
#
# 1 0.025354 -0.009609 -0.008159 0.000000 0.000000 0.000000
# 2 -0.009609 0.025353 -0.008159 0.000000 0.000000 0.000000
# 3 -0.008159 -0.008159 0.016810 0.000000 0.000000 0.000000
# 4 0.000000 0.000000 0.000000 0.040221 0.000000 0.000000
# 5 0.000000 0.000000 0.000000 0.000000 0.040221 0.000000
# 6 0.000000 0.000000 0.000000 0.000000 0.000000 0.049345
#
#
# Mechanical properties :
#
#
# Convention : Reuss Voigt Hill
#
# Bulk Modulus (GPa) = 63.84529 69.27300 66.55914
# Shear Modulus (GPa) = 19.65568 20.82784 20.24176
#
# Velocity S-wave (km/s) = 3.57874 3.68390 3.63170
# Velocity P-wave (km/s) = 7.66011 7.95187 7.80735
#
# Compressibility (1/GPa) = 0.01566286
#
# Stress axis : x y z
#
# Youngs Moduli (GPa) = 39.44190 39.44313 59.48722
#
# Poissons Ratio (x) = 0.37900 0.48537
# Poissons Ratio (y) = 0.37899 0.48536
# Poissons Ratio (z) = 0.32182 0.32182
#
# Static dielectric constant tensor:
#      x y z
#    x 2.865170 0.000000 0.000000 
#    y 0.000000 2.865170 0.000000 
#    z 0.000000 0.000000 3.139860 
# 
# 
# High freq. dielectric constant tensor:
#      x y z
#    x 1.573500 0.000000 0.000000 
#    y 0.000000 1.573500 0.000000 
#    z 0.000000 0.000000 1.603740 
# 
# From -- ./inp_files/4452.got.cif
#   From: 2010.03.12/outbox.cif.g09.slc.cpg/sg115_3_cif.got.tgz:4452.got - 2010.04.14 02:11:21.
