data_PCOD8309907
_publ_section_title
;
Structure prediction by ZEFSAII (Michael W. Deem and Ramdas Pophale) SiO2 
 PCOD8309907
Probable space group: P -4 M 2
;
_chemical_formula_sum "Si O2"
_cell_formula_units_Z 40
_cell_length_a 9.107615
_cell_length_b 9.107615
_cell_length_c 25.855866
_cell_angle_alpha 90.000000
_cell_angle_beta 90.000000
_cell_angle_gamma 90.000000
_cell_volume 2144.709205
_symmetry_space_group_name_H-M "P -4 M 2"
_symmetry_group_IT_number 115
_symmetry_cell_setting 'tetragonal'
loop_
_space_group_symop_operation_xyz
x,y,z
y,-x,-z
-x,-y,z
-y,x,-z
y,x,-z
-y,-x,-z
-x,y,z
x,-y,z
loop_
_atom_site_type_symbol
_atom_site_label
_atom_site_fract_x
_atom_site_fract_y
_atom_site_fract_z
Si Si1 0.829824 0.672167 0.639805
Si Si2 0.174925 0.335594 0.154627
Si Si3 0.172214 0.328224 0.452716
Si Si4 0.163725 0.824689 0.943593
Si Si5 0.829153 0.167351 0.744257
O O1 0.797873 0.500000 0.636981
O O2 0.726618 0.754970 0.599810
O O3 0.786652 0.730456 0.696251
O O4 0.000000 0.706800 0.627201
O O5 0.235019 0.500000 0.157226
O O6 0.239617 0.263335 0.102446
O O7 0.231500 0.252365 0.205564
O O8 0.000000 0.329167 0.153027
O O9 0.241235 0.241235 0.500000
O O10 0.204101 0.500000 0.460022
O O11 0.000000 0.295026 0.450659
O O12 0.000000 0.763100 0.934832
O O13 0.160811 0.000000 0.942701
O O14 0.225352 0.774649 0.000000
O O15 0.000000 0.174601 0.756823
O O16 0.780895 0.000000 0.731825
#
# Coordination Sequence:
#
# PCOD8309907 Si02
#       5
#     8   8   8   8   8
#     4  10  21  37  57  81 108 138 174 215 258 305
#     4   9  16  25  40  65  95 123 155 200 248 291
#     4  11  24  40  59  84 112 142 177 215 255 302
#     4   8  13  22  38  60  85 115 153 195 239 290
#     4   9  17  30  49  72  99 132 167 203 247 298
#
# _framework density 18.650549000000002
#
# number of rings (size 3 to 8) (size 9 to 14) (size 15 to 20)
#    0.000    2.600    0.000    3.000    0.000    8.400 
#    0.000    2.000    0.000    1.200    0.000    5.600 
#    0.000    0.000    0.000    0.000    0.000    0.000 
#
# Total GULP energy -495966.916825 kJ/mol
# GULP energy per Si atom -12399.172921 kJ/mol
# Density = 1.860810 g / cm^3
# Si number density = 18.650549 Si / 1000 Ang^3
#
#
#
# Elastic Constant Matrix: (Units=GPa)
#
#
# Indices 1 2 3 4 5 6 
#
# 1 78.3270 43.2426 66.2489 0.0000 0.0000 0.0000
# 2 43.2426 78.3272 66.2489 0.0000 0.0000 0.0000
# 3 66.2489 66.2489 168.3465 0.0000 0.0000 0.0000
# 4 0.0000 0.0000 0.0000 -3.9942 0.0000 0.0000
# 5 0.0000 0.0000 0.0000 0.0000 -3.9942 0.0000
# 6 0.0000 0.0000 0.0000 0.0000 0.0000 17.1175
#
#
#
# Elastic Compliance Matrix: (Units=1/GPa)
#
#
# Indices 1 2 3 4 5 6 
#
# 1 0.021453 -0.007050 -0.005668 0.000000 0.000000 0.000000
# 2 -0.007050 0.021453 -0.005668 0.000000 0.000000 0.000000
# 3 -0.005668 -0.005668 0.010401 0.000000 0.000000 0.000000
# 4 0.000000 0.000000 0.000000 -0.250363 0.000000 0.000000
# 5 0.000000 0.000000 0.000000 0.000000 -0.250363 0.000000
# 6 0.000000 0.000000 0.000000 0.000000 0.000000 0.058420
#
#
# Mechanical properties :
#
#
# Convention : Reuss Voigt Hill
#
# Bulk Modulus (GPa) = 60.47589 75.16460 67.82024
# Shear Modulus (GPa) = -14.42107 11.77651 -1.32228
#
# Velocity S-wave (km/s) = -2.78371 2.51555 -0.84292
# Velocity P-wave (km/s) = 4.70788 6.98759 5.95779
#
# Compressibility (1/GPa) = 0.01653552
#
# Stress axis : x y z
#
# Youngs Moduli (GPa) = 46.61345 46.61358 96.14241
#
# Poissons Ratio (x) = 0.32861 0.54495
# Poissons Ratio (y) = 0.32861 0.54494
# Poissons Ratio (z) = 0.26421 0.26421
#
# Static dielectric constant tensor:
#      x y z
#    x 3.283290 0.000000 0.000000 
#    y 0.000000 3.283290 0.000000 
#    z 0.000000 0.000000 3.729840 
# 
# 
# High freq. dielectric constant tensor:
#      x y z
#    x 1.700090 0.000000 0.000000 
#    y 0.000000 1.700090 0.000000 
#    z 0.000000 0.000000 1.744080 
# 
# From -- ./inp_files/5433.got.cif
#   From: 2010.03.12/outbox.cif.g09.slc.cpg/sg115_3_cif.got.tgz:5433.got - 2010.04.14 02:11:21.
