data_PCOD8309068
_publ_section_title
;
Structure prediction by ZEFSAII (Michael W. Deem and Ramdas Pophale) SiO2 
 PCOD8309068
Probable space group: P -4 21 C
;
_chemical_formula_sum "Si O2"
_cell_formula_units_Z 50
_cell_length_a 9.099276
_cell_length_b 9.099276
_cell_length_c 29.232274
_cell_angle_alpha 90.000000
_cell_angle_beta 90.000000
_cell_angle_gamma 90.000000
_cell_volume 2420.339437
_symmetry_space_group_name_H-M "P -4 21 C"
_symmetry_group_IT_number 114
_symmetry_cell_setting 'tetragonal'
loop_
_space_group_symop_operation_xyz
x,y,z
y,-x,-z
-x,-y,z
-y,x,-z
1/2+x,1/2-y,1/2-z
1/2-x,1/2+y,1/2-z
1/2-y,1/2-x,1/2+z
1/2+y,1/2+x,1/2+z
loop_
_atom_site_type_symbol
_atom_site_label
_atom_site_fract_x
_atom_site_fract_y
_atom_site_fract_z
Si Si1 0.158781 0.529703 0.543677
Si Si2 0.500000 0.500000 0.000000
Si Si3 0.840683 0.058843 0.783344
Si Si4 0.638582 0.410511 0.625823
Si Si5 0.406116 0.139650 0.214808
Si Si6 0.244537 0.208749 0.533701
Si Si7 0.063969 0.643394 0.883254
O O1 0.251630 0.604159 0.583731
O O2 0.218387 0.378749 0.521890
O O3 0.143071 0.642808 0.502414
O O4 0.000000 0.500000 0.565394
O O5 0.597578 0.392139 0.967720
O O6 0.849670 0.232589 0.774430
O O7 0.775256 0.994671 0.831877
O O8 0.775867 0.983738 0.738705
O O9 0.000000 0.000000 0.790473
O O10 0.500000 0.500000 0.607397
O O11 0.567564 0.249034 0.635699
O O12 0.421619 0.150889 0.160474
O O13 0.500000 0.000000 0.233923
O O14 0.315239 0.216360 0.584288
O O15 0.000000 0.500000 0.909338
#
# Coordination Sequence:
#
# PCOD8309068 Si02
#       7
#     8   2   8   8   8   8   8
#     4  12  25  40  67  98 129 174 226 260 335 393
#     4  12  28  44  60  92 144 168 204 284 344 376
#     4  11  22  42  65  95 137 168 217 279 328 396
#     4  11  22  44  67  95 133 170 220 281 318 386
#     4  11  23  41  68  97 128 176 219 268 339 399
#     4  12  25  45  65  96 134 174 219 278 326 392
#     4  11  24  42  71  97 127 174 225 269 330 399
#
# _framework density 20.658256999999999
#
# number of rings (size 3 to 8) (size 9 to 14) (size 15 to 20)
#    0.000    0.640    6.400    2.400    4.480    0.640 
#    1.440    1.600    0.000    0.000    0.000    0.000 
#    0.000    0.000    0.000    0.000    0.000    0.000 
#
# Total GULP energy -619511.151541 kJ/mol
# GULP energy per Si atom -12390.223031 kJ/mol
# Density = 2.061124 g / cm^3
# Si number density = 20.658257 Si / 1000 Ang^3
#
#
#
# Elastic Constant Matrix: (Units=GPa)
#
#
# Indices 1 2 3 4 5 6 
#
# 1 98.1083 21.4013 31.5466 0.0000 0.0000 0.0000
# 2 21.4013 98.1083 31.5466 0.0000 0.0000 0.0000
# 3 31.5466 31.5466 99.0338 0.0000 0.0000 0.0000
# 4 0.0000 0.0000 0.0000 30.3344 0.0000 0.0000
# 5 0.0000 0.0000 0.0000 0.0000 30.3344 0.0000
# 6 0.0000 0.0000 0.0000 0.0000 0.0000 41.3281
#
#
#
# Elastic Compliance Matrix: (Units=1/GPa)
#
#
# Indices 1 2 3 4 5 6 
#
# 1 0.011548 -0.001489 -0.003204 0.000000 0.000000 0.000000
# 2 -0.001489 0.011548 -0.003204 0.000000 0.000000 0.000000
# 3 -0.003204 -0.003204 0.012139 0.000000 0.000000 0.000000
# 4 0.000000 0.000000 0.000000 0.032966 0.000000 0.000000
# 5 0.000000 0.000000 0.000000 0.000000 0.032966 0.000000
# 6 0.000000 0.000000 0.000000 0.000000 0.000000 0.024197
#
#
# Mechanical properties :
#
#
# Convention : Reuss Voigt Hill
#
# Bulk Modulus (GPa) = 51.43986 51.58217 51.51102
# Shear Modulus (GPa) = 33.86664 34.44974 34.15819
#
# Velocity S-wave (km/s) = 4.05331 4.08806 4.07072
# Velocity P-wave (km/s) = 6.84545 6.87797 6.86173
#
# Compressibility (1/GPa) = 0.01944018
#
# Stress axis : x y z
#
# Youngs Moduli (GPa) = 86.59576 86.59576 82.37927
#
# Poissons Ratio (x) = 0.12892 0.26397
# Poissons Ratio (y) = 0.12892 0.26397
# Poissons Ratio (z) = 0.27748 0.27748
#
# Static dielectric constant tensor:
#      x y z
#    x 3.996450 0.000000 0.000000 
#    y 0.000000 3.996450 0.000000 
#    z 0.000000 0.000000 3.636530 
# 
# 
# High freq. dielectric constant tensor:
#      x y z
#    x 1.813480 0.000000 0.000000 
#    y 0.000000 1.813480 0.000000 
#    z 0.000000 0.000000 1.801190 
# 
# From -- ./inp_files/4019.got.cif
#   From: 2010.03.12/outbox.cif.g09.slc.cpg/sg114_3_cif.got.tgz:4019.got - 2010.04.14 02:08:34.
