data_PCOD8309117
_publ_section_title
;
Structure prediction by ZEFSAII (Michael W. Deem and Ramdas Pophale) SiO2 
 PCOD8309117
Probable space group: P -4 21 C
;
_chemical_formula_sum "Si O2"
_cell_formula_units_Z 26
_cell_length_a 8.205879
_cell_length_b 8.205879
_cell_length_c 14.468633
_cell_angle_alpha 90.000000
_cell_angle_beta 90.000000
_cell_angle_gamma 90.000000
_cell_volume 974.266385
_symmetry_space_group_name_H-M "P -4 21 C"
_symmetry_group_IT_number 114
_symmetry_cell_setting 'tetragonal'
loop_
_space_group_symop_operation_xyz
x,y,z
y,-x,-z
-x,-y,z
-y,x,-z
1/2+x,1/2-y,1/2-z
1/2-x,1/2+y,1/2-z
1/2-y,1/2-x,1/2+z
1/2+y,1/2+x,1/2+z
loop_
_atom_site_type_symbol
_atom_site_label
_atom_site_fract_x
_atom_site_fract_y
_atom_site_fract_z
Si Si1 0.830708 0.317076 0.299709
Si Si2 0.402608 0.832592 0.934650
Si Si3 0.000000 0.000000 0.500000
Si Si4 0.819626 0.679395 0.363687
O O1 0.683072 0.217443 0.347720
O O2 0.806603 0.505776 0.314830
O O3 0.815786 0.290812 0.188293
O O4 0.997841 0.250890 0.344946
O O5 0.520436 0.669937 0.941175
O O6 0.500000 0.000000 0.926527
O O7 0.290887 0.838701 0.027239
#
# Coordination Sequence:
#
# PCOD8309117 Si02
#       4
#     8   8   2   8
#     4  11  27  46  77 110 157 205 259 336 394 488
#     4  12  25  47  78 116 152 213 271 325 408 485
#     4  12  24  44  84 108 156 214 256 328 416 460
#     4  11  26  49  72 119 152 206 266 318 411 483
#
# _framework density 26.686747
#
# number of rings (size 3 to 8) (size 9 to 14) (size 15 to 20)
#    0.000    0.615    6.154    0.000    8.615    3.692 
#    0.000    0.000    0.000    0.923    0.000    0.000 
#    0.000    0.000    0.000    0.000    0.000    0.000 
#
# Total GULP energy -322464.747877 kJ/mol
# GULP energy per Si atom -12402.490303 kJ/mol
# Density = 2.662601 g / cm^3
# Si number density = 26.686747 Si / 1000 Ang^3
#
#
#
# Elastic Constant Matrix: (Units=GPa)
#
#
# Indices 1 2 3 4 5 6 
#
# 1 110.0973 41.0324 18.9962 0.0000 0.0000 0.0000
# 2 41.0324 110.0973 18.9962 0.0000 0.0000 0.0000
# 3 18.9962 18.9962 114.0576 0.0000 0.0000 0.0000
# 4 0.0000 0.0000 0.0000 38.9581 0.0000 0.0000
# 5 0.0000 0.0000 0.0000 0.0000 38.9581 0.0000
# 6 0.0000 0.0000 0.0000 0.0000 0.0000 52.9971
#
#
#
# Elastic Compliance Matrix: (Units=1/GPa)
#
#
# Indices 1 2 3 4 5 6 
#
# 1 0.010693 -0.003787 -0.001150 0.000000 0.000000 0.000000
# 2 -0.003787 0.010693 -0.001150 0.000000 0.000000 0.000000
# 3 -0.001150 -0.001150 0.009151 0.000000 0.000000 0.000000
# 4 0.000000 0.000000 0.000000 0.025669 0.000000 0.000000
# 5 0.000000 0.000000 0.000000 0.000000 0.025669 0.000000
# 6 0.000000 0.000000 0.000000 0.000000 0.000000 0.018869
#
#
# Mechanical properties :
#
#
# Convention : Reuss Voigt Hill
#
# Bulk Modulus (GPa) = 54.46078 54.70021 54.58050
# Shear Modulus (GPa) = 42.00398 43.19784 42.60091
#
# Velocity S-wave (km/s) = 3.97163 4.02767 3.99975
# Velocity P-wave (km/s) = 6.44077 6.49393 6.46740
#
# Compressibility (1/GPa) = 0.01836184
#
# Stress axis : x y z
#
# Youngs Moduli (GPa) = 93.52302 93.52302 109.28219
#
# Poissons Ratio (x) = 0.35413 0.12569
# Poissons Ratio (y) = 0.35413 0.12569
# Poissons Ratio (z) = 0.10757 0.10757
#
# Static dielectric constant tensor:
#      x y z
#    x 4.836940 0.000000 0.000000 
#    y 0.000000 4.836940 0.000000 
#    z 0.000000 0.000000 4.916400 
# 
# 
# High freq. dielectric constant tensor:
#      x y z
#    x 2.070640 0.000000 0.000000 
#    y 0.000000 2.070640 0.000000 
#    z 0.000000 0.000000 2.090090 
# 
# From -- ./inp_files/2379.got.cif
#   From: 2010.03.12/outbox.cif.g09.slc.cpg/sg114_2_cif.got.tgz:2379.got - 2010.04.14 02:08:34.
