data_PCOD8309085
_publ_section_title
;
Structure prediction by ZEFSAII (Michael W. Deem and Ramdas Pophale) SiO2 
 PCOD8309085
Probable space group: P -4 21 C
;
_chemical_formula_sum "Si O2"
_cell_formula_units_Z 36
_cell_length_a 13.097369
_cell_length_b 13.097369
_cell_length_c 9.591971
_cell_angle_alpha 90.000000
_cell_angle_beta 90.000000
_cell_angle_gamma 90.000000
_cell_volume 1645.417014
_symmetry_space_group_name_H-M "P -4 21 C"
_symmetry_group_IT_number 114
_symmetry_cell_setting 'tetragonal'
loop_
_space_group_symop_operation_xyz
x,y,z
y,-x,-z
-x,-y,z
-y,x,-z
1/2+x,1/2-y,1/2-z
1/2-x,1/2+y,1/2-z
1/2-y,1/2-x,1/2+z
1/2+y,1/2+x,1/2+z
loop_
_atom_site_type_symbol
_atom_site_label
_atom_site_fract_x
_atom_site_fract_y
_atom_site_fract_z
Si Si1 0.274310 0.768078 0.342478
Si Si2 0.681693 0.102305 0.590060
Si Si3 0.000000 0.500000 0.069336
Si Si4 0.096964 0.875065 0.999604
Si Si5 0.198600 0.577065 0.723156
O O1 0.251255 0.850822 0.464314
O O2 0.309300 0.832875 0.206869
O O3 0.362505 0.688578 0.388465
O O4 0.178461 0.695049 0.316077
O O5 0.574402 0.063898 0.529798
O O6 0.736969 0.009975 0.670012
O O7 0.943836 0.415394 0.164881
O O8 0.097569 0.782353 0.106717
O O9 0.984977 0.880503 0.926683
#
# Coordination Sequence:
#
# PCOD8309085 Si02
#       5
#     8   8   4   8   8
#     4  12  26  47  73 108 155 192 250 313 384 446
#     4  12  25  47  73 112 149 196 247 323 373 458
#     4  12  26  48  80 114 150 196 262 310 392 448
#     4  11  23  44  70  99 142 199 247 293 375 457
#     4  12  26  47  74 110 147 197 248 316 380 446
#
# _framework density 21.87895
#
# number of rings (size 3 to 8) (size 9 to 14) (size 15 to 20)
#    0.000    0.222    6.667    2.000    0.000    3.556 
#    0.000    0.000    0.000    0.000    0.000    0.000 
#    0.000    0.000    0.000    0.000    0.000    0.000 
#
# Total GULP energy -446099.278261 kJ/mol
# GULP energy per Si atom -12391.646618 kJ/mol
# Density = 2.182915 g / cm^3
# Si number density = 21.878950 Si / 1000 Ang^3
#
#
#
# Elastic Constant Matrix: (Units=GPa)
#
#
# Indices 1 2 3 4 5 6 
#
# 1 130.5132 32.5894 54.3322 0.0000 0.0000 0.0000
# 2 32.5894 130.5132 54.3322 0.0000 0.0000 0.0000
# 3 54.3322 54.3322 137.6371 0.0000 0.0000 0.0000
# 4 0.0000 0.0000 0.0000 33.6837 0.0000 0.0000
# 5 0.0000 0.0000 0.0000 0.0000 33.6837 0.0000
# 6 0.0000 0.0000 0.0000 0.0000 0.0000 31.8735
#
#
#
# Elastic Compliance Matrix: (Units=1/GPa)
#
#
# Indices 1 2 3 4 5 6 
#
# 1 0.009265 -0.000947 -0.003284 0.000000 0.000000 0.000000
# 2 -0.000947 0.009265 -0.003284 0.000000 0.000000 0.000000
# 3 -0.003284 -0.003284 0.009858 0.000000 0.000000 0.000000
# 4 0.000000 0.000000 0.000000 0.029688 0.000000 0.000000
# 5 0.000000 0.000000 0.000000 0.000000 0.029688 0.000000
# 6 0.000000 0.000000 0.000000 0.000000 0.000000 0.031374
#
#
# Mechanical properties :
#
#
# Convention : Reuss Voigt Hill
#
# Bulk Modulus (GPa) = 74.84797 75.68568 75.26683
# Shear Modulus (GPa) = 36.06951 37.00882 36.53916
#
# Velocity S-wave (km/s) = 4.06469 4.11728 4.09107
# Velocity P-wave (km/s) = 7.50422 7.56774 7.53604
#
# Compressibility (1/GPa) = 0.01336042
#
# Stress axis : x y z
#
# Youngs Moduli (GPa) = 107.92736 107.92736 101.43916
#
# Poissons Ratio (x) = 0.10216 0.33312
# Poissons Ratio (y) = 0.10216 0.33312
# Poissons Ratio (z) = 0.35442 0.35442
#
# Static dielectric constant tensor:
#      x y z
#    x 4.213400 0.000000 0.000000 
#    y 0.000000 4.213400 0.000000 
#    z 0.000000 0.000000 4.134200 
# 
# 
# High freq. dielectric constant tensor:
#      x y z
#    x 1.865080 0.000000 0.000000 
#    y 0.000000 1.865080 0.000000 
#    z 0.000000 0.000000 1.858900 
# 
# From -- ./inp_files/709.got.cif
#   From: 2010.03.12/outbox.cif.g09.slc.cpg/sg114_1_cif.got.tgz:709.got - 2010.04.14 02:08:34.
