data_PCOD8309591
_publ_section_title
;
Structure prediction by ZEFSAII (Michael W. Deem and Ramdas Pophale) SiO2 
 PCOD8309591
Probable space group: P -4 M 2
;
_chemical_formula_sum "Si O2"
_cell_formula_units_Z 40
_cell_length_a 9.150350
_cell_length_b 9.150350
_cell_length_c 25.626227
_cell_angle_alpha 90.000000
_cell_angle_beta 90.000000
_cell_angle_gamma 90.000000
_cell_volume 2145.655929
_symmetry_space_group_name_H-M "P -4 M 2"
_symmetry_group_IT_number 115
_symmetry_cell_setting 'tetragonal'
loop_
_space_group_symop_operation_xyz
x,y,z
y,-x,-z
-x,-y,z
-y,x,-z
y,x,-z
-y,-x,-z
-x,y,z
x,-y,z
loop_
_atom_site_type_symbol
_atom_site_label
_atom_site_fract_x
_atom_site_fract_y
_atom_site_fract_z
Si Si1 0.332619 0.668517 0.939527
Si Si2 0.674341 0.663073 0.442887
Si Si3 0.827940 0.168460 0.148300
Si Si4 0.670620 0.329354 0.758444
Si Si5 0.836172 0.673969 0.655842
O O1 0.500000 0.707526 0.925711
O O2 0.302218 0.500000 0.925618
O O3 0.224046 0.769962 0.907198
O O4 0.301242 0.698759 0.000000
O O5 0.723121 0.723121 0.500000
O O6 0.500000 0.658402 0.441457
O O7 0.735997 0.500000 0.433414
O O8 0.737517 0.766399 0.397402
O O9 0.756896 0.263016 0.193583
O O10 0.000000 0.190638 0.149980
O O11 0.783607 0.000000 0.155590
O O12 0.500000 0.296329 0.754685
O O13 0.702331 0.500000 0.766965
O O14 0.743904 0.271196 0.705302
O O15 0.835121 0.500000 0.653737
O O16 0.000000 0.735330 0.660894
#
# Coordination Sequence:
#
# PCOD8309591 Si02
#       5
#     8   8   8   8   8
#     4   9  19  37  60  84 108 135 171 214 256 299
#     4   8  13  22  38  61  89 121 158 200 244 291
#     4  11  24  38  52  75 108 142 174 210 254 305
#     4  10  20  34  54  78 102 131 171 217 261 307
#     4   9  16  26  43  69  99 128 160 203 254 304
#
# _framework density 18.642316999999998
#
# number of rings (size 3 to 8) (size 9 to 14) (size 15 to 20)
#    0.000    2.600    0.000    3.600    0.000    8.800 
#    0.000    3.000    0.000    1.200    0.000    2.800 
#    0.000    0.000    0.000    0.000    0.000    0.000 
#
# Total GULP energy -495986.210764 kJ/mol
# GULP energy per Si atom -12399.655269 kJ/mol
# Density = 1.859989 g / cm^3
# Si number density = 18.642317 Si / 1000 Ang^3
#
#
#
# Elastic Constant Matrix: (Units=GPa)
#
#
# Indices 1 2 3 4 5 6 
#
# 1 80.5987 45.8921 57.5959 0.0000 0.0000 0.0000
# 2 45.8921 80.5986 57.5960 0.0000 0.0000 0.0000
# 3 57.5959 57.5960 140.7073 0.0000 0.0000 0.0000
# 4 0.0000 0.0000 0.0000 3.4454 0.0000 0.0000
# 5 0.0000 0.0000 0.0000 0.0000 3.4454 0.0000
# 6 0.0000 0.0000 0.0000 0.0000 0.0000 21.7380
#
#
#
# Elastic Compliance Matrix: (Units=1/GPa)
#
#
# Indices 1 2 3 4 5 6 
#
# 1 0.020709 -0.008104 -0.005159 0.000000 0.000000 0.000000
# 2 -0.008104 0.020709 -0.005159 0.000000 0.000000 0.000000
# 3 -0.005159 -0.005159 0.011331 0.000000 0.000000 0.000000
# 4 0.000000 0.000000 0.000000 0.290246 0.000000 0.000000
# 5 0.000000 0.000000 0.000000 0.000000 0.290244 0.000000
# 6 0.000000 0.000000 0.000000 0.000000 0.000000 0.046002
#
#
# Mechanical properties :
#
#
# Convention : Reuss Voigt Hill
#
# Bulk Modulus (GPa) = 62.88577 69.34138 66.11357
# Shear Modulus (GPa) = 6.93110 15.11378 11.02244
#
# Velocity S-wave (km/s) = 1.93029 2.85041 2.43422
# Velocity P-wave (km/s) = 6.22688 6.93611 6.59104
#
# Compressibility (1/GPa) = 0.01590185
#
# Stress axis : x y z
#
# Youngs Moduli (GPa) = 48.28923 48.28912 88.25610
#
# Poissons Ratio (x) = 0.39136 0.45534
# Poissons Ratio (y) = 0.39136 0.45534
# Poissons Ratio (z) = 0.24914 0.24914
#
# Static dielectric constant tensor:
#      x y z
#    x 3.277060 0.000000 0.000000 
#    y 0.000000 3.277060 0.000000 
#    z 0.000000 0.000000 3.673510 
# 
# 
# High freq. dielectric constant tensor:
#      x y z
#    x 1.700020 0.000000 0.000000 
#    y 0.000000 1.700020 0.000000 
#    z 0.000000 0.000000 1.743090 
# 
# From -- ./inp_files/5071.got.cif
#   From: 2010.03.12/outbox.cif.g09.slc.cpg/sg115_3_cif.got.tgz:5071.got - 2010.04.14 02:11:21.
