data_PCOD8309518
_publ_section_title
;
Structure prediction by ZEFSAII (Michael W. Deem and Ramdas Pophale) SiO2 
 PCOD8309518
Probable space group: P -4 M 2
;
_chemical_formula_sum "Si O2"
_cell_formula_units_Z 48
_cell_length_a 9.100491
_cell_length_b 9.100491
_cell_length_c 30.652662
_cell_angle_alpha 90.000000
_cell_angle_beta 90.000000
_cell_angle_gamma 90.000000
_cell_volume 2538.620866
_symmetry_space_group_name_H-M "P -4 M 2"
_symmetry_group_IT_number 115
_symmetry_cell_setting 'tetragonal'
loop_
_space_group_symop_operation_xyz
x,y,z
y,-x,-z
-x,-y,z
-y,x,-z
y,x,-z
-y,-x,-z
-x,y,z
x,-y,z
loop_
_atom_site_type_symbol
_atom_site_label
_atom_site_fract_x
_atom_site_fract_y
_atom_site_fract_z
Si Si1 0.329474 0.328756 0.702746
Si Si2 0.174878 0.163760 0.952300
Si Si3 0.168078 0.826756 0.375209
Si Si4 0.330031 0.331941 0.550392
Si Si5 0.666255 0.825427 0.131518
Si Si6 0.670270 0.828444 0.790807
O O1 0.500000 0.297180 0.693596
O O2 0.296852 0.500000 0.708365
O O3 0.238490 0.268253 0.662540
O O4 0.276220 0.248441 0.746519
O O5 0.233621 0.271685 0.914676
O O6 0.000000 0.156244 0.952011
O O7 0.238600 0.000000 0.943765
O O8 0.224351 0.224351 0.000000
O O9 0.222323 0.768615 0.421750
O O10 0.000000 0.777905 0.368012
O O11 0.184932 0.000000 0.374738
O O12 0.298084 0.298084 0.500000
O O13 0.500000 0.304336 0.561583
O O14 0.288524 0.500000 0.561506
O O15 0.500000 0.768264 0.136657
O O16 0.765920 0.763592 0.169713
O O17 0.673755 0.000000 0.133417
O O18 0.500000 0.794472 0.799672
O O19 0.702038 0.000000 0.786236
#
# Coordination Sequence:
#
# PCOD8309518 Si02
#       6
#     8   8   8   8   8   8
#     4  10  21  38  60  82 104 135 176 220 266 317
#     4   8  14  27  48  71  96 131 175 219 260 303
#     4  11  24  38  53  79 114 147 179 218 264 313
#     4   9  19  37  60  84 109 140 181 225 267 315
#     4  10  20  33  51  77 108 141 175 212 259 314
#     4  10  21  37  57  80 105 136 175 217 263 315
#
# _framework density 18.907906000000001
#
# number of rings (size 3 to 8) (size 9 to 14) (size 15 to 20)
#    0.000    2.333    0.000    3.500    0.000    8.000 
#    0.000    3.333    0.000    3.000    0.000    0.000 
#    0.000    0.000    0.000    0.000    0.000    0.000 
#
# Total GULP energy -595293.478243 kJ/mol
# GULP energy per Si atom -12401.947463 kJ/mol
# Density = 1.886487 g / cm^3
# Si number density = 18.907906 Si / 1000 Ang^3
#
#
#
# Elastic Constant Matrix: (Units=GPa)
#
#
# Indices 1 2 3 4 5 6 
#
# 1 74.3935 39.3535 51.5159 0.0000 0.0000 0.0000
# 2 39.3535 74.3935 51.5159 0.0000 0.0000 0.0000
# 3 51.5159 51.5159 134.4053 0.0000 0.0000 0.0000
# 4 0.0000 0.0000 0.0000 36.7757 0.0000 0.0000
# 5 0.0000 0.0000 0.0000 0.0000 36.7757 0.0000
# 6 0.0000 0.0000 0.0000 0.0000 0.0000 27.9821
#
#
#
# Elastic Compliance Matrix: (Units=1/GPa)
#
#
# Indices 1 2 3 4 5 6 
#
# 1 0.021003 -0.007536 -0.005162 0.000000 0.000000 0.000000
# 2 -0.007536 0.021003 -0.005162 0.000000 0.000000 0.000000
# 3 -0.005162 -0.005162 0.011397 0.000000 0.000000 0.000000
# 4 0.000000 0.000000 0.000000 0.027192 0.000000 0.000000
# 5 0.000000 0.000000 0.000000 0.000000 0.027192 0.000000
# 6 0.000000 0.000000 0.000000 0.000000 0.000000 0.035737
#
#
# Mechanical properties :
#
#
# Convention : Reuss Voigt Hill
#
# Bulk Modulus (GPa) = 56.54824 63.10699 59.82762
# Shear Modulus (GPa) = 27.00700 29.69381 28.35040
#
# Velocity S-wave (km/s) = 3.78344 3.96718 3.87640
# Velocity P-wave (km/s) = 7.00415 7.37788 7.19344
#
# Compressibility (1/GPa) = 0.01768402
#
# Stress axis : x y z
#
# Youngs Moduli (GPa) = 47.61249 47.61249 87.74224
#
# Poissons Ratio (x) = 0.35881 0.45290
# Poissons Ratio (y) = 0.35881 0.45290
# Poissons Ratio (z) = 0.24576 0.24576
#
# Static dielectric constant tensor:
#      x y z
#    x 3.306810 0.000000 0.000000 
#    y 0.000000 3.306810 0.000000 
#    z 0.000000 0.000000 3.684300 
# 
# 
# High freq. dielectric constant tensor:
#      x y z
#    x 1.725240 0.000000 0.000000 
#    y 0.000000 1.725240 0.000000 
#    z 0.000000 0.000000 1.751100 
# 
# From -- ./inp_files/6045.got.cif
#   From: 2010.03.12/outbox.cif.g09.slc.cpg/sg115_4_cif.got.tgz:6045.got - 2010.04.14 02:11:21.
