data_PCOD8309526
_publ_section_title
;
Structure prediction by ZEFSAII (Michael W. Deem and Ramdas Pophale) SiO2 
 PCOD8309526
Probable space group: P -4 M 2
;
_chemical_formula_sum "Si O2"
_cell_formula_units_Z 40
_cell_length_a 14.469086
_cell_length_b 14.469086
_cell_length_c 10.104323
_cell_angle_alpha 90.000000
_cell_angle_beta 90.000000
_cell_angle_gamma 90.000000
_cell_volume 2115.384981
_symmetry_space_group_name_H-M "P -4 M 2"
_symmetry_group_IT_number 115
_symmetry_cell_setting 'tetragonal'
loop_
_space_group_symop_operation_xyz
x,y,z
y,-x,-z
-x,-y,z
-y,x,-z
y,x,-z
-y,-x,-z
-x,y,z
x,-y,z
loop_
_atom_site_type_symbol
_atom_site_label
_atom_site_fract_x
_atom_site_fract_y
_atom_site_fract_z
Si Si1 0.893265 0.895045 0.344584
Si Si2 0.788289 0.398475 0.742245
Si Si3 0.791828 0.715924 0.277715
Si Si4 0.605000 0.102540 0.508662
Si Si5 0.245314 0.393942 0.030624
O O1 0.878435 0.878435 0.500000
O O2 0.831922 0.820313 0.264212
O O3 0.000000 0.880206 0.306409
O O4 0.862928 0.000000 0.307164
O O5 0.742736 0.500000 0.717980
O O6 0.715429 0.318978 0.704989
O O7 0.877123 0.386845 0.647788
O O8 0.816930 0.389565 0.896854
O O9 0.829787 0.668310 0.408208
O O10 0.813917 0.657348 0.145095
O O11 0.500000 0.112204 0.557804
O O12 0.642976 0.000000 0.532468
O O13 0.265779 0.500000 0.071858
O O14 0.342510 0.342510 0.000000
#
# Coordination Sequence:
#
# PCOD8309526 Si02
#       5
#     8   8   8   8   8
#     4   9  18  32  51  78 110 143 183 228 272 324
#     4   9  19  35  52  72 102 140 179 216 258 317
#     4  11  19  31  55  82 107 138 175 226 277 317
#     4  10  20  33  51  78 110 142 177 217 264 319
#     4   9  19  35  54  77 105 139 179 221 268 324
#
# _framework density 18.909089000000002
#
# number of rings (size 3 to 8) (size 9 to 14) (size 15 to 20)
#    0.000    2.400    0.000    3.600    0.000    2.600 
#    0.000    2.000    0.000   21.000    0.000   26.600 
#    0.000    0.000    0.000    0.000    0.000    0.000 
#
# Total GULP energy -495713.700748 kJ/mol
# GULP energy per Si atom -12392.842519 kJ/mol
# Density = 1.886605 g / cm^3
# Si number density = 18.909089 Si / 1000 Ang^3
#
#
#
# Elastic Constant Matrix: (Units=GPa)
#
#
# Indices 1 2 3 4 5 6 
#
# 1 108.7069 49.8994 57.7333 0.0000 0.0000 0.0000
# 2 49.8994 108.7069 57.7333 0.0000 0.0000 0.0000
# 3 57.7333 57.7333 103.8272 0.0000 0.0000 0.0000
# 4 0.0000 0.0000 0.0000 25.2203 0.0000 0.0000
# 5 0.0000 0.0000 0.0000 0.0000 25.2203 0.0000
# 6 0.0000 0.0000 0.0000 0.0000 0.0000 22.6980
#
#
#
# Elastic Compliance Matrix: (Units=1/GPa)
#
#
# Indices 1 2 3 4 5 6 
#
# 1 0.013799 -0.003206 -0.005890 0.000000 0.000000 0.000000
# 2 -0.003206 0.013799 -0.005890 0.000000 0.000000 0.000000
# 3 -0.005890 -0.005890 0.016182 0.000000 0.000000 0.000000
# 4 0.000000 0.000000 0.000000 0.039651 0.000000 0.000000
# 5 0.000000 0.000000 0.000000 0.000000 0.039651 0.000000
# 6 0.000000 0.000000 0.000000 0.000000 0.000000 0.044057
#
#
# Mechanical properties :
#
#
# Convention : Reuss Voigt Hill
#
# Bulk Modulus (GPa) = 72.42712 72.44145 72.43428
# Shear Modulus (GPa) = 24.78769 25.01937 24.90353
#
# Velocity S-wave (km/s) = 3.62455 3.64145 3.63301
# Velocity P-wave (km/s) = 7.47679 7.48824 7.48252
#
# Compressibility (1/GPa) = 0.01380698
#
# Stress axis : x y z
#
# Youngs Moduli (GPa) = 72.46970 72.46970 61.79699
#
# Poissons Ratio (x) = 0.23232 0.36400
# Poissons Ratio (y) = 0.23232 0.36400
# Poissons Ratio (z) = 0.42687 0.42687
#
# Static dielectric constant tensor:
#      x y z
#    x 3.538360 0.000000 0.000000 
#    y 0.000000 3.538360 0.000000 
#    z 0.000000 0.000000 3.502530 
# 
# 
# High freq. dielectric constant tensor:
#      x y z
#    x 1.729200 0.000000 0.000000 
#    y 0.000000 1.729200 0.000000 
#    z 0.000000 0.000000 1.725770 
# 
# From -- ./inp_files/1578.got.cif
#   From: 2010.03.12/outbox.cif.g09.slc.cpg/sg115_1_cif.got.tgz:1578.got - 2010.04.14 02:11:21.
