data_PCOD8309359
_publ_section_title
;
Structure prediction by ZEFSAII (Michael W. Deem and Ramdas Pophale) SiO2 
 PCOD8309359
Probable space group: P -4 M 2
;
_chemical_formula_sum "Si O2"
_cell_formula_units_Z 48
_cell_length_a 9.262134
_cell_length_b 9.262134
_cell_length_c 31.235958
_cell_angle_alpha 90.000000
_cell_angle_beta 90.000000
_cell_angle_gamma 90.000000
_cell_volume 2679.643072
_symmetry_space_group_name_H-M "P -4 M 2"
_symmetry_group_IT_number 115
_symmetry_cell_setting 'tetragonal'
loop_
_space_group_symop_operation_xyz
x,y,z
y,-x,-z
-x,-y,z
-y,x,-z
y,x,-z
-y,-x,-z
-x,y,z
x,-y,z
loop_
_atom_site_type_symbol
_atom_site_label
_atom_site_fract_x
_atom_site_fract_y
_atom_site_fract_z
Si Si1 0.667760 0.332241 0.000000
Si Si2 0.667448 0.167616 0.583166
Si Si3 0.165551 0.168307 0.333067
Si Si4 0.328797 0.165815 0.826074
Si Si5 0.672339 0.663421 0.908286
Si Si6 0.332232 0.667769 0.500000
Si Si7 0.331653 0.831410 0.248428
O O1 0.727822 0.270504 0.954451
O O2 0.500000 0.300099 0.003645
O O3 0.500000 0.201613 0.590262
O O4 0.749755 0.223634 0.625132
O O5 0.727717 0.250979 0.541789
O O6 0.697891 0.000000 0.575475
O O7 0.263876 0.216961 0.293486
O O8 0.000000 0.210865 0.322812
O O9 0.180973 0.000000 0.342365
O O10 0.500000 0.180621 0.822173
O O11 0.271779 0.232705 0.870730
O O12 0.258291 0.254244 0.788095
O O13 0.278998 0.000000 0.823897
O O14 0.500000 0.659384 0.909509
O O15 0.729995 0.500000 0.900324
O O16 0.500000 0.700420 0.493290
O O17 0.500000 0.793101 0.248803
O O18 0.304005 0.000000 0.240085
#
# Coordination Sequence:
#
# PCOD8309359 Si02
#       7
#     4   8   8   8   8   4   8
#     4   7  10  18  36  62  88 117 154 194 238 283
#     4   9  18  32  49  70  96 125 157 193 232 275
#     4   9  18  33  51  70  94 124 156 192 237 287
#     4  10  20  32  48  72 100 130 164 200 240 288
#     4   8  13  23  41  65  92 121 156 199 242 282
#     4   9  18  32  48  67  94 126 156 187 228 276
#     4  10  21  36  53  73  97 126 162 203 246 293
#
# _framework density 17.912832999999999
#
# number of rings (size 3 to 8) (size 9 to 14) (size 15 to 20)
#    0.000    3.000    0.000    2.000    0.000    4.000 
#    0.000    1.667    0.000    1.000    0.000    4.667 
#    0.000    0.000    0.000    0.000    0.000    0.000 
#
# Total GULP energy -594956.651805 kJ/mol
# GULP energy per Si atom -12394.930246 kJ/mol
# Density = 1.787206 g / cm^3
# Si number density = 17.912833 Si / 1000 Ang^3
#
#
#
# Elastic Constant Matrix: (Units=GPa)
#
#
# Indices 1 2 3 4 5 6 
#
# 1 59.4339 30.7831 67.4327 0.0000 0.0000 0.0000
# 2 30.7831 59.4339 67.4327 0.0000 0.0000 0.0000
# 3 67.4327 67.4327 201.8622 0.0000 0.0000 0.0000
# 4 0.0000 0.0000 0.0000 -6.5292 0.0000 0.0000
# 5 0.0000 0.0000 0.0000 0.0000 -6.5299 0.0000
# 6 0.0000 0.0000 0.0000 0.0000 0.0000 19.6870
#
#
#
# Elastic Compliance Matrix: (Units=1/GPa)
#
#
# Indices 1 2 3 4 5 6 
#
# 1 0.028522 -0.006381 -0.007396 0.000000 0.000000 0.000000
# 2 -0.006381 0.028522 -0.007396 0.000000 0.000000 0.000000
# 3 -0.007396 -0.007396 0.009895 0.000000 0.000000 0.000000
# 4 0.000000 0.000000 0.000000 -0.153159 0.000000 0.000000
# 5 0.000000 0.000000 0.000000 0.000000 -0.153143 0.000000
# 6 0.000000 0.000000 0.000000 0.000000 0.000000 0.050795
#
#
# Mechanical properties :
#
#
# Convention : Reuss Voigt Hill
#
# Bulk Modulus (GPa) = 40.66292 72.44744 56.55518
# Shear Modulus (GPa) = -36.22592 11.66437 -12.28078
#
# Velocity S-wave (km/s) = -4.50193 2.55458 -2.62121
# Velocity P-wave (km/s) = 2.06722 7.01665 4.74131
#
# Compressibility (1/GPa) = 0.02459243
#
# Stress axis : x y z
#
# Youngs Moduli (GPa) = 35.06059 35.06050 101.05697
#
# Poissons Ratio (x) = 0.22372 0.74745
# Poissons Ratio (y) = 0.22372 0.74745
# Poissons Ratio (z) = 0.25932 0.25932
#
# Static dielectric constant tensor:
#      x y z
#    x 3.181700 0.000000 0.000000 
#    y 0.000000 3.181700 0.000000 
#    z 0.000000 0.000000 3.728460 
# 
# 
# High freq. dielectric constant tensor:
#      x y z
#    x 1.668640 0.000000 0.000000 
#    y 0.000000 1.668640 0.000000 
#    z 0.000000 0.000000 1.715130 
# 
# From -- ./inp_files/6140.got.cif
#   From: 2010.03.12/outbox.cif.g09.slc.cpg/sg115_4_cif.got.tgz:6140.got - 2010.04.14 02:11:21.
