data_PCOD8309413
_publ_section_title
;
Structure prediction by ZEFSAII (Michael W. Deem and Ramdas Pophale) SiO2 
 PCOD8309413
Probable space group: P -4 M 2
;
_chemical_formula_sum "Si O2"
_cell_formula_units_Z 48
_cell_length_a 9.225590
_cell_length_b 9.225590
_cell_length_c 31.110231
_cell_angle_alpha 90.000000
_cell_angle_beta 90.000000
_cell_angle_gamma 90.000000
_cell_volume 2647.838763
_symmetry_space_group_name_H-M "P -4 M 2"
_symmetry_group_IT_number 115
_symmetry_cell_setting 'tetragonal'
loop_
_space_group_symop_operation_xyz
x,y,z
y,-x,-z
-x,-y,z
-y,x,-z
y,x,-z
-y,-x,-z
-x,y,z
x,-y,z
loop_
_atom_site_type_symbol
_atom_site_label
_atom_site_fract_x
_atom_site_fract_y
_atom_site_fract_z
Si Si1 0.662576 0.327594 0.788918
Si Si2 0.327408 0.838531 0.130614
Si Si3 0.666091 0.171909 0.629168
Si Si4 0.669828 0.830937 0.295319
Si Si5 0.828211 0.662278 0.964160
Si Si6 0.838557 0.827804 0.547057
O O1 0.500000 0.265568 0.784411
O O2 0.660355 0.500000 0.790898
O O3 0.732624 0.264580 0.832715
O O4 0.757299 0.275218 0.748606
O O5 0.500000 0.845511 0.132865
O O6 0.282093 0.780304 0.083323
O O7 0.264925 0.000000 0.138613
O O8 0.500000 0.222673 0.632760
O O9 0.759835 0.244038 0.666043
O O10 0.728677 0.227582 0.583554
O O11 0.680420 0.000000 0.633410
O O12 0.500000 0.803825 0.302484
O O13 0.707068 0.000000 0.292836
O O14 0.768955 0.500000 0.972286
O O15 0.000000 0.663266 0.966594
O O16 0.767694 0.767694 0.000000
O O17 0.779297 0.779297 0.500000
O O18 0.000000 0.764156 0.555945
O O19 0.847893 0.000000 0.547165
#
# Coordination Sequence:
#
# PCOD8309413 Si02
#       6
#     8   8   8   8   8   8
#     4   9  16  26  43  68  96 124 155 195 244 293
#     4   8  14  26  43  63  89 120 154 193 235 282
#     4  10  20  33  50  73 101 132 163 197 242 292
#     4  10  20  33  50  72  97 128 166 204 242 286
#     4   9  18  31  47  69  96 125 158 196 238 284
#     4   8  14  27  48  70  91 120 160 201 236 275
#
# _framework density 18.127994000000001
#
# number of rings (size 3 to 8) (size 9 to 14) (size 15 to 20)
#    0.000    3.000    0.000    3.000    0.000    5.000 
#    0.000    2.500    0.000    4.000    0.000    4.667 
#    0.000    0.000    0.000    0.000    0.000    0.000 
#
# Total GULP energy -595003.733159 kJ/mol
# GULP energy per Si atom -12395.911107 kJ/mol
# Density = 1.808673 g / cm^3
# Si number density = 18.127994 Si / 1000 Ang^3
#
#
#
# Elastic Constant Matrix: (Units=GPa)
#
#
# Indices 1 2 3 4 5 6 
#
# 1 63.8230 26.3252 55.9953 0.0000 0.0000 0.0000
# 2 26.3252 63.8230 55.9953 0.0000 0.0000 0.0000
# 3 55.9953 55.9953 178.5549 0.0000 0.0000 0.0000
# 4 0.0000 0.0000 0.0000 87.2875 0.0000 0.0000
# 5 0.0000 0.0000 0.0000 0.0000 87.2875 0.0000
# 6 0.0000 0.0000 0.0000 0.0000 0.0000 19.6863
#
#
#
# Elastic Compliance Matrix: (Units=1/GPa)
#
#
# Indices 1 2 3 4 5 6 
#
# 1 0.022420 -0.004248 -0.005699 0.000000 0.000000 0.000000
# 2 -0.004248 0.022420 -0.005699 0.000000 0.000000 0.000000
# 3 -0.005699 -0.005699 0.009175 0.000000 0.000000 0.000000
# 4 0.000000 0.000000 0.000000 0.011456 0.000000 0.000000
# 5 0.000000 0.000000 0.000000 0.000000 0.011456 0.000000
# 6 0.000000 0.000000 0.000000 0.000000 0.000000 0.050797
#
#
# Mechanical properties :
#
#
# Convention : Reuss Voigt Hill
#
# Bulk Modulus (GPa) = 44.00575 64.75919 54.38247
# Shear Modulus (GPa) = 30.01350 50.04460 40.02905
#
# Velocity S-wave (km/s) = 4.07337 5.25987 4.70418
# Velocity P-wave (km/s) = 6.81549 8.52579 7.71816
#
# Compressibility (1/GPa) = 0.02272430
#
# Stress axis : x y z
#
# Youngs Moduli (GPa) = 44.60217 44.60217 108.99230
#
# Poissons Ratio (x) = 0.18946 0.62115
# Poissons Ratio (y) = 0.18946 0.62115
# Poissons Ratio (z) = 0.25419 0.25419
#
# Static dielectric constant tensor:
#      x y z
#    x 0.087080 0.000000 0.000000 
#    y 0.000000 0.087080 0.000000 
#    z 0.000000 0.000000 3.738730 
# 
# 
# High freq. dielectric constant tensor:
#      x y z
#    x 1.672410 0.000000 0.000000 
#    y 0.000000 1.672410 0.000000 
#    z 0.000000 0.000000 1.722050 
# 
# From -- ./inp_files/6048.got.cif
#   From: 2010.03.12/outbox.cif.g09.slc.cpg/sg115_4_cif.got.tgz:6048.got - 2010.04.14 02:11:21.
