data_PCOD8309255
_publ_section_title
;
Structure prediction by ZEFSAII (Michael W. Deem and Ramdas Pophale) SiO2 
 PCOD8309255
Probable space group: P -4 M 2
;
_chemical_formula_sum "Si O2"
_cell_formula_units_Z 48
_cell_length_a 8.111660
_cell_length_b 8.111660
_cell_length_c 34.130383
_cell_angle_alpha 90.000000
_cell_angle_beta 90.000000
_cell_angle_gamma 90.000000
_cell_volume 2245.746025
_symmetry_space_group_name_H-M "P -4 M 2"
_symmetry_group_IT_number 115
_symmetry_cell_setting 'tetragonal'
loop_
_space_group_symop_operation_xyz
x,y,z
y,-x,-z
-x,-y,z
-y,x,-z
y,x,-z
-y,-x,-z
-x,y,z
x,-y,z
loop_
_atom_site_type_symbol
_atom_site_label
_atom_site_fract_x
_atom_site_fract_y
_atom_site_fract_z
Si Si1 0.308322 0.813498 0.623291
Si Si2 0.696019 0.316720 0.879922
Si Si3 0.811825 0.685467 0.039037
Si Si4 0.696648 0.684172 0.542055
Si Si5 0.303493 0.000000 0.832133
Si Si6 0.000000 0.193883 0.256274
Si Si7 0.320312 0.191111 0.299095
O O1 0.500000 0.766540 0.624406
O O2 0.239141 0.788605 0.579181
O O3 0.215090 0.699615 0.654333
O O4 0.275605 0.000000 0.635959
O O5 0.500000 0.305385 0.880015
O O6 0.753988 0.500000 0.865407
O O7 0.758802 0.292662 0.924637
O O8 0.764246 0.167660 0.852897
O O9 0.754455 0.500000 0.029140
O O10 0.000000 0.688957 0.053005
O O11 0.792504 0.792504 0.000000
O O12 0.758492 0.758492 0.500000
O O13 0.500000 0.684052 0.540025
O O14 0.764426 0.500000 0.548110
O O15 0.500000 0.000000 0.831023
O O16 0.230254 0.000000 0.789209
O O17 0.833538 0.273357 0.275529
O O18 0.000000 0.000000 0.264620
O O19 0.500000 0.266722 0.286716
O O20 0.323651 0.000000 0.289096
#
# Coordination Sequence:
#
# PCOD8309255 Si02
#       7
#     8   8   8   8   4   4   8
#     4  10  19  31  51  79 109 140 176 224 281 331
#     4   9  17  32  55  81 111 147 186 232 286 340
#     4  10  19  32  51  77 109 145 188 235 279 330
#     4   8  14  26  44  66  96 136 178 217 260 315
#     4  10  20  36  58  84 112 144 186 234 282 344
#     4  10  22  40  58  80 112 144 176 226 288 342
#     4  10  21  38  59  80 105 142 184 224 277 344
#
# _framework density 21.373743000000001
#
# number of rings (size 3 to 8) (size 9 to 14) (size 15 to 20)
#    0.000    2.500    1.667    1.500    0.000    3.333 
#    0.000    1.667    0.000    4.000    0.000    0.000 
#    0.000    0.000    0.000    0.000    0.000    0.000 
#
# Total GULP energy -594821.633017 kJ/mol
# GULP energy per Si atom -12392.117355 kJ/mol
# Density = 2.132510 g / cm^3
# Si number density = 21.373743 Si / 1000 Ang^3
#
#
#
# Elastic Constant Matrix: (Units=GPa)
#
#
# Indices 1 2 3 4 5 6 
#
# 1 81.3267 20.2639 39.0820 0.0000 0.0000 0.0000
# 2 20.2639 81.3267 39.0820 0.0000 0.0000 0.0000
# 3 39.0820 39.0820 145.3031 0.0000 0.0000 0.0000
# 4 0.0000 0.0000 0.0000 29.9919 0.0000 0.0000
# 5 0.0000 0.0000 0.0000 0.0000 29.9919 0.0000
# 6 0.0000 0.0000 0.0000 0.0000 0.0000 11.8029
#
#
#
# Elastic Compliance Matrix: (Units=1/GPa)
#
#
# Indices 1 2 3 4 5 6 
#
# 1 0.014394 -0.001982 -0.003338 0.000000 0.000000 0.000000
# 2 -0.001982 0.014394 -0.003338 0.000000 0.000000 0.000000
# 3 -0.003338 -0.003338 0.008678 0.000000 0.000000 0.000000
# 4 0.000000 0.000000 0.000000 0.033342 0.000000 0.000000
# 5 0.000000 0.000000 0.000000 0.000000 0.033342 0.000000
# 6 0.000000 0.000000 0.000000 0.000000 0.000000 0.084725
#
#
# Mechanical properties :
#
#
# Convention : Reuss Voigt Hill
#
# Bulk Modulus (GPa) = 49.63194 56.09027 52.86111
# Shear Modulus (GPa) = 23.48403 28.32591 25.90497
#
# Velocity S-wave (km/s) = 3.31831 3.64437 3.48516
# Velocity P-wave (km/s) = 6.16060 6.63386 6.40161
#
# Compressibility (1/GPa) = 0.02014832
#
# Stress axis : x y z
#
# Youngs Moduli (GPa) = 69.47183 69.47183 115.23332
#
# Poissons Ratio (x) = 0.13771 0.38470
# Poissons Ratio (y) = 0.13771 0.38470
# Poissons Ratio (z) = 0.23193 0.23193
#
# Static dielectric constant tensor:
#      x y z
#    x 3.771510 0.000000 0.000000 
#    y 0.000000 3.771510 0.000000 
#    z 0.000000 0.000000 3.867720 
# 
# 
# High freq. dielectric constant tensor:
#      x y z
#    x 1.813780 0.000000 0.000000 
#    y 0.000000 1.813780 0.000000 
#    z 0.000000 0.000000 1.839710 
# 
# From -- ./inp_files/6239.got.cif
#   From: 2010.03.12/outbox.cif.g09.slc.cpg/sg115_4_cif.got.tgz:6239.got - 2010.04.14 02:11:21.
