data_PCOD8309260
_publ_section_title
;
Structure prediction by ZEFSAII (Michael W. Deem and Ramdas Pophale) SiO2 
 PCOD8309260
Probable space group: P -4 M 2
;
_chemical_formula_sum "Si O2"
_cell_formula_units_Z 28
_cell_length_a 11.316435
_cell_length_b 11.316435
_cell_length_c 12.546531
_cell_angle_alpha 90.000000
_cell_angle_beta 90.000000
_cell_angle_gamma 90.000000
_cell_volume 1606.730103
_symmetry_space_group_name_H-M "P -4 M 2"
_symmetry_group_IT_number 115
_symmetry_cell_setting 'tetragonal'
loop_
_space_group_symop_operation_xyz
x,y,z
y,-x,-z
-x,-y,z
-y,x,-z
y,x,-z
-y,-x,-z
-x,y,z
x,-y,z
loop_
_atom_site_type_symbol
_atom_site_label
_atom_site_fract_x
_atom_site_fract_y
_atom_site_fract_z
Si Si1 0.242396 0.242396 0.500000
Si Si2 0.369796 0.363665 0.688468
Si Si3 0.759641 0.362779 0.903510
Si Si4 0.645949 0.000000 0.449737
Si Si5 0.000000 0.639457 0.797893
O O1 0.283225 0.300121 0.609177
O O2 0.283465 0.106738 0.506482
O O3 0.500000 0.311109 0.673246
O O4 0.364712 0.500000 0.656937
O O5 0.334650 0.345634 0.810319
O O6 0.765785 0.500000 0.939228
O O7 0.885252 0.314763 0.861049
O O8 0.719450 0.280551 0.000000
O O9 0.679858 0.000000 0.324749
O O10 0.500000 0.000000 0.467073
O O11 0.000000 0.500000 0.797286
#
# Coordination Sequence:
#
# PCOD8309260 Si02
#       5
#     4   8   8   4   4
#     4  12  22  36  58  82 118 158 202 243 288 349
#     4  10  19  31  52  84 117 146 183 242 311 366
#     4  10  19  33  55  82 113 146 187 236 294 356
#     4  11  22  39  62  87 118 161 205 246 293 352
#     4   9  18  36  58  79 108 154 196 228 283 352
#
# _framework density 17.426697999999998
#
# number of rings (size 3 to 8) (size 9 to 14) (size 15 to 20)
#    0.000    1.714    2.857    3.429    0.000    2.857 
#    0.000    1.429    0.000    2.143    0.000    0.000 
#    0.000    0.000    0.000    0.000    0.000    0.000 
#
# Total GULP energy -347007.094840 kJ/mol
# GULP energy per Si atom -12393.110530 kJ/mol
# Density = 1.738703 g / cm^3
# Si number density = 17.426698 Si / 1000 Ang^3
#
#
#
# Elastic Constant Matrix: (Units=GPa)
#
#
# Indices 1 2 3 4 5 6 
#
# 1 40.5273 72.1831 23.7161 0.0000 0.0000 0.0000
# 2 72.1831 40.5262 23.7178 0.0000 0.0000 0.0000
# 3 23.7161 23.7178 67.0367 0.0000 0.0000 0.0000
# 4 0.0000 0.0000 0.0000 110.4234 0.0000 0.0000
# 5 0.0000 0.0000 0.0000 0.0000 110.4244 0.0000
# 6 0.0000 0.0000 0.0000 0.0000 0.0000 25.3069
#
#
#
# Elastic Compliance Matrix: (Units=1/GPa)
#
#
# Indices 1 2 3 4 5 6 
#
# 1 -0.010582 0.021007 -0.003689 0.000000 0.000000 0.000000
# 2 0.021007 -0.010583 -0.003688 0.000000 0.000000 0.000000
# 3 -0.003689 -0.003688 0.017527 0.000000 0.000000 0.000000
# 4 0.000000 0.000000 0.000000 0.009056 0.000000 0.000000
# 5 0.000000 0.000000 0.000000 0.000000 0.009056 0.000000
# 6 0.000000 0.000000 0.000000 0.000000 0.000000 0.039515
#
#
# Mechanical properties :
#
#
# Convention : Reuss Voigt Hill
#
# Bulk Modulus (GPa) = 42.33085 43.03604 42.68344
# Shear Modulus (GPa) = 144.49992 51.12915 97.81454
#
# Velocity S-wave (km/s) = 9.11585 5.42248 7.50007
# Velocity P-wave (km/s) = 11.62505 7.99709 9.97736
#
# Compressibility (1/GPa) = 0.02362343
#
# Stress axis : x y z
#
# Youngs Moduli (GPa) = -94.50012 -94.49337 57.05538
#
# Poissons Ratio (x) = 1.98501 0.21046
# Poissons Ratio (y) = 1.98515 0.21039
# Poissons Ratio (z) = -0.34857 -0.34845
#
# Static dielectric constant tensor:
#      x y z
#    x 3.483870 0.000000 0.000000 
#    y 0.000000 3.483860 0.000000 
#    z 0.000000 0.000000 3.147680 
# 
# 
# High freq. dielectric constant tensor:
#      x y z
#    x 1.662510 0.000000 0.000000 
#    y 0.000000 1.662510 0.000000 
#    z 0.000000 0.000000 1.677570 
# 
# From -- ./inp_files/2450.got.cif
#   From: 2010.03.12/outbox.cif.g09.slc.cpg/sg115_2_cif.got.tgz:2450.got - 2010.04.14 02:11:21.
