data_PCOD8309682
_publ_section_title
;
Structure prediction by ZEFSAII (Michael W. Deem and Ramdas Pophale) SiO2 
 PCOD8309682
Probable space group: P -4 M 2
;
_chemical_formula_sum "Si O2"
_cell_formula_units_Z 48
_cell_length_a 9.042830
_cell_length_b 9.042830
_cell_length_c 31.012996
_cell_angle_alpha 90.000000
_cell_angle_beta 90.000000
_cell_angle_gamma 90.000000
_cell_volume 2536.018726
_symmetry_space_group_name_H-M "P -4 M 2"
_symmetry_group_IT_number 115
_symmetry_cell_setting 'tetragonal'
loop_
_space_group_symop_operation_xyz
x,y,z
y,-x,-z
-x,-y,z
-y,x,-z
y,x,-z
-y,-x,-z
-x,y,z
x,-y,z
loop_
_atom_site_type_symbol
_atom_site_label
_atom_site_fract_x
_atom_site_fract_y
_atom_site_fract_z
Si Si1 0.173341 0.327342 0.460216
Si Si2 0.670798 0.327640 0.124953
Si Si3 0.173958 0.330697 0.038681
Si Si4 0.828247 0.325816 0.618600
Si Si5 0.174296 0.669764 0.789103
Si Si6 0.824447 0.834043 0.704987
O O1 0.237069 0.237069 0.500000
O O2 0.205967 0.500000 0.467290
O O3 0.251907 0.273016 0.417177
O O4 0.000000 0.295330 0.456441
O O5 0.500000 0.288161 0.117379
O O6 0.696952 0.500000 0.132321
O O7 0.758895 0.270149 0.083328
O O8 0.733026 0.245188 0.167119
O O9 0.223437 0.500000 0.030999
O O10 0.000000 0.314701 0.041458
O O11 0.232140 0.232140 0.000000
O O12 0.802514 0.500000 0.618393
O O13 0.773238 0.262557 0.664288
O O14 0.000000 0.286864 0.609861
O O15 0.220646 0.500000 0.782039
O O16 0.238433 0.761377 0.748692
O O17 0.000000 0.687716 0.793031
O O18 0.000000 0.835295 0.707252
O O19 0.761441 0.000000 0.700458
#
# Coordination Sequence:
#
# PCOD8309682 Si02
#       6
#     8   8   8   8   8   8
#     4  11  24  40  58  82 111 142 178 219 264 316
#     4   9  18  33  52  73  99 133 171 210 256 311
#     4  10  21  36  54  76 102 133 170 212 259 311
#     4  10  20  35  57  83 109 140 180 223 266 313
#     4   9  17  30  49  73 100 131 170 215 259 306
#     4   9  17  30  50  76 105 138 176 217 262 311
#
# _framework density 18.927306000000002
#
# number of rings (size 3 to 8) (size 9 to 14) (size 15 to 20)
#    0.000    2.333    0.000    2.500    0.000    8.667 
#    0.000    2.500    0.000    3.000    0.000    0.000 
#    0.000    0.000    0.000    0.000    0.000    0.000 
#
# Total GULP energy -595323.522153 kJ/mol
# GULP energy per Si atom -12402.573378 kJ/mol
# Density = 1.888423 g / cm^3
# Si number density = 18.927306 Si / 1000 Ang^3
#
#
#
# Elastic Constant Matrix: (Units=GPa)
#
#
# Indices 1 2 3 4 5 6 
#
# 1 67.5382 35.0485 53.0996 0.0000 0.0000 0.0000
# 2 35.0485 67.5382 53.0996 0.0000 0.0000 0.0000
# 3 53.0996 53.0996 166.8389 0.0000 0.0000 0.0000
# 4 0.0000 0.0000 0.0000 37.3705 0.0000 0.0000
# 5 0.0000 0.0000 0.0000 0.0000 37.3705 0.0000
# 6 0.0000 0.0000 0.0000 0.0000 0.0000 22.6957
#
#
#
# Elastic Compliance Matrix: (Units=1/GPa)
#
#
# Indices 1 2 3 4 5 6 
#
# 1 0.022658 -0.008121 -0.004627 0.000000 0.000000 0.000000
# 2 -0.008121 0.022658 -0.004627 0.000000 0.000000 0.000000
# 3 -0.004627 -0.004627 0.008939 0.000000 0.000000 0.000000
# 4 0.000000 0.000000 0.000000 0.026759 0.000000 0.000000
# 5 0.000000 0.000000 0.000000 0.000000 0.026759 0.000000
# 6 0.000000 0.000000 0.000000 0.000000 0.000000 0.044061
#
#
# Mechanical properties :
#
#
# Convention : Reuss Voigt Hill
#
# Bulk Modulus (GPa) = 51.26421 64.93453 58.09937
# Shear Modulus (GPa) = 25.89517 30.19851 28.04684
#
# Velocity S-wave (km/s) = 3.70285 3.99870 3.85362
# Velocity P-wave (km/s) = 6.73981 7.46333 7.11078
#
# Compressibility (1/GPa) = 0.01950679
#
# Stress axis : x y z
#
# Youngs Moduli (GPa) = 44.13382 44.13382 111.86950
#
# Poissons Ratio (x) = 0.35840 0.51761
# Poissons Ratio (y) = 0.35840 0.51761
# Poissons Ratio (z) = 0.20420 0.20420
#
# Static dielectric constant tensor:
#      x y z
#    x 3.399360 0.000000 0.000000 
#    y 0.000000 3.399360 0.000000 
#    z 0.000000 0.000000 3.809400 
# 
# 
# High freq. dielectric constant tensor:
#      x y z
#    x 1.724600 0.000000 0.000000 
#    y 0.000000 1.724600 0.000000 
#    z 0.000000 0.000000 1.753410 
# 
# From -- ./inp_files/5929.got.cif
#   From: 2010.03.12/outbox.cif.g09.slc.cpg/sg115_3_cif.got.tgz:5929.got - 2010.04.14 02:11:21.
