data_PCOD8309654
_publ_section_title
;
Structure prediction by ZEFSAII (Michael W. Deem and Ramdas Pophale) SiO2 
 PCOD8309654
Probable space group: P -4 M 2
;
_chemical_formula_sum "Si O2"
_cell_formula_units_Z 48
_cell_length_a 8.222042
_cell_length_b 8.222042
_cell_length_c 34.062444
_cell_angle_alpha 90.000000
_cell_angle_beta 90.000000
_cell_angle_gamma 90.000000
_cell_volume 2302.688476
_symmetry_space_group_name_H-M "P -4 M 2"
_symmetry_group_IT_number 115
_symmetry_cell_setting 'tetragonal'
loop_
_space_group_symop_operation_xyz
x,y,z
y,-x,-z
-x,-y,z
-y,x,-z
y,x,-z
-y,-x,-z
-x,y,z
x,-y,z
loop_
_atom_site_type_symbol
_atom_site_label
_atom_site_fract_x
_atom_site_fract_y
_atom_site_fract_z
Si Si1 0.000000 0.193647 0.171993
Si Si2 0.691236 0.000000 0.740054
Si Si3 0.816608 0.682248 0.613733
Si Si4 0.824787 0.687839 0.961971
Si Si5 0.193962 0.685320 0.876663
Si Si6 0.683259 0.312598 0.303839
Si Si7 0.818479 0.681209 0.462120
O O1 0.000000 0.271572 0.214406
O O2 0.831225 0.255701 0.151632
O O3 0.000000 0.000000 0.174236
O O4 0.766237 0.831964 0.721506
O O5 0.500000 0.000000 0.731679
O O6 0.774285 0.500000 0.600347
O O7 0.705230 0.732949 0.650478
O O8 0.795226 0.790805 0.575246
O O9 0.000000 0.699447 0.628855
O O10 0.857036 0.500000 0.957872
O O11 0.743137 0.738838 0.920337
O O12 0.000000 0.775940 0.967770
O O13 0.715825 0.715825 0.000000
O O14 0.255744 0.500000 0.864870
O O15 0.000000 0.681467 0.877393
O O16 0.500000 0.235036 0.296198
O O17 0.670831 0.500000 0.292799
O O18 0.707557 0.707557 0.500000
O O19 0.788255 0.500000 0.446603
O O20 0.000000 0.710222 0.477434
#
# Coordination Sequence:
#
# PCOD8309654 Si02
#       7
#     4   4   8   8   8   8   8
#     4  10  20  34  56  80 104 142 188 226 278 342
#     4  10  22  38  56  82 114 142 180 234 282 336
#     4  10  21  37  58  85 114 143 179 226 278 332
#     4   9  18  31  48  73 103 136 176 223 272 322
#     4   8  16  32  51  74 107 141 179 228 276 330
#     4   9  19  37  59  81 110 148 184 224 279 341
#     4  11  24  39  56  80 111 148 190 232 274 325
#
# _framework density 20.845202
#
# number of rings (size 3 to 8) (size 9 to 14) (size 15 to 20)
#    0.000    2.500    0.000    2.500    2.333    6.000 
#    0.000    0.833    0.000    1.000    0.000    0.000 
#    0.000    0.000    0.000    0.000    0.000    0.000 
#
# Total GULP energy -594633.468486 kJ/mol
# GULP energy per Si atom -12388.197260 kJ/mol
# Density = 2.079776 g / cm^3
# Si number density = 20.845202 Si / 1000 Ang^3
#
#
#
# Elastic Constant Matrix: (Units=GPa)
#
#
# Indices 1 2 3 4 5 6 
#
# 1 67.4230 27.1660 42.8372 0.0000 0.0000 0.0000
# 2 27.1660 67.4230 42.8372 0.0000 0.0000 0.0000
# 3 42.8372 42.8372 141.6341 0.0000 0.0000 0.0000
# 4 0.0000 0.0000 0.0000 29.9953 0.0000 0.0000
# 5 0.0000 0.0000 0.0000 0.0000 29.9953 0.0000
# 6 0.0000 0.0000 0.0000 0.0000 0.0000 14.8445
#
#
#
# Elastic Compliance Matrix: (Units=1/GPa)
#
#
# Indices 1 2 3 4 5 6 
#
# 1 0.019701 -0.005140 -0.004404 0.000000 0.000000 0.000000
# 2 -0.005140 0.019701 -0.004404 0.000000 0.000000 0.000000
# 3 -0.004404 -0.004404 0.009724 0.000000 0.000000 0.000000
# 4 0.000000 0.000000 0.000000 0.033339 0.000000 0.000000
# 5 0.000000 0.000000 0.000000 0.000000 0.033339 0.000000
# 6 0.000000 0.000000 0.000000 0.000000 0.000000 0.067365
#
#
# Mechanical properties :
#
#
# Convention : Reuss Voigt Hill
#
# Bulk Modulus (GPa) = 47.10210 55.79568 51.44889
# Shear Modulus (GPa) = 22.92108 25.87633 24.39871
#
# Velocity S-wave (km/s) = 3.31960 3.52711 3.42493
# Velocity P-wave (km/s) = 6.11050 6.58879 6.35414
#
# Compressibility (1/GPa) = 0.02123048
#
# Stress axis : x y z
#
# Youngs Moduli (GPa) = 50.75971 50.75971 102.83401
#
# Poissons Ratio (x) = 0.26089 0.45288
# Poissons Ratio (y) = 0.26089 0.45288
# Poissons Ratio (z) = 0.22354 0.22354
#
# Static dielectric constant tensor:
#      x y z
#    x 3.784620 0.000000 0.000000 
#    y 0.000000 3.784620 0.000000 
#    z 0.000000 0.000000 3.674810 
# 
# 
# High freq. dielectric constant tensor:
#      x y z
#    x 1.802480 0.000000 0.000000 
#    y 0.000000 1.802480 0.000000 
#    z 0.000000 0.000000 1.812000 
# 
# From -- ./inp_files/6206.got.cif
#   From: 2010.03.12/outbox.cif.g09.slc.cpg/sg115_4_cif.got.tgz:6206.got - 2010.04.14 02:11:21.
