data_PCOD8309673
_publ_section_title
;
Structure prediction by ZEFSAII (Michael W. Deem and Ramdas Pophale) SiO2 
 PCOD8309673
Probable space group: P -4 M 2
;
_chemical_formula_sum "Si O2"
_cell_formula_units_Z 44
_cell_length_a 9.145461
_cell_length_b 9.145461
_cell_length_c 28.634115
_cell_angle_alpha 90.000000
_cell_angle_beta 90.000000
_cell_angle_gamma 90.000000
_cell_volume 2394.941827
_symmetry_space_group_name_H-M "P -4 M 2"
_symmetry_group_IT_number 115
_symmetry_cell_setting 'tetragonal'
loop_
_space_group_symop_operation_xyz
x,y,z
y,-x,-z
-x,-y,z
-y,x,-z
y,x,-z
-y,-x,-z
-x,y,z
x,-y,z
loop_
_atom_site_type_symbol
_atom_site_label
_atom_site_fract_x
_atom_site_fract_y
_atom_site_fract_z
Si Si1 0.327833 0.670580 0.915852
Si Si2 0.835534 0.673499 0.822882
Si Si3 0.825443 0.836973 0.449349
Si Si4 0.668587 0.327968 0.732264
Si Si5 0.828528 0.828528 0.000000
Si Si6 0.831430 0.670941 0.359631
O O1 0.500000 0.699781 0.914557
O O2 0.294179 0.500000 0.925630
O O3 0.259444 0.724044 0.867073
O O4 0.255061 0.768350 0.955243
O O5 0.838269 0.500000 0.820723
O O6 0.760250 0.734350 0.775945
O O7 0.000000 0.736455 0.826988
O O8 0.773824 0.773824 0.500000
O O9 0.764676 0.740178 0.406788
O O10 0.000000 0.837744 0.449893
O O11 0.764358 0.000000 0.441724
O O12 0.500000 0.285346 0.740648
O O13 0.688216 0.500000 0.726723
O O14 0.731256 0.253850 0.685452
O O15 0.000000 0.796350 0.994568
O O16 0.807909 0.500000 0.364508
O O17 0.000000 0.714314 0.353421
#
# Coordination Sequence:
#
# PCOD8309673 Si02
#       6
#     8   8   8   8   4   8
#     4  10  20  35  57  82 104 131 171 211 246 293
#     4   9  17  30  50  75 101 129 162 202 245 286
#     4   8  14  26  44  63  83 111 147 184 224 274
#     4   9  17  30  47  66  91 124 159 193 232 281
#     4  11  24  39  54  76 108 141 170 205 252 298
#     4   9  17  29  45  65  89 117 150 189 232 277
#
# _framework density 18.372052
#
# number of rings (size 3 to 8) (size 9 to 14) (size 15 to 20)
#    0.000    2.818    0.000    2.182    0.000    5.818 
#    0.000    1.818    0.000    4.364    0.000    0.000 
#    0.000    0.000    0.000    0.000    0.000    0.000 
#
# Total GULP energy -545505.067787 kJ/mol
# GULP energy per Si atom -12397.842450 kJ/mol
# Density = 1.833024 g / cm^3
# Si number density = 18.372052 Si / 1000 Ang^3
#
#
#
# Elastic Constant Matrix: (Units=GPa)
#
#
# Indices 1 2 3 4 5 6 
#
# 1 64.1136 35.4870 62.2141 0.0000 0.0000 0.0000
# 2 35.4870 64.1136 62.2141 0.0000 0.0000 0.0000
# 3 62.2141 62.2141 197.2691 0.0000 0.0000 0.0000
# 4 0.0000 0.0000 0.0000 20.2945 0.0000 0.0000
# 5 0.0000 0.0000 0.0000 0.0000 20.2945 0.0000
# 6 0.0000 0.0000 0.0000 0.0000 0.0000 17.8228
#
#
#
# Elastic Compliance Matrix: (Units=1/GPa)
#
#
# Indices 1 2 3 4 5 6 
#
# 1 0.025750 -0.009183 -0.005225 0.000000 0.000000 0.000000
# 2 -0.009183 0.025750 -0.005225 0.000000 0.000000 0.000000
# 3 -0.005225 -0.005225 0.008365 0.000000 0.000000 0.000000
# 4 0.000000 0.000000 0.000000 0.049275 0.000000 0.000000
# 5 0.000000 0.000000 0.000000 0.000000 0.049275 0.000000
# 6 0.000000 0.000000 0.000000 0.000000 0.000000 0.056108
#
#
# Mechanical properties :
#
#
# Convention : Reuss Voigt Hill
#
# Bulk Modulus (GPa) = 48.54378 71.70295 60.12337
# Shear Modulus (GPa) = 19.18253 22.72109 20.95181
#
# Velocity S-wave (km/s) = 3.23478 3.52052 3.38067
# Velocity P-wave (km/s) = 6.35860 7.45912 6.93073
#
# Compressibility (1/GPa) = 0.02059996
#
# Stress axis : x y z
#
# Youngs Moduli (GPa) = 38.83482 38.83482 119.54688
#
# Poissons Ratio (x) = 0.35660 0.62464
# Poissons Ratio (y) = 0.35660 0.62464
# Poissons Ratio (z) = 0.20291 0.20291
#
# Static dielectric constant tensor:
#      x y z
#    x 3.256350 0.000000 0.000000 
#    y 0.000000 3.256350 0.000000 
#    z 0.000000 0.000000 3.820770 
# 
# 
# High freq. dielectric constant tensor:
#      x y z
#    x 1.688890 0.000000 0.000000 
#    y 0.000000 1.688890 0.000000 
#    z 0.000000 0.000000 1.733240 
# 
# From -- ./inp_files/5838.got.cif
#   From: 2010.03.12/outbox.cif.g09.slc.cpg/sg115_3_cif.got.tgz:5838.got - 2010.04.14 02:11:21.
