data_PCOD8309612
_publ_section_title
;
Structure prediction by ZEFSAII (Michael W. Deem and Ramdas Pophale) SiO2 
 PCOD8309612
Probable space group: P -4 M 2
;
_chemical_formula_sum "Si O2"
_cell_formula_units_Z 48
_cell_length_a 9.048860
_cell_length_b 9.048860
_cell_length_c 30.770458
_cell_angle_alpha 90.000000
_cell_angle_beta 90.000000
_cell_angle_gamma 90.000000
_cell_volume 2519.542559
_symmetry_space_group_name_H-M "P -4 M 2"
_symmetry_group_IT_number 115
_symmetry_cell_setting 'tetragonal'
loop_
_space_group_symop_operation_xyz
x,y,z
y,-x,-z
-x,-y,z
-y,x,-z
y,x,-z
-y,-x,-z
-x,y,z
x,-y,z
loop_
_atom_site_type_symbol
_atom_site_label
_atom_site_fract_x
_atom_site_fract_y
_atom_site_fract_z
Si Si1 0.330285 0.670447 0.550239
Si Si2 0.176405 0.164902 0.047459
Si Si3 0.826237 0.829102 0.783171
Si Si4 0.824209 0.334801 0.130456
Si Si5 0.673784 0.329308 0.295940
Si Si6 0.173493 0.170762 0.375026
O O1 0.297346 0.702655 0.500000
O O2 0.500000 0.708245 0.561387
O O3 0.297912 0.500000 0.561440
O O4 0.222102 0.774174 0.577565
O O5 0.240716 0.267158 0.085815
O O6 0.000000 0.160970 0.048405
O O7 0.238467 0.000000 0.055048
O O8 0.226406 0.226406 0.000000
O O9 0.760368 0.770384 0.828540
O O10 0.760443 0.732748 0.744870
O O11 0.000000 0.805885 0.784759
O O12 0.784573 0.000000 0.775147
O O13 0.762081 0.500000 0.135593
O O14 0.000000 0.333722 0.128213
O O15 0.500000 0.306460 0.299479
O O16 0.716890 0.500000 0.290194
O O17 0.745575 0.269460 0.339627
O O18 0.000000 0.195890 0.370600
O O19 0.215340 0.000000 0.368030
#
# Coordination Sequence:
#
# PCOD8309612 Si02
#       6
#     8   8   8   8   8   8
#     4   9  19  37  60  85 113 146 185 226 267 315
#     4   8  13  22  38  61  89 122 162 207 252 299
#     4  10  20  34  54  80 108 137 172 215 262 313
#     4   9  16  26  43  69 100 132 166 207 256 308
#     4  11  24  40  58  80 106 138 177 219 264 317
#     4  11  24  39  56  82 114 145 180 223 268 314
#
# _framework density 19.051075999999998
#
# number of rings (size 3 to 8) (size 9 to 14) (size 15 to 20)
#    0.000    2.333    0.000    4.000    0.000   10.667 
#    0.000    2.500    0.000    1.000    0.000    2.333 
#    0.000    0.000    0.000    0.000    0.000    0.000 
#
# Total GULP energy -595240.911625 kJ/mol
# GULP energy per Si atom -12400.852326 kJ/mol
# Density = 1.900771 g / cm^3
# Si number density = 19.051076 Si / 1000 Ang^3
#
#
#
# Elastic Constant Matrix: (Units=GPa)
#
#
# Indices 1 2 3 4 5 6 
#
# 1 70.7807 39.0999 44.1447 0.0000 0.0000 0.0000
# 2 39.0999 70.7806 44.1448 0.0000 0.0000 0.0000
# 3 44.1447 44.1448 130.5878 0.0000 0.0000 0.0000
# 4 0.0000 0.0000 0.0000 -4.6618 0.0000 0.0000
# 5 0.0000 0.0000 0.0000 0.0000 -4.6623 0.0000
# 6 0.0000 0.0000 0.0000 0.0000 0.0000 24.4279
#
#
#
# Elastic Compliance Matrix: (Units=1/GPa)
#
#
# Indices 1 2 3 4 5 6 
#
# 1 0.022030 -0.009535 -0.004224 0.000000 0.000000 0.000000
# 2 -0.009535 0.022030 -0.004224 0.000000 0.000000 0.000000
# 3 -0.004224 -0.004224 0.010513 0.000000 0.000000 0.000000
# 4 0.000000 0.000000 0.000000 -0.214509 0.000000 0.000000
# 5 0.000000 0.000000 0.000000 0.000000 -0.214484 0.000000
# 6 0.000000 0.000000 0.000000 0.000000 0.000000 0.040937
#
#
# Mechanical properties :
#
#
# Convention : Reuss Voigt Hill
#
# Bulk Modulus (GPa) = 53.74173 58.54754 56.14463
# Shear Modulus (GPa) = -17.16354 12.67138 -2.24608
#
# Velocity S-wave (km/s) = -3.00479 2.58180 -1.08698
# Velocity P-wave (km/s) = 4.02892 6.29970 5.28764
#
# Compressibility (1/GPa) = 0.01860751
#
# Stress axis : x y z
#
# Youngs Moduli (GPa) = 45.39316 45.39307 95.11725
#
# Poissons Ratio (x) = 0.43283 0.40175
# Poissons Ratio (y) = 0.43283 0.40175
# Poissons Ratio (z) = 0.19173 0.19173
#
# Static dielectric constant tensor:
#      x y z
#    x 3.379940 0.000000 0.000000 
#    y 0.000000 3.379940 0.000000 
#    z 0.000000 0.000000 3.739660 
# 
# 
# High freq. dielectric constant tensor:
#      x y z
#    x 1.723540 0.000000 0.000000 
#    y 0.000000 1.723540 0.000000 
#    z 0.000000 0.000000 1.760300 
# 
# From -- ./inp_files/6128.got.cif
#   From: 2010.03.12/outbox.cif.g09.slc.cpg/sg115_4_cif.got.tgz:6128.got - 2010.04.14 02:11:21.
