data_PCOD8309457
_publ_section_title
;
Structure prediction by ZEFSAII (Michael W. Deem and Ramdas Pophale) SiO2 
 PCOD8309457
Probable space group: P -4 M 2
;
_chemical_formula_sum "Si O2"
_cell_formula_units_Z 48
_cell_length_a 9.242302
_cell_length_b 9.242302
_cell_length_c 31.133163
_cell_angle_alpha 90.000000
_cell_angle_beta 90.000000
_cell_angle_gamma 90.000000
_cell_volume 2659.399337
_symmetry_space_group_name_H-M "P -4 M 2"
_symmetry_group_IT_number 115
_symmetry_cell_setting 'tetragonal'
loop_
_space_group_symop_operation_xyz
x,y,z
y,-x,-z
-x,-y,z
-y,x,-z
y,x,-z
-y,-x,-z
-x,y,z
x,-y,z
loop_
_atom_site_type_symbol
_atom_site_label
_atom_site_fract_x
_atom_site_fract_y
_atom_site_fract_z
Si Si1 0.834669 0.330863 0.128512
Si Si2 0.670250 0.667453 0.213548
Si Si3 0.830033 0.831894 0.711832
Si Si4 0.838896 0.172547 0.953386
Si Si5 0.161485 0.172510 0.547154
Si Si6 0.662272 0.171986 0.627489
O O1 0.824530 0.500000 0.121034
O O2 0.738213 0.281346 0.168589
O O3 0.769693 0.258904 0.085542
O O4 0.000000 0.281791 0.137150
O O5 0.500000 0.692936 0.211596
O O6 0.708892 0.500000 0.222883
O O7 0.737435 0.766851 0.249992
O O8 0.755995 0.776967 0.668057
O O9 0.000000 0.804807 0.707733
O O10 0.794728 0.000000 0.720549
O O11 0.000000 0.233950 0.946019
O O12 0.841413 0.000000 0.954019
O O13 0.776601 0.223400 0.000000
O O14 0.219871 0.219871 0.500000
O O15 0.266427 0.235203 0.583977
O O16 0.000000 0.233857 0.555230
O O17 0.156020 0.000000 0.548781
O O18 0.500000 0.234156 0.631760
O O19 0.659890 0.000000 0.625193
#
# Coordination Sequence:
#
# PCOD8309457 Si02
#       6
#     8   8   8   8   8   8
#     4   9  17  30  49  71  94 122 158 198 237 281
#     4  10  21  36  52  70  96 130 164 199 243 294
#     4  10  20  33  51  75 100 126 160 203 247 291
#     4   8  14  26  45  68  93 121 153 190 233 280
#     4   8  13  22  38  61  89 120 153 190 233 279
#     4   9  16  26  43  68  96 124 156 196 239 283
#
# _framework density 18.049187
#
# number of rings (size 3 to 8) (size 9 to 14) (size 15 to 20)
#    0.000    3.000    0.000    2.500    0.000    4.667 
#    0.000    2.500    0.000    2.000    0.000    2.333 
#    0.000    0.000    0.000    0.000    0.000    0.000 
#
# Total GULP energy -595038.056906 kJ/mol
# GULP energy per Si atom -12396.626186 kJ/mol
# Density = 1.800811 g / cm^3
# Si number density = 18.049187 Si / 1000 Ang^3
#
#
#
# Elastic Constant Matrix: (Units=GPa)
#
#
# Indices 1 2 3 4 5 6 
#
# 1 65.6605 33.8579 66.1048 0.0000 0.0000 0.0000
# 2 33.8579 65.6604 66.1048 0.0000 0.0000 0.0000
# 3 66.1048 66.1048 192.4676 0.0000 0.0000 0.0000
# 4 0.0000 0.0000 0.0000 3.7647 0.0000 0.0000
# 5 0.0000 0.0000 0.0000 0.0000 3.7647 0.0000
# 6 0.0000 0.0000 0.0000 0.0000 0.0000 15.4336
#
#
#
# Elastic Compliance Matrix: (Units=1/GPa)
#
#
# Indices 1 2 3 4 5 6 
#
# 1 0.024962 -0.006482 -0.006347 0.000000 0.000000 0.000000
# 2 -0.006482 0.024963 -0.006347 0.000000 0.000000 0.000000
# 3 -0.006347 -0.006347 0.009556 0.000000 0.000000 0.000000
# 4 0.000000 0.000000 0.000000 0.265626 0.000000 0.000000
# 5 0.000000 0.000000 0.000000 0.000000 0.265628 0.000000
# 6 0.000000 0.000000 0.000000 0.000000 0.000000 0.064794
#
#
# Mechanical properties :
#
#
# Convention : Reuss Voigt Hill
#
# Bulk Modulus (GPa) = 47.33067 72.88037 60.10552
# Shear Modulus (GPa) = 7.13344 15.10732 11.12038
#
# Velocity S-wave (km/s) = 1.99018 2.89625 2.48486
# Velocity P-wave (km/s) = 5.61793 7.18685 6.45027
#
# Compressibility (1/GPa) = 0.02112795
#
# Stress axis : x y z
#
# Youngs Moduli (GPa) = 40.06017 40.06007 104.64781
#
# Poissons Ratio (x) = 0.25965 0.66425
# Poissons Ratio (y) = 0.25965 0.66425
# Poissons Ratio (z) = 0.25428 0.25428
#
# Static dielectric constant tensor:
#      x y z
#    x 3.133790 0.000000 0.000000 
#    y 0.000000 3.133790 0.000000 
#    z 0.000000 0.000000 3.698160 
# 
# 
# High freq. dielectric constant tensor:
#      x y z
#    x 1.667080 0.000000 0.000000 
#    y 0.000000 1.667080 0.000000 
#    z 0.000000 0.000000 1.718700 
# 
# From -- ./inp_files/6023.got.cif
#   From: 2010.03.12/outbox.cif.g09.slc.cpg/sg115_4_cif.got.tgz:6023.got - 2010.04.14 02:11:21.
