data_PCOD8309423
_publ_section_title
;
Structure prediction by ZEFSAII (Michael W. Deem and Ramdas Pophale) SiO2 
 PCOD8309423
Probable space group: P -4 M 2
;
_chemical_formula_sum "Si O2"
_cell_formula_units_Z 44
_cell_length_a 9.062167
_cell_length_b 9.062167
_cell_length_c 28.811995
_cell_angle_alpha 90.000000
_cell_angle_beta 90.000000
_cell_angle_gamma 90.000000
_cell_volume 2366.123741
_symmetry_space_group_name_H-M "P -4 M 2"
_symmetry_group_IT_number 115
_symmetry_cell_setting 'tetragonal'
loop_
_space_group_symop_operation_xyz
x,y,z
y,-x,-z
-x,-y,z
-y,x,-z
y,x,-z
-y,-x,-z
-x,y,z
x,-y,z
loop_
_atom_site_type_symbol
_atom_site_label
_atom_site_fract_x
_atom_site_fract_y
_atom_site_fract_z
Si Si1 0.330202 0.330202 0.500000
Si Si2 0.665652 0.323710 0.148403
Si Si3 0.172326 0.671346 0.677276
Si Si4 0.173343 0.330016 0.406298
Si Si5 0.663627 0.676497 0.951129
Si Si6 0.325116 0.168324 0.761343
O O1 0.302208 0.500000 0.513390
O O2 0.231235 0.281442 0.456642
O O3 0.500000 0.268255 0.159890
O O4 0.665544 0.500000 0.145127
O O5 0.719216 0.257672 0.097977
O O6 0.774676 0.268284 0.188645
O O7 0.210307 0.500000 0.672549
O O8 0.227323 0.752259 0.631506
O O9 0.253746 0.733226 0.721992
O O10 0.000000 0.700640 0.683038
O O11 0.215233 0.500000 0.396211
O O12 0.000000 0.304798 0.404421
O O13 0.500000 0.743631 0.948938
O O14 0.656516 0.500000 0.954071
O O15 0.736591 0.736591 0.000000
O O16 0.500000 0.184051 0.757185
O O17 0.274214 0.000000 0.755254
#
# Coordination Sequence:
#
# PCOD8309423 Si02
#       6
#     4   8   8   8   8   8
#     4   9  18  34  56  81 110 144 178 209 242 283
#     4   8  13  22  38  61  89 121 157 198 244 292
#     4  11  24  39  55  76 101 131 169 212 256 302
#     4  10  21  37  58  84 112 141 173 209 249 294
#     4   7   9  14  27  51  83 115 148 190 239 287
#     4  10  20  33  50  73 100 130 165 205 250 301
#
# _framework density 18.595815999999999
#
# number of rings (size 3 to 8) (size 9 to 14) (size 15 to 20)
#    0.000    2.818    0.000    3.818    0.000    6.545 
#    0.000    1.818    0.000    0.000    0.000    1.273 
#    0.000    7.273    0.000    0.000    0.000    0.000 
#
# Total GULP energy -545212.721148 kJ/mol
# GULP energy per Si atom -12391.198208 kJ/mol
# Density = 1.855349 g / cm^3
# Si number density = 18.595816 Si / 1000 Ang^3
#
#
#
# Elastic Constant Matrix: (Units=GPa)
#
#
# Indices 1 2 3 4 5 6 
#
# 1 44.0163 21.5370 40.5314 0.0000 0.0000 0.0000
# 2 21.5370 44.0163 40.5314 0.0000 0.0000 0.0000
# 3 40.5314 40.5314 153.1388 0.0000 0.0000 0.0000
# 4 0.0000 0.0000 0.0000 -9.2630 0.0000 0.0000
# 5 0.0000 0.0000 0.0000 0.0000 -9.2630 0.0000
# 6 0.0000 0.0000 0.0000 0.0000 0.0000 17.9625
#
#
#
# Elastic Compliance Matrix: (Units=1/GPa)
#
#
# Indices 1 2 3 4 5 6 
#
# 1 0.033581 -0.010904 -0.006002 0.000000 0.000000 0.000000
# 2 -0.010904 0.033581 -0.006002 0.000000 0.000000 0.000000
# 3 -0.006002 -0.006002 0.009707 0.000000 0.000000 0.000000
# 4 0.000000 0.000000 0.000000 -0.107957 0.000000 0.000000
# 5 0.000000 0.000000 0.000000 0.000000 -0.107957 0.000000
# 6 0.000000 0.000000 0.000000 0.000000 0.000000 0.055671
#
#
# Mechanical properties :
#
#
# Convention : Reuss Voigt Hill
#
# Bulk Modulus (GPa) = 32.20316 49.59681 40.89998
# Shear Modulus (GPa) = -183.78083 9.12543 -87.32770
#
# Velocity S-wave (km/s) = -9.95207 2.21763 -6.86024
# Velocity P-wave (km/s) = 10.70996 5.76941 6.38033
#
# Compressibility (1/GPa) = 0.03105286
#
# Stress axis : x y z
#
# Youngs Moduli (GPa) = 29.77875 29.77875 103.01793
#
# Poissons Ratio (x) = 0.32472 0.61830
# Poissons Ratio (y) = 0.32472 0.61830
# Poissons Ratio (z) = 0.17873 0.17873
#
# Static dielectric constant tensor:
#      x y z
#    x 3.150780 0.000000 0.000000 
#    y 0.000000 3.150780 0.000000 
#    z 0.000000 0.000000 3.982100 
# 
# 
# High freq. dielectric constant tensor:
#      x y z
#    x 1.685900 0.000000 0.000000 
#    y 0.000000 1.685900 0.000000 
#    z 0.000000 0.000000 1.752230 
# 
# From -- ./inp_files/5762.got.cif
#   From: 2010.03.12/outbox.cif.g09.slc.cpg/sg115_3_cif.got.tgz:5762.got - 2010.04.14 02:11:21.
