data_PCOD8309481
_publ_section_title
;
Structure prediction by ZEFSAII (Michael W. Deem and Ramdas Pophale) SiO2 
 PCOD8309481
Probable space group: P -4 M 2
;
_chemical_formula_sum "Si O2"
_cell_formula_units_Z 44
_cell_length_a 9.333214
_cell_length_b 9.333214
_cell_length_c 28.064655
_cell_angle_alpha 90.000000
_cell_angle_beta 90.000000
_cell_angle_gamma 90.000000
_cell_volume 2444.680765
_symmetry_space_group_name_H-M "P -4 M 2"
_symmetry_group_IT_number 115
_symmetry_cell_setting 'tetragonal'
loop_
_space_group_symop_operation_xyz
x,y,z
y,-x,-z
-x,-y,z
-y,x,-z
y,x,-z
-y,-x,-z
-x,y,z
x,-y,z
loop_
_atom_site_type_symbol
_atom_site_label
_atom_site_fract_x
_atom_site_fract_y
_atom_site_fract_z
Si Si1 0.165130 0.830951 0.368000
Si Si2 0.165600 0.167611 0.185279
Si Si3 0.666307 0.333694 0.000000
Si Si4 0.665801 0.337219 0.555200
Si Si5 0.829542 0.662141 0.723391
Si Si6 0.665769 0.833571 0.907784
O O1 0.226104 0.759771 0.415408
O O2 0.252897 0.771795 0.322593
O O3 0.000000 0.787687 0.361308
O O4 0.183275 0.000000 0.373300
O O5 0.258682 0.226729 0.229286
O O6 0.220054 0.247403 0.138099
O O7 0.000000 0.202627 0.196181
O O8 0.189721 0.000000 0.177224
O O9 0.723710 0.250463 0.953776
O O10 0.500000 0.301981 0.008559
O O11 0.694689 0.305312 0.500000
O O12 0.500000 0.313935 0.567661
O O13 0.711440 0.500000 0.567554
O O14 0.770062 0.500000 0.722280
O O15 0.000000 0.663876 0.723245
O O16 0.500000 0.798994 0.898476
O O17 0.693107 0.000000 0.917315
#
# Coordination Sequence:
#
# PCOD8309481 Si02
#       6
#     8   8   4   8   8   8
#     4  10  20  33  51  76 104 133 166 205 248 295
#     4   9  17  30  48  69  93 121 154 194 239 284
#     4   9  18  32  48  65  88 120 154 187 226 274
#     4   9  19  36  55  74  99 132 168 206 249 296
#     4   9  17  30  49  72  97 127 164 203 242 286
#     4   9  18  32  48  67  93 123 153 188 233 282
#
# _framework density 17.998259999999998
#
# number of rings (size 3 to 8) (size 9 to 14) (size 15 to 20)
#    0.000    2.818    0.000    1.636    0.000    5.818 
#    0.000    3.636    0.000    3.273    0.000    0.000 
#    0.000    0.000    0.000    0.000    0.000    0.000 
#
# Total GULP energy -545670.148710 kJ/mol
# GULP energy per Si atom -12401.594289 kJ/mol
# Density = 1.795729 g / cm^3
# Si number density = 17.998260 Si / 1000 Ang^3
#
#
#
# Elastic Constant Matrix: (Units=GPa)
#
#
# Indices 1 2 3 4 5 6 
#
# 1 73.5473 41.5179 67.9570 0.0000 0.0000 0.0000
# 2 41.5179 73.5478 67.9570 0.0000 0.0000 0.0000
# 3 67.9570 67.9570 153.0527 0.0000 0.0000 0.0000
# 4 0.0000 0.0000 0.0000 26.0292 0.0000 0.0000
# 5 0.0000 0.0000 0.0000 0.0000 26.0307 0.0000
# 6 0.0000 0.0000 0.0000 0.0000 0.0000 22.5833
#
#
#
# Elastic Compliance Matrix: (Units=1/GPa)
#
#
# Indices 1 2 3 4 5 6 
#
# 1 0.024748 -0.006473 -0.008115 0.000000 0.000000 0.000000
# 2 -0.006473 0.024748 -0.008114 0.000000 0.000000 0.000000
# 3 -0.008115 -0.008114 0.013740 0.000000 0.000000 0.000000
# 4 0.000000 0.000000 0.000000 0.038418 0.000000 0.000000
# 5 0.000000 0.000000 0.000000 0.000000 0.038416 0.000000
# 6 0.000000 0.000000 0.000000 0.000000 0.000000 0.044280
#
#
# Mechanical properties :
#
#
# Convention : Reuss Voigt Hill
#
# Bulk Modulus (GPa) = 56.07748 72.77907 64.42828
# Shear Modulus (GPa) = 21.21350 23.10970 22.16160
#
# Velocity S-wave (km/s) = 3.43686 3.58718 3.51282
# Velocity P-wave (km/s) = 6.85377 7.59484 7.23380
#
# Compressibility (1/GPa) = 0.01783247
#
# Stress axis : x y z
#
# Youngs Moduli (GPa) = 40.40661 40.40712 72.78264
#
# Poissons Ratio (x) = 0.26155 0.59060
# Poissons Ratio (y) = 0.26154 0.59059
# Poissons Ratio (z) = 0.32788 0.32788
#
# Static dielectric constant tensor:
#      x y z
#    x 3.211430 0.000000 0.000000 
#    y 0.000000 3.211430 0.000000 
#    z 0.000000 0.000000 3.456730 
# 
# 
# High freq. dielectric constant tensor:
#      x y z
#    x 1.683690 0.000000 0.000000 
#    y 0.000000 1.683690 0.000000 
#    z 0.000000 0.000000 1.707940 
# 
# From -- ./inp_files/5747.got.cif
#   From: 2010.03.12/outbox.cif.g09.slc.cpg/sg115_3_cif.got.tgz:5747.got - 2010.04.14 02:11:21.
