data_PCOD8309157
_publ_section_title
;
Structure prediction by ZEFSAII (Michael W. Deem and Ramdas Pophale) SiO2 
 PCOD8309157
Probable space group: P -4 M 2
;
_chemical_formula_sum "Si O2"
_cell_formula_units_Z 23
_cell_length_a 14.077919
_cell_length_b 14.077919
_cell_length_c 6.688020
_cell_angle_alpha 90.000000
_cell_angle_beta 90.000000
_cell_angle_gamma 90.000000
_cell_volume 1325.483993
_symmetry_space_group_name_H-M "P -4 M 2"
_symmetry_group_IT_number 115
_symmetry_cell_setting 'tetragonal'
loop_
_space_group_symop_operation_xyz
x,y,z
y,-x,-z
-x,-y,z
-y,x,-z
y,x,-z
-y,-x,-z
-x,y,z
x,-y,z
loop_
_atom_site_type_symbol
_atom_site_label
_atom_site_fract_x
_atom_site_fract_y
_atom_site_fract_z
Si Si1 0.000000 0.500000 0.963147
Si Si2 0.000000 0.393971 0.582210
Si Si3 0.500000 0.302056 0.263994
Si Si4 0.500000 0.500000 0.500000
Si Si5 0.350446 0.202516 0.519259
Si Si6 0.791780 0.500000 0.147360
O O1 0.000000 0.405449 0.823211
O O2 0.097342 0.500000 0.087120
O O3 0.090391 0.336676 0.504626
O O4 0.000000 0.500000 0.483805
O O5 0.500000 0.409475 0.350649
O O6 0.408179 0.245068 0.334298
O O7 0.500000 0.289447 0.023835
O O8 0.245921 0.245921 0.500000
O O9 0.405463 0.228585 0.723252
#
# Coordination Sequence:
#
# PCOD8309157 Si02
#       6
#     2   4   4   1   8   4
#     4  10  16  34  64  88 102 144 202 240 290 316
#     4  10  17  38  61  80 116 142 188 255 275 320
#     4  11  21  38  53  77 109 158 192 227 265 342
#     4  12  24  40  46  72 134 152 184 226 276 336
#     4  11  22  38  55  84 117 144 191 241 286 334
#     4  11  20  36  61  80 108 152 194 235 282 335
#
# _framework density 17.352152
#
# number of rings (size 3 to 8) (size 9 to 14) (size 15 to 20)
#    0.522    0.696    8.696    1.043    0.000    1.391 
#    0.000    5.217    0.000    0.522    0.000    0.000 
#    0.000    0.000    0.000    0.000    0.000    0.000 
#
# Total GULP energy -285038.441514 kJ/mol
# GULP energy per Si atom -12392.975718 kJ/mol
# Density = 1.731266 g / cm^3
# Si number density = 17.352152 Si / 1000 Ang^3
#
#
#
# Elastic Constant Matrix: (Units=GPa)
#
#
# Indices 1 2 3 4 5 6 
#
# 1 124.2433 61.4463 38.2991 0.0000 0.0000 0.0000
# 2 61.4463 124.2433 38.2991 0.0000 0.0000 0.0000
# 3 38.2991 38.2991 114.3724 0.0000 0.0000 0.0000
# 4 0.0000 0.0000 0.0000 15.5236 0.0000 0.0000
# 5 0.0000 0.0000 0.0000 0.0000 15.5236 0.0000
# 6 0.0000 0.0000 0.0000 0.0000 0.0000 14.4431
#
#
#
# Elastic Compliance Matrix: (Units=1/GPa)
#
#
# Indices 1 2 3 4 5 6 
#
# 1 0.011086 -0.004838 -0.002092 0.000000 0.000000 0.000000
# 2 -0.004838 0.011086 -0.002092 0.000000 0.000000 0.000000
# 3 -0.002092 -0.002092 0.010145 0.000000 0.000000 0.000000
# 4 0.000000 0.000000 0.000000 0.064418 0.000000 0.000000
# 5 0.000000 0.000000 0.000000 0.000000 0.064418 0.000000
# 6 0.000000 0.000000 0.000000 0.000000 0.000000 0.069237
#
#
# Mechanical properties :
#
#
# Convention : Reuss Voigt Hill
#
# Bulk Modulus (GPa) = 70.06686 70.99423 70.53055
# Shear Modulus (GPa) = 19.74773 24.08568 21.91670
#
# Velocity S-wave (km/s) = 3.37717 3.72970 3.55780
# Velocity P-wave (km/s) = 7.46150 7.71687 7.59026
#
# Compressibility (1/GPa) = 0.01427208
#
# Stress axis : x y z
#
# Youngs Moduli (GPa) = 90.20068 90.20068 98.57372
#
# Poissons Ratio (x) = 0.43639 0.20625
# Poissons Ratio (y) = 0.43639 0.20625
# Poissons Ratio (z) = 0.18873 0.18873
#
# Static dielectric constant tensor:
#      x y z
#    x 3.214060 0.000000 0.000000 
#    y 0.000000 3.214060 0.000000 
#    z 0.000000 0.000000 3.322200 
# 
# 
# High freq. dielectric constant tensor:
#      x y z
#    x 1.649370 0.000000 0.000000 
#    y 0.000000 1.649370 0.000000 
#    z 0.000000 0.000000 1.678910 
# 
# From -- ./inp_files/252.got.cif
#   From: 2010.03.12/outbox.cif.g09.slc.cpg/sg115_1_cif.got.tgz:252.got - 2010.04.14 02:11:21.
