data_PCOD8309158
_publ_section_title
;
Structure prediction by ZEFSAII (Michael W. Deem and Ramdas Pophale) SiO2 
 PCOD8309158
Probable space group: P -4 M 2
;
_chemical_formula_sum "Si O2"
_cell_formula_units_Z 64
_cell_length_a 14.449387
_cell_length_b 14.449387
_cell_length_c 20.721047
_cell_angle_alpha 90.000000
_cell_angle_beta 90.000000
_cell_angle_gamma 90.000000
_cell_volume 4326.239336
_symmetry_space_group_name_H-M "P -4 M 2"
_symmetry_group_IT_number 115
_symmetry_cell_setting 'tetragonal'
loop_
_space_group_symop_operation_xyz
x,y,z
y,-x,-z
-x,-y,z
-y,x,-z
y,x,-z
-y,-x,-z
-x,y,z
x,-y,z
loop_
_atom_site_type_symbol
_atom_site_label
_atom_site_fract_x
_atom_site_fract_y
_atom_site_fract_z
Si Si1 0.609273 0.899002 0.130593
Si Si2 0.390171 0.896921 0.758914
Si Si3 0.391808 0.291060 0.185124
Si Si4 0.768555 0.610054 0.126934
Si Si5 0.391487 0.287951 0.556216
Si Si6 0.390154 0.896619 0.986651
Si Si7 0.604763 0.607070 0.685807
Si Si8 0.390340 0.898254 0.615305
O O1 0.500000 0.906609 0.125946
O O2 0.636581 0.817482 0.180262
O O3 0.648270 0.000000 0.153406
O O4 0.646830 0.874796 0.058777
O O5 0.500000 0.893373 0.760631
O O6 0.351461 0.824404 0.810777
O O7 0.353542 0.871974 0.686982
O O8 0.356398 0.000000 0.777632
O O9 0.500000 0.306962 0.169620
O O10 0.334590 0.348084 0.131434
O O11 0.366538 0.326487 0.256438
O O12 0.761366 0.500000 0.125905
O O13 0.820416 0.648872 0.063311
O O14 0.331133 0.331133 0.500000
O O15 0.500000 0.300346 0.540146
O O16 0.365502 0.337177 0.622921
O O17 0.361931 0.180155 0.563606
O O18 0.500000 0.892174 0.984490
O O19 0.357995 0.000000 0.965938
O O20 0.500000 0.633367 0.707122
O O21 0.611819 0.500000 0.667731
O O22 0.500000 0.901861 0.619819
O O23 0.352738 0.000000 0.593917
#
# Coordination Sequence:
#
# PCOD8309158 Si02
#       8
#     8   8   8   8   8   8   8   8
#     4   8  15  29  45  55  65  90 133 179 213 237
#     4   8  13  22  37  57  80 105 132 161 195 235
#     4  10  19  28  39  55  77 108 141 166 191 230
#     4  10  17  23  35  57  85 112 133 156 189 229
#     4  10  18  27  41  60  82 109 140 169 196 229
#     4   8  14  25  40  56  73  95 126 166 208 240
#     4   9  17  28  40  56  81 110 138 167 195 225
#     4   8  14  24  37  53  75 104 134 162 196 239
#
# _framework density 14.79345
#
# number of rings (size 3 to 8) (size 9 to 14) (size 15 to 20)
#    0.000    3.125    0.000    3.375    0.000    5.375 
#    0.000    0.000    0.000    1.500    0.000   10.500 
#    0.000    2.250    0.000    8.875    0.000    1.250 
#
# Total GULP energy -793005.758019 kJ/mol
# GULP energy per Si atom -12390.714969 kJ/mol
# Density = 1.475978 g / cm^3
# Si number density = 14.793450 Si / 1000 Ang^3
#
#
#
# Elastic Constant Matrix: (Units=GPa)
#
#
# Indices 1 2 3 4 5 6 
#
# 1 67.1796 26.8375 47.9710 0.0000 0.0000 0.0000
# 2 26.8375 67.1796 47.9710 0.0000 0.0000 0.0000
# 3 47.9710 47.9710 85.7541 0.0000 0.0000 0.0000
# 4 0.0000 0.0000 0.0000 18.7937 0.0000 0.0000
# 5 0.0000 0.0000 0.0000 0.0000 18.7937 0.0000
# 6 0.0000 0.0000 0.0000 0.0000 0.0000 5.5876
#
#
#
# Elastic Compliance Matrix: (Units=1/GPa)
#
#
# Indices 1 2 3 4 5 6 
#
# 1 0.024786 -0.000001 -0.013865 0.000000 0.000000 0.000000
# 2 -0.000001 0.024786 -0.013865 0.000000 0.000000 0.000000
# 3 -0.013865 -0.013865 0.027173 0.000000 0.000000 0.000000
# 4 0.000000 0.000000 0.000000 0.053209 0.000000 0.000000
# 5 0.000000 0.000000 0.000000 0.000000 0.053209 0.000000
# 6 0.000000 0.000000 0.000000 0.000000 0.000000 0.178966
#
#
# Mechanical properties :
#
#
# Convention : Reuss Voigt Hill
#
# Bulk Modulus (GPa) = 46.98339 51.74137 49.36238
# Shear Modulus (GPa) = 11.77335 15.12392 13.44864
#
# Velocity S-wave (km/s) = 2.82414 3.20087 3.01839
# Velocity P-wave (km/s) = 6.51636 6.97944 6.75187
#
# Compressibility (1/GPa) = 0.02128412
#
# Stress axis : x y z
#
# Youngs Moduli (GPa) = 40.34455 40.34455 36.80090
#
# Poissons Ratio (x) = 0.00006 0.51024
# Poissons Ratio (y) = 0.00006 0.51024
# Poissons Ratio (z) = 0.55937 0.55937
#
# Static dielectric constant tensor:
#      x y z
#    x 2.852830 0.000000 0.000000 
#    y 0.000000 2.852830 0.000000 
#    z 0.000000 0.000000 2.915660 
# 
# 
# High freq. dielectric constant tensor:
#      x y z
#    x 1.536500 0.000000 0.000000 
#    y 0.000000 1.536500 0.000000 
#    z 0.000000 0.000000 1.558680 
# 
# From -- ./inp_files/4440.got.cif
#   From: 2010.03.12/outbox.cif.g09.slc.cpg/sg115_3_cif.got.tgz:4440.got - 2010.04.14 02:11:21.
