data_PCOD8309195
_publ_section_title
;
Structure prediction by ZEFSAII (Michael W. Deem and Ramdas Pophale) SiO2 
 PCOD8309195
Probable space group: P -4 M 2
;
_chemical_formula_sum "Si O2"
_cell_formula_units_Z 40
_cell_length_a 14.087152
_cell_length_b 14.087152
_cell_length_c 12.588363
_cell_angle_alpha 90.000000
_cell_angle_beta 90.000000
_cell_angle_gamma 90.000000
_cell_volume 2498.133591
_symmetry_space_group_name_H-M "P -4 M 2"
_symmetry_group_IT_number 115
_symmetry_cell_setting 'tetragonal'
loop_
_space_group_symop_operation_xyz
x,y,z
y,-x,-z
-x,-y,z
-y,x,-z
y,x,-z
-y,-x,-z
-x,y,z
x,-y,z
loop_
_atom_site_type_symbol
_atom_site_label
_atom_site_fract_x
_atom_site_fract_y
_atom_site_fract_z
Si Si1 0.253533 0.889815 0.545124
Si Si2 0.110244 0.248291 0.210562
Si Si3 0.112306 0.394935 0.631329
Si Si4 0.394188 0.888332 0.966049
Si Si5 0.112668 0.724665 0.832811
O O1 0.160866 0.839135 0.500000
O O2 0.272590 0.866352 0.667670
O O3 0.345427 0.856132 0.478558
O O4 0.233600 0.000000 0.526417
O O5 0.137366 0.341991 0.143867
O O6 0.171426 0.159545 0.169427
O O7 0.000000 0.220625 0.194359
O O8 0.158009 0.500000 0.635101
O O9 0.148706 0.333705 0.730663
O O10 0.000000 0.403501 0.638354
O O11 0.500000 0.842684 0.965821
O O12 0.404322 0.000000 0.979654
O O13 0.332548 0.849837 0.064682
O O14 0.000000 0.739905 0.834071
#
# Coordination Sequence:
#
# PCOD8309195 Si02
#       5
#     8   8   8   8   8
#     4  10  19  31  45  65  96 132 164 197 233 277
#     4  10  20  31  46  69  99 132 161 193 235 281
#     4   9  17  29  46  67  90 122 163 204 244 279
#     4   9  18  32  48  66  90 123 160 198 242 282
#     4  10  18  30  48  69  97 129 160 196 232 277
#
# _framework density 16.011953999999999
#
# number of rings (size 3 to 8) (size 9 to 14) (size 15 to 20)
#    0.000    2.400    2.000    1.200    0.000    3.800 
#    0.000    6.000    0.000    3.600    0.000    0.000 
#    0.000   15.600    0.000    0.000    0.000    0.000 
#
# Total GULP energy -495932.440932 kJ/mol
# GULP energy per Si atom -12398.311023 kJ/mol
# Density = 1.597551 g / cm^3
# Si number density = 16.011954 Si / 1000 Ang^3
#
#
#
# Elastic Constant Matrix: (Units=GPa)
#
#
# Indices 1 2 3 4 5 6 
#
# 1 76.9168 42.7346 51.3189 0.0000 0.0000 0.0000
# 2 42.7346 76.9140 51.3191 0.0000 0.0000 0.0000
# 3 51.3189 51.3191 144.3869 0.0000 0.0000 0.0000
# 4 0.0000 0.0000 0.0000 21.5282 0.0000 0.0000
# 5 0.0000 0.0000 0.0000 0.0000 21.5284 0.0000
# 6 0.0000 0.0000 0.0000 0.0000 0.0000 3.7538
#
#
#
# Elastic Compliance Matrix: (Units=1/GPa)
#
#
# Indices 1 2 3 4 5 6 
#
# 1 0.020639 -0.008616 -0.004273 0.000000 0.000000 0.000000
# 2 -0.008616 0.020640 -0.004274 0.000000 0.000000 0.000000
# 3 -0.004273 -0.004274 0.009964 0.000000 0.000000 0.000000
# 4 0.000000 0.000000 0.000000 0.046451 0.000000 0.000000
# 5 0.000000 0.000000 0.000000 0.000000 0.046450 0.000000
# 6 0.000000 0.000000 0.000000 0.000000 0.000000 0.266398
#
#
# Mechanical properties :
#
#
# Convention : Reuss Voigt Hill
#
# Bulk Modulus (GPa) = 59.11270 65.44032 62.27651
# Shear Modulus (GPa) = 11.09859 19.55174 15.32516
#
# Velocity S-wave (km/s) = 2.63562 3.49817 3.09707
# Velocity P-wave (km/s) = 6.80147 7.56800 7.19495
#
# Compressibility (1/GPa) = 0.01691684
#
# Stress axis : x y z
#
# Youngs Moduli (GPa) = 48.45109 48.44857 100.36458
#
# Poissons Ratio (x) = 0.41745 0.42889
# Poissons Ratio (y) = 0.41747 0.42893
# Poissons Ratio (z) = 0.20705 0.20706
#
# Static dielectric constant tensor:
#      x y z
#    x 2.927910 0.000000 0.000000 
#    y 0.000000 2.927910 0.000000 
#    z 0.000000 0.000000 3.307590 
# 
# 
# High freq. dielectric constant tensor:
#      x y z
#    x 1.587310 0.000000 0.000000 
#    y 0.000000 1.587310 0.000000 
#    z 0.000000 0.000000 1.637100 
# 
# From -- ./inp_files/2715.got.cif
#   From: 2010.03.12/outbox.cif.g09.slc.cpg/sg115_2_cif.got.tgz:2715.got - 2010.04.14 02:11:21.
