data_PCOD8309377
_publ_section_title
;
Structure prediction by ZEFSAII (Michael W. Deem and Ramdas Pophale) SiO2 
 PCOD8309377
Probable space group: P -4 M 2
;
_chemical_formula_sum "Si O2"
_cell_formula_units_Z 48
_cell_length_a 9.146784
_cell_length_b 9.146784
_cell_length_c 31.474547
_cell_angle_alpha 90.000000
_cell_angle_beta 90.000000
_cell_angle_gamma 90.000000
_cell_volume 2633.275722
_symmetry_space_group_name_H-M "P -4 M 2"
_symmetry_group_IT_number 115
_symmetry_cell_setting 'tetragonal'
loop_
_space_group_symop_operation_xyz
x,y,z
y,-x,-z
-x,-y,z
-y,x,-z
y,x,-z
-y,-x,-z
-x,y,z
x,-y,z
loop_
_atom_site_type_symbol
_atom_site_label
_atom_site_fract_x
_atom_site_fract_y
_atom_site_fract_z
Si Si1 0.831023 0.828162 0.198509
Si Si2 0.337381 0.826481 0.627682
Si Si3 0.668253 0.171216 0.962916
Si Si4 0.165130 0.325754 0.463394
Si Si5 0.331172 0.670803 0.876513
Si Si6 0.173652 0.665783 0.281124
O O1 0.734765 0.766564 0.160678
O O2 0.766841 0.763956 0.242631
O O3 0.000000 0.783014 0.191549
O O4 0.811866 0.000000 0.200323
O O5 0.500000 0.761390 0.629436
O O6 0.263376 0.777314 0.582830
O O7 0.264436 0.776807 0.672780
O O8 0.345314 0.000000 0.625604
O O9 0.500000 0.206701 0.974158
O O10 0.715854 0.251067 0.919880
O O11 0.694472 0.000000 0.956758
O O12 0.770996 0.229005 0.000000
O O13 0.269663 0.269663 0.500000
O O14 0.171029 0.500000 0.462038
O O15 0.000000 0.271950 0.472463
O O16 0.500000 0.702681 0.865892
O O17 0.299421 0.500000 0.881547
O O18 0.232543 0.500000 0.275824
O O19 0.000000 0.664566 0.279713
#
# Coordination Sequence:
#
# PCOD8309377 Si02
#       6
#     8   8   8   8   8   8
#     4  10  20  32  48  74 106 134 160 196 245 297
#     4   7  11  22  41  64  88 116 153 196 239 282
#     4  10  21  37  58  83 109 137 169 206 249 294
#     4   9  17  29  45  66  93 123 156 196 240 287
#     4  10  21  37  57  78 100 132 174 213 246 284
#     4   8  13  24  45  69  91 119 157 200 243 286
#
# _framework density 18.228249000000002
#
# number of rings (size 3 to 8) (size 9 to 14) (size 15 to 20)
#    0.000    3.000    0.000    3.500    0.000    4.000 
#    0.000    0.833    0.000    4.000    0.000    2.333 
#    0.000    0.000    0.000    0.000    0.000    0.000 
#
# Total GULP energy -594694.749429 kJ/mol
# GULP energy per Si atom -12389.473946 kJ/mol
# Density = 1.818676 g / cm^3
# Si number density = 18.228249 Si / 1000 Ang^3
#
#
#
# Elastic Constant Matrix: (Units=GPa)
#
#
# Indices 1 2 3 4 5 6 
#
# 1 53.8724 28.2783 56.3609 0.0000 0.0000 0.0000
# 2 28.2783 53.8729 56.3621 0.0000 0.0000 0.0000
# 3 56.3609 56.3621 187.6965 0.0000 0.0000 0.0000
# 4 0.0000 0.0000 0.0000 25.6863 0.0000 0.0000
# 5 0.0000 0.0000 0.0000 0.0000 25.6862 0.0000
# 6 0.0000 0.0000 0.0000 0.0000 0.0000 21.7388
#
#
#
# Elastic Compliance Matrix: (Units=1/GPa)
#
#
# Indices 1 2 3 4 5 6 
#
# 1 0.029887 -0.009184 -0.006217 0.000000 0.000000 0.000000
# 2 -0.009184 0.029887 -0.006217 0.000000 0.000000 0.000000
# 3 -0.006217 -0.006217 0.009061 0.000000 0.000000 0.000000
# 4 0.000000 0.000000 0.000000 0.038931 0.000000 0.000000
# 5 0.000000 0.000000 0.000000 0.000000 0.038931 0.000000
# 6 0.000000 0.000000 0.000000 0.000000 0.000000 0.046001
#
#
# Mechanical properties :
#
#
# Convention : Reuss Voigt Hill
#
# Bulk Modulus (GPa) = 39.06200 64.16050 51.61125
# Shear Modulus (GPa) = 20.45266 24.91829 22.68548
#
# Velocity S-wave (km/s) = 3.35331 3.70133 3.53161
# Velocity P-wave (km/s) = 6.03894 7.31719 6.70858
#
# Compressibility (1/GPa) = 0.02560033
#
# Stress axis : x y z
#
# Youngs Moduli (GPa) = 33.45941 33.45928 110.36040
#
# Poissons Ratio (x) = 0.30730 0.68606
# Poissons Ratio (y) = 0.30730 0.68609
# Poissons Ratio (z) = 0.20800 0.20801
#
# Static dielectric constant tensor:
#      x y z
#    x 3.056240 0.000000 0.000000 
#    y 0.000000 3.056240 0.000000 
#    z 0.000000 0.000000 3.930010 
# 
# 
# High freq. dielectric constant tensor:
#      x y z
#    x 1.671890 0.000000 0.000000 
#    y 0.000000 1.671890 0.000000 
#    z 0.000000 0.000000 1.735200 
# 
# From -- ./inp_files/5994.got.cif
#   From: 2010.03.12/outbox.cif.g09.slc.cpg/sg115_3_cif.got.tgz:5994.got - 2010.04.14 02:11:21.
