data_PCOD8309483
_publ_section_title
;
Structure prediction by ZEFSAII (Michael W. Deem and Ramdas Pophale) SiO2 
 PCOD8309483
Probable space group: P -4 M 2
;
_chemical_formula_sum "Si O2"
_cell_formula_units_Z 44
_cell_length_a 9.299979
_cell_length_b 9.299979
_cell_length_c 28.312751
_cell_angle_alpha 90.000000
_cell_angle_beta 90.000000
_cell_angle_gamma 90.000000
_cell_volume 2448.758775
_symmetry_space_group_name_H-M "P -4 M 2"
_symmetry_group_IT_number 115
_symmetry_cell_setting 'tetragonal'
loop_
_space_group_symop_operation_xyz
x,y,z
y,-x,-z
-x,-y,z
-y,x,-z
y,x,-z
-y,-x,-z
-x,y,z
x,-y,z
loop_
_atom_site_type_symbol
_atom_site_label
_atom_site_fract_x
_atom_site_fract_y
_atom_site_fract_z
Si Si1 0.667662 0.831503 0.858079
Si Si2 0.664940 0.667352 0.683576
Si Si3 0.833206 0.666820 0.408506
Si Si4 0.333094 0.831372 0.223119
Si Si5 0.832960 0.167041 0.500000
Si Si6 0.329261 0.659954 0.948487
O O1 0.500000 0.795559 0.849812
O O2 0.760075 0.761664 0.817065
O O3 0.723764 0.767150 0.907711
O O4 0.696555 0.000000 0.858908
O O5 0.500000 0.708747 0.695111
O O6 0.681017 0.500000 0.672762
O O7 0.722187 0.750683 0.637728
O O8 0.762797 0.714934 0.727338
O O9 0.802622 0.500000 0.417362
O O10 0.773992 0.750985 0.454018
O O11 0.000000 0.699918 0.400334
O O12 0.500000 0.798020 0.212830
O O13 0.301734 0.000000 0.224967
O O14 0.000000 0.199263 0.507833
O O15 0.500000 0.650879 0.949371
O O16 0.265919 0.500000 0.938747
O O17 0.279994 0.720007 0.000000
#
# Coordination Sequence:
#
# PCOD8309483 Si02
#       6
#     8   8   8   8   4   8
#     4  10  20  33  51  76 104 134 168 205 247 296
#     4   9  18  33  52  73  97 125 158 199 247 295
#     4   9  18  32  49  70  96 125 158 196 237 283
#     4  10  21  36  53  74 100 131 168 208 251 299
#     4   9  18  32  48  67  94 128 162 193 230 280
#     4   8  14  27  49  74  98 128 168 210 248 288
#
# _framework density 17.968285999999999
#
# number of rings (size 3 to 8) (size 9 to 14) (size 15 to 20)
#    0.000    2.818    0.000    1.636    0.000    4.364 
#    0.000    2.727    0.000    3.273    0.000    0.000 
#    0.000    0.000    0.000    0.000    0.000    0.000 
#
# Total GULP energy -545608.169311 kJ/mol
# GULP energy per Si atom -12400.185666 kJ/mol
# Density = 1.792739 g / cm^3
# Si number density = 17.968286 Si / 1000 Ang^3
#
#
#
# Elastic Constant Matrix: (Units=GPa)
#
#
# Indices 1 2 3 4 5 6 
#
# 1 69.6185 45.3814 79.6027 0.0000 0.0000 0.0000
# 2 45.3814 69.6180 79.6027 0.0000 0.0000 0.0000
# 3 79.6027 79.6027 199.0954 0.0000 0.0000 0.0000
# 4 0.0000 0.0000 0.0000 -2.2574 0.0000 0.0000
# 5 0.0000 0.0000 0.0000 0.0000 -2.2608 0.0000
# 6 0.0000 0.0000 0.0000 0.0000 0.0000 20.5578
#
#
#
# Elastic Compliance Matrix: (Units=1/GPa)
#
#
# Indices 1 2 3 4 5 6 
#
# 1 0.030367 -0.010892 -0.007787 0.000000 0.000000 0.000000
# 2 -0.010892 0.030368 -0.007787 0.000000 0.000000 0.000000
# 3 -0.007787 -0.007787 0.011249 0.000000 0.000000 0.000000
# 4 0.000000 0.000000 0.000000 -0.442997 0.000000 0.000000
# 5 0.000000 0.000000 0.000000 0.000000 -0.442320 0.000000
# 6 0.000000 0.000000 0.000000 0.000000 0.000000 0.048643
#
#
# Mechanical properties :
#
#
# Convention : Reuss Voigt Hill
#
# Bulk Modulus (GPa) = 52.48354 83.05619 67.76986
# Shear Modulus (GPa) = -7.08811 12.12427 2.51808
#
# Velocity S-wave (km/s) = -1.98830 2.60043 1.18509
# Velocity P-wave (km/s) = 4.89911 7.43912 6.29848
#
# Compressibility (1/GPa) = 0.01905359
#
# Stress axis : x y z
#
# Youngs Moduli (GPa) = 32.92999 32.92952 88.89349
#
# Poissons Ratio (x) = 0.35867 0.69219
# Poissons Ratio (y) = 0.35867 0.69221
# Poissons Ratio (z) = 0.25642 0.25642
#
# Static dielectric constant tensor:
#      x y z
#    x 3.222640 0.000000 0.000000 
#    y 0.000000 3.222640 0.000000 
#    z 0.000000 0.000000 3.641980 
# 
# 
# High freq. dielectric constant tensor:
#      x y z
#    x 1.679510 0.000000 0.000000 
#    y 0.000000 1.679510 0.000000 
#    z 0.000000 0.000000 1.710250 
# 
# From -- ./inp_files/5729.got.cif
#   From: 2010.03.12/outbox.cif.g09.slc.cpg/sg115_3_cif.got.tgz:5729.got - 2010.04.14 02:11:21.
