data_PCOD8309874
_publ_section_title
;
Structure prediction by ZEFSAII (Michael W. Deem and Ramdas Pophale) SiO2 
 PCOD8309874
Probable space group: P -4 M 2
;
_chemical_formula_sum "Si O2"
_cell_formula_units_Z 40
_cell_length_a 8.950270
_cell_length_b 8.950270
_cell_length_c 25.581559
_cell_angle_alpha 90.000000
_cell_angle_beta 90.000000
_cell_angle_gamma 90.000000
_cell_volume 2049.270467
_symmetry_space_group_name_H-M "P -4 M 2"
_symmetry_group_IT_number 115
_symmetry_cell_setting 'tetragonal'
loop_
_space_group_symop_operation_xyz
x,y,z
y,-x,-z
-x,-y,z
-y,x,-z
y,x,-z
-y,-x,-z
-x,y,z
x,-y,z
loop_
_atom_site_type_symbol
_atom_site_label
_atom_site_fract_x
_atom_site_fract_y
_atom_site_fract_z
Si Si1 0.328092 0.176177 0.145509
Si Si2 0.324529 0.827622 0.951530
Si Si3 0.329184 0.325963 0.347244
Si Si4 0.674600 0.173394 0.758802
Si Si5 0.669735 0.175628 0.452658
O O1 0.500000 0.224196 0.137948
O O2 0.227601 0.250145 0.101369
O O3 0.271273 0.230467 0.201373
O O4 0.309564 0.000000 0.141561
O O5 0.500000 0.804369 0.946290
O O6 0.282874 0.000000 0.960631
O O7 0.267060 0.732941 0.000000
O O8 0.500000 0.280687 0.334439
O O9 0.315109 0.500000 0.358997
O O10 0.225368 0.278590 0.298973
O O11 0.268599 0.241550 0.398324
O O12 0.500000 0.203526 0.768960
O O13 0.714493 0.000000 0.765667
O O14 0.770293 0.229708 0.500000
O O15 0.500000 0.230142 0.461802
O O16 0.680721 0.000000 0.448996
#
# Coordination Sequence:
#
# PCOD8309874 Si02
#       5
#     8   8   8   8   8
#     4  11  24  40  59  85 116 151 192 235 279 330
#     4  11  24  41  62  89 119 151 190 234 280 333
#     4   9  18  34  56  80 108 145 187 229 274 327
#     4  10  21  37  58  85 115 147 185 229 278 333
#     4  10  21  36  55  80 110 144 183 228 277 330
#
# _framework density 19.519138999999999
#
# number of rings (size 3 to 8) (size 9 to 14) (size 15 to 20)
#    0.000    1.800    0.000    3.600    0.000   12.000 
#    0.000    4.000    0.000    0.000    0.000    0.000 
#    0.000    0.000    0.000    0.000    0.000    0.000 
#
# Total GULP energy -496221.978172 kJ/mol
# GULP energy per Si atom -12405.549454 kJ/mol
# Density = 1.947471 g / cm^3
# Si number density = 19.519139 Si / 1000 Ang^3
#
#
#
# Elastic Constant Matrix: (Units=GPa)
#
#
# Indices 1 2 3 4 5 6 
#
# 1 57.8866 42.8969 37.8693 0.0000 0.0000 0.0000
# 2 42.8969 57.8905 37.8704 0.0000 0.0000 0.0000
# 3 37.8693 37.8704 119.5713 0.0000 0.0000 0.0000
# 4 0.0000 0.0000 0.0000 72.7794 0.0000 0.0000
# 5 0.0000 0.0000 0.0000 0.0000 72.7831 0.0000
# 6 0.0000 0.0000 0.0000 0.0000 0.0000 27.9841
#
#
#
# Elastic Compliance Matrix: (Units=1/GPa)
#
#
# Indices 1 2 3 4 5 6 
#
# 1 0.039864 -0.026841 -0.004124 0.000000 0.000000 0.000000
# 2 -0.026841 0.039861 -0.004124 0.000000 0.000000 0.000000
# 3 -0.004124 -0.004124 0.010975 0.000000 0.000000 0.000000
# 4 0.000000 0.000000 0.000000 0.013740 0.000000 0.000000
# 5 0.000000 0.000000 0.000000 0.000000 0.013739 0.000000
# 6 0.000000 0.000000 0.000000 0.000000 0.000000 0.035735
#
#
# Mechanical properties :
#
#
# Convention : Reuss Voigt Hill
#
# Bulk Modulus (GPa) = 48.72839 52.51352 50.62095
# Shear Modulus (GPa) = 21.65125 42.49013 32.07069
#
# Velocity S-wave (km/s) = 3.33413 4.67073 4.05784
# Velocity P-wave (km/s) = 6.31193 7.48663 6.92424
#
# Compressibility (1/GPa) = 0.02052192
#
# Stress axis : x y z
#
# Youngs Moduli (GPa) = 25.08540 25.08714 91.11236
#
# Poissons Ratio (x) = 0.67337 0.37576
# Poissons Ratio (y) = 0.67332 0.37574
# Poissons Ratio (z) = 0.10345 0.10346
#
# Static dielectric constant tensor:
#      x y z
#    x 3.613630 0.000000 0.000000 
#    y 0.000000 3.613630 0.000000 
#    z 0.000000 0.000000 3.815110 
# 
# 
# High freq. dielectric constant tensor:
#      x y z
#    x 1.762690 0.000000 0.000000 
#    y 0.000000 1.762690 0.000000 
#    z 0.000000 0.000000 1.775600 
# 
# From -- ./inp_files/5069.got.cif
#   From: 2010.03.12/outbox.cif.g09.slc.cpg/sg115_3_cif.got.tgz:5069.got - 2010.04.14 02:11:21.
