data_PCOD8309575
_publ_section_title
;
Structure prediction by ZEFSAII (Michael W. Deem and Ramdas Pophale) SiO2 
 PCOD8309575
Probable space group: P -4 M 2
;
_chemical_formula_sum "Si O2"
_cell_formula_units_Z 40
_cell_length_a 8.057817
_cell_length_b 8.057817
_cell_length_c 28.978957
_cell_angle_alpha 90.000000
_cell_angle_beta 90.000000
_cell_angle_gamma 90.000000
_cell_volume 1881.557741
_symmetry_space_group_name_H-M "P -4 M 2"
_symmetry_group_IT_number 115
_symmetry_cell_setting 'tetragonal'
loop_
_space_group_symop_operation_xyz
x,y,z
y,-x,-z
-x,-y,z
-y,x,-z
y,x,-z
-y,-x,-z
-x,y,z
x,-y,z
loop_
_atom_site_type_symbol
_atom_site_label
_atom_site_fract_x
_atom_site_fract_y
_atom_site_fract_z
Si Si1 0.807392 0.807392 0.500000
Si Si2 0.191352 0.319037 0.310652
Si Si3 0.688959 0.688959 0.000000
Si Si4 0.000000 0.198126 0.847377
Si Si5 0.000000 0.198133 0.742097
Si Si6 0.810864 0.690728 0.597074
Si Si7 0.809804 0.685045 0.098016
O O1 0.737050 0.717350 0.545738
O O2 0.000000 0.768662 0.493652
O O3 0.270261 0.500000 0.297566
O O4 0.273317 0.165280 0.282562
O O5 0.207984 0.293140 0.365481
O O6 0.000000 0.325155 0.297342
O O7 0.737834 0.797796 0.955652
O O8 0.720632 0.500000 0.985287
O O9 0.168006 0.271511 0.871158
O O10 0.000000 0.257857 0.794721
O O11 0.000000 0.000000 0.852130
O O12 0.000000 0.000000 0.737832
O O13 0.800134 0.500000 0.610934
O O14 0.000000 0.756768 0.597950
O O15 0.727323 0.500000 0.105742
O O16 0.000000 0.670523 0.112183
#
# Coordination Sequence:
#
# PCOD8309575 Si02
#       7
#     4   8   4   4   4   8   8
#     4   9  18  32  52  77 108 148 184 219 265 318
#     4  10  20  34  56  82 104 137 184 231 280 336
#     4   9  18  32  49  70 100 138 177 218 264 315
#     4   9  18  32  51  79 109 141 175 223 283 328
#     4   9  18  34  55  79 109 137 177 233 281 332
#     4  10  20  34  53  77 108 143 177 220 274 330
#     4   9  18  31  48  74 105 138 178 222 269 327
#
# _framework density 21.258979
#
# number of rings (size 3 to 8) (size 9 to 14) (size 15 to 20)
#    0.000    2.600    1.000    0.600    1.400    2.800 
#    0.000    6.000    0.000    2.400    0.000    2.800 
#    0.000    0.000    0.000    0.000    0.000    0.000 
#
# Total GULP energy -495739.565972 kJ/mol
# GULP energy per Si atom -12393.489149 kJ/mol
# Density = 2.121059 g / cm^3
# Si number density = 21.258979 Si / 1000 Ang^3
#
#
#
# Elastic Constant Matrix: (Units=GPa)
#
#
# Indices 1 2 3 4 5 6 
#
# 1 80.7609 24.3903 47.0025 0.0000 0.0000 0.0000
# 2 24.3903 80.7609 47.0025 0.0000 0.0000 0.0000
# 3 47.0025 47.0025 147.8918 0.0000 0.0000 0.0000
# 4 0.0000 0.0000 0.0000 7.6535 0.0000 0.0000
# 5 0.0000 0.0000 0.0000 0.0000 7.6535 0.0000
# 6 0.0000 0.0000 0.0000 0.0000 0.0000 10.5209
#
#
#
# Elastic Compliance Matrix: (Units=1/GPa)
#
#
# Indices 1 2 3 4 5 6 
#
# 1 0.015512 -0.002228 -0.004222 0.000000 0.000000 0.000000
# 2 -0.002228 0.015512 -0.004222 0.000000 0.000000 0.000000
# 3 -0.004222 -0.004222 0.009445 0.000000 0.000000 0.000000
# 4 0.000000 0.000000 0.000000 0.130660 0.000000 0.000000
# 5 0.000000 0.000000 0.000000 0.000000 0.130660 0.000000
# 6 0.000000 0.000000 0.000000 0.000000 0.000000 0.095048
#
#
# Mechanical properties :
#
#
# Convention : Reuss Voigt Hill
#
# Bulk Modulus (GPa) = 52.28384 60.68934 56.48659
# Shear Modulus (GPa) = 11.77699 17.90014 14.83856
#
# Velocity S-wave (km/s) = 2.35623 2.90488 2.64482
# Velocity P-wave (km/s) = 5.66123 6.31353 5.99626
#
# Compressibility (1/GPa) = 0.01912637
#
# Stress axis : x y z
#
# Youngs Moduli (GPa) = 64.46541 64.46541 105.87171
#
# Poissons Ratio (x) = 0.14360 0.44700
# Poissons Ratio (y) = 0.14360 0.44700
# Poissons Ratio (z) = 0.27218 0.27218
#
# Static dielectric constant tensor:
#      x y z
#    x 3.789220 0.000000 0.000000 
#    y 0.000000 3.789220 0.000000 
#    z 0.000000 0.000000 3.792720 
# 
# 
# High freq. dielectric constant tensor:
#      x y z
#    x 1.812330 0.000000 0.000000 
#    y 0.000000 1.812330 0.000000 
#    z 0.000000 0.000000 1.827100 
# 
# From -- ./inp_files/5585.got.cif
#   From: 2010.03.12/outbox.cif.g09.slc.cpg/sg115_3_cif.got.tgz:5585.got - 2010.04.14 02:11:21.
