data_PCOD8309752
_publ_section_title
;
Structure prediction by ZEFSAII (Michael W. Deem and Ramdas Pophale) SiO2 
 PCOD8309752
Probable space group: P -4 M 2
;
_chemical_formula_sum "Si O2"
_cell_formula_units_Z 48
_cell_length_a 9.412354
_cell_length_b 9.412354
_cell_length_c 30.747117
_cell_angle_alpha 90.000000
_cell_angle_beta 90.000000
_cell_angle_gamma 90.000000
_cell_volume 2723.961129
_symmetry_space_group_name_H-M "P -4 M 2"
_symmetry_group_IT_number 115
_symmetry_cell_setting 'tetragonal'
loop_
_space_group_symop_operation_xyz
x,y,z
y,-x,-z
-x,-y,z
-y,x,-z
y,x,-z
-y,-x,-z
-x,y,z
x,-y,z
loop_
_atom_site_type_symbol
_atom_site_label
_atom_site_fract_x
_atom_site_fract_y
_atom_site_fract_z
Si Si1 0.669904 0.657788 0.952641
Si Si2 0.665744 0.834871 0.777498
Si Si3 0.156667 0.668440 0.125363
Si Si4 0.335676 0.833757 0.293772
Si Si5 0.836523 0.163286 0.378248
Si Si6 0.164070 0.666905 0.464219
O O1 0.500000 0.656186 0.951584
O O2 0.730185 0.500000 0.946148
O O3 0.735107 0.748110 0.912953
O O4 0.718313 0.718313 0.000000
O O5 0.500000 0.810805 0.768504
O O6 0.706559 0.786350 0.826532
O O7 0.753671 0.735579 0.745967
O O8 0.705145 0.000000 0.770373
O O9 0.151190 0.500000 0.120704
O O10 0.000000 0.732613 0.119430
O O11 0.500000 0.790827 0.296815
O O12 0.260580 0.786904 0.338371
O O13 0.314770 0.000000 0.285769
O O14 0.796122 0.263106 0.418364
O O15 0.000000 0.183643 0.364401
O O16 0.805720 0.000000 0.391292
O O17 0.265002 0.734999 0.500000
O O18 0.194384 0.500000 0.461342
O O19 0.000000 0.698299 0.476134
#
# Coordination Sequence:
#
# PCOD8309752 Si02
#       6
#     8   8   8   8   8   8
#     4   8  13  21  35  57  83 111 146 186 225 269
#     4   9  18  32  50  72  96 124 162 205 244 286
#     4   8  14  25  41  62  88 117 150 189 232 277
#     4  10  21  35  51  74 103 132 162 199 245 295
#     4   9  18  34  55  75  97 131 173 209 240 282
#     4  10  21  36  55  80 108 137 169 206 247 289
#
# _framework density 17.621397999999999
#
# number of rings (size 3 to 8) (size 9 to 14) (size 15 to 20)
#    0.000    3.000    0.000    2.500    0.000    4.333 
#    0.000    5.000    0.000    1.000    0.000    2.333 
#    0.000    0.000    0.000    0.000    0.000    0.000 
#
# Total GULP energy -595039.352860 kJ/mol
# GULP energy per Si atom -12396.653185 kJ/mol
# Density = 1.758129 g / cm^3
# Si number density = 17.621398 Si / 1000 Ang^3
#
#
#
# Elastic Constant Matrix: (Units=GPa)
#
#
# Indices 1 2 3 4 5 6 
#
# 1 74.1597 44.1646 79.0663 0.0000 0.0000 0.0000
# 2 44.1646 74.1600 79.0674 0.0000 0.0000 0.0000
# 3 79.0663 79.0674 176.9499 0.0000 0.0000 0.0000
# 4 0.0000 0.0000 0.0000 39.2411 0.0000 0.0000
# 5 0.0000 0.0000 0.0000 0.0000 39.2406 0.0000
# 6 0.0000 0.0000 0.0000 0.0000 0.0000 21.8312
#
#
#
# Elastic Compliance Matrix: (Units=1/GPa)
#
#
# Indices 1 2 3 4 5 6 
#
# 1 0.027159 -0.006179 -0.009374 0.000000 0.000000 0.000000
# 2 -0.006179 0.027159 -0.009375 0.000000 0.000000 0.000000
# 3 -0.009374 -0.009375 0.014029 0.000000 0.000000 0.000000
# 4 0.000000 0.000000 0.000000 0.025483 0.000000 0.000000
# 5 0.000000 0.000000 0.000000 0.000000 0.025484 0.000000
# 6 0.000000 0.000000 0.000000 0.000000 0.000000 0.045806
#
#
# Mechanical properties :
#
#
# Convention : Reuss Voigt Hill
#
# Bulk Modulus (GPa) = 54.08143 81.09627 67.58885
# Shear Modulus (GPa) = 22.61007 28.26067 25.43537
#
# Velocity S-wave (km/s) = 3.58593 4.00905 3.80338
# Velocity P-wave (km/s) = 6.92117 8.21897 7.59783
#
# Compressibility (1/GPa) = 0.01849063
#
# Stress axis : x y z
#
# Youngs Moduli (GPa) = 36.82038 36.81970 71.28165
#
# Poissons Ratio (x) = 0.22753 0.66821
# Poissons Ratio (y) = 0.22753 0.66824
# Poissons Ratio (z) = 0.34516 0.34517
#
# Static dielectric constant tensor:
#      x y z
#    x 2.973990 0.000000 0.000000 
#    y 0.000000 2.973990 0.000000 
#    z 0.000000 0.000000 3.467730 
# 
# 
# High freq. dielectric constant tensor:
#      x y z
#    x 1.659660 0.000000 0.000000 
#    y 0.000000 1.659660 0.000000 
#    z 0.000000 0.000000 1.695670 
# 
# From -- ./inp_files/5916.got.cif
#   From: 2010.03.12/outbox.cif.g09.slc.cpg/sg115_3_cif.got.tgz:5916.got - 2010.04.14 02:11:21.
