data_PCOD8309362
_publ_section_title
;
Structure prediction by ZEFSAII (Michael W. Deem and Ramdas Pophale) SiO2 
 PCOD8309362
Probable space group: P -4 M 2
;
_chemical_formula_sum "Si O2"
_cell_formula_units_Z 40
_cell_length_a 9.553292
_cell_length_b 9.553292
_cell_length_c 25.601584
_cell_angle_alpha 90.000000
_cell_angle_beta 90.000000
_cell_angle_gamma 90.000000
_cell_volume 2336.538498
_symmetry_space_group_name_H-M "P -4 M 2"
_symmetry_group_IT_number 115
_symmetry_cell_setting 'tetragonal'
loop_
_space_group_symop_operation_xyz
x,y,z
y,-x,-z
-x,-y,z
-y,x,-z
y,x,-z
-y,-x,-z
-x,y,z
x,-y,z
loop_
_atom_site_type_symbol
_atom_site_label
_atom_site_fract_x
_atom_site_fract_y
_atom_site_fract_z
Si Si1 0.837859 0.834757 0.360601
Si Si2 0.155319 0.666539 0.850390
Si Si3 0.339274 0.659312 0.561040
Si Si4 0.332853 0.655664 0.057191
Si Si5 0.833403 0.656013 0.735922
O O1 0.767346 0.760154 0.409614
O O2 0.764089 0.779724 0.307665
O O3 0.000000 0.793068 0.357867
O O4 0.817332 0.000000 0.367539
O O5 0.149488 0.500000 0.854507
O O6 0.249197 0.730770 0.896710
O O7 0.218678 0.706394 0.793324
O O8 0.000000 0.729571 0.857061
O O9 0.315880 0.684121 0.500000
O O10 0.500000 0.688487 0.576267
O O11 0.298711 0.500000 0.575921
O O12 0.500000 0.653008 0.059036
O O13 0.273342 0.500000 0.066015
O O14 0.286616 0.713385 0.000000
O O15 0.775768 0.500000 0.722913
O O16 0.000000 0.650901 0.737611
#
# Coordination Sequence:
#
# PCOD8309362 Si02
#       5
#     8   8   8   8   8
#     4  10  20  32  48  72  99 125 154 188 227 273
#     4   8  13  22  38  58  77 102 141 183 216 251
#     4   9  19  36  55  73  94 122 156 191 227 269
#     4   8  13  21  34  54  80 106 131 166 215 264
#     4   8  14  26  44  64  86 114 149 187 223 259
#
# _framework density 17.119340000000001
#
# number of rings (size 3 to 8) (size 9 to 14) (size 15 to 20)
#    0.000    3.400    0.000    3.000    0.000    2.400 
#    0.000    4.000    0.000    4.800    0.000    0.000 
#    0.000    0.000    0.000    0.000    0.000    0.000 
#
# Total GULP energy -495731.477022 kJ/mol
# GULP energy per Si atom -12393.286926 kJ/mol
# Density = 1.708038 g / cm^3
# Si number density = 17.119340 Si / 1000 Ang^3
#
#
#
# Elastic Constant Matrix: (Units=GPa)
#
#
# Indices 1 2 3 4 5 6 
#
# 1 65.8617 35.2707 58.2092 0.0000 0.0000 0.0000
# 2 35.2707 65.8614 58.2091 0.0000 0.0000 0.0000
# 3 58.2092 58.2091 135.1405 0.0000 0.0000 0.0000
# 4 0.0000 0.0000 0.0000 16.5367 0.0000 0.0000
# 5 0.0000 0.0000 0.0000 0.0000 16.5367 0.0000
# 6 0.0000 0.0000 0.0000 0.0000 0.0000 17.1855
#
#
#
# Elastic Compliance Matrix: (Units=1/GPa)
#
#
# Indices 1 2 3 4 5 6 
#
# 1 0.026151 -0.006538 -0.008448 0.000000 0.000000 0.000000
# 2 -0.006538 0.026151 -0.008448 0.000000 0.000000 0.000000
# 3 -0.008448 -0.008448 0.014677 0.000000 0.000000 0.000000
# 4 0.000000 0.000000 0.000000 0.060472 0.000000 0.000000
# 5 0.000000 0.000000 0.000000 0.000000 0.060472 0.000000
# 6 0.000000 0.000000 0.000000 0.000000 0.000000 0.058188
#
#
# Mechanical properties :
#
#
# Convention : Reuss Voigt Hill
#
# Bulk Modulus (GPa) = 49.72302 63.36018 56.54160
# Shear Modulus (GPa) = 16.68429 17.73007 17.20718
#
# Velocity S-wave (km/s) = 3.12522 3.22168 3.17382
# Velocity P-wave (km/s) = 6.49082 7.13654 6.82132
#
# Compressibility (1/GPa) = 0.02011141
#
# Stress axis : x y z
#
# Youngs Moduli (GPa) = 38.23933 38.23919 68.13301
#
# Poissons Ratio (x) = 0.25002 0.57557
# Poissons Ratio (y) = 0.25002 0.57558
# Poissons Ratio (z) = 0.32304 0.32304
#
# Static dielectric constant tensor:
#      x y z
#    x 2.988700 0.000000 0.000000 
#    y 0.000000 2.988700 0.000000 
#    z 0.000000 0.000000 3.524860 
# 
# 
# High freq. dielectric constant tensor:
#      x y z
#    x 1.624700 0.000000 0.000000 
#    y 0.000000 1.624700 0.000000 
#    z 0.000000 0.000000 1.677330 
# 
# From -- ./inp_files/5444.got.cif
#   From: 2010.03.12/outbox.cif.g09.slc.cpg/sg115_3_cif.got.tgz:5444.got - 2010.04.14 02:11:21.
