data_PCOD8309621
_publ_section_title
;
Structure prediction by ZEFSAII (Michael W. Deem and Ramdas Pophale) SiO2 
 PCOD8309621
Probable space group: P -4 M 2
;
_chemical_formula_sum "Si O2"
_cell_formula_units_Z 48
_cell_length_a 9.098308
_cell_length_b 9.098308
_cell_length_c 30.792502
_cell_angle_alpha 90.000000
_cell_angle_beta 90.000000
_cell_angle_gamma 90.000000
_cell_volume 2548.978942
_symmetry_space_group_name_H-M "P -4 M 2"
_symmetry_group_IT_number 115
_symmetry_cell_setting 'tetragonal'
loop_
_space_group_symop_operation_xyz
x,y,z
y,-x,-z
-x,-y,z
-y,x,-z
y,x,-z
-y,-x,-z
-x,y,z
x,-y,z
loop_
_atom_site_type_symbol
_atom_site_label
_atom_site_fract_x
_atom_site_fract_y
_atom_site_fract_z
Si Si1 0.670685 0.827592 0.210893
Si Si2 0.164899 0.827027 0.950925
Si Si3 0.331436 0.670988 0.876217
Si Si4 0.328731 0.828006 0.367988
Si Si5 0.172658 0.329352 0.289391
Si Si6 0.825480 0.163451 0.547260
O O1 0.500000 0.791144 0.219536
O O2 0.723163 0.763965 0.164815
O O3 0.766922 0.753369 0.247647
O O4 0.700787 0.000000 0.211153
O O5 0.280521 0.753686 0.919088
O O6 0.000000 0.767936 0.941587
O O7 0.168733 0.000000 0.943918
O O8 0.212220 0.787781 0.000000
O O9 0.500000 0.710421 0.866591
O O10 0.308453 0.500000 0.884847
O O11 0.500000 0.794402 0.364480
O O12 0.245184 0.735631 0.332165
O O13 0.272786 0.772704 0.414966
O O14 0.294958 0.000000 0.360870
O O15 0.213286 0.500000 0.285581
O O16 0.000000 0.302972 0.292337
O O17 0.774465 0.225536 0.500000
O O18 0.000000 0.153865 0.546091
O O19 0.760708 0.000000 0.556137
#
# Coordination Sequence:
#
# PCOD8309621 Si02
#       6
#     8   8   8   8   8   8
#     4  10  21  38  60  83 106 137 177 217 261 316
#     4   9  19  36  56  78 106 142 184 227 269 313
#     4  10  21  36  55  81 112 144 177 215 262 316
#     4  10  20  34  54  80 108 140 178 217 261 315
#     4  11  24  39  55  78 107 139 176 218 265 315
#     4   8  14  27  49  75 103 138 179 221 263 306
#
# _framework density 18.831068999999999
#
# number of rings (size 3 to 8) (size 9 to 14) (size 15 to 20)
#    0.000    2.333    0.000    3.500    0.000    8.000 
#    0.000    3.333    0.000    3.000    0.000    0.000 
#    0.000    0.000    0.000    0.000    0.000    0.000 
#
# Total GULP energy -595257.593815 kJ/mol
# GULP energy per Si atom -12401.199871 kJ/mol
# Density = 1.878821 g / cm^3
# Si number density = 18.831069 Si / 1000 Ang^3
#
#
#
# Elastic Constant Matrix: (Units=GPa)
#
#
# Indices 1 2 3 4 5 6 
#
# 1 79.1262 54.4122 68.1104 0.0000 0.0000 0.0000
# 2 54.4122 79.1262 68.1104 0.0000 0.0000 0.0000
# 3 68.1104 68.1104 161.5294 0.0000 0.0000 0.0000
# 4 0.0000 0.0000 0.0000 54.8576 0.0000 0.0000
# 5 0.0000 0.0000 0.0000 0.0000 54.8571 0.0000
# 6 0.0000 0.0000 0.0000 0.0000 0.0000 28.1412
#
#
#
# Elastic Compliance Matrix: (Units=1/GPa)
#
#
# Indices 1 2 3 4 5 6 
#
# 1 0.026802 -0.013661 -0.005541 0.000000 0.000000 0.000000
# 2 -0.013661 0.026802 -0.005541 0.000000 0.000000 0.000000
# 3 -0.005541 -0.005541 0.010864 0.000000 0.000000 0.000000
# 4 0.000000 0.000000 0.000000 0.018229 0.000000 0.000000
# 5 0.000000 0.000000 0.000000 0.000000 0.018229 0.000000
# 6 0.000000 0.000000 0.000000 0.000000 0.000000 0.035535
#
#
# Mechanical properties :
#
#
# Convention : Reuss Voigt Hill
#
# Bulk Modulus (GPa) = 66.74967 77.89418 72.32192
# Shear Modulus (GPa) = 26.18625 36.18109 31.18367
#
# Velocity S-wave (km/s) = 3.73310 4.38808 4.07377
# Velocity P-wave (km/s) = 7.35561 8.19318 7.78566
#
# Compressibility (1/GPa) = 0.01498135
#
# Stress axis : x y z
#
# Youngs Moduli (GPa) = 37.31100 37.31099 92.05093
#
# Poissons Ratio (x) = 0.50971 0.51004
# Poissons Ratio (y) = 0.50971 0.51004
# Poissons Ratio (z) = 0.20674 0.20674
#
# Static dielectric constant tensor:
#      x y z
#    x 3.376430 0.000000 0.000000 
#    y 0.000000 3.376430 0.000000 
#    z 0.000000 0.000000 3.795330 
# 
# 
# High freq. dielectric constant tensor:
#      x y z
#    x 1.722440 0.000000 0.000000 
#    y 0.000000 1.722440 0.000000 
#    z 0.000000 0.000000 1.748870 
# 
# From -- ./inp_files/6014.got.cif
#   From: 2010.03.12/outbox.cif.g09.slc.cpg/sg115_4_cif.got.tgz:6014.got - 2010.04.14 02:11:21.
