data_PCOD8309156
_publ_section_title
;
Structure prediction by ZEFSAII (Michael W. Deem and Ramdas Pophale) SiO2 
 PCOD8309156
Probable space group: P -4 M 2
;
_chemical_formula_sum "Si O2"
_cell_formula_units_Z 48
_cell_length_a 11.918210
_cell_length_b 11.918210
_cell_length_c 21.627169
_cell_angle_alpha 90.000000
_cell_angle_beta 90.000000
_cell_angle_gamma 90.000000
_cell_volume 3072.003746
_symmetry_space_group_name_H-M "P -4 M 2"
_symmetry_group_IT_number 115
_symmetry_cell_setting 'tetragonal'
loop_
_space_group_symop_operation_xyz
x,y,z
y,-x,-z
-x,-y,z
-y,x,-z
y,x,-z
-y,-x,-z
-x,y,z
x,-y,z
loop_
_atom_site_type_symbol
_atom_site_label
_atom_site_fract_x
_atom_site_fract_y
_atom_site_fract_z
Si Si1 0.789127 0.368396 0.030179
Si Si2 0.131597 0.868404 0.500000
Si Si3 0.000000 0.866321 0.707806
Si Si4 0.751381 0.126619 0.853199
Si Si5 0.193767 0.000000 0.157318
Si Si6 0.369271 0.000000 0.053456
Si Si7 0.867313 0.212308 0.370667
Si Si8 0.374458 0.133410 0.731365
O O1 0.784471 0.500000 0.041621
O O2 0.797870 0.306864 0.095490
O O3 0.673072 0.326929 0.000000
O O4 0.891755 0.333147 0.985952
O O5 0.177700 0.797809 0.440985
O O6 0.000000 0.847847 0.512817
O O7 0.000000 0.790071 0.769139
O O8 0.893306 0.828370 0.669063
O O9 0.000000 0.000000 0.724503
O O10 0.707531 0.172738 0.786895
O O11 0.886186 0.127452 0.859748
O O12 0.708942 0.000000 0.862496
O O13 0.310498 0.000000 0.120248
O O14 0.500000 0.000000 0.067843
O O15 0.824583 0.323530 0.334561
O O16 0.000000 0.209657 0.375117
O O17 0.500000 0.183275 0.739215
O O18 0.378772 0.000000 0.730792
#
# Coordination Sequence:
#
# PCOD8309156 Si02
#       8
#     8   4   4   8   4   4   8   8
#     4  11  22  37  53  69  91 121 159 201 242 286
#     4   9  14  20  34  56  84 116 146 183 226 272
#     4  10  16  26  40  64  95 123 141 181 228 273
#     4  11  20  30  47  72  98 125 153 187 233 288
#     4  12  20  30  50  72  94 122 152 194 238 276
#     4  10  22  38  52  66  89 121 157 193 240 299
#     4   9  15  23  36  57  88 121 154 184 218 264
#     4   9  17  27  39  58  89 129 163 184 216 269
#
# _framework density 15.624981999999999
#
# number of rings (size 3 to 8) (size 9 to 14) (size 15 to 20)
#    0.000    1.917    5.000    1.250    0.000    0.833 
#    0.000    0.000    0.000    0.000    0.000    1.167 
#    0.000    0.000    0.000    0.333    0.000    0.333 
#
# Total GULP energy -594913.453306 kJ/mol
# GULP energy per Si atom -12394.030277 kJ/mol
# Density = 1.558942 g / cm^3
# Si number density = 15.624982 Si / 1000 Ang^3
#
#
#
# Elastic Constant Matrix: (Units=GPa)
#
#
# Indices 1 2 3 4 5 6 
#
# 1 68.1224 15.1478 39.6487 0.0000 0.0000 0.0000
# 2 15.1478 68.1216 39.6484 0.0000 0.0000 0.0000
# 3 39.6487 39.6484 136.2060 0.0000 0.0000 0.0000
# 4 0.0000 0.0000 0.0000 12.9661 0.0000 0.0000
# 5 0.0000 0.0000 0.0000 0.0000 12.9663 0.0000
# 6 0.0000 0.0000 0.0000 0.0000 0.0000 13.3235
#
#
#
# Elastic Compliance Matrix: (Units=1/GPa)
#
#
# Indices 1 2 3 4 5 6 
#
# 1 0.017746 -0.001131 -0.004836 0.000000 0.000000 0.000000
# 2 -0.001131 0.017746 -0.004836 0.000000 0.000000 0.000000
# 3 -0.004836 -0.004836 0.010158 0.000000 0.000000 0.000000
# 4 0.000000 0.000000 0.000000 0.077124 0.000000 0.000000
# 5 0.000000 0.000000 0.000000 0.000000 0.077123 0.000000
# 6 0.000000 0.000000 0.000000 0.000000 0.000000 0.075055
#
#
# Mechanical properties :
#
#
# Convention : Reuss Voigt Hill
#
# Bulk Modulus (GPa) = 41.59488 51.25998 46.42743
# Shear Modulus (GPa) = 16.41638 19.71820 18.06729
#
# Velocity S-wave (km/s) = 3.24489 3.55627 3.40414
# Velocity P-wave (km/s) = 6.38104 7.05269 6.72525
#
# Compressibility (1/GPa) = 0.02404142
#
# Stress axis : x y z
#
# Youngs Moduli (GPa) = 56.35107 56.35048 98.44910
#
# Poissons Ratio (x) = 0.06374 0.47615
# Poissons Ratio (y) = 0.06374 0.47615
# Poissons Ratio (z) = 0.27254 0.27254
#
# Static dielectric constant tensor:
#      x y z
#    x 2.793450 0.000000 0.000000 
#    y 0.000000 2.793450 0.000000 
#    z 0.000000 0.000000 3.221620 
# 
# 
# High freq. dielectric constant tensor:
#      x y z
#    x 1.564820 0.000000 0.000000 
#    y 0.000000 1.564820 0.000000 
#    z 0.000000 0.000000 1.612810 
# 
# From -- ./inp_files/4880.got.cif
#   From: 2010.03.12/outbox.cif.g09.slc.cpg/sg115_3_cif.got.tgz:4880.got - 2010.04.14 02:11:21.
