data_PCOD8309142
_publ_section_title
;
Structure prediction by ZEFSAII (Michael W. Deem and Ramdas Pophale) SiO2 
 PCOD8309142
Probable space group: P -4 21 C
;
_chemical_formula_sum "Si O2"
_cell_formula_units_Z 48
_cell_length_a 8.399944
_cell_length_b 8.399944
_cell_length_c 26.844113
_cell_angle_alpha 90.000000
_cell_angle_beta 90.000000
_cell_angle_gamma 90.000000
_cell_volume 1894.095358
_symmetry_space_group_name_H-M "P -4 21 C"
_symmetry_group_IT_number 114
_symmetry_cell_setting 'tetragonal'
loop_
_space_group_symop_operation_xyz
x,y,z
y,-x,-z
-x,-y,z
-y,x,-z
1/2+x,1/2-y,1/2-z
1/2-x,1/2+y,1/2-z
1/2-y,1/2-x,1/2+z
1/2+y,1/2+x,1/2+z
loop_
_atom_site_type_symbol
_atom_site_label
_atom_site_fract_x
_atom_site_fract_y
_atom_site_fract_z
Si Si1 0.921419 0.348401 0.462513
Si Si2 0.355431 0.786579 0.703131
Si Si3 0.347531 0.090776 0.863643
Si Si4 0.353325 0.288702 0.629050
Si Si5 0.884796 0.148251 0.558076
Si Si6 0.909992 0.158792 0.301681
O O1 0.772363 0.390280 0.426928
O O2 0.880146 0.204972 0.500091
O O3 0.000000 0.500000 0.490356
O O4 0.070716 0.286781 0.428641
O O5 0.197613 0.711938 0.679466
O O6 0.503301 0.748955 0.666889
O O7 0.385160 0.702294 0.755425
O O8 0.310141 0.973154 0.710545
O O9 0.407654 0.190619 0.911275
O O10 0.500000 0.000000 0.842993
O O11 0.194946 0.975371 0.875247
O O12 0.199765 0.198327 0.650878
O O13 0.000000 0.000000 0.568883
O O14 0.000000 0.000000 0.317601
#
# Coordination Sequence:
#
# PCOD8309142 Si02
#       6
#     8   8   8   8   8   8
#     4  12  25  45  73 104 146 198 245 319 386 464
#     4  12  26  48  72 110 153 204 251 327 392 474
#     4  12  26  43  73 107 148 195 256 317 387 468
#     4  12  27  48  74 110 157 200 256 326 402 474
#     4  12  25  47  73 104 146 193 255 317 377 465
#     4  12  25  45  75 107 148 201 262 314 390 470
#
# _framework density 25.341911
#
# number of rings (size 3 to 8) (size 9 to 14) (size 15 to 20)
#    0.000    0.000    1.667    9.500    2.333    3.333 
#    0.000    0.000    0.000    0.000    0.000    0.000 
#    0.000    0.000    0.000    0.000    0.000    0.000 
#
# Total GULP energy -594958.895959 kJ/mol
# GULP energy per Si atom -12394.976999 kJ/mol
# Density = 2.528423 g / cm^3
# Si number density = 25.341911 Si / 1000 Ang^3
#
#
#
# Elastic Constant Matrix: (Units=GPa)
#
#
# Indices 1 2 3 4 5 6 
#
# 1 105.4091 16.3376 18.9575 0.0000 0.0000 0.0000
# 2 16.3376 105.4091 18.9575 0.0000 0.0000 0.0000
# 3 18.9575 18.9575 81.4515 0.0000 0.0000 0.0000
# 4 0.0000 0.0000 0.0000 42.5532 0.0000 0.0000
# 5 0.0000 0.0000 0.0000 0.0000 42.5532 0.0000
# 6 0.0000 0.0000 0.0000 0.0000 0.0000 44.6072
#
#
#
# Elastic Compliance Matrix: (Units=1/GPa)
#
#
# Indices 1 2 3 4 5 6 
#
# 1 0.010041 -0.001186 -0.002061 0.000000 0.000000 0.000000
# 2 -0.001186 0.010041 -0.002061 0.000000 0.000000 0.000000
# 3 -0.002061 -0.002061 0.013237 0.000000 0.000000 0.000000
# 4 0.000000 0.000000 0.000000 0.023500 0.000000 0.000000
# 5 0.000000 0.000000 0.000000 0.000000 0.023500 0.000000
# 6 0.000000 0.000000 0.000000 0.000000 0.000000 0.022418
#
#
# Mechanical properties :
#
#
# Convention : Reuss Voigt Hill
#
# Bulk Modulus (GPa) = 44.04605 44.53057 44.28831
# Shear Modulus (GPa) = 41.34936 41.81050 41.57993
#
# Velocity S-wave (km/s) = 4.04376 4.06625 4.05502
# Velocity P-wave (km/s) = 6.26268 6.29729 6.28001
#
# Compressibility (1/GPa) = 0.02270351
#
# Stress axis : x y z
#
# Youngs Moduli (GPa) = 99.58874 99.58874 75.54761
#
# Poissons Ratio (x) = 0.11808 0.15571
# Poissons Ratio (y) = 0.11808 0.15571
# Poissons Ratio (z) = 0.20526 0.20526
#
# Static dielectric constant tensor:
#      x y z
#    x 4.929820 0.000000 0.000000 
#    y 0.000000 4.929820 0.000000 
#    z 0.000000 0.000000 4.316150 
# 
# 
# High freq. dielectric constant tensor:
#      x y z
#    x 2.028180 0.000000 0.000000 
#    y 0.000000 2.028180 0.000000 
#    z 0.000000 0.000000 1.999340 
# 
# From -- ./inp_files/3964.got.cif
#   From: 2010.03.12/outbox.cif.g09.slc.cpg/sg114_2_cif.got.tgz:3964.got - 2010.04.14 02:08:34.
