data_PCOD8309361
_publ_section_title
;
Structure prediction by ZEFSAII (Michael W. Deem and Ramdas Pophale) SiO2 
 PCOD8309361
Probable space group: P -4 M 2
;
_chemical_formula_sum "Si O2"
_cell_formula_units_Z 32
_cell_length_a 9.177358
_cell_length_b 9.177358
_cell_length_c 20.928447
_cell_angle_alpha 90.000000
_cell_angle_beta 90.000000
_cell_angle_gamma 90.000000
_cell_volume 1762.675424
_symmetry_space_group_name_H-M "P -4 M 2"
_symmetry_group_IT_number 115
_symmetry_cell_setting 'tetragonal'
loop_
_space_group_symop_operation_xyz
x,y,z
y,-x,-z
-x,-y,z
-y,x,-z
y,x,-z
-y,-x,-z
-x,y,z
x,-y,z
loop_
_atom_site_type_symbol
_atom_site_label
_atom_site_fract_x
_atom_site_fract_y
_atom_site_fract_z
Si Si1 0.334088 0.826987 0.240113
Si Si2 0.829894 0.330919 0.127602
Si Si3 0.169369 0.830632 0.500000
Si Si4 0.174079 0.835101 0.636829
Si Si5 0.332003 0.667997 0.000000
O O1 0.500000 0.772937 0.236025
O O2 0.244076 0.763086 0.182041
O O3 0.266584 0.767262 0.306416
O O4 0.323176 0.000000 0.236791
O O5 0.796733 0.500000 0.140565
O O6 0.764428 0.282351 0.059813
O O7 0.000000 0.296561 0.127002
O O8 0.229372 0.767554 0.567962
O O9 0.000000 0.798480 0.494209
O O10 0.000000 0.837796 0.635597
O O11 0.232009 0.000000 0.647873
O O12 0.500000 0.696028 0.017779
#
# Coordination Sequence:
#
# PCOD8309361 Si02
#       5
#     8   8   4   8   4
#     4  10  20  32  48  72 101 133 168 204 242 287
#     4  10  21  36  54  76 101 129 162 200 241 287
#     4   7  10  18  36  62  88 117 156 200 246 293
#     4   8  13  23  41  65  92 122 159 204 250 292
#     4   9  18  34  54  73  96 128 162 195 236 289
#
# _framework density 18.154223000000002
#
# number of rings (size 3 to 8) (size 9 to 14) (size 15 to 20)
#    0.000    3.000    0.000    3.000    0.000    4.000 
#    0.000    2.500    0.000    1.500    0.000    7.000 
#    0.000    0.000    0.000    0.000    0.000    0.000 
#
# Total GULP energy -396537.830088 kJ/mol
# GULP energy per Si atom -12391.807190 kJ/mol
# Density = 1.811290 g / cm^3
# Si number density = 18.154223 Si / 1000 Ang^3
#
#
#
# Elastic Constant Matrix: (Units=GPa)
#
#
# Indices 1 2 3 4 5 6 
#
# 1 56.3224 23.2801 56.6443 0.0000 0.0000 0.0000
# 2 23.2801 56.3222 56.6447 0.0000 0.0000 0.0000
# 3 56.6443 56.6447 180.6486 0.0000 0.0000 0.0000
# 4 0.0000 0.0000 0.0000 -10.6474 0.0000 0.0000
# 5 0.0000 0.0000 0.0000 0.0000 -10.6496 0.0000
# 6 0.0000 0.0000 0.0000 0.0000 0.0000 19.7106
#
#
#
# Elastic Compliance Matrix: (Units=1/GPa)
#
#
# Indices 1 2 3 4 5 6 
#
# 1 0.026475 -0.003789 -0.007113 0.000000 0.000000 0.000000
# 2 -0.003789 0.026476 -0.007114 0.000000 0.000000 0.000000
# 3 -0.007113 -0.007114 0.009997 0.000000 0.000000 0.000000
# 4 0.000000 0.000000 0.000000 -0.093920 0.000000 0.000000
# 5 0.000000 0.000000 0.000000 0.000000 -0.093901 0.000000
# 6 0.000000 0.000000 0.000000 0.000000 0.000000 0.050734
#
#
# Mechanical properties :
#
#
# Convention : Reuss Voigt Hill
#
# Bulk Modulus (GPa) = 37.15378 62.93681 50.04529
# Shear Modulus (GPa) = -171.61559 10.13101 -80.74229
#
# Velocity S-wave (km/s) = -9.73331 2.36488 -6.67625
# Velocity P-wave (km/s) = 10.28622 6.49615 5.63943
#
# Compressibility (1/GPa) = 0.02691517
#
# Stress axis : x y z
#
# Youngs Moduli (GPa) = 37.77121 37.77076 100.03294
#
# Poissons Ratio (x) = 0.14311 0.71158
# Poissons Ratio (y) = 0.14311 0.71160
# Poissons Ratio (z) = 0.26869 0.26869
#
# Static dielectric constant tensor:
#      x y z
#    x 3.166250 0.000000 0.000000 
#    y 0.000000 3.166260 0.000000 
#    z 0.000000 0.000000 3.816790 
# 
# 
# High freq. dielectric constant tensor:
#      x y z
#    x 1.670960 0.000000 0.000000 
#    y 0.000000 1.670960 0.000000 
#    z 0.000000 0.000000 1.730440 
# 
# From -- ./inp_files/5041.got.cif
#   From: 2010.03.12/outbox.cif.g09.slc.cpg/sg115_3_cif.got.tgz:5041.got - 2010.04.14 02:11:21.
