data_PCOD8309109
_publ_section_title
;
Structure prediction by ZEFSAII (Michael W. Deem and Ramdas Pophale) SiO2 
 PCOD8309109
Probable space group: P -4 21 C
;
_chemical_formula_sum "Si O2"
_cell_formula_units_Z 40
_cell_length_a 8.459706
_cell_length_b 8.459706
_cell_length_c 23.696364
_cell_angle_alpha 90.000000
_cell_angle_beta 90.000000
_cell_angle_gamma 90.000000
_cell_volume 1695.868811
_symmetry_space_group_name_H-M "P -4 21 C"
_symmetry_group_IT_number 114
_symmetry_cell_setting 'tetragonal'
loop_
_space_group_symop_operation_xyz
x,y,z
y,-x,-z
-x,-y,z
-y,x,-z
1/2+x,1/2-y,1/2-z
1/2-x,1/2+y,1/2-z
1/2-y,1/2-x,1/2+z
1/2+y,1/2+x,1/2+z
loop_
_atom_site_type_symbol
_atom_site_label
_atom_site_fract_x
_atom_site_fract_y
_atom_site_fract_z
Si Si1 0.825728 0.179109 0.885493
Si Si2 0.369808 0.379209 0.806778
Si Si3 0.865057 0.383988 0.779764
Si Si4 0.679067 0.690587 0.398546
Si Si5 0.672029 0.687750 0.006748
O O1 0.793850 0.274370 0.828588
O O2 0.004858 0.207692 0.904588
O O3 0.781314 0.996382 0.874129
O O4 0.710905 0.244756 0.933410
O O5 0.500000 0.500000 0.832005
O O6 0.273381 0.492633 0.763093
O O7 0.429400 0.226953 0.771016
O O8 0.266886 0.311877 0.858283
O O9 0.000000 0.500000 0.802610
O O10 0.688297 0.764055 0.460797
O O11 0.713326 0.513648 0.984639
#
# Coordination Sequence:
#
# PCOD8309109 Si02
#       5
#     8   8   8   8   8
#     4  11  25  46  74 101 143 191 245 295 364 441
#     4  12  27  44  73 107 149 190 250 305 370 438
#     4  12  25  47  72 103 143 194 240 302 367 438
#     4  11  25  46  72 105 142 191 244 297 363 440
#     4  11  26  45  71 106 145 185 236 298 367 436
#
# _framework density 23.586731
#
# number of rings (size 3 to 8) (size 9 to 14) (size 15 to 20)
#    0.000    0.600    2.000    4.800    8.400    4.000 
#    0.000    0.000    0.000    0.000    0.000    0.000 
#    0.000    0.000    0.000    0.000    0.000    0.000 
#
# Total GULP energy -495924.116362 kJ/mol
# GULP energy per Si atom -12398.102909 kJ/mol
# Density = 2.353305 g / cm^3
# Si number density = 23.586731 Si / 1000 Ang^3
#
#
#
# Elastic Constant Matrix: (Units=GPa)
#
#
# Indices 1 2 3 4 5 6 
#
# 1 104.4114 53.9428 11.7140 0.0000 0.0000 0.0000
# 2 53.9428 104.4114 11.7140 0.0000 0.0000 0.0000
# 3 11.7140 11.7140 66.2917 0.0000 0.0000 0.0000
# 4 0.0000 0.0000 0.0000 35.7614 0.0000 0.0000
# 5 0.0000 0.0000 0.0000 0.0000 35.7614 0.0000
# 6 0.0000 0.0000 0.0000 0.0000 0.0000 50.8499
#
#
#
# Elastic Compliance Matrix: (Units=1/GPa)
#
#
# Indices 1 2 3 4 5 6 
#
# 1 0.013149 -0.006665 -0.001146 0.000000 0.000000 0.000000
# 2 -0.006665 0.013149 -0.001146 0.000000 0.000000 0.000000
# 3 -0.001146 -0.001146 0.015490 0.000000 0.000000 0.000000
# 4 0.000000 0.000000 0.000000 0.027963 0.000000 0.000000
# 5 0.000000 0.000000 0.000000 0.000000 0.027963 0.000000
# 6 0.000000 0.000000 0.000000 0.000000 0.000000 0.019666
#
#
# Mechanical properties :
#
#
# Convention : Reuss Voigt Hill
#
# Bulk Modulus (GPa) = 41.88410 47.76181 44.82295
# Shear Modulus (GPa) = 34.90349 37.65745 36.28047
#
# Velocity S-wave (km/s) = 3.85098 4.00002 3.92621
# Velocity P-wave (km/s) = 6.12939 6.45190 6.29271
#
# Compressibility (1/GPa) = 0.02387541
#
# Stress axis : x y z
#
# Youngs Moduli (GPa) = 76.04914 76.04914 64.55861
#
# Poissons Ratio (x) = 0.50686 0.07397
# Poissons Ratio (y) = 0.50686 0.07397
# Poissons Ratio (z) = 0.08714 0.08714
#
# Static dielectric constant tensor:
#      x y z
#    x 4.480840 0.000000 0.000000 
#    y 0.000000 4.480840 0.000000 
#    z 0.000000 0.000000 3.898020 
# 
# 
# High freq. dielectric constant tensor:
#      x y z
#    x 1.947110 0.000000 0.000000 
#    y 0.000000 1.947110 0.000000 
#    z 0.000000 0.000000 1.922460 
# 
# From -- ./inp_files/3345.got.cif
#   From: 2010.03.12/outbox.cif.g09.slc.cpg/sg114_2_cif.got.tgz:3345.got - 2010.04.14 02:08:34.
