data_PCOD8309087
_publ_section_title
;
Structure prediction by ZEFSAII (Michael W. Deem and Ramdas Pophale) SiO2 
 PCOD8309087
Probable space group: P -4 21 C
;
_chemical_formula_sum "Si O2"
_cell_formula_units_Z 32
_cell_length_a 8.781861
_cell_length_b 8.781861
_cell_length_c 18.282198
_cell_angle_alpha 90.000000
_cell_angle_beta 90.000000
_cell_angle_gamma 90.000000
_cell_volume 1409.942902
_symmetry_space_group_name_H-M "P -4 21 C"
_symmetry_group_IT_number 114
_symmetry_cell_setting 'tetragonal'
loop_
_space_group_symop_operation_xyz
x,y,z
y,-x,-z
-x,-y,z
-y,x,-z
1/2+x,1/2-y,1/2-z
1/2-x,1/2+y,1/2-z
1/2-y,1/2-x,1/2+z
1/2+y,1/2+x,1/2+z
loop_
_atom_site_type_symbol
_atom_site_label
_atom_site_fract_x
_atom_site_fract_y
_atom_site_fract_z
Si Si1 0.224145 0.940998 0.972142
Si Si2 0.074913 0.163089 0.190241
Si Si3 0.457545 0.719914 0.028698
Si Si4 0.337515 0.066096 0.677393
O O1 0.232358 0.981646 0.886767
O O2 0.384318 0.878763 0.002039
O O3 0.091106 0.814267 0.981285
O O4 0.255962 0.151598 0.193273
O O5 0.020105 0.278211 0.251602
O O6 0.000000 0.000000 0.203899
O O7 0.530929 0.727582 0.109029
O O8 0.589191 0.672789 0.971096
O O9 0.500000 0.000000 0.656613
#
# Coordination Sequence:
#
# PCOD8309087 Si02
#       4
#     8   8   8   8
#     4  11  23  45  75 109 146 202 250 308 373 441
#     4  12  26  49  75 107 153 192 254 314 386 463
#     4  11  26  46  72 109 150 193 252 309 369 447
#     4  12  28  49  74 111 149 204 251 313 391 459
#
# _framework density 22.695957
#
# number of rings (size 3 to 8) (size 9 to 14) (size 15 to 20)
#    0.000    0.500    5.000    3.000    7.000    2.000 
#    0.000    0.000    0.000    0.000    0.000    0.000 
#    0.000    0.000    0.000    0.000    0.000    0.000 
#
# Total GULP energy -397019.031158 kJ/mol
# GULP energy per Si atom -12406.844724 kJ/mol
# Density = 2.264430 g / cm^3
# Si number density = 22.695957 Si / 1000 Ang^3
#
#
#
# Elastic Constant Matrix: (Units=GPa)
#
#
# Indices 1 2 3 4 5 6 
#
# 1 99.1826 49.4754 54.3641 0.0000 0.0000 0.0000
# 2 49.4754 99.1826 54.3641 0.0000 0.0000 0.0000
# 3 54.3641 54.3641 143.2440 0.0000 0.0000 0.0000
# 4 0.0000 0.0000 0.0000 35.2452 0.0000 0.0000
# 5 0.0000 0.0000 0.0000 0.0000 35.2452 0.0000
# 6 0.0000 0.0000 0.0000 0.0000 0.0000 52.9950
#
#
#
# Elastic Compliance Matrix: (Units=1/GPa)
#
#
# Indices 1 2 3 4 5 6 
#
# 1 0.014715 -0.005403 -0.003534 0.000000 0.000000 0.000000
# 2 -0.005403 0.014715 -0.003534 0.000000 0.000000 0.000000
# 3 -0.003534 -0.003534 0.009663 0.000000 0.000000 0.000000
# 4 0.000000 0.000000 0.000000 0.028373 0.000000 0.000000
# 5 0.000000 0.000000 0.000000 0.000000 0.028373 0.000000
# 6 0.000000 0.000000 0.000000 0.000000 0.000000 0.018870
#
#
# Mechanical properties :
#
#
# Convention : Reuss Voigt Hill
#
# Bulk Modulus (GPa) = 70.66695 73.11295 71.88995
# Shear Modulus (GPa) = 34.63400 36.92412 35.77906
#
# Velocity S-wave (km/s) = 3.91064 4.03786 3.97476
# Velocity P-wave (km/s) = 7.18295 7.35004 7.26698
#
# Compressibility (1/GPa) = 0.01415089
#
# Stress axis : x y z
#
# Youngs Moduli (GPa) = 67.95933 67.95933 103.48223
#
# Poissons Ratio (x) = 0.36719 0.36570
# Poissons Ratio (y) = 0.36719 0.36570
# Poissons Ratio (z) = 0.24016 0.24016
#
# Static dielectric constant tensor:
#      x y z
#    x 4.233350 0.000000 0.000000 
#    y 0.000000 4.233350 0.000000 
#    z 0.000000 0.000000 4.091260 
# 
# 
# High freq. dielectric constant tensor:
#      x y z
#    x 1.905880 0.000000 0.000000 
#    y 0.000000 1.905880 0.000000 
#    z 0.000000 0.000000 1.899040 
# 
# From -- ./inp_files/2831.got.cif
#   From: 2010.03.12/outbox.cif.g09.slc.cpg/sg114_2_cif.got.tgz:2831.got - 2010.04.14 02:08:34.
