data_PCOD8309454
_publ_section_title
;
Structure prediction by ZEFSAII (Michael W. Deem and Ramdas Pophale) SiO2 
 PCOD8309454
Probable space group: P -4 M 2
;
_chemical_formula_sum "Si O2"
_cell_formula_units_Z 37
_cell_length_a 8.125161
_cell_length_b 8.125161
_cell_length_c 25.719880
_cell_angle_alpha 90.000000
_cell_angle_beta 90.000000
_cell_angle_gamma 90.000000
_cell_volume 1697.981243
_symmetry_space_group_name_H-M "P -4 M 2"
_symmetry_group_IT_number 115
_symmetry_cell_setting 'tetragonal'
loop_
_space_group_symop_operation_xyz
x,y,z
y,-x,-z
-x,-y,z
-y,x,-z
y,x,-z
-y,-x,-z
-x,y,z
x,-y,z
loop_
_atom_site_type_symbol
_atom_site_label
_atom_site_fract_x
_atom_site_fract_y
_atom_site_fract_z
Si Si1 0.689915 0.186293 0.163062
Si Si2 0.184076 0.311730 0.267004
Si Si3 0.685242 0.188782 0.366977
Si Si4 0.315619 0.696458 0.944184
Si Si5 0.000000 0.000000 0.500000
Si Si6 0.312452 0.000000 0.574520
O O1 0.500000 0.236062 0.161540
O O2 0.775071 0.297691 0.206213
O O3 0.764323 0.213535 0.105216
O O4 0.718977 0.000000 0.179860
O O5 0.201862 0.500000 0.283562
O O6 0.303717 0.206720 0.304321
O O7 0.000000 0.247154 0.276350
O O8 0.500000 0.244857 0.384317
O O9 0.831587 0.295824 0.392255
O O10 0.712320 0.000000 0.383152
O O11 0.500000 0.762268 0.936381
O O12 0.312745 0.500000 0.946738
O O13 0.241634 0.758366 0.000000
O O14 0.171204 0.000000 0.531200
O O15 0.500000 0.000000 0.551556
#
# Coordination Sequence:
#
# PCOD8309454 Si02
#       6
#     8   8   8   8   1   4
#     4  10  20  33  50  76 109 147 192 244 308 383
#     4  11  23  37  56  86 123 164 211 265 325 391
#     4  11  23  42  71 105 142 186 232 282 346 411
#     4   8  14  27  48  70  94 132 184 243 306 371
#     4  12  28  52  76 112 156 196 236 296 350 388
#     4  12  26  48  78 110 148 194 242 291 345 402
#
# _framework density 21.790583000000002
#
# number of rings (size 3 to 8) (size 9 to 14) (size 15 to 20)
#    0.000    1.730    2.162    3.243    0.000    7.784 
#    0.000    1.081    0.000    3.892    0.000    0.000 
#    0.000    0.000    0.000    0.000    0.000    0.000 
#
# Total GULP energy -458574.105076 kJ/mol
# GULP energy per Si atom -12393.894732 kJ/mol
# Density = 2.174099 g / cm^3
# Si number density = 21.790583 Si / 1000 Ang^3
#
#
#
# Elastic Constant Matrix: (Units=GPa)
#
#
# Indices 1 2 3 4 5 6 
#
# 1 90.4968 43.9493 36.5448 0.0000 0.0000 0.0000
# 2 43.9493 90.4967 36.5448 0.0000 0.0000 0.0000
# 3 36.5448 36.5448 111.0495 0.0000 0.0000 0.0000
# 4 0.0000 0.0000 0.0000 30.6007 0.0000 0.0000
# 5 0.0000 0.0000 0.0000 0.0000 30.6007 0.0000
# 6 0.0000 0.0000 0.0000 0.0000 0.0000 19.8722
#
#
#
# Elastic Compliance Matrix: (Units=1/GPa)
#
#
# Indices 1 2 3 4 5 6 
#
# 1 0.015271 -0.006212 -0.002981 0.000000 0.000000 0.000000
# 2 -0.006212 0.015271 -0.002981 0.000000 0.000000 0.000000
# 3 -0.002981 -0.002981 0.010967 0.000000 0.000000 0.000000
# 4 0.000000 0.000000 0.000000 0.032679 0.000000 0.000000
# 5 0.000000 0.000000 0.000000 0.000000 0.032679 0.000000
# 6 0.000000 0.000000 0.000000 0.000000 0.000000 0.050321
#
#
# Mechanical properties :
#
#
# Convention : Reuss Voigt Hill
#
# Bulk Modulus (GPa) = 58.27524 58.45786 58.36655
# Shear Modulus (GPa) = 26.70121 27.88167 27.29144
#
# Velocity S-wave (km/s) = 3.50431 3.58093 3.54283
# Velocity P-wave (km/s) = 6.57076 6.63195 6.60143
#
# Compressibility (1/GPa) = 0.01715995
#
# Stress axis : x y z
#
# Youngs Moduli (GPa) = 65.48370 65.48358 91.18250
#
# Poissons Ratio (x) = 0.40682 0.27182
# Poissons Ratio (y) = 0.40682 0.27182
# Poissons Ratio (z) = 0.19521 0.19521
#
# Static dielectric constant tensor:
#      x y z
#    x 3.759230 0.000000 0.000000 
#    y 0.000000 3.759230 0.000000 
#    z 0.000000 0.000000 4.065990 
# 
# 
# High freq. dielectric constant tensor:
#      x y z
#    x 1.840850 0.000000 0.000000 
#    y 0.000000 1.840850 0.000000 
#    z 0.000000 0.000000 1.858910 
# 
# From -- ./inp_files/5142.got.cif
#   From: 2010.03.12/outbox.cif.g09.slc.cpg/sg115_3_cif.got.tgz:5142.got - 2010.04.14 02:11:21.
