data_PCOD8309725
_publ_section_title
;
Structure prediction by ZEFSAII (Michael W. Deem and Ramdas Pophale) SiO2 
 PCOD8309725
Probable space group: P -4 M 2
;
_chemical_formula_sum "Si O2"
_cell_formula_units_Z 56
_cell_length_a 14.464333
_cell_length_b 14.464333
_cell_length_c 12.025039
_cell_angle_alpha 90.000000
_cell_angle_beta 90.000000
_cell_angle_gamma 90.000000
_cell_volume 2515.841732
_symmetry_space_group_name_H-M "P -4 M 2"
_symmetry_group_IT_number 115
_symmetry_cell_setting 'tetragonal'
loop_
_space_group_symop_operation_xyz
x,y,z
y,-x,-z
-x,-y,z
-y,x,-z
y,x,-z
-y,-x,-z
-x,y,z
x,-y,z
loop_
_atom_site_type_symbol
_atom_site_label
_atom_site_fract_x
_atom_site_fract_y
_atom_site_fract_z
Si Si1 0.216926 0.601930 0.694117
Si Si2 0.889514 0.711239 0.863964
Si Si3 0.606293 0.159011 0.921174
Si Si4 0.185103 0.602157 0.443676
Si Si5 0.102375 0.204265 0.166299
Si Si6 0.398777 0.677989 0.761466
Si Si7 0.900067 0.784726 0.419484
O O1 0.175128 0.500000 0.713796
O O2 0.146117 0.677988 0.743360
O O3 0.232142 0.621047 0.563542
O O4 0.316092 0.604731 0.756907
O O5 0.849870 0.813533 0.894792
O O6 0.000000 0.713898 0.868408
O O7 0.847819 0.636529 0.950268
O O8 0.500000 0.120669 0.906727
O O9 0.684547 0.103119 0.852508
O O10 0.609370 0.263668 0.875566
O O11 0.141431 0.500000 0.439048
O O12 0.258826 0.615013 0.346572
O O13 0.102690 0.673737 0.423382
O O14 0.116153 0.180230 0.295108
O O15 0.000000 0.169953 0.126416
O O16 0.500000 0.629652 0.757520
O O17 0.822350 0.822350 0.500000
O O18 0.000000 0.817903 0.462135
#
# Coordination Sequence:
#
# PCOD8309725 Si02
#       7
#     8   8   8   8   8   8   8
#     4  11  23  38  62  95 130 169 214 260 318 389
#     4  12  26  45  66  90 129 171 214 268 329 390
#     4  11  23  42  68  95 124 162 209 261 319 384
#     4  10  20  37  62  92 126 165 209 261 319 384
#     4  11  24  42  68  99 128 166 220 275 328 387
#     4  10  20  38  65  92 125 169 210 258 319 382
#     4  11  23  39  61  91 129 172 217 266 324 387
#
# _framework density 22.258951
#
# number of rings (size 3 to 8) (size 9 to 14) (size 15 to 20)
#    0.000    1.143    2.857    3.429    0.000    5.286 
#    0.000    4.286    0.000    4.286    0.000    2.000 
#    0.000    0.000    0.000    0.000    0.000    0.000 
#
# Total GULP energy -693979.233800 kJ/mol
# GULP energy per Si atom -12392.486318 kJ/mol
# Density = 2.220829 g / cm^3
# Si number density = 22.258951 Si / 1000 Ang^3
#
#
#
# Elastic Constant Matrix: (Units=GPa)
#
#
# Indices 1 2 3 4 5 6 
#
# 1 100.2363 36.9418 29.1779 0.0000 0.0000 0.0000
# 2 36.9418 100.2363 29.1779 0.0000 0.0000 0.0000
# 3 29.1779 29.1779 67.7163 0.0000 0.0000 0.0000
# 4 0.0000 0.0000 0.0000 23.8801 0.0000 0.0000
# 5 0.0000 0.0000 0.0000 0.0000 23.8801 0.0000
# 6 0.0000 0.0000 0.0000 0.0000 0.0000 15.6540
#
#
#
# Elastic Compliance Matrix: (Units=1/GPa)
#
#
# Indices 1 2 3 4 5 6 
#
# 1 0.012363 -0.003437 -0.003846 0.000000 0.000000 0.000000
# 2 -0.003437 0.012363 -0.003846 0.000000 0.000000 0.000000
# 3 -0.003846 -0.003846 0.018082 0.000000 0.000000 0.000000
# 4 0.000000 0.000000 0.000000 0.041876 0.000000 0.000000
# 5 0.000000 0.000000 0.000000 0.000000 0.041876 0.000000
# 6 0.000000 0.000000 0.000000 0.000000 0.000000 0.063881
#
#
# Mechanical properties :
#
#
# Convention : Reuss Voigt Hill
#
# Bulk Modulus (GPa) = 48.66286 50.97602 49.81944
# Shear Modulus (GPa) = 22.77412 24.20891 23.49152
#
# Velocity S-wave (km/s) = 3.20213 3.30146 3.25218
# Velocity P-wave (km/s) = 5.96499 6.12241 6.04422
#
# Compressibility (1/GPa) = 0.02054955
#
# Stress axis : x y z
#
# Youngs Moduli (GPa) = 80.88956 80.88956 55.30399
#
# Poissons Ratio (x) = 0.27799 0.21270
# Poissons Ratio (y) = 0.27799 0.21270
# Poissons Ratio (z) = 0.31110 0.31110
#
# Static dielectric constant tensor:
#      x y z
#    x 3.949410 0.000000 0.000000 
#    y 0.000000 3.949410 0.000000 
#    z 0.000000 0.000000 4.128980 
# 
# 
# High freq. dielectric constant tensor:
#      x y z
#    x 1.864540 0.000000 0.000000 
#    y 0.000000 1.864540 0.000000 
#    z 0.000000 0.000000 1.887170 
# 
# From -- ./inp_files/3095.got.cif
#   From: 2010.03.12/outbox.cif.g09.slc.cpg/sg115_2_cif.got.tgz:3095.got - 2010.04.14 02:11:21.
