data_PCOD8309651
_publ_section_title
;
Structure prediction by ZEFSAII (Michael W. Deem and Ramdas Pophale) SiO2 
 PCOD8309651
Probable space group: P -4 M 2
;
_chemical_formula_sum "Si O2"
_cell_formula_units_Z 48
_cell_length_a 9.115296
_cell_length_b 9.115296
_cell_length_c 30.705620
_cell_angle_alpha 90.000000
_cell_angle_beta 90.000000
_cell_angle_gamma 90.000000
_cell_volume 2551.287628
_symmetry_space_group_name_H-M "P -4 M 2"
_symmetry_group_IT_number 115
_symmetry_cell_setting 'tetragonal'
loop_
_space_group_symop_operation_xyz
x,y,z
y,-x,-z
-x,-y,z
-y,x,-z
y,x,-z
-y,-x,-z
-x,y,z
x,-y,z
loop_
_atom_site_type_symbol
_atom_site_label
_atom_site_fract_x
_atom_site_fract_y
_atom_site_fract_z
Si Si1 0.173331 0.165956 0.701227
Si Si2 0.171697 0.672458 0.960074
Si Si3 0.162171 0.826241 0.797449
Si Si4 0.172744 0.330217 0.118151
Si Si5 0.171260 0.833283 0.450256
Si Si6 0.671388 0.668530 0.375154
O O1 0.214706 0.225897 0.749587
O O2 0.246298 0.271108 0.666593
O O3 0.000000 0.170234 0.694766
O O4 0.231149 0.000000 0.694452
O O5 0.202503 0.500000 0.961487
O O6 0.233885 0.737949 0.915735
O O7 0.000000 0.707701 0.963251
O O8 0.253014 0.746987 0.000000
O O9 0.278321 0.776293 0.833895
O O10 0.000000 0.762060 0.808449
O O11 0.150154 0.000000 0.795881
O O12 0.213835 0.500000 0.112484
O O13 0.000000 0.304057 0.110826
O O14 0.207682 0.792319 0.500000
O O15 0.259161 0.724506 0.419743
O O16 0.000000 0.814814 0.440732
O O17 0.219379 0.000000 0.440423
O O18 0.500000 0.694850 0.378427
O O19 0.713597 0.500000 0.369433
#
# Coordination Sequence:
#
# PCOD8309651 Si02
#       6
#     8   8   8   8   8   8
#     4   9  18  34  57  82 105 134 178 227 269 312
#     4  11  24  40  58  81 108 140 180 222 265 316
#     4   8  15  30  53  80 108 138 175 221 268 311
#     4  10  20  34  55  84 114 143 177 216 261 316
#     4   9  19  37  60  83 104 129 168 217 264 313
#     4  11  24  37  49  73 110 146 178 214 259 313
#
# _framework density 18.814031
#
# number of rings (size 3 to 8) (size 9 to 14) (size 15 to 20)
#    0.000    2.333    0.000    4.000    0.000    9.667 
#    0.000    5.000    0.000    1.000    0.000    0.000 
#    0.000    0.000    0.000    0.000    0.000    0.000 
#
# Total GULP energy -595211.064873 kJ/mol
# GULP energy per Si atom -12400.230518 kJ/mol
# Density = 1.877121 g / cm^3
# Si number density = 18.814031 Si / 1000 Ang^3
#
#
#
# Elastic Constant Matrix: (Units=GPa)
#
#
# Indices 1 2 3 4 5 6 
#
# 1 62.1010 45.8921 55.4398 0.0000 0.0000 0.0000
# 2 45.8921 62.1045 55.4408 0.0000 0.0000 0.0000
# 3 55.4398 55.4408 143.6251 0.0000 0.0000 0.0000
# 4 0.0000 0.0000 0.0000 -47.7625 0.0000 0.0000
# 5 0.0000 0.0000 0.0000 0.0000 -47.7685 0.0000
# 6 0.0000 0.0000 0.0000 0.0000 0.0000 28.7344
#
#
#
# Elastic Compliance Matrix: (Units=1/GPa)
#
#
# Indices 1 2 3 4 5 6 
#
# 1 0.038515 -0.023174 -0.005921 0.000000 0.000000 0.000000
# 2 -0.023174 0.038512 -0.005921 0.000000 0.000000 0.000000
# 3 -0.005921 -0.005921 0.011534 0.000000 0.000000 0.000000
# 4 0.000000 0.000000 0.000000 -0.020937 0.000000 0.000000
# 5 0.000000 0.000000 0.000000 0.000000 -0.020934 0.000000
# 6 0.000000 0.000000 0.000000 0.000000 0.000000 0.034801
#
#
# Mechanical properties :
#
#
# Convention : Reuss Voigt Hill
#
# Bulk Modulus (GPa) = 53.97339 64.59731 59.28535
# Shear Modulus (GPa) = 31.70602 -5.95544 12.87529
#
# Velocity S-wave (km/s) = 4.10961 -1.78109 2.61884
# Velocity P-wave (km/s) = 7.16021 5.49358 6.38154
#
# Compressibility (1/GPa) = 0.01852765
#
# Stress axis : x y z
#
# Youngs Moduli (GPa) = 25.96419 25.96594 86.70337
#
# Poissons Ratio (x) = 0.60175 0.51339
# Poissons Ratio (y) = 0.60171 0.51334
# Poissons Ratio (z) = 0.15374 0.15373
#
# Static dielectric constant tensor:
#      x y z
#    x 3.388890 0.000000 0.000000 
#    y 0.000000 3.388890 0.000000 
#    z 0.000000 0.000000 3.759760 
# 
# 
# High freq. dielectric constant tensor:
#      x y z
#    x 1.720490 0.000000 0.000000 
#    y 0.000000 1.720490 0.000000 
#    z 0.000000 0.000000 1.749850 
# 
# From -- ./inp_files/6084.got.cif
#   From: 2010.03.12/outbox.cif.g09.slc.cpg/sg115_4_cif.got.tgz:6084.got - 2010.04.14 02:11:21.
