data_PCOD8309478
_publ_section_title
;
Structure prediction by ZEFSAII (Michael W. Deem and Ramdas Pophale) SiO2 
 PCOD8309478
Probable space group: P -4 M 2
;
_chemical_formula_sum "Si O2"
_cell_formula_units_Z 48
_cell_length_a 9.280216
_cell_length_b 9.280216
_cell_length_c 31.048870
_cell_angle_alpha 90.000000
_cell_angle_beta 90.000000
_cell_angle_gamma 90.000000
_cell_volume 2674.003481
_symmetry_space_group_name_H-M "P -4 M 2"
_symmetry_group_IT_number 115
_symmetry_cell_setting 'tetragonal'
loop_
_space_group_symop_operation_xyz
x,y,z
y,-x,-z
-x,-y,z
-y,x,-z
y,x,-z
-y,-x,-z
-x,y,z
x,-y,z
loop_
_atom_site_type_symbol
_atom_site_label
_atom_site_fract_x
_atom_site_fract_y
_atom_site_fract_z
Si Si1 0.671860 0.660726 0.047209
Si Si2 0.332271 0.168912 0.370484
Si Si3 0.328368 0.838270 0.127456
Si Si4 0.660305 0.671172 0.546944
Si Si5 0.168862 0.333103 0.296302
Si Si6 0.665827 0.667339 0.210610
O O1 0.500000 0.656110 0.048577
O O2 0.732861 0.500000 0.055123
O O3 0.734653 0.763337 0.084491
O O4 0.719468 0.719468 0.000000
O O5 0.500000 0.206421 0.363012
O O6 0.275312 0.233187 0.415687
O O7 0.239436 0.237065 0.332839
O O8 0.304840 0.000000 0.371444
O O9 0.500000 0.835541 0.125895
O O10 0.274598 0.754570 0.169707
O O11 0.268114 0.000000 0.129313
O O12 0.720714 0.720714 0.500000
O O13 0.500000 0.734463 0.555715
O O14 0.651762 0.500000 0.546088
O O15 0.201943 0.500000 0.306247
O O16 0.238314 0.286875 0.251114
O O17 0.000000 0.301529 0.294223
O O18 0.500000 0.706125 0.220988
O O19 0.682802 0.500000 0.199470
#
# Coordination Sequence:
#
# PCOD8309478 Si02
#       6
#     8   8   8   8   8   8
#     4   8  13  22  38  60  85 114 148 184 223 269
#     4  10  20  33  51  76 104 133 165 201 242 289
#     4   9  16  25  40  65  94 119 147 188 233 274
#     4   8  14  27  49  74  98 127 164 204 243 282
#     4  10  21  36  53  73  97 127 164 204 246 292
#     4   9  17  30  49  71  94 121 153 191 237 287
#
# _framework density 17.950614000000002
#
# number of rings (size 3 to 8) (size 9 to 14) (size 15 to 20)
#    0.000    3.000    0.000    2.500    0.000    4.667 
#    0.000    2.500    0.000    4.000    0.000    4.667 
#    0.000    0.000    0.000    0.000    0.000    0.000 
#
# Total GULP energy -595066.629792 kJ/mol
# GULP energy per Si atom -12397.221454 kJ/mol
# Density = 1.790976 g / cm^3
# Si number density = 17.950614 Si / 1000 Ang^3
#
#
#
# Elastic Constant Matrix: (Units=GPa)
#
#
# Indices 1 2 3 4 5 6 
#
# 1 70.5185 38.2031 73.5837 0.0000 0.0000 0.0000
# 2 38.2031 70.5185 73.5837 0.0000 0.0000 0.0000
# 3 73.5837 73.5837 195.1470 0.0000 0.0000 0.0000
# 4 0.0000 0.0000 0.0000 0.6435 0.0000 0.0000
# 5 0.0000 0.0000 0.0000 0.0000 0.6435 0.0000
# 6 0.0000 0.0000 0.0000 0.0000 0.0000 14.2522
#
#
#
# Elastic Compliance Matrix: (Units=1/GPa)
#
#
# Indices 1 2 3 4 5 6 
#
# 1 0.024866 -0.006079 -0.007084 0.000000 0.000000 0.000000
# 2 -0.006079 0.024866 -0.007084 0.000000 0.000000 0.000000
# 3 -0.007084 -0.007084 0.010467 0.000000 0.000000 0.000000
# 4 0.000000 0.000000 0.000000 1.553947 0.000000 0.000000
# 5 0.000000 0.000000 0.000000 0.000000 1.553947 0.000000
# 6 0.000000 0.000000 0.000000 0.000000 0.000000 0.070165
#
#
# Mechanical properties :
#
#
# Convention : Reuss Voigt Hill
#
# Bulk Modulus (GPa) = 50.75008 78.54723 64.64865
# Shear Modulus (GPa) = 1.52192 13.16208 7.34200
#
# Velocity S-wave (km/s) = 0.92178 2.71078 2.02460
# Velocity P-wave (km/s) = 5.42829 7.32463 6.44657
#
# Compressibility (1/GPa) = 0.01970440
#
# Stress axis : x y z
#
# Youngs Moduli (GPa) = 40.21589 40.21589 95.54282
#
# Poissons Ratio (x) = 0.24448 0.67681
# Poissons Ratio (y) = 0.24448 0.67681
# Poissons Ratio (z) = 0.28488 0.28488
#
# Static dielectric constant tensor:
#      x y z
#    x 3.098400 0.000000 0.000000 
#    y 0.000000 3.098400 0.000000 
#    z 0.000000 0.000000 3.690440 
# 
# 
# High freq. dielectric constant tensor:
#      x y z
#    x 1.662250 0.000000 0.000000 
#    y 0.000000 1.662250 0.000000 
#    z 0.000000 0.000000 1.714230 
# 
# From -- ./inp_files/6089.got.cif
#   From: 2010.03.12/outbox.cif.g09.slc.cpg/sg115_4_cif.got.tgz:6089.got - 2010.04.14 02:11:21.
