data_PCOD8309223
_publ_section_title
;
Structure prediction by ZEFSAII (Michael W. Deem and Ramdas Pophale) SiO2 
 PCOD8309223
Probable space group: P -4 M 2
;
_chemical_formula_sum "Si O2"
_cell_formula_units_Z 48
_cell_length_a 14.719145
_cell_length_b 14.719145
_cell_length_c 14.562216
_cell_angle_alpha 90.000000
_cell_angle_beta 90.000000
_cell_angle_gamma 90.000000
_cell_volume 3154.951126
_symmetry_space_group_name_H-M "P -4 M 2"
_symmetry_group_IT_number 115
_symmetry_cell_setting 'tetragonal'
loop_
_space_group_symop_operation_xyz
x,y,z
y,-x,-z
-x,-y,z
-y,x,-z
y,x,-z
-y,-x,-z
-x,y,z
x,-y,z
loop_
_atom_site_type_symbol
_atom_site_label
_atom_site_fract_x
_atom_site_fract_y
_atom_site_fract_z
Si Si1 0.894161 0.788514 0.922661
Si Si2 0.399782 0.818231 0.354640
Si Si3 0.101360 0.601791 0.449814
Si Si4 0.105330 0.895756 0.264677
Si Si5 0.893669 0.599336 0.844675
Si Si6 0.238276 0.787941 0.604021
O O1 0.881375 0.851276 0.834489
O O2 0.857216 0.685597 0.902790
O O3 0.000000 0.788163 0.953331
O O4 0.830309 0.830309 0.000000
O O5 0.500000 0.770308 0.355472
O O6 0.390891 0.885751 0.440644
O O7 0.385783 0.875114 0.262572
O O8 0.316729 0.747164 0.363365
O O9 0.118522 0.500000 0.415621
O O10 0.168007 0.662651 0.388609
O O11 0.000000 0.634321 0.428270
O O12 0.158981 0.834700 0.336335
O O13 0.000000 0.866702 0.260717
O O14 0.115522 0.000000 0.296215
O O15 0.853660 0.500000 0.876810
O O16 0.000000 0.597808 0.858096
O O17 0.203900 0.796101 0.500000
#
# Coordination Sequence:
#
# PCOD8309223 Si02
#       6
#     8   8   8   8   8   8
#     4  10  19  31  47  66  90 122 156 187 223 272
#     4   9  16  27  44  66  90 116 150 193 239 280
#     4   9  17  28  43  63  89 124 162 194 225 269
#     4  10  20  31  42  61  91 125 160 190 218 263
#     4   9  16  27  46  70  92 112 142 192 243 277
#     4  10  19  29  44  65  91 122 155 193 233 272
#
# _framework density 15.214181999999999
#
# number of rings (size 3 to 8) (size 9 to 14) (size 15 to 20)
#    0.000    2.500    1.667    1.500    0.000    6.167 
#    0.000    0.833    0.000    1.500    0.000    5.833 
#    0.000    0.333    0.000    0.000    0.000    0.000 
#
# Total GULP energy -594777.572537 kJ/mol
# GULP energy per Si atom -12391.199428 kJ/mol
# Density = 1.517955 g / cm^3
# Si number density = 15.214182 Si / 1000 Ang^3
#
#
#
# Elastic Constant Matrix: (Units=GPa)
#
#
# Indices 1 2 3 4 5 6 
#
# 1 111.5360 60.6421 39.9156 0.0000 0.0000 0.0000
# 2 60.6421 111.5358 39.9155 0.0000 0.0000 0.0000
# 3 39.9156 39.9155 58.7739 0.0000 0.0000 0.0000
# 4 0.0000 0.0000 0.0000 21.0413 0.0000 0.0000
# 5 0.0000 0.0000 0.0000 0.0000 21.0412 0.0000
# 6 0.0000 0.0000 0.0000 0.0000 0.0000 19.1749
#
#
#
# Elastic Compliance Matrix: (Units=1/GPa)
#
#
# Indices 1 2 3 4 5 6 
#
# 1 0.014063 -0.005586 -0.005757 0.000000 0.000000 0.000000
# 2 -0.005586 0.014063 -0.005757 0.000000 0.000000 0.000000
# 3 -0.005757 -0.005757 0.024834 0.000000 0.000000 0.000000
# 4 0.000000 0.000000 0.000000 0.047526 0.000000 0.000000
# 5 0.000000 0.000000 0.000000 0.000000 0.047526 0.000000
# 6 0.000000 0.000000 0.000000 0.000000 0.000000 0.052152
#
#
# Mechanical properties :
#
#
# Convention : Reuss Voigt Hill
#
# Bulk Modulus (GPa) = 53.30522 62.53247 57.91884
# Shear Modulus (GPa) = 20.77989 21.67630 21.22810
#
# Velocity S-wave (km/s) = 3.69971 3.77867 3.73940
# Velocity P-wave (km/s) = 7.30501 7.76070 7.53630
#
# Compressibility (1/GPa) = 0.01875989
#
# Stress axis : x y z
#
# Youngs Moduli (GPa) = 71.10837 71.10825 40.26679
#
# Poissons Ratio (x) = 0.39719 0.23183
# Poissons Ratio (y) = 0.39719 0.23183
# Poissons Ratio (z) = 0.40939 0.40939
#
# Static dielectric constant tensor:
#      x y z
#    x 3.133970 0.000000 0.000000 
#    y 0.000000 3.133970 0.000000 
#    z 0.000000 0.000000 2.753830 
# 
# 
# High freq. dielectric constant tensor:
#      x y z
#    x 1.575510 0.000000 0.000000 
#    y 0.000000 1.575510 0.000000 
#    z 0.000000 0.000000 1.563780 
# 
# From -- ./inp_files/2910.got.cif
#   From: 2010.03.12/outbox.cif.g09.slc.cpg/sg115_2_cif.got.tgz:2910.got - 2010.04.14 02:11:21.
