data_PCOD8309946
_publ_section_title
;
Structure prediction by ZEFSAII (Michael W. Deem and Ramdas Pophale) SiO2 
 PCOD8309946
Probable space group: P -4 M 2
;
_chemical_formula_sum "Si O2"
_cell_formula_units_Z 56
_cell_length_a 14.819890
_cell_length_b 14.819890
_cell_length_c 12.210774
_cell_angle_alpha 90.000000
_cell_angle_beta 90.000000
_cell_angle_gamma 90.000000
_cell_volume 2681.841788
_symmetry_space_group_name_H-M "P -4 M 2"
_symmetry_group_IT_number 115
_symmetry_cell_setting 'tetragonal'
loop_
_space_group_symop_operation_xyz
x,y,z
y,-x,-z
-x,-y,z
-y,x,-z
y,x,-z
-y,-x,-z
-x,y,z
x,-y,z
loop_
_atom_site_type_symbol
_atom_site_label
_atom_site_fract_x
_atom_site_fract_y
_atom_site_fract_z
Si Si1 0.897219 0.399498 0.225216
Si Si2 0.395079 0.102516 0.167526
Si Si3 0.098567 0.250435 0.391254
Si Si4 0.395054 0.399899 0.840389
Si Si5 0.844171 0.721964 0.626552
Si Si6 0.324962 0.601628 0.604598
Si Si7 0.225532 0.393156 0.036090
O O1 0.862046 0.500000 0.249708
O O2 0.881222 0.346120 0.336200
O O3 0.842128 0.353722 0.126438
O O4 0.000000 0.399767 0.186199
O O5 0.500000 0.117473 0.201745
O O6 0.329192 0.109674 0.272161
O O7 0.384121 0.000000 0.120147
O O8 0.365790 0.182231 0.082179
O O9 0.092825 0.271485 0.520481
O O10 0.173686 0.180475 0.347972
O O11 0.000000 0.212738 0.355626
O O12 0.500000 0.406966 0.860189
O O13 0.352121 0.500000 0.868361
O O14 0.377563 0.372200 0.715483
O O15 0.354034 0.325540 0.925059
O O16 0.756201 0.669402 0.588074
O O17 0.390694 0.609307 0.500000
O O18 0.288488 0.500000 0.613486
O O19 0.227115 0.500000 0.045561
#
# Coordination Sequence:
#
# PCOD8309946 Si02
#       7
#     8   8   8   8   8   8   8
#     4   9  17  30  52  83 116 150 194 249 306 360
#     4  10  21  38  62  91 122 159 203 255 317 379
#     4  10  21  38  59  83 115 153 196 246 308 374
#     4   9  18  32  51  78 114 162 217 262 301 351
#     4  11  22  39  57  87 120 156 199 251 312 372
#     4  11  21  34  53  81 121 169 217 260 307 370
#     4   9  17  31  55  83 115 154 201 254 306 358
#
# _framework density 20.881174000000001
#
# number of rings (size 3 to 8) (size 9 to 14) (size 15 to 20)
#    0.000    2.143    1.429    2.571    0.000    3.571 
#    0.000    4.286    0.000   13.286    0.000    8.000 
#    0.000    0.000    0.000   27.286    0.000    0.571 
#
# Total GULP energy -693770.006863 kJ/mol
# GULP energy per Si atom -12388.750123 kJ/mol
# Density = 2.083365 g / cm^3
# Si number density = 20.881174 Si / 1000 Ang^3
#
#
#
# Elastic Constant Matrix: (Units=GPa)
#
#
# Indices 1 2 3 4 5 6 
#
# 1 91.0734 33.3577 52.1814 0.0000 0.0000 0.0000
# 2 33.3577 91.0739 52.1816 0.0000 0.0000 0.0000
# 3 52.1814 52.1816 117.1203 0.0000 0.0000 0.0000
# 4 0.0000 0.0000 0.0000 37.3263 0.0000 0.0000
# 5 0.0000 0.0000 0.0000 0.0000 37.3263 0.0000
# 6 0.0000 0.0000 0.0000 0.0000 0.0000 21.2534
#
#
#
# Elastic Compliance Matrix: (Units=1/GPa)
#
#
# Indices 1 2 3 4 5 6 
#
# 1 0.015079 -0.002247 -0.005717 0.000000 0.000000 0.000000
# 2 -0.002247 0.015079 -0.005717 0.000000 0.000000 0.000000
# 3 -0.005717 -0.005717 0.013632 0.000000 0.000000 0.000000
# 4 0.000000 0.000000 0.000000 0.026791 0.000000 0.000000
# 5 0.000000 0.000000 0.000000 0.000000 0.026791 0.000000
# 6 0.000000 0.000000 0.000000 0.000000 0.000000 0.047051
#
#
# Mechanical properties :
#
#
# Convention : Reuss Voigt Hill
#
# Bulk Modulus (GPa) = 60.87272 63.85654 62.36463
# Shear Modulus (GPa) = 28.20700 29.95101 29.07900
#
# Velocity S-wave (km/s) = 3.67936 3.79140 3.73580
# Velocity P-wave (km/s) = 6.87499 7.05787 6.96703
#
# Compressibility (1/GPa) = 0.01642772
#
# Stress axis : x y z
#
# Youngs Moduli (GPa) = 66.31802 66.31837 73.35463
#
# Poissons Ratio (x) = 0.14904 0.41936
# Poissons Ratio (y) = 0.14904 0.41936
# Poissons Ratio (z) = 0.37913 0.37913
#
# Static dielectric constant tensor:
#      x y z
#    x 3.762710 0.000000 0.000000 
#    y 0.000000 3.762710 0.000000 
#    z 0.000000 0.000000 3.950720 
# 
# 
# High freq. dielectric constant tensor:
#      x y z
#    x 1.805060 0.000000 0.000000 
#    y 0.000000 1.805060 0.000000 
#    z 0.000000 0.000000 1.832280 
# 
# From -- ./inp_files/3112.got.cif
#   From: 2010.03.12/outbox.cif.g09.slc.cpg/sg115_2_cif.got.tgz:3112.got - 2010.04.14 02:11:21.
