data_PCOD8309066
_publ_section_title
;
Structure prediction by ZEFSAII (Michael W. Deem and Ramdas Pophale) SiO2 
 PCOD8309066
Probable space group: P -4 21 C
;
_chemical_formula_sum "Si O2"
_cell_formula_units_Z 36
_cell_length_a 9.265272
_cell_length_b 9.265272
_cell_length_c 20.546352
_cell_angle_alpha 90.000000
_cell_angle_beta 90.000000
_cell_angle_gamma 90.000000
_cell_volume 1763.807037
_symmetry_space_group_name_H-M "P -4 21 C"
_symmetry_group_IT_number 114
_symmetry_cell_setting 'tetragonal'
loop_
_space_group_symop_operation_xyz
x,y,z
y,-x,-z
-x,-y,z
-y,x,-z
1/2+x,1/2-y,1/2-z
1/2-x,1/2+y,1/2-z
1/2-y,1/2-x,1/2+z
1/2+y,1/2+x,1/2+z
loop_
_atom_site_type_symbol
_atom_site_label
_atom_site_fract_x
_atom_site_fract_y
_atom_site_fract_z
Si Si1 0.500000 0.500000 0.736052
Si Si2 0.754096 0.481894 0.837049
Si Si3 0.215423 0.481799 0.347543
Si Si4 0.700616 0.580694 0.486448
Si Si5 0.126764 0.154175 0.532350
O O1 0.643034 0.499251 0.778924
O O2 0.485307 0.637277 0.690722
O O3 0.824742 0.639679 0.844747
O O4 0.672085 0.419026 0.900002
O O5 0.886404 0.377074 0.818820
O O6 0.235615 0.503729 0.424555
O O7 0.663853 0.446939 0.534817
O O8 0.810395 0.686556 0.522638
O O9 0.952264 0.172090 0.527733
#
# Coordination Sequence:
#
# PCOD8309066 Si02
#       5
#     4   8   8   8   8
#     4  12  24  44  70  92 128 184 232 270 332 408
#     4  11  24  43  66  95 134 173 219 280 336 394
#     4  11  24  43  66  95 134 173 219 280 336 394
#     4  11  22  39  65  97 131 170 216 270 337 400
#     4  11  22  39  65  97 131 170 216 270 337 400
#
# _framework density 20.410398000000001
#
# number of rings (size 3 to 8) (size 9 to 14) (size 15 to 20)
#    0.000    0.889    4.444    4.000    0.000    0.889 
#    0.000    0.000    0.000    0.000    0.000    0.000 
#    0.000    0.000    0.000    0.000    0.000    0.000 
#
# Total GULP energy -446143.100436 kJ/mol
# GULP energy per Si atom -12392.863901 kJ/mol
# Density = 2.036394 g / cm^3
# Si number density = 20.410398 Si / 1000 Ang^3
#
#
#
# Elastic Constant Matrix: (Units=GPa)
#
#
# Indices 1 2 3 4 5 6 
#
# 1 72.5940 -4.5475 15.5875 0.0000 0.0000 0.0000
# 2 -4.5475 72.5940 15.5875 0.0000 0.0000 0.0000
# 3 15.5875 15.5875 80.7590 0.0000 0.0000 0.0000
# 4 0.0000 0.0000 0.0000 20.4751 0.0000 0.0000
# 5 0.0000 0.0000 0.0000 0.0000 20.4751 0.0000
# 6 0.0000 0.0000 0.0000 0.0000 0.0000 33.0823
#
#
#
# Elastic Compliance Matrix: (Units=1/GPa)
#
#
# Indices 1 2 3 4 5 6 
#
# 1 0.014542 0.001579 -0.003112 0.000000 0.000000 0.000000
# 2 0.001579 0.014542 -0.003112 0.000000 0.000000 0.000000
# 3 -0.003112 -0.003112 0.013584 0.000000 0.000000 0.000000
# 4 0.000000 0.000000 0.000000 0.048840 0.000000 0.000000
# 5 0.000000 0.000000 0.000000 0.000000 0.048840 0.000000
# 6 0.000000 0.000000 0.000000 0.000000 0.000000 0.030228
#
#
# Mechanical properties :
#
#
# Convention : Reuss Voigt Hill
#
# Bulk Modulus (GPa) = 29.95812 31.02248 30.49030
# Shear Modulus (GPa) = 26.17930 28.09446 27.13688
#
# Velocity S-wave (km/s) = 3.58529 3.71412 3.65027
# Velocity P-wave (km/s) = 5.64347 5.79873 5.72163
#
# Compressibility (1/GPa) = 0.03337993
#
# Stress axis : x y z
#
# Youngs Moduli (GPa) = 68.76494 68.76494 73.61773
#
# Poissons Ratio (x) = -0.10859 0.22907
# Poissons Ratio (y) = -0.10859 0.22907
# Poissons Ratio (z) = 0.21397 0.21397
#
# Static dielectric constant tensor:
#      x y z
#    x 3.956530 0.000000 0.000000 
#    y 0.000000 3.956530 0.000000 
#    z 0.000000 0.000000 3.575350 
# 
# 
# High freq. dielectric constant tensor:
#      x y z
#    x 1.813830 0.000000 0.000000 
#    y 0.000000 1.813830 0.000000 
#    z 0.000000 0.000000 1.773420 
# 
# From -- ./inp_files/2975.got.cif
#   From: 2010.03.12/outbox.cif.g09.slc.cpg/sg114_2_cif.got.tgz:2975.got - 2010.04.14 02:08:34.
