data_PCOD8309250
_publ_section_title
;
Structure prediction by ZEFSAII (Michael W. Deem and Ramdas Pophale) SiO2 
 PCOD8309250
Probable space group: P -4 M 2
;
_chemical_formula_sum "Si O2"
_cell_formula_units_Z 40
_cell_length_a 15.503148
_cell_length_b 15.503148
_cell_length_c 8.511333
_cell_angle_alpha 90.000000
_cell_angle_beta 90.000000
_cell_angle_gamma 90.000000
_cell_volume 2045.678442
_symmetry_space_group_name_H-M "P -4 M 2"
_symmetry_group_IT_number 115
_symmetry_cell_setting 'tetragonal'
loop_
_space_group_symop_operation_xyz
x,y,z
y,-x,-z
-x,-y,z
-y,x,-z
y,x,-z
-y,-x,-z
-x,y,z
x,-y,z
loop_
_atom_site_type_symbol
_atom_site_label
_atom_site_fract_x
_atom_site_fract_y
_atom_site_fract_z
Si Si1 0.796546 0.707200 0.143831
Si Si2 0.096979 0.633833 0.576535
Si Si3 0.727445 0.402360 0.412703
Si Si4 0.594498 0.099782 0.075086
Si Si5 0.804604 0.094147 0.615010
O O1 0.736868 0.643777 0.244868
O O2 0.836938 0.785196 0.247260
O O3 0.741396 0.741396 0.000000
O O4 0.873580 0.651173 0.073038
O O5 0.177488 0.587304 0.492142
O O6 0.122031 0.640271 0.759888
O O7 0.091646 0.727643 0.507457
O O8 0.000000 0.589783 0.556483
O O9 0.657273 0.342728 0.500000
O O10 0.691172 0.500000 0.394556
O O11 0.500000 0.144931 0.071682
O O12 0.581087 0.000000 0.055749
O O13 0.883510 0.116491 0.500000
O O14 0.821278 0.000000 0.690944
#
# Coordination Sequence:
#
# PCOD8309250 Si02
#       5
#     8   8   8   8   8
#     4  11  21  36  55  80 111 143 179 228 289 347
#     4   9  18  34  58  86 114 145 183 229 284 343
#     4  11  23  39  59  82 110 149 196 241 285 339
#     4  10  19  31  50  79 113 142 168 208 268 335
#     4  10  20  35  55  78 106 144 189 233 278 334
#
# _framework density 19.553414
#
# number of rings (size 3 to 8) (size 9 to 14) (size 15 to 20)
#    0.000    1.800    0.000    6.600    0.000    2.400 
#    0.000    2.000    0.000    0.000    0.000    0.000 
#    0.000    0.000    0.000    0.000    0.000    0.000 
#
# Total GULP energy -495549.635850 kJ/mol
# GULP energy per Si atom -12388.740896 kJ/mol
# Density = 1.950891 g / cm^3
# Si number density = 19.553414 Si / 1000 Ang^3
#
#
#
# Elastic Constant Matrix: (Units=GPa)
#
#
# Indices 1 2 3 4 5 6 
#
# 1 81.2327 48.6986 45.3311 0.0000 0.0000 0.0000
# 2 48.6986 81.2348 45.3320 0.0000 0.0000 0.0000
# 3 45.3311 45.3320 125.9392 0.0000 0.0000 0.0000
# 4 0.0000 0.0000 0.0000 12.2050 0.0000 0.0000
# 5 0.0000 0.0000 0.0000 0.0000 12.2074 0.0000
# 6 0.0000 0.0000 0.0000 0.0000 0.0000 -3.8623
#
#
#
# Elastic Compliance Matrix: (Units=1/GPa)
#
#
# Indices 1 2 3 4 5 6 
#
# 1 0.020507 -0.010229 -0.003699 0.000000 0.000000 0.000000
# 2 -0.010229 0.020507 -0.003699 0.000000 0.000000 0.000000
# 3 -0.003699 -0.003699 0.010604 0.000000 0.000000 0.000000
# 4 0.000000 0.000000 0.000000 0.081933 0.000000 0.000000
# 5 0.000000 0.000000 0.000000 0.000000 0.081918 0.000000
# 6 0.000000 0.000000 0.000000 0.000000 0.000000 -0.258911
#
#
# Mechanical properties :
#
#
# Convention : Reuss Voigt Hill
#
# Bulk Modulus (GPa) = 61.12031 63.01446 62.06738
# Shear Modulus (GPa) = -1829.84887 14.04635 -907.90126
#
# Velocity S-wave (km/s) = -30.62437 2.68313 -21.57143
# Velocity P-wave (km/s) = 34.91624 6.47269 24.26157
#
# Compressibility (1/GPa) = 0.01636117
#
# Stress axis : x y z
#
# Youngs Moduli (GPa) = 48.76377 48.76488 94.30817
#
# Poissons Ratio (x) = 0.49882 0.34888
# Poissons Ratio (y) = 0.49881 0.34889
# Poissons Ratio (z) = 0.18040 0.18040
#
# Static dielectric constant tensor:
#      x y z
#    x 3.840210 0.000000 0.000000 
#    y 0.000000 3.840220 0.000000 
#    z 0.000000 0.000000 3.736420 
# 
# 
# High freq. dielectric constant tensor:
#      x y z
#    x 1.752730 0.000000 0.000000 
#    y 0.000000 1.752730 0.000000 
#    z 0.000000 0.000000 1.765730 
# 
# From -- ./inp_files/1576.got.cif
#   From: 2010.03.12/outbox.cif.g09.slc.cpg/sg115_1_cif.got.tgz:1576.got - 2010.04.14 02:11:21.
