data_PCOD8309334
_publ_section_title
;
Structure prediction by ZEFSAII (Michael W. Deem and Ramdas Pophale) SiO2 
 PCOD8309334
Probable space group: P -4 M 2
;
_chemical_formula_sum "Si O2"
_cell_formula_units_Z 48
_cell_length_a 9.060325
_cell_length_b 9.060325
_cell_length_c 31.571287
_cell_angle_alpha 90.000000
_cell_angle_beta 90.000000
_cell_angle_gamma 90.000000
_cell_volume 2591.670820
_symmetry_space_group_name_H-M "P -4 M 2"
_symmetry_group_IT_number 115
_symmetry_cell_setting 'tetragonal'
loop_
_space_group_symop_operation_xyz
x,y,z
y,-x,-z
-x,-y,z
-y,x,-z
y,x,-z
-y,-x,-z
-x,y,z
x,-y,z
loop_
_atom_site_type_symbol
_atom_site_label
_atom_site_fract_x
_atom_site_fract_y
_atom_site_fract_z
Si Si1 0.675059 0.167492 0.717607
Si Si2 0.326500 0.829430 0.038197
Si Si3 0.663661 0.323476 0.544599
Si Si4 0.676402 0.665795 0.635457
Si Si5 0.824628 0.833616 0.877531
Si Si6 0.328012 0.172129 0.206083
O O1 0.500000 0.179575 0.720245
O O2 0.732878 0.225381 0.672140
O O3 0.742171 0.269151 0.753582
O O4 0.729548 0.000000 0.723454
O O5 0.500000 0.808713 0.043096
O O6 0.251531 0.768285 0.080947
O O7 0.284359 0.000000 0.029948
O O8 0.268435 0.731565 0.000000
O O9 0.736640 0.263361 0.500000
O O10 0.500000 0.256347 0.546617
O O11 0.656535 0.500000 0.541901
O O12 0.742316 0.280753 0.589413
O O13 0.500000 0.666045 0.632630
O O14 0.731604 0.500000 0.645902
O O15 0.764693 0.752737 0.835643
O O16 0.000000 0.831594 0.876910
O O17 0.762535 0.000000 0.878367
O O18 0.500000 0.203603 0.200607
O O19 0.294460 0.000000 0.212347
#
# Coordination Sequence:
#
# PCOD8309334 Si02
#       6
#     8   8   8   8   8   8
#     4  10  20  32  46  67  96 129 164 201 240 285
#     4  10  20  34  53  77 104 133 165 201 240 283
#     4   7   9  14  27  50  78 105 137 181 231 280
#     4   8  13  22  37  57  83 115 149 188 236 286
#     4   9  17  31  53  78 102 129 162 201 244 290
#     4  10  20  34  53  76 100 127 161 202 248 296
#
# _framework density 18.520869999999999
#
# number of rings (size 3 to 8) (size 9 to 14) (size 15 to 20)
#    0.000    3.000    0.000    3.500    0.000    5.000 
#    0.000    0.833    0.000    5.000    0.000    1.167 
#    0.000    6.667    0.000    0.000    0.000    0.000 
#
# Total GULP energy -594761.605051 kJ/mol
# GULP energy per Si atom -12390.866772 kJ/mol
# Density = 1.847872 g / cm^3
# Si number density = 18.520870 Si / 1000 Ang^3
#
#
#
# Elastic Constant Matrix: (Units=GPa)
#
#
# Indices 1 2 3 4 5 6 
#
# 1 51.1825 21.1611 42.5122 0.0000 0.0000 0.0000
# 2 21.1611 51.1826 42.5122 0.0000 0.0000 0.0000
# 3 42.5122 42.5122 183.7456 0.0000 0.0000 0.0000
# 4 0.0000 0.0000 0.0000 2.1707 0.0000 0.0000
# 5 0.0000 0.0000 0.0000 0.0000 2.1713 0.0000
# 6 0.0000 0.0000 0.0000 0.0000 0.0000 17.5523
#
#
#
# Elastic Compliance Matrix: (Units=1/GPa)
#
#
# Indices 1 2 3 4 5 6 
#
# 1 0.026147 -0.007162 -0.004393 0.000000 0.000000 0.000000
# 2 -0.007162 0.026147 -0.004393 0.000000 0.000000 0.000000
# 3 -0.004393 -0.004393 0.007475 0.000000 0.000000 0.000000
# 4 0.000000 0.000000 0.000000 0.460674 0.000000 0.000000
# 5 0.000000 0.000000 0.000000 0.000000 0.460560 0.000000
# 6 0.000000 0.000000 0.000000 0.000000 0.000000 0.056973
#
#
# Mechanical properties :
#
#
# Convention : Reuss Voigt Hill
#
# Bulk Modulus (GPa) = 35.87380 55.38685 45.63032
# Shear Modulus (GPa) = 4.63322 16.37388 10.50355
#
# Velocity S-wave (km/s) = 1.58337 2.97657 2.38401
# Velocity P-wave (km/s) = 4.77013 6.46400 5.68056
#
# Compressibility (1/GPa) = 0.02787550
#
# Stress axis : x y z
#
# Youngs Moduli (GPa) = 38.24463 38.24471 133.78167
#
# Poissons Ratio (x) = 0.27391 0.58764
# Poissons Ratio (y) = 0.27391 0.58764
# Poissons Ratio (z) = 0.16799 0.16799
#
# Static dielectric constant tensor:
#      x y z
#    x 3.094200 0.000000 0.000000 
#    y 0.000000 3.094200 0.000000 
#    z 0.000000 0.000000 3.933550 
# 
# 
# High freq. dielectric constant tensor:
#      x y z
#    x 1.677450 0.000000 0.000000 
#    y 0.000000 1.677450 0.000000 
#    z 0.000000 0.000000 1.749140 
# 
# From -- ./inp_files/6110.got.cif
#   From: 2010.03.12/outbox.cif.g09.slc.cpg/sg115_4_cif.got.tgz:6110.got - 2010.04.14 02:11:21.
