data_PCOD8309877
_publ_section_title
;
Structure prediction by ZEFSAII (Michael W. Deem and Ramdas Pophale) SiO2 
 PCOD8309877
Probable space group: P -4 M 2
;
_chemical_formula_sum "Si O2"
_cell_formula_units_Z 48
_cell_length_a 9.217539
_cell_length_b 9.217539
_cell_length_c 30.421521
_cell_angle_alpha 90.000000
_cell_angle_beta 90.000000
_cell_angle_gamma 90.000000
_cell_volume 2584.704456
_symmetry_space_group_name_H-M "P -4 M 2"
_symmetry_group_IT_number 115
_symmetry_cell_setting 'tetragonal'
loop_
_space_group_symop_operation_xyz
x,y,z
y,-x,-z
-x,-y,z
-y,x,-z
y,x,-z
-y,-x,-z
-x,y,z
x,-y,z
loop_
_atom_site_type_symbol
_atom_site_label
_atom_site_fract_x
_atom_site_fract_y
_atom_site_fract_z
Si Si1 0.830639 0.833619 0.123489
Si Si2 0.669744 0.336488 0.050252
Si Si3 0.829885 0.332249 0.364093
Si Si4 0.334119 0.833110 0.536920
Si Si5 0.670884 0.168696 0.288754
Si Si6 0.169083 0.330107 0.211038
O O1 0.750791 0.778335 0.080323
O O2 0.780738 0.739641 0.165194
O O3 0.000000 0.815275 0.114984
O O4 0.787851 0.000000 0.132297
O O5 0.500000 0.325643 0.059558
O O6 0.724180 0.500000 0.060374
O O7 0.704298 0.295703 0.000000
O O8 0.799484 0.500000 0.351796
O O9 0.777914 0.299682 0.413845
O O10 0.737256 0.226148 0.333997
O O11 0.000000 0.299308 0.358085
O O12 0.243648 0.756353 0.500000
O O13 0.500000 0.804276 0.525632
O O14 0.294025 0.000000 0.534701
O O15 0.500000 0.194800 0.289496
O O16 0.738164 0.257894 0.248993
O O17 0.710045 0.000000 0.283261
O O18 0.202992 0.500000 0.209336
O O19 0.000000 0.299588 0.220307
#
# Coordination Sequence:
#
# PCOD8309877 Si02
#       6
#     8   8   8   8   8   8
#     4  10  21  36  55  81 111 141 175 217 265 316
#     4   9  19  36  56  78 106 142 183 223 264 313
#     4   9  19  37  58  78 103 139 181 220 261 313
#     4   9  19  35  54  78 108 140 176 219 264 312
#     4  11  24  38  53  79 112 141 172 215 266 316
#     4  10  21  38  60  82 104 137 180 220 261 314
#
# _framework density 18.570789999999999
#
# number of rings (size 3 to 8) (size 9 to 14) (size 15 to 20)
#    0.000    2.333    0.000    3.500    0.000    9.000 
#    0.000    7.500    0.000    0.000    0.000    0.000 
#    0.000    0.000    0.000    0.000    0.000    0.000 
#
# Total GULP energy -595280.769901 kJ/mol
# GULP energy per Si atom -12401.682706 kJ/mol
# Density = 1.852852 g / cm^3
# Si number density = 18.570790 Si / 1000 Ang^3
#
#
#
# Elastic Constant Matrix: (Units=GPa)
#
#
# Indices 1 2 3 4 5 6 
#
# 1 89.4184 55.4441 65.2035 0.0000 0.0000 0.0000
# 2 55.4441 89.4171 65.2023 0.0000 0.0000 0.0000
# 3 65.2035 65.2023 125.9549 0.0000 0.0000 0.0000
# 4 0.0000 0.0000 0.0000 38.3045 0.0000 0.0000
# 5 0.0000 0.0000 0.0000 0.0000 38.3044 0.0000
# 6 0.0000 0.0000 0.0000 0.0000 0.0000 30.2055
#
#
#
# Elastic Compliance Matrix: (Units=1/GPa)
#
#
# Indices 1 2 3 4 5 6 
#
# 1 0.021181 -0.008254 -0.006692 0.000000 0.000000 0.000000
# 2 -0.008254 0.021181 -0.006692 0.000000 0.000000 0.000000
# 3 -0.006692 -0.006692 0.014868 0.000000 0.000000 0.000000
# 4 0.000000 0.000000 0.000000 0.026107 0.000000 0.000000
# 5 0.000000 0.000000 0.000000 0.000000 0.026107 0.000000
# 6 0.000000 0.000000 0.000000 0.000000 0.000000 0.033107
#
#
# Mechanical properties :
#
#
# Convention : Reuss Voigt Hill
#
# Bulk Modulus (GPa) = 71.66240 75.16559 73.41399
# Shear Modulus (GPa) = 26.24989 29.29223 27.77106
#
# Velocity S-wave (km/s) = 3.76374 3.97587 3.87126
# Velocity P-wave (km/s) = 7.58684 7.85110 7.72010
#
# Compressibility (1/GPa) = 0.01395432
#
# Stress axis : x y z
#
# Youngs Moduli (GPa) = 47.21207 47.21204 67.25864
#
# Poissons Ratio (x) = 0.38967 0.45011
# Poissons Ratio (y) = 0.38967 0.45009
# Poissons Ratio (z) = 0.31596 0.31594
#
# Static dielectric constant tensor:
#      x y z
#    x 3.343170 0.000000 0.000000 
#    y 0.000000 3.343170 0.000000 
#    z 0.000000 0.000000 3.507410 
# 
# 
# High freq. dielectric constant tensor:
#      x y z
#    x 1.719640 0.000000 0.000000 
#    y 0.000000 1.719640 0.000000 
#    z 0.000000 0.000000 1.734470 
# 
# From -- ./inp_files/5935.got.cif
#   From: 2010.03.12/outbox.cif.g09.slc.cpg/sg115_3_cif.got.tgz:5935.got - 2010.04.14 02:11:21.
