data_PCOD8309124
_publ_section_title
;
Structure prediction by ZEFSAII (Michael W. Deem and Ramdas Pophale) SiO2 
 PCOD8309124
Probable space group: P -4 21 C
;
_chemical_formula_sum "Si O2"
_cell_formula_units_Z 40
_cell_length_a 12.434027
_cell_length_b 12.434027
_cell_length_c 12.006867
_cell_angle_alpha 90.000000
_cell_angle_beta 90.000000
_cell_angle_gamma 90.000000
_cell_volume 1856.322002
_symmetry_space_group_name_H-M "P -4 21 C"
_symmetry_group_IT_number 114
_symmetry_cell_setting 'tetragonal'
loop_
_space_group_symop_operation_xyz
x,y,z
y,-x,-z
-x,-y,z
-y,x,-z
1/2+x,1/2-y,1/2-z
1/2-x,1/2+y,1/2-z
1/2-y,1/2-x,1/2+z
1/2+y,1/2+x,1/2+z
loop_
_atom_site_type_symbol
_atom_site_label
_atom_site_fract_x
_atom_site_fract_y
_atom_site_fract_z
Si Si1 0.719131 0.476814 0.366471
Si Si2 0.000000 0.000000 0.000000
Si Si3 0.398280 0.145688 0.013001
Si Si4 0.000000 0.000000 0.500000
Si Si5 0.390105 0.858531 0.164087
Si Si6 0.000000 0.500000 0.658039
Si Si7 0.622433 0.658191 0.858829
O O1 0.604409 0.479222 0.425705
O O2 0.796020 0.381321 0.410208
O O3 0.783058 0.588181 0.389299
O O4 0.697266 0.460179 0.235234
O O5 0.509574 0.141884 0.080667
O O6 0.372966 0.260343 0.961488
O O7 0.409934 0.060575 0.913603
O O8 0.910839 0.047387 0.582946
O O9 0.359784 0.737932 0.199028
O O10 0.415921 0.931978 0.269993
#
# Coordination Sequence:
#
# PCOD8309124 Si02
#       7
#     8   2   8   2   8   4   8
#     4  12  26  48  70 109 141 193 241 303 374 441
#     4  12  30  48  64 102 160 188 242 308 376 458
#     4  12  23  46  76 106 143 190 246 310 373 442
#     4  12  26  48  68  98 156 200 242 300 368 446
#     4  12  24  45  75 108 140 190 252 308 367 448
#     4  12  22  44  76 106 142 184 248 310 364 454
#     4  12  27  45  73 107 146 194 243 301 375 451
#
# _framework density 21.547984
#
# number of rings (size 3 to 8) (size 9 to 14) (size 15 to 20)
#    0.000    0.000    8.000    1.800    2.800    3.200 
#    7.200    0.000    0.000    0.000    0.000    0.000 
#    0.000    0.000    0.000    0.000    0.000    0.000 
#
# Total GULP energy -496083.868202 kJ/mol
# GULP energy per Si atom -12402.096705 kJ/mol
# Density = 2.149894 g / cm^3
# Si number density = 21.547984 Si / 1000 Ang^3
#
#
#
# Elastic Constant Matrix: (Units=GPa)
#
#
# Indices 1 2 3 4 5 6 
#
# 1 125.8838 34.7277 34.5659 0.0000 0.0000 0.0000
# 2 34.7277 125.8838 34.5659 0.0000 0.0000 0.0000
# 3 34.5659 34.5659 91.9105 0.0000 0.0000 0.0000
# 4 0.0000 0.0000 0.0000 27.9744 0.0000 0.0000
# 5 0.0000 0.0000 0.0000 0.0000 27.9744 0.0000
# 6 0.0000 0.0000 0.0000 0.0000 0.0000 27.3580
#
#
#
# Elastic Compliance Matrix: (Units=1/GPa)
#
#
# Indices 1 2 3 4 5 6 
#
# 1 0.009199 -0.001771 -0.002794 0.000000 0.000000 0.000000
# 2 -0.001771 0.009199 -0.002794 0.000000 0.000000 0.000000
# 3 -0.002794 -0.002794 0.012982 0.000000 0.000000 0.000000
# 4 0.000000 0.000000 0.000000 0.035747 0.000000 0.000000
# 5 0.000000 0.000000 0.000000 0.000000 0.035747 0.000000
# 6 0.000000 0.000000 0.000000 0.000000 0.000000 0.036552
#
#
# Mechanical properties :
#
#
# Convention : Reuss Voigt Hill
#
# Bulk Modulus (GPa) = 60.01042 61.26635 60.63839
# Shear Modulus (GPa) = 31.30905 32.64925 31.97915
#
# Velocity S-wave (km/s) = 3.81595 3.89676 3.85657
# Velocity P-wave (km/s) = 6.87935 6.98145 6.93059
#
# Compressibility (1/GPa) = 0.01666377
#
# Stress axis : x y z
#
# Youngs Moduli (GPa) = 108.70196 108.70196 77.03237
#
# Poissons Ratio (x) = 0.19248 0.21521
# Poissons Ratio (y) = 0.19248 0.21521
# Poissons Ratio (z) = 0.30369 0.30369
#
# Static dielectric constant tensor:
#      x y z
#    x 3.959820 0.000000 0.000000 
#    y 0.000000 3.959820 0.000000 
#    z 0.000000 0.000000 3.856300 
# 
# 
# High freq. dielectric constant tensor:
#      x y z
#    x 1.853560 0.000000 0.000000 
#    y 0.000000 1.853560 0.000000 
#    z 0.000000 0.000000 1.849240 
# 
# From -- ./inp_files/1568.got.cif
#   From: 2010.03.12/outbox.cif.g09.slc.cpg/sg114_1_cif.got.tgz:1568.got - 2010.04.14 02:08:34.
