data_PCOD8309695
_publ_section_title
;
Structure prediction by ZEFSAII (Michael W. Deem and Ramdas Pophale) SiO2 
 PCOD8309695
Probable space group: P -4 M 2
;
_chemical_formula_sum "Si O2"
_cell_formula_units_Z 48
_cell_length_a 9.471862
_cell_length_b 9.471862
_cell_length_c 27.394258
_cell_angle_alpha 90.000000
_cell_angle_beta 90.000000
_cell_angle_gamma 90.000000
_cell_volume 2457.707901
_symmetry_space_group_name_H-M "P -4 M 2"
_symmetry_group_IT_number 115
_symmetry_cell_setting 'tetragonal'
loop_
_space_group_symop_operation_xyz
x,y,z
y,-x,-z
-x,-y,z
-y,x,-z
y,x,-z
-y,-x,-z
-x,y,z
x,-y,z
loop_
_atom_site_type_symbol
_atom_site_label
_atom_site_fract_x
_atom_site_fract_y
_atom_site_fract_z
Si Si1 0.000000 0.835431 0.809707
Si Si2 0.000000 0.166846 0.925481
Si Si3 0.663620 0.272154 0.053288
Si Si4 0.657609 0.331022 0.553143
Si Si5 0.661316 0.207349 0.252795
Si Si6 0.840980 0.337834 0.639915
Si Si7 0.171142 0.500000 0.113304
Si Si8 0.344238 0.500000 0.207047
O O1 0.136617 0.758888 0.788085
O O2 0.000000 0.815149 0.867531
O O3 0.000000 0.000000 0.795663
O O4 0.127373 0.251767 0.949683
O O5 0.000000 0.000000 0.939987
O O6 0.500000 0.256008 0.071563
O O7 0.757795 0.363625 0.089845
O O8 0.658108 0.341893 0.000000
O O9 0.717457 0.282544 0.500000
O O10 0.500000 0.273981 0.560812
O O11 0.660943 0.500000 0.553689
O O12 0.747994 0.264857 0.597599
O O13 0.500000 0.148855 0.249219
O O14 0.728656 0.178324 0.306207
O O15 0.667637 0.371800 0.243907
O O16 0.794493 0.500000 0.644797
O O17 0.000000 0.320763 0.622109
O O18 0.214012 0.500000 0.169789
O O19 0.000000 0.500000 0.107431
O O20 0.500000 0.500000 0.180707
#
# Coordination Sequence:
#
# PCOD8309695 Si02
#       8
#     4   4   8   8   8   8   4   4
#     4  11  23  41  61  85 119 159 199 239 294 349
#     4  11  27  45  67  99 129 163 207 255 302 367
#     4  12  26  44  70  96 128 164 205 250 311 369
#     4   8  14  24  41  69 105 141 180 229 284 341
#     4  10  20  35  58  87 119 154 195 245 293 351
#     4   9  16  27  46  75 107 143 185 231 287 340
#     4  12  26  44  68  94 126 164 206 254 303 366
#     4  10  22  38  60  90 126 158 196 240 303 362
#
# _framework density 19.530393
#
# number of rings (size 3 to 8) (size 9 to 14) (size 15 to 20)
#    0.000    1.833    1.667    3.250    3.500    4.667 
#    0.000    0.000    0.000    1.000    0.000    0.000 
#    0.000    0.000    0.000    0.000    0.000    0.000 
#
# Total GULP energy -594942.345789 kJ/mol
# GULP energy per Si atom -12394.632204 kJ/mol
# Density = 1.948594 g / cm^3
# Si number density = 19.530393 Si / 1000 Ang^3
#
#
#
# Elastic Constant Matrix: (Units=GPa)
#
#
# Indices 1 2 3 4 5 6 
#
# 1 105.4710 30.7963 23.2911 0.0000 0.0000 0.0000
# 2 30.7963 105.4708 23.2909 0.0000 0.0000 0.0000
# 3 23.2911 23.2909 94.4473 0.0000 0.0000 0.0000
# 4 0.0000 0.0000 0.0000 16.2974 0.0000 0.0000
# 5 0.0000 0.0000 0.0000 0.0000 16.2964 0.0000
# 6 0.0000 0.0000 0.0000 0.0000 0.0000 21.0591
#
#
#
# Elastic Compliance Matrix: (Units=1/GPa)
#
#
# Indices 1 2 3 4 5 6 
#
# 1 0.010703 -0.002689 -0.001976 0.000000 0.000000 0.000000
# 2 -0.002689 0.010703 -0.001976 0.000000 0.000000 0.000000
# 3 -0.001976 -0.001976 0.011563 0.000000 0.000000 0.000000
# 4 0.000000 0.000000 0.000000 0.061360 0.000000 0.000000
# 5 0.000000 0.000000 0.000000 0.000000 0.061363 0.000000
# 6 0.000000 0.000000 0.000000 0.000000 0.000000 0.047485
#
#
# Mechanical properties :
#
#
# Convention : Reuss Voigt Hill
#
# Bulk Modulus (GPa) = 50.79841 51.12726 50.96284
# Shear Modulus (GPa) = 22.41942 25.93130 24.17536
#
# Velocity S-wave (km/s) = 3.39178 3.64777 3.52210
# Velocity P-wave (km/s) = 6.43469 6.63150 6.53384
#
# Compressibility (1/GPa) = 0.01968566
#
# Stress axis : x y z
#
# Youngs Moduli (GPa) = 93.43379 93.43373 86.48541
#
# Poissons Ratio (x) = 0.25121 0.17092
# Poissons Ratio (y) = 0.25121 0.17092
# Poissons Ratio (z) = 0.18465 0.18465
#
# Static dielectric constant tensor:
#      x y z
#    x 3.573960 0.000000 0.000000 
#    y 0.000000 3.573950 0.000000 
#    z 0.000000 0.000000 3.758430 
# 
# 
# High freq. dielectric constant tensor:
#      x y z
#    x 1.744050 0.000000 0.000000 
#    y 0.000000 1.744050 0.000000 
#    z 0.000000 0.000000 1.770830 
# 
# From -- ./inp_files/6284.got.cif
#   From: 2010.03.12/outbox.cif.g09.slc.cpg/sg115_4_cif.got.tgz:6284.got - 2010.04.14 02:11:21.
