data_PCOD8309281
_publ_section_title
;
Structure prediction by ZEFSAII (Michael W. Deem and Ramdas Pophale) SiO2 
 PCOD8309281
Probable space group: P -4 M 2
;
_chemical_formula_sum "Si O2"
_cell_formula_units_Z 40
_cell_length_a 8.067221
_cell_length_b 8.067221
_cell_length_c 28.729797
_cell_angle_alpha 90.000000
_cell_angle_beta 90.000000
_cell_angle_gamma 90.000000
_cell_volume 1869.736759
_symmetry_space_group_name_H-M "P -4 M 2"
_symmetry_group_IT_number 115
_symmetry_cell_setting 'tetragonal'
loop_
_space_group_symop_operation_xyz
x,y,z
y,-x,-z
-x,-y,z
-y,x,-z
y,x,-z
-y,-x,-z
-x,y,z
x,-y,z
loop_
_atom_site_type_symbol
_atom_site_label
_atom_site_fract_x
_atom_site_fract_y
_atom_site_fract_z
Si Si1 0.306632 0.182518 0.547994
Si Si2 0.314722 0.813620 0.045831
Si Si3 0.813084 0.000000 0.799290
Si Si4 0.309723 0.689098 0.143781
Si Si5 0.317032 0.302299 0.355482
Si Si6 0.000000 0.689641 0.301433
O O1 0.275003 0.275003 0.500000
O O2 0.500000 0.163689 0.555325
O O3 0.236506 0.285125 0.591941
O O4 0.224233 0.000000 0.547095
O O5 0.500000 0.768534 0.029947
O O6 0.261514 0.699357 0.089143
O O7 0.299702 0.000000 0.064569
O O8 0.203587 0.796414 0.000000
O O9 0.786259 0.169497 0.827960
O O10 0.698503 0.000000 0.754110
O O11 0.000000 0.000000 0.781579
O O12 0.500000 0.757358 0.151586
O O13 0.301751 0.500000 0.159936
O O14 0.500000 0.236560 0.339724
O O15 0.318591 0.500000 0.353264
O O16 0.169644 0.230245 0.322417
O O17 0.000000 0.500000 0.317224
#
# Coordination Sequence:
#
# PCOD8309281 Si02
#       6
#     8   8   4   8   8   4
#     4  10  19  32  51  79 114 152 196 245 296 357
#     4  10  21  36  56  85 122 163 204 249 301 362
#     4  12  26  42  64  92 126 166 204 254 322 381
#     4  10  22  42  67  92 121 160 209 263 312 369
#     4   9  17  32  57  85 114 150 194 252 310 359
#     4  10  20  38  60  86 116 152 204 260 306 369
#
# _framework density 21.393388000000002
#
# number of rings (size 3 to 8) (size 9 to 14) (size 15 to 20)
#    0.000    2.000    1.000    2.700    1.400    4.400 
#    0.000    3.000    0.000    1.200    0.000    0.000 
#    0.000    0.000    0.000    0.000    0.000    0.000 
#
# Total GULP energy -495754.292805 kJ/mol
# GULP energy per Si atom -12393.857320 kJ/mol
# Density = 2.134470 g / cm^3
# Si number density = 21.393388 Si / 1000 Ang^3
#
#
#
# Elastic Constant Matrix: (Units=GPa)
#
#
# Indices 1 2 3 4 5 6 
#
# 1 88.0686 25.7830 35.1846 0.0000 0.0000 0.0000
# 2 25.7830 88.0683 35.1844 0.0000 0.0000 0.0000
# 3 35.1846 35.1844 124.3702 0.0000 0.0000 0.0000
# 4 0.0000 0.0000 0.0000 19.4069 0.0000 0.0000
# 5 0.0000 0.0000 0.0000 0.0000 19.4069 0.0000
# 6 0.0000 0.0000 0.0000 0.0000 0.0000 15.2368
#
#
#
# Elastic Compliance Matrix: (Units=1/GPa)
#
#
# Indices 1 2 3 4 5 6 
#
# 1 0.013350 -0.002705 -0.003011 0.000000 0.000000 0.000000
# 2 -0.002705 0.013350 -0.003011 0.000000 0.000000 0.000000
# 3 -0.003011 -0.003011 0.009744 0.000000 0.000000 0.000000
# 4 0.000000 0.000000 0.000000 0.051528 0.000000 0.000000
# 5 0.000000 0.000000 0.000000 0.000000 0.051528 0.000000
# 6 0.000000 0.000000 0.000000 0.000000 0.000000 0.065630
#
#
# Mechanical properties :
#
#
# Convention : Reuss Voigt Hill
#
# Bulk Modulus (GPa) = 52.66452 54.75678 53.71065
# Shear Modulus (GPa) = 21.84207 24.43380 23.13794
#
# Velocity S-wave (km/s) = 3.19873 3.38319 3.29225
# Velocity P-wave (km/s) = 6.18976 6.39625 6.29386
#
# Compressibility (1/GPa) = 0.01898811
#
# Stress axis : x y z
#
# Youngs Moduli (GPa) = 74.90714 74.90701 102.62342
#
# Poissons Ratio (x) = 0.20264 0.30904
# Poissons Ratio (y) = 0.20264 0.30904
# Poissons Ratio (z) = 0.22558 0.22557
#
# Static dielectric constant tensor:
#      x y z
#    x 3.858660 0.000000 0.000000 
#    y 0.000000 3.858660 0.000000 
#    z 0.000000 0.000000 3.663790 
# 
# 
# High freq. dielectric constant tensor:
#      x y z
#    x 1.828900 0.000000 0.000000 
#    y 0.000000 1.828900 0.000000 
#    z 0.000000 0.000000 1.832070 
# 
# From -- ./inp_files/5563.got.cif
#   From: 2010.03.12/outbox.cif.g09.slc.cpg/sg115_3_cif.got.tgz:5563.got - 2010.04.14 02:11:21.
