data_PCOD8309135
_publ_section_title
;
Structure prediction by ZEFSAII (Michael W. Deem and Ramdas Pophale) SiO2 
 PCOD8309135
Probable space group: P -4 21 C
;
_chemical_formula_sum "Si O2"
_cell_formula_units_Z 48
_cell_length_a 8.790379
_cell_length_b 8.790379
_cell_length_c 28.097929
_cell_angle_alpha 90.000000
_cell_angle_beta 90.000000
_cell_angle_gamma 90.000000
_cell_volume 2171.148412
_symmetry_space_group_name_H-M "P -4 21 C"
_symmetry_group_IT_number 114
_symmetry_cell_setting 'tetragonal'
loop_
_space_group_symop_operation_xyz
x,y,z
y,-x,-z
-x,-y,z
-y,x,-z
1/2+x,1/2-y,1/2-z
1/2-x,1/2+y,1/2-z
1/2-y,1/2-x,1/2+z
1/2+y,1/2+x,1/2+z
loop_
_atom_site_type_symbol
_atom_site_label
_atom_site_fract_x
_atom_site_fract_y
_atom_site_fract_z
Si Si1 0.600617 0.368746 0.791676
Si Si2 0.498940 0.682316 0.368802
Si Si3 0.129599 0.609289 0.721691
Si Si4 0.164974 0.505000 0.963970
Si Si5 0.785859 0.344023 0.059681
Si Si6 0.805100 0.148362 0.392504
O O1 0.500000 0.500000 0.767165
O O2 0.751079 0.329800 0.761063
O O3 0.478020 0.237501 0.799301
O O4 0.655551 0.409994 0.845029
O O5 0.500000 0.500000 0.360736
O O6 0.538129 0.770000 0.320172
O O7 0.610442 0.725392 0.411778
O O8 0.336028 0.741737 0.383944
O O9 0.000000 0.500000 0.744809
O O10 0.242235 0.341405 0.965587
O O11 0.284975 0.607162 0.936741
O O12 0.000000 0.500000 0.938091
O O13 0.130198 0.570501 0.016547
O O14 0.731762 0.472665 0.096586
#
# Coordination Sequence:
#
# PCOD8309135 Si02
#       6
#     8   8   8   8   8   8
#     4  12  26  44  72 105 142 186 241 297 361 438
#     4  12  26  48  75 104 146 192 242 302 370 445
#     4  12  25  48  73 104 144 192 238 298 370 436
#     4  12  26  44  70 109 143 188 245 299 361 439
#     4  12  24  47  74 102 148 193 241 301 369 436
#     4  12  25  47  72 104 141 193 239 300 369 431
#
# _framework density 22.108114
#
# number of rings (size 3 to 8) (size 9 to 14) (size 15 to 20)
#    0.000    0.000    5.000    5.500    2.333    0.667 
#    0.000    0.000    0.000    0.000    0.000    0.000 
#    0.000    0.000    0.000    0.000    0.000    0.000 
#
# Total GULP energy -594919.547178 kJ/mol
# GULP energy per Si atom -12394.157233 kJ/mol
# Density = 2.205780 g / cm^3
# Si number density = 22.108114 Si / 1000 Ang^3
#
#
#
# Elastic Constant Matrix: (Units=GPa)
#
#
# Indices 1 2 3 4 5 6 
#
# 1 118.9696 35.7641 18.5590 0.0000 0.0000 0.0000
# 2 35.7641 118.9696 18.5590 0.0000 0.0000 0.0000
# 3 18.5590 18.5590 103.4775 0.0000 0.0000 0.0000
# 4 0.0000 0.0000 0.0000 4.9443 0.0000 0.0000
# 5 0.0000 0.0000 0.0000 0.0000 4.9443 0.0000
# 6 0.0000 0.0000 0.0000 0.0000 0.0000 41.4085
#
#
#
# Elastic Compliance Matrix: (Units=1/GPa)
#
#
# Indices 1 2 3 4 5 6 
#
# 1 0.009386 -0.002633 -0.001211 0.000000 0.000000 0.000000
# 2 -0.002633 0.009386 -0.001211 0.000000 0.000000 0.000000
# 3 -0.001211 -0.001211 0.010098 0.000000 0.000000 0.000000
# 4 0.000000 0.000000 0.000000 0.202254 0.000000 0.000000
# 5 0.000000 0.000000 0.000000 0.000000 0.202254 0.000000
# 6 0.000000 0.000000 0.000000 0.000000 0.000000 0.024150
#
#
# Mechanical properties :
#
#
# Convention : Reuss Voigt Hill
#
# Bulk Modulus (GPa) = 53.30470 54.13120 53.71795
# Shear Modulus (GPa) = 10.55094 28.16170 19.35632
#
# Velocity S-wave (km/s) = 2.18696 3.57293 2.96215
# Velocity P-wave (km/s) = 5.52633 6.44663 6.00414
#
# Compressibility (1/GPa) = 0.01876007
#
# Stress axis : x y z
#
# Youngs Moduli (GPa) = 106.54328 106.54328 99.02548
#
# Poissons Ratio (x) = 0.28048 0.11994
# Poissons Ratio (y) = 0.28048 0.11994
# Poissons Ratio (z) = 0.12905 0.12905
#
# Static dielectric constant tensor:
#      x y z
#    x 4.069110 0.000000 0.000000 
#    y 0.000000 4.069110 0.000000 
#    z 0.000000 0.000000 3.944360 
# 
# 
# High freq. dielectric constant tensor:
#      x y z
#    x 1.879620 0.000000 0.000000 
#    y 0.000000 1.879620 0.000000 
#    z 0.000000 0.000000 1.875430 
# 
# From -- ./inp_files/3916.got.cif
#   From: 2010.03.12/outbox.cif.g09.slc.cpg/sg114_2_cif.got.tgz:3916.got - 2010.04.14 02:08:34.
