data_PCOD8309936
_publ_section_title
;
Structure prediction by ZEFSAII (Michael W. Deem and Ramdas Pophale) SiO2 
 PCOD8309936
Probable space group: P -4 M 2
;
_chemical_formula_sum "Si O2"
_cell_formula_units_Z 48
_cell_length_a 8.940410
_cell_length_b 8.940410
_cell_length_c 30.434393
_cell_angle_alpha 90.000000
_cell_angle_beta 90.000000
_cell_angle_gamma 90.000000
_cell_volume 2432.649366
_symmetry_space_group_name_H-M "P -4 M 2"
_symmetry_group_IT_number 115
_symmetry_cell_setting 'tetragonal'
loop_
_space_group_symop_operation_xyz
x,y,z
y,-x,-z
-x,-y,z
-y,x,-z
y,x,-z
-y,-x,-z
-x,y,z
x,-y,z
loop_
_atom_site_type_symbol
_atom_site_label
_atom_site_fract_x
_atom_site_fract_y
_atom_site_fract_z
Si Si1 0.825668 0.172514 0.210229
Si Si2 0.675974 0.671267 0.870314
Si Si3 0.671058 0.175010 0.039823
Si Si4 0.825092 0.827462 0.372083
Si Si5 0.327276 0.327840 0.449421
Si Si6 0.323493 0.328747 0.291446
O O1 0.775282 0.265590 0.168237
O O2 0.740913 0.226401 0.253235
O O3 0.000000 0.198323 0.218111
O O4 0.786805 0.000000 0.201993
O O5 0.500000 0.688994 0.873697
O O6 0.722871 0.500000 0.860699
O O7 0.745621 0.727582 0.915953
O O8 0.500000 0.220035 0.029627
O O9 0.689697 0.000000 0.046805
O O10 0.773866 0.226135 0.000000
O O11 0.777049 0.779543 0.420831
O O12 0.737412 0.724899 0.337974
O O13 0.000000 0.800404 0.365901
O O14 0.783132 0.000000 0.364318
O O15 0.292186 0.292186 0.500000
O O16 0.500000 0.294507 0.438683
O O17 0.289993 0.500000 0.438729
O O18 0.500000 0.311984 0.291612
O O19 0.275122 0.500000 0.283436
#
# Coordination Sequence:
#
# PCOD8309936 Si02
#       6
#     8   8   8   8   8   8
#     4  11  24  40  59  86 119 152 187 229 279 335
#     4  10  21  38  61  87 114 148 192 237 281 334
#     4  10  21  37  58  84 114 150 191 235 285 338
#     4  11  24  39  56  83 118 152 188 232 282 336
#     4   9  19  37  60  85 113 147 190 237 282 333
#     4  11  24  41  62  87 113 145 189 236 281 334
#
# _framework density 19.731576
#
# number of rings (size 3 to 8) (size 9 to 14) (size 15 to 20)
#    0.000    1.667    0.000    4.500    0.000   13.667 
#    0.000    2.500    0.000    0.000    0.000    0.000 
#    0.000    0.000    0.000    0.000    0.000    0.000 
#
# Total GULP energy -595511.196784 kJ/mol
# GULP energy per Si atom -12406.483266 kJ/mol
# Density = 1.968667 g / cm^3
# Si number density = 19.731576 Si / 1000 Ang^3
#
#
#
# Elastic Constant Matrix: (Units=GPa)
#
#
# Indices 1 2 3 4 5 6 
#
# 1 68.6429 43.5476 37.3902 0.0000 0.0000 0.0000
# 2 43.5476 68.6435 37.3908 0.0000 0.0000 0.0000
# 3 37.3902 37.3908 113.4013 0.0000 0.0000 0.0000
# 4 0.0000 0.0000 0.0000 391.2822 0.0000 0.0000
# 5 0.0000 0.0000 0.0000 0.0000 391.2143 0.0000
# 6 0.0000 0.0000 0.0000 0.0000 0.0000 33.5200
#
#
#
# Elastic Compliance Matrix: (Units=1/GPa)
#
#
# Indices 1 2 3 4 5 6 
#
# 1 0.025636 -0.014212 -0.003767 0.000000 0.000000 0.000000
# 2 -0.014212 0.025636 -0.003767 0.000000 0.000000 0.000000
# 3 -0.003767 -0.003767 0.011302 0.000000 0.000000 0.000000
# 4 0.000000 0.000000 0.000000 0.002556 0.000000 0.000000
# 5 0.000000 0.000000 0.000000 0.000000 0.002556 0.000000
# 6 0.000000 0.000000 0.000000 0.000000 0.000000 0.029833
#
#
# Mechanical properties :
#
#
# Convention : Reuss Voigt Hill
#
# Bulk Modulus (GPa) = 52.40147 54.14943 53.27545
# Shear Modulus (GPa) = 33.92810 172.02723 102.97767
#
# Velocity S-wave (km/s) = 4.15116 9.34735 7.23205
# Velocity P-wave (km/s) = 7.04209 12.00000 9.83847
#
# Compressibility (1/GPa) = 0.01908343
#
# Stress axis : x y z
#
# Youngs Moduli (GPa) = 39.00773 39.00786 88.47864
#
# Poissons Ratio (x) = 0.55437 0.33327
# Poissons Ratio (y) = 0.55437 0.33329
# Poissons Ratio (z) = 0.14693 0.14694
#
# Static dielectric constant tensor:
#      x y z
#    x 3.595730 0.000000 0.000000 
#    y 0.000000 3.595730 0.000000 
#    z 0.000000 0.000000 3.745340 
# 
# 
# High freq. dielectric constant tensor:
#      x y z
#    x 1.774330 0.000000 0.000000 
#    y 0.000000 1.774330 0.000000 
#    z 0.000000 0.000000 1.783350 
# 
# From -- ./inp_files/6027.got.cif
#   From: 2010.03.12/outbox.cif.g09.slc.cpg/sg115_4_cif.got.tgz:6027.got - 2010.04.14 02:11:21.
