data_PCOD8309696
_publ_section_title
;
Structure prediction by ZEFSAII (Michael W. Deem and Ramdas Pophale) SiO2 
 PCOD8309696
Probable space group: P -4 M 2
;
_chemical_formula_sum "Si O2"
_cell_formula_units_Z 33
_cell_length_a 12.001156
_cell_length_b 12.001156
_cell_length_c 11.643119
_cell_angle_alpha 90.000000
_cell_angle_beta 90.000000
_cell_angle_gamma 90.000000
_cell_volume 1676.932178
_symmetry_space_group_name_H-M "P -4 M 2"
_symmetry_group_IT_number 115
_symmetry_cell_setting 'tetragonal'
loop_
_space_group_symop_operation_xyz
x,y,z
y,-x,-z
-x,-y,z
-y,x,-z
y,x,-z
-y,-x,-z
-x,y,z
x,-y,z
loop_
_atom_site_type_symbol
_atom_site_label
_atom_site_fract_x
_atom_site_fract_y
_atom_site_fract_z
Si Si1 0.245626 0.000000 0.583269
Si Si2 0.369084 0.878875 0.989414
Si Si3 0.626791 0.774544 0.215445
Si Si4 0.817369 0.630733 0.271184
Si Si5 0.000000 0.624992 0.646357
Si Si6 0.000000 0.000000 0.500000
O O1 0.295491 0.108127 0.644880
O O2 0.283779 0.000000 0.452327
O O3 0.110376 0.000000 0.581860
O O4 0.500000 0.886521 0.010563
O O5 0.343863 0.850387 0.858734
O O6 0.315111 0.000000 0.014029
O O7 0.325817 0.789833 0.084331
O O8 0.500000 0.734177 0.216372
O O9 0.691844 0.676460 0.282282
O O10 0.643657 0.892003 0.276791
O O11 0.825728 0.500000 0.303223
O O12 0.000000 0.500000 0.593812
#
# Coordination Sequence:
#
# PCOD8309696 Si02
#       6
#     4   8   8   8   4   1
#     4  12  24  43  63  84 114 148 192 249 300 356
#     4   9  16  32  56  84 114 150 197 239 281 341
#     4  10  20  35  58  87 120 155 197 245 291 348
#     4  11  22  36  59  88 119 156 195 237 293 361
#     4  10  20  37  62  87 111 153 207 246 292 355
#     4  12  28  44  64  88 114 148 192 256 316 354
#
# _framework density 19.678792000000001
#
# number of rings (size 3 to 8) (size 9 to 14) (size 15 to 20)
#    0.000    1.697    2.424    3.273    0.000    0.485 
#    0.000    0.000    0.000    4.364    0.000    3.394 
#    0.000    0.000    0.000    0.000    0.000    0.000 
#
# Total GULP energy -408981.695418 kJ/mol
# GULP energy per Si atom -12393.384710 kJ/mol
# Density = 1.963400 g / cm^3
# Si number density = 19.678792 Si / 1000 Ang^3
#
#
#
# Elastic Constant Matrix: (Units=GPa)
#
#
# Indices 1 2 3 4 5 6 
#
# 1 106.3856 47.4532 37.3004 0.0000 0.0000 0.0000
# 2 47.4532 106.3856 37.3004 0.0000 0.0000 0.0000
# 3 37.3004 37.3004 89.6174 0.0000 0.0000 0.0000
# 4 0.0000 0.0000 0.0000 39.6167 0.0000 0.0000
# 5 0.0000 0.0000 0.0000 0.0000 39.6167 0.0000
# 6 0.0000 0.0000 0.0000 0.0000 0.0000 25.5167
#
#
#
# Elastic Compliance Matrix: (Units=1/GPa)
#
#
# Indices 1 2 3 4 5 6 
#
# 1 0.012556 -0.004412 -0.003390 0.000000 0.000000 0.000000
# 2 -0.004412 0.012556 -0.003390 0.000000 0.000000 0.000000
# 3 -0.003390 -0.003390 0.013980 0.000000 0.000000 0.000000
# 4 0.000000 0.000000 0.000000 0.025242 0.000000 0.000000
# 5 0.000000 0.000000 0.000000 0.000000 0.025242 0.000000
# 6 0.000000 0.000000 0.000000 0.000000 0.000000 0.039190
#
#
# Mechanical properties :
#
#
# Convention : Reuss Voigt Hill
#
# Bulk Modulus (GPa) = 59.84593 60.72183 60.28388
# Shear Modulus (GPa) = 31.90402 32.97230 32.43816
#
# Velocity S-wave (km/s) = 4.03083 4.09776 4.06443
# Velocity P-wave (km/s) = 7.22086 7.30153 7.26131
#
# Compressibility (1/GPa) = 0.01670957
#
# Stress axis : x y z
#
# Youngs Moduli (GPa) = 79.64102 79.64102 71.52943
#
# Poissons Ratio (x) = 0.35140 0.24246
# Poissons Ratio (y) = 0.35140 0.24246
# Poissons Ratio (z) = 0.26996 0.26996
#
# Static dielectric constant tensor:
#      x y z
#    x 3.584110 0.000000 0.000000 
#    y 0.000000 3.584110 0.000000 
#    z 0.000000 0.000000 3.677900 
# 
# 
# High freq. dielectric constant tensor:
#      x y z
#    x 1.760250 0.000000 0.000000 
#    y 0.000000 1.760250 0.000000 
#    z 0.000000 0.000000 1.770830 
# 
# From -- ./inp_files/2593.got.cif
#   From: 2010.03.12/outbox.cif.g09.slc.cpg/sg115_2_cif.got.tgz:2593.got - 2010.04.14 02:11:21.
