data_PCOD8309265
_publ_section_title
;
Structure prediction by ZEFSAII (Michael W. Deem and Ramdas Pophale) SiO2 
 PCOD8309265
Probable space group: P -4 M 2
;
_chemical_formula_sum "Si O2"
_cell_formula_units_Z 48
_cell_length_a 18.199708
_cell_length_b 18.199708
_cell_length_c 8.795255
_cell_angle_alpha 90.000000
_cell_angle_beta 90.000000
_cell_angle_gamma 90.000000
_cell_volume 2913.246784
_symmetry_space_group_name_H-M "P -4 M 2"
_symmetry_group_IT_number 115
_symmetry_cell_setting 'tetragonal'
loop_
_space_group_symop_operation_xyz
x,y,z
y,-x,-z
-x,-y,z
-y,x,-z
y,x,-z
-y,-x,-z
-x,y,z
x,-y,z
loop_
_atom_site_type_symbol
_atom_site_label
_atom_site_fract_x
_atom_site_fract_y
_atom_site_fract_z
Si Si1 0.135414 0.082888 0.651990
Si Si2 0.292040 0.813942 0.935267
Si Si3 0.824612 0.724687 0.409104
Si Si4 0.416138 0.915763 0.063470
Si Si5 0.917711 0.661415 0.642810
Si Si6 0.083542 0.205290 0.867321
O O1 0.085463 0.085463 0.500000
O O2 0.214609 0.112231 0.602944
O O3 0.102140 0.126771 0.795225
O O4 0.141755 0.000000 0.709652
O O5 0.301108 0.801169 0.756691
O O6 0.266987 0.733014 0.000000
O O7 0.368375 0.850331 0.989583
O O8 0.225806 0.869529 0.982214
O O9 0.753694 0.753694 0.500000
O O10 0.860689 0.656862 0.502787
O O11 0.500000 0.902646 0.015827
O O12 0.408469 0.908893 0.246179
O O13 0.391309 0.000000 0.016858
O O14 0.897942 0.734565 0.738718
O O15 0.000000 0.665556 0.577099
O O16 0.000000 0.208293 0.919632
#
# Coordination Sequence:
#
# PCOD8309265 Si02
#       6
#     8   8   8   8   8   8
#     4  11  20  29  42  60  87 121 166 217 265 305
#     4  11  20  34  52  74  95 127 166 209 255 305
#     4  11  19  31  47  67  91 123 167 211 251 300
#     4   9  19  36  56  77 103 134 166 207 261 315
#     4   9  16  29  48  65  86 118 158 203 252 304
#     4  10  19  32  44  61  88 121 164 212 259 304
#
# _framework density 16.476462000000001
#
# number of rings (size 3 to 8) (size 9 to 14) (size 15 to 20)
#    0.000    1.833    5.000    3.500    0.000    3.833 
#    0.000    0.833    0.000    2.000    0.000    0.000 
#    0.000    0.333    0.000    0.000    0.000    3.667 
#
# Total GULP energy -594779.674468 kJ/mol
# GULP energy per Si atom -12391.243218 kJ/mol
# Density = 1.643896 g / cm^3
# Si number density = 16.476462 Si / 1000 Ang^3
#
#
#
# Elastic Constant Matrix: (Units=GPa)
#
#
# Indices 1 2 3 4 5 6 
#
# 1 66.7158 22.5789 20.1899 0.0000 0.0000 0.0000
# 2 22.5789 66.7162 20.1898 0.0000 0.0000 0.0000
# 3 20.1899 20.1898 92.5230 0.0000 0.0000 0.0000
# 4 0.0000 0.0000 0.0000 17.0757 0.0000 0.0000
# 5 0.0000 0.0000 0.0000 0.0000 17.0756 0.0000
# 6 0.0000 0.0000 0.0000 0.0000 0.0000 17.5130
#
#
#
# Elastic Compliance Matrix: (Units=1/GPa)
#
#
# Indices 1 2 3 4 5 6 
#
# 1 0.017541 -0.005116 -0.002711 0.000000 0.000000 0.000000
# 2 -0.005116 0.017541 -0.002711 0.000000 0.000000 0.000000
# 3 -0.002711 -0.002711 0.011991 0.000000 0.000000 0.000000
# 4 0.000000 0.000000 0.000000 0.058563 0.000000 0.000000
# 5 0.000000 0.000000 0.000000 0.000000 0.058563 0.000000
# 6 0.000000 0.000000 0.000000 0.000000 0.000000 0.057100
#
#
# Mechanical properties :
#
#
# Convention : Reuss Voigt Hill
#
# Bulk Modulus (GPa) = 38.46736 39.09690 38.78213
# Shear Modulus (GPa) = 19.91700 21.19928 20.55814
#
# Velocity S-wave (km/s) = 3.48057 3.59087 3.53615
# Velocity P-wave (km/s) = 6.28888 6.40101 6.34519
#
# Compressibility (1/GPa) = 0.02599606
#
# Stress axis : x y z
#
# Youngs Moduli (GPa) = 57.00983 57.01015 83.39309
#
# Poissons Ratio (x) = 0.29166 0.22610
# Poissons Ratio (y) = 0.29166 0.22610
# Poissons Ratio (z) = 0.15457 0.15457
#
# Static dielectric constant tensor:
#      x y z
#    x 2.832250 0.000000 0.000000 
#    y 0.000000 2.832240 0.000000 
#    z 0.000000 0.000000 3.205250 
# 
# 
# High freq. dielectric constant tensor:
#      x y z
#    x 1.594180 0.000000 0.000000 
#    y 0.000000 1.594180 0.000000 
#    z 0.000000 0.000000 1.640720 
# 
# From -- ./inp_files/1837.got.cif
#   From: 2010.03.12/outbox.cif.g09.slc.cpg/sg115_1_cif.got.tgz:1837.got - 2010.04.14 02:11:21.
