data_PCOD8309407
_publ_section_title
;
Structure prediction by ZEFSAII (Michael W. Deem and Ramdas Pophale) SiO2 
 PCOD8309407
Probable space group: P -4 M 2
;
_chemical_formula_sum "Si O2"
_cell_formula_units_Z 48
_cell_length_a 9.235482
_cell_length_b 9.235482
_cell_length_c 31.122649
_cell_angle_alpha 90.000000
_cell_angle_beta 90.000000
_cell_angle_gamma 90.000000
_cell_volume 2654.579200
_symmetry_space_group_name_H-M "P -4 M 2"
_symmetry_group_IT_number 115
_symmetry_cell_setting 'tetragonal'
loop_
_space_group_symop_operation_xyz
x,y,z
y,-x,-z
-x,-y,z
-y,x,-z
y,x,-z
-y,-x,-z
-x,y,z
x,-y,z
loop_
_atom_site_type_symbol
_atom_site_label
_atom_site_fract_x
_atom_site_fract_y
_atom_site_fract_z
Si Si1 0.832735 0.670893 0.112171
Si Si2 0.829744 0.667555 0.537671
Si Si3 0.341143 0.171019 0.791847
Si Si4 0.829824 0.670027 0.961563
Si Si5 0.827516 0.840073 0.286536
Si Si6 0.161361 0.172474 0.380034
O O1 0.803869 0.500000 0.106333
O O2 0.796013 0.721720 0.160789
O O3 0.726614 0.763292 0.082742
O O4 0.000000 0.704897 0.100731
O O5 0.749021 0.749021 0.500000
O O6 0.789264 0.500000 0.536031
O O7 0.773422 0.729756 0.583177
O O8 0.000000 0.694870 0.532211
O O9 0.500000 0.240071 0.788027
O O10 0.247522 0.240338 0.753409
O O11 0.350959 0.000000 0.785754
O O12 0.798636 0.500000 0.966249
O O13 0.000000 0.703130 0.962559
O O14 0.753660 0.753660 0.000000
O O15 0.786547 0.769957 0.333052
O O16 0.000000 0.846749 0.283230
O O17 0.760912 0.000000 0.282959
O O18 0.000000 0.230586 0.390874
O O19 0.157650 0.000000 0.377388
#
# Coordination Sequence:
#
# PCOD8309407 Si02
#       6
#     8   8   8   8   8   8
#     4   9  18  33  53  77 104 134 169 205 241 286
#     4  10  20  33  50  71  94 123 160 199 242 294
#     4   8  14  25  42  67  99 129 156 193 239 280
#     4  11  24  39  55  77 103 130 164 205 247 294
#     4   8  13  22  39  64  91 120 157 197 236 280
#     4   8  14  26  45  68  93 121 155 197 240 281
#
# _framework density 18.081962999999998
#
# number of rings (size 3 to 8) (size 9 to 14) (size 15 to 20)
#    0.000    3.000    0.000    3.500    0.000    5.333 
#    0.000    2.500    0.000    4.000    0.000    2.333 
#    0.000    0.000    0.000    0.000    0.000    0.000 
#
# Total GULP energy -594891.754315 kJ/mol
# GULP energy per Si atom -12393.578215 kJ/mol
# Density = 1.804081 g / cm^3
# Si number density = 18.081963 Si / 1000 Ang^3
#
#
#
# Elastic Constant Matrix: (Units=GPa)
#
#
# Indices 1 2 3 4 5 6 
#
# 1 61.3335 37.3501 57.3464 0.0000 0.0000 0.0000
# 2 37.3501 61.3335 57.3464 0.0000 0.0000 0.0000
# 3 57.3464 57.3464 170.6502 0.0000 0.0000 0.0000
# 4 0.0000 0.0000 0.0000 -2.0812 0.0000 0.0000
# 5 0.0000 0.0000 0.0000 0.0000 -2.0812 0.0000
# 6 0.0000 0.0000 0.0000 0.0000 0.0000 18.7315
#
#
#
# Elastic Compliance Matrix: (Units=1/GPa)
#
#
# Indices 1 2 3 4 5 6 
#
# 1 0.029162 -0.012534 -0.005588 0.000000 0.000000 0.000000
# 2 -0.012534 0.029162 -0.005588 0.000000 0.000000 0.000000
# 3 -0.005588 -0.005588 0.009615 0.000000 0.000000 0.000000
# 4 0.000000 0.000000 0.000000 -0.480491 0.000000 0.000000
# 5 0.000000 0.000000 0.000000 0.000000 -0.480491 0.000000
# 6 0.000000 0.000000 0.000000 0.000000 0.000000 0.053386
#
#
# Mechanical properties :
#
#
# Convention : Reuss Voigt Hill
#
# Bulk Modulus (GPa) = 48.73328 66.37809 57.55569
# Shear Modulus (GPa) = -6.36618 12.33211 2.98296
#
# Velocity S-wave (km/s) = -1.87840 2.61437 1.28580
# Velocity P-wave (km/s) = 4.72285 6.77514 5.83985
#
# Compressibility (1/GPa) = 0.02051986
#
# Stress axis : x y z
#
# Youngs Moduli (GPa) = 34.29177 34.29177 104.00064
#
# Poissons Ratio (x) = 0.42981 0.58111
# Poissons Ratio (y) = 0.42981 0.58111
# Poissons Ratio (z) = 0.19161 0.19161
#
# Static dielectric constant tensor:
#      x y z
#    x 3.167500 0.000000 0.000000 
#    y 0.000000 3.167500 0.000000 
#    z 0.000000 0.000000 3.750090 
# 
# 
# High freq. dielectric constant tensor:
#      x y z
#    x 1.668130 0.000000 0.000000 
#    y 0.000000 1.668130 0.000000 
#    z 0.000000 0.000000 1.723230 
# 
# From -- ./inp_files/5961.got.cif
#   From: 2010.03.12/outbox.cif.g09.slc.cpg/sg115_3_cif.got.tgz:5961.got - 2010.04.14 02:11:21.
