data_PCOD8309126
_publ_section_title
;
Structure prediction by ZEFSAII (Michael W. Deem and Ramdas Pophale) SiO2 
 PCOD8309126
Probable space group: P -4 21 C
;
_chemical_formula_sum "Si O2"
_cell_formula_units_Z 32
_cell_length_a 9.996089
_cell_length_b 9.996089
_cell_length_c 13.250859
_cell_angle_alpha 90.000000
_cell_angle_beta 90.000000
_cell_angle_gamma 90.000000
_cell_volume 1324.049620
_symmetry_space_group_name_H-M "P -4 21 C"
_symmetry_group_IT_number 114
_symmetry_cell_setting 'tetragonal'
loop_
_space_group_symop_operation_xyz
x,y,z
y,-x,-z
-x,-y,z
-y,x,-z
1/2+x,1/2-y,1/2-z
1/2-x,1/2+y,1/2-z
1/2-y,1/2-x,1/2+z
1/2+y,1/2+x,1/2+z
loop_
_atom_site_type_symbol
_atom_site_label
_atom_site_fract_x
_atom_site_fract_y
_atom_site_fract_z
Si Si1 0.353454 0.833294 0.778074
Si Si2 0.205567 0.536099 0.045973
Si Si3 0.500000 0.000000 0.626458
Si Si4 0.000000 0.000000 0.500000
Si Si5 0.500000 0.500000 0.500000
Si Si6 0.416824 0.284333 0.343779
O O1 0.401270 0.822903 0.893250
O O2 0.471275 0.875166 0.700422
O O3 0.307278 0.687711 0.745457
O O4 0.233434 0.941876 0.785028
O O5 0.126406 0.652828 0.099150
O O6 0.137139 0.522901 0.936111
O O7 0.366727 0.562509 0.052279
O O8 0.419802 0.400225 0.427191
#
# Coordination Sequence:
#
# PCOD8309126 Si02
#       6
#     8   8   4   2   2   8
#     4  12  28  48  80 112 159 212 268 333 413 489
#     4  12  27  52  75 117 156 209 265 330 403 484
#     4  12  22  52  78 106 156 216 266 332 408 482
#     4  12  32  42  84 120 164 210 264 338 408 496
#     4  12  32  50  88 120 158 216 276 346 416 508
#     4  12  28  51  79 118 159 211 269 339 408 491
#
# _framework density 24.168277
#
# number of rings (size 3 to 8) (size 9 to 14) (size 15 to 20)
#    0.000    0.000    5.000    3.000   14.000    0.000 
#    0.000    0.000    0.000    0.000    0.000    0.000 
#    0.000    0.000    0.000    0.000    0.000    0.000 
#
# Total GULP energy -396637.631778 kJ/mol
# GULP energy per Si atom -12394.925993 kJ/mol
# Density = 2.411327 g / cm^3
# Si number density = 24.168277 Si / 1000 Ang^3
#
#
#
# Elastic Constant Matrix: (Units=GPa)
#
#
# Indices 1 2 3 4 5 6 
#
# 1 114.4502 18.0595 25.3313 0.0000 0.0000 0.0000
# 2 18.0595 114.4502 25.3313 0.0000 0.0000 0.0000
# 3 25.3313 25.3313 101.7586 0.0000 0.0000 0.0000
# 4 0.0000 0.0000 0.0000 32.5394 0.0000 0.0000
# 5 0.0000 0.0000 0.0000 0.0000 32.5394 0.0000
# 6 0.0000 0.0000 0.0000 0.0000 0.0000 28.5918
#
#
#
# Elastic Compliance Matrix: (Units=1/GPa)
#
#
# Indices 1 2 3 4 5 6 
#
# 1 0.009357 -0.001017 -0.002076 0.000000 0.000000 0.000000
# 2 -0.001017 0.009357 -0.002076 0.000000 0.000000 0.000000
# 3 -0.002076 -0.002076 0.010861 0.000000 0.000000 0.000000
# 4 0.000000 0.000000 0.000000 0.030732 0.000000 0.000000
# 5 0.000000 0.000000 0.000000 0.000000 0.030732 0.000000
# 6 0.000000 0.000000 0.000000 0.000000 0.000000 0.034975
#
#
# Mechanical properties :
#
#
# Convention : Reuss Voigt Hill
#
# Bulk Modulus (GPa) = 51.98366 52.01148 51.99757
# Shear Modulus (GPa) = 35.02234 36.19656 35.60945
#
# Velocity S-wave (km/s) = 3.81084 3.87420 3.84265
# Velocity P-wave (km/s) = 6.39680 6.44824 6.42257
#
# Compressibility (1/GPa) = 0.01923681
#
# Stress axis : x y z
#
# Youngs Moduli (GPa) = 106.86689 106.86689 92.07360
#
# Poissons Ratio (x) = 0.10868 0.19117
# Poissons Ratio (y) = 0.10868 0.19117
# Poissons Ratio (z) = 0.22188 0.22188
#
# Static dielectric constant tensor:
#      x y z
#    x 4.462360 0.000000 0.000000 
#    y 0.000000 4.462360 0.000000 
#    z 0.000000 0.000000 4.566920 
# 
# 
# High freq. dielectric constant tensor:
#      x y z
#    x 1.965730 0.000000 0.000000 
#    y 0.000000 1.965730 0.000000 
#    z 0.000000 0.000000 1.965050 
# 
# From -- ./inp_files/1460.got.cif
#   From: 2010.03.12/outbox.cif.g09.slc.cpg/sg114_1_cif.got.tgz:1460.got - 2010.04.14 02:08:34.
