data_PCOD8309730
_publ_section_title
;
Structure prediction by ZEFSAII (Michael W. Deem and Ramdas Pophale) SiO2 
 PCOD8309730
Probable space group: P -4 M 2
;
_chemical_formula_sum "Si O2"
_cell_formula_units_Z 48
_cell_length_a 14.275488
_cell_length_b 14.275488
_cell_length_c 12.399193
_cell_angle_alpha 90.000000
_cell_angle_beta 90.000000
_cell_angle_gamma 90.000000
_cell_volume 2526.826057
_symmetry_space_group_name_H-M "P -4 M 2"
_symmetry_group_IT_number 115
_symmetry_cell_setting 'tetragonal'
loop_
_space_group_symop_operation_xyz
x,y,z
y,-x,-z
-x,-y,z
-y,x,-z
y,x,-z
-y,-x,-z
-x,y,z
x,-y,z
loop_
_atom_site_type_symbol
_atom_site_label
_atom_site_fract_x
_atom_site_fract_y
_atom_site_fract_z
Si Si1 0.703050 0.208463 0.158245
Si Si2 0.605905 0.395599 0.127772
Si Si3 0.606085 0.105983 0.971542
Si Si4 0.891708 0.255433 0.467906
Si Si5 0.604135 0.889138 0.352631
Si Si6 0.895343 0.734441 0.220472
O O1 0.675073 0.317341 0.176953
O O2 0.650213 0.144147 0.242659
O O3 0.815095 0.196068 0.174609
O O4 0.673853 0.173967 0.039265
O O5 0.500000 0.375603 0.167567
O O6 0.637448 0.500000 0.165728
O O7 0.609834 0.390167 0.000000
O O8 0.500000 0.143872 0.979430
O O9 0.637870 0.109032 0.846952
O O10 0.612395 0.000000 0.016443
O O11 0.839242 0.160758 0.500000
O O12 0.853417 0.338592 0.543577
O O13 0.873864 0.287094 0.345167
O O14 0.000000 0.234788 0.490221
O O15 0.500000 0.847081 0.361522
O O16 0.600972 0.000000 0.349684
O O17 0.000000 0.779672 0.207821
#
# Coordination Sequence:
#
# PCOD8309730 Si02
#       6
#     8   8   8   8   8   8
#     4  12  20  33  58  80 115 153 190 237 289 348
#     4   9  18  31  47  73 109 147 189 230 269 327
#     4  10  21  36  56  86 119 150 188 234 288 349
#     4  10  20  39  61  83 114 149 193 246 296 349
#     4  10  21  36  58  87 113 143 186 239 298 351
#     4  10  22  37  55  80 114 153 195 242 290 343
#
# _framework density 18.996162999999999
#
# number of rings (size 3 to 8) (size 9 to 14) (size 15 to 20)
#    0.000    1.833    1.667    4.000    0.000    4.167 
#    0.000    3.333    0.000    2.000    0.000    7.000 
#    0.000    0.000    0.000    0.000    0.000    0.000 
#
# Total GULP energy -595117.462144 kJ/mol
# GULP energy per Si atom -12398.280461 kJ/mol
# Density = 1.895293 g / cm^3
# Si number density = 18.996163 Si / 1000 Ang^3
#
#
#
# Elastic Constant Matrix: (Units=GPa)
#
#
# Indices 1 2 3 4 5 6 
#
# 1 79.6295 35.3004 27.3892 0.0000 0.0000 0.0000
# 2 35.3004 79.6358 27.3908 0.0000 0.0000 0.0000
# 3 27.3892 27.3908 98.5730 0.0000 0.0000 0.0000
# 4 0.0000 0.0000 0.0000 25.0928 0.0000 0.0000
# 5 0.0000 0.0000 0.0000 0.0000 25.0922 0.0000
# 6 0.0000 0.0000 0.0000 0.0000 0.0000 23.6831
#
#
#
# Elastic Compliance Matrix: (Units=1/GPa)
#
#
# Indices 1 2 3 4 5 6 
#
# 1 0.016294 -0.006264 -0.002787 0.000000 0.000000 0.000000
# 2 -0.006264 0.016292 -0.002787 0.000000 0.000000 0.000000
# 3 -0.002787 -0.002787 0.011693 0.000000 0.000000 0.000000
# 4 0.000000 0.000000 0.000000 0.039852 0.000000 0.000000
# 5 0.000000 0.000000 0.000000 0.000000 0.039853 0.000000
# 6 0.000000 0.000000 0.000000 0.000000 0.000000 0.042224
#
#
# Mechanical properties :
#
#
# Convention : Reuss Voigt Hill
#
# Bulk Modulus (GPa) = 48.53307 48.66656 48.59982
# Shear Modulus (GPa) = 25.41277 25.95749 25.68513
#
# Velocity S-wave (km/s) = 3.66154 3.70058 3.68111
# Velocity P-wave (km/s) = 6.59395 6.62826 6.61113
#
# Compressibility (1/GPa) = 0.02060451
#
# Stress axis : x y z
#
# Youngs Moduli (GPa) = 61.37397 61.37852 85.51819
#
# Poissons Ratio (x) = 0.38448 0.23831
# Poissons Ratio (y) = 0.38445 0.23831
# Poissons Ratio (z) = 0.17103 0.17104
#
# Static dielectric constant tensor:
#      x y z
#    x 3.632790 0.000000 0.000000 
#    y 0.000000 3.632800 0.000000 
#    z 0.000000 0.000000 3.429120 
# 
# 
# High freq. dielectric constant tensor:
#      x y z
#    x 1.736380 0.000000 0.000000 
#    y 0.000000 1.736380 0.000000 
#    z 0.000000 0.000000 1.728660 
# 
# From -- ./inp_files/2913.got.cif
#   From: 2010.03.12/outbox.cif.g09.slc.cpg/sg115_2_cif.got.tgz:2913.got - 2010.04.14 02:11:21.
