data_PCOD8309322
_publ_section_title
;
Structure prediction by ZEFSAII (Michael W. Deem and Ramdas Pophale) SiO2 
 PCOD8309322
Probable space group: P -4 M 2
;
_chemical_formula_sum "Si O2"
_cell_formula_units_Z 40
_cell_length_a 15.113966
_cell_length_b 15.113966
_cell_length_c 8.324104
_cell_angle_alpha 90.000000
_cell_angle_beta 90.000000
_cell_angle_gamma 90.000000
_cell_volume 1901.491461
_symmetry_space_group_name_H-M "P -4 M 2"
_symmetry_group_IT_number 115
_symmetry_cell_setting 'tetragonal'
loop_
_space_group_symop_operation_xyz
x,y,z
y,-x,-z
-x,-y,z
-y,x,-z
y,x,-z
-y,-x,-z
-x,y,z
x,-y,z
loop_
_atom_site_type_symbol
_atom_site_label
_atom_site_fract_x
_atom_site_fract_y
_atom_site_fract_z
Si Si1 0.761804 0.647685 0.607909
Si Si2 0.896887 0.250620 0.810581
Si Si3 0.231731 0.096881 0.818044
Si Si4 0.354451 0.599518 0.178780
Si Si5 0.593936 0.833680 0.702907
O O1 0.732702 0.732702 0.500000
O O2 0.842675 0.670389 0.727442
O O3 0.676882 0.607325 0.704494
O O4 0.798108 0.578099 0.478799
O O5 0.847242 0.160164 0.761015
O O6 0.000000 0.249038 0.755551
O O7 0.887860 0.263242 0.000214
O O8 0.321192 0.103138 0.712097
O O9 0.191288 0.000000 0.795018
O O10 0.380162 0.500000 0.239572
O O11 0.248473 0.611581 0.176776
O O12 0.390266 0.609735 0.000000
O O13 0.500000 0.880297 0.749929
#
# Coordination Sequence:
#
# PCOD8309322 Si02
#       5
#     8   8   8   8   8
#     4  10  19  36  58  83 118 156 194 241 291 352
#     4  10  20  36  60  86 114 151 193 240 299 361
#     4  10  20  36  60  86 116 150 191 247 299 356
#     4  10  20  35  58  84 114 153 196 240 289 345
#     4  10  21  37  58  83 113 158 201 238 293 349
#
# _framework density 21.036117000000001
#
# number of rings (size 3 to 8) (size 9 to 14) (size 15 to 20)
#    0.000    2.000    4.000    1.200    0.000    2.600 
#    0.000    6.000    0.000    2.400    0.000    0.000 
#    0.000    0.000    0.000    0.000    0.000    0.000 
#
# Total GULP energy -495546.417237 kJ/mol
# GULP energy per Si atom -12388.660431 kJ/mol
# Density = 2.098824 g / cm^3
# Si number density = 21.036117 Si / 1000 Ang^3
#
#
#
# Elastic Constant Matrix: (Units=GPa)
#
#
# Indices 1 2 3 4 5 6 
#
# 1 109.9969 30.7899 30.4156 0.0000 0.0000 0.0000
# 2 30.7899 109.9972 30.4162 0.0000 0.0000 0.0000
# 3 30.4156 30.4162 70.2276 0.0000 0.0000 0.0000
# 4 0.0000 0.0000 0.0000 18.3937 0.0000 0.0000
# 5 0.0000 0.0000 0.0000 0.0000 18.3939 0.0000
# 6 0.0000 0.0000 0.0000 0.0000 0.0000 9.2972
#
#
#
# Elastic Compliance Matrix: (Units=1/GPa)
#
#
# Indices 1 2 3 4 5 6 
#
# 1 0.010682 -0.001943 -0.003784 0.000000 0.000000 0.000000
# 2 -0.001943 0.010682 -0.003785 0.000000 0.000000 0.000000
# 3 -0.003784 -0.003785 0.017518 0.000000 0.000000 0.000000
# 4 0.000000 0.000000 0.000000 0.054366 0.000000 0.000000
# 5 0.000000 0.000000 0.000000 0.000000 0.054366 0.000000
# 6 0.000000 0.000000 0.000000 0.000000 0.000000 0.107559
#
#
# Mechanical properties :
#
#
# Convention : Reuss Voigt Hill
#
# Bulk Modulus (GPa) = 50.36317 52.60727 51.48522
# Shear Modulus (GPa) = 17.80523 22.45695 20.13109
#
# Velocity S-wave (km/s) = 2.91247 3.27087 3.09686
# Velocity P-wave (km/s) = 5.94165 6.27114 6.10862
#
# Compressibility (1/GPa) = 0.01985578
#
# Stress axis : x y z
#
# Youngs Moduli (GPa) = 93.61863 93.61837 57.08537
#
# Poissons Ratio (x) = 0.18195 0.21604
# Poissons Ratio (y) = 0.18195 0.21605
# Poissons Ratio (z) = 0.35430 0.35431
#
# Static dielectric constant tensor:
#      x y z
#    x 3.705590 0.000000 0.000000 
#    y 0.000000 3.705590 0.000000 
#    z 0.000000 0.000000 3.824410 
# 
# 
# High freq. dielectric constant tensor:
#      x y z
#    x 1.809980 0.000000 0.000000 
#    y 0.000000 1.809980 0.000000 
#    z 0.000000 0.000000 1.818080 
# 
# From -- ./inp_files/1625.got.cif
#   From: 2010.03.12/outbox.cif.g09.slc.cpg/sg115_1_cif.got.tgz:1625.got - 2010.04.14 02:11:21.
