data_PCOD8309960
_publ_section_title
;
Structure prediction by ZEFSAII (Michael W. Deem and Ramdas Pophale) SiO2 
 PCOD8309960
Probable space group: P -4 M 2
;
_chemical_formula_sum "Si O2"
_cell_formula_units_Z 17
_cell_length_a 7.818080
_cell_length_b 7.818080
_cell_length_c 13.206046
_cell_angle_alpha 90.000000
_cell_angle_beta 90.000000
_cell_angle_gamma 90.000000
_cell_volume 807.184894
_symmetry_space_group_name_H-M "P -4 M 2"
_symmetry_group_IT_number 115
_symmetry_cell_setting 'tetragonal'
loop_
_space_group_symop_operation_xyz
x,y,z
y,-x,-z
-x,-y,z
-y,x,-z
y,x,-z
-y,-x,-z
-x,y,z
x,-y,z
loop_
_atom_site_type_symbol
_atom_site_label
_atom_site_fract_x
_atom_site_fract_y
_atom_site_fract_z
Si Si1 0.806503 0.694629 0.783319
Si Si2 0.000000 0.000000 0.500000
Si Si3 0.304868 0.695133 0.000000
Si Si4 0.000000 0.311870 0.348317
O O1 0.734391 0.500000 0.769982
O O2 0.804782 0.746871 0.901839
O O3 0.698362 0.829169 0.719319
O O4 0.000000 0.704945 0.744013
O O5 0.000000 0.829123 0.434562
O O6 0.500000 0.728388 0.968940
O O7 0.000000 0.500000 0.399023
#
# Coordination Sequence:
#
# PCOD8309960 Si02
#       4
#     8   1   4   4
#     4  10  21  39  64  97 137 176 216 260 308 376
#     4  12  28  52  64 102 124 152 216 276 340 398
#     4   9  18  32  53  90 138 180 219 255 296 366
#     4  12  26  46  73  95 126 167 209 270 333 388
#
# _framework density 21.060849999999999
#
# number of rings (size 3 to 8) (size 9 to 14) (size 15 to 20)
#    0.000    1.647    2.353    1.412    3.294    4.706 
#    0.000    0.000    0.000    0.000    0.000    0.000 
#    0.000    0.000    0.000    0.000    0.000    0.000 
#
# Total GULP energy -210780.913312 kJ/mol
# GULP energy per Si atom -12398.877254 kJ/mol
# Density = 2.101291 g / cm^3
# Si number density = 21.060850 Si / 1000 Ang^3
#
#
#
# Elastic Constant Matrix: (Units=GPa)
#
#
# Indices 1 2 3 4 5 6 
#
# 1 124.1968 44.8613 55.4750 0.0000 0.0000 0.0000
# 2 44.8613 124.1962 55.4747 0.0000 0.0000 0.0000
# 3 55.4750 55.4747 101.3421 0.0000 0.0000 0.0000
# 4 0.0000 0.0000 0.0000 0.1893 0.0000 0.0000
# 5 0.0000 0.0000 0.0000 0.0000 0.1869 0.0000
# 6 0.0000 0.0000 0.0000 0.0000 0.0000 21.0822
#
#
#
# Elastic Compliance Matrix: (Units=1/GPa)
#
#
# Indices 1 2 3 4 5 6 
#
# 1 0.010918 -0.001687 -0.005053 0.000000 0.000000 0.000000
# 2 -0.001687 0.010918 -0.005053 0.000000 0.000000 0.000000
# 3 -0.005053 -0.005053 0.015400 0.000000 0.000000 0.000000
# 4 0.000000 0.000000 0.000000 5.283680 0.000000 0.000000
# 5 0.000000 0.000000 0.000000 0.000000 5.350053 0.000000
# 6 0.000000 0.000000 0.000000 0.000000 0.000000 0.047433
#
#
# Mechanical properties :
#
#
# Convention : Reuss Voigt Hill
#
# Bulk Modulus (GPa) = 73.26190 73.48411 73.37300
# Shear Modulus (GPa) = 0.46527 17.21994 8.84260
#
# Velocity S-wave (km/s) = 0.47053 2.86252 2.05127
# Velocity P-wave (km/s) = 5.92929 6.77440 6.36588
#
# Compressibility (1/GPa) = 0.01364966
#
# Stress axis : x y z
#
# Youngs Moduli (GPa) = 91.59058 91.59029 64.93489
#
# Poissons Ratio (x) = 0.15447 0.32814
# Poissons Ratio (y) = 0.15448 0.32814
# Poissons Ratio (z) = 0.46284 0.46284
#
# Static dielectric constant tensor:
#      x y z
#    x 3.844260 0.000000 0.000000 
#    y 0.000000 3.844280 0.000000 
#    z 0.000000 0.000000 3.605040 
# 
# 
# High freq. dielectric constant tensor:
#      x y z
#    x 1.828410 0.000000 0.000000 
#    y 0.000000 1.828410 0.000000 
#    z 0.000000 0.000000 1.802650 
# 
# From -- ./inp_files/2230.got.cif
#   From: 2010.03.12/outbox.cif.g09.slc.cpg/sg115_2_cif.got.tgz:2230.got - 2010.04.14 02:11:21.
