data_PCOD8309282
_publ_section_title
;
Structure prediction by ZEFSAII (Michael W. Deem and Ramdas Pophale) SiO2 
 PCOD8309282
Probable space group: P -4 M 2
;
_chemical_formula_sum "Si O2"
_cell_formula_units_Z 40
_cell_length_a 8.051494
_cell_length_b 8.051494
_cell_length_c 29.212380
_cell_angle_alpha 90.000000
_cell_angle_beta 90.000000
_cell_angle_gamma 90.000000
_cell_volume 1893.737977
_symmetry_space_group_name_H-M "P -4 M 2"
_symmetry_group_IT_number 115
_symmetry_cell_setting 'tetragonal'
loop_
_space_group_symop_operation_xyz
x,y,z
y,-x,-z
-x,-y,z
-y,x,-z
y,x,-z
-y,-x,-z
-x,y,z
x,-y,z
loop_
_atom_site_type_symbol
_atom_site_label
_atom_site_fract_x
_atom_site_fract_y
_atom_site_fract_z
Si Si1 0.188684 0.814450 0.860298
Si Si2 0.695307 0.315642 0.447804
Si Si3 0.306980 0.318148 0.048423
Si Si4 0.315825 0.802346 0.766274
Si Si5 0.305407 0.000000 0.393985
Si Si6 0.197764 0.000000 0.290504
O O1 0.201642 0.717879 0.907917
O O2 0.292892 0.734617 0.818323
O O3 0.000000 0.812238 0.843324
O O4 0.251416 0.000000 0.870103
O O5 0.734150 0.265851 0.500000
O O6 0.500000 0.327940 0.440084
O O7 0.771482 0.500000 0.436301
O O8 0.772216 0.169105 0.416032
O O9 0.500000 0.337214 0.039269
O O10 0.228034 0.500000 0.058974
O O11 0.239107 0.239107 0.000000
O O12 0.500000 0.746709 0.748713
O O13 0.168019 0.733723 0.734006
O O14 0.301450 0.000000 0.767762
O O15 0.500000 0.000000 0.404322
O O16 0.270843 0.000000 0.340720
O O17 0.000000 0.000000 0.291961
#
# Coordination Sequence:
#
# PCOD8309282 Si02
#       6
#     8   8   8   8   4   4
#     4  10  19  32  52  78 102 127 170 224 270 321
#     4   8  15  31  54  77 105 144 185 223 269 327
#     4   9  19  35  51  69  99 137 172 209 260 324
#     4   9  17  32  55  76  99 138 179 220 274 330
#     4  10  20  34  54  80 110 146 182 226 280 327
#     4  10  20  36  52  74 110 138 176 226 272 323
#
# _framework density 21.122244999999999
#
# number of rings (size 3 to 8) (size 9 to 14) (size 15 to 20)
#    0.000    2.800    1.000    1.800    0.000    3.200 
#    1.800    4.000    0.000    1.200    0.000    0.000 
#    0.000    0.000    0.000    0.000    0.000    0.000 
#
# Total GULP energy -495560.967192 kJ/mol
# GULP energy per Si atom -12389.024180 kJ/mol
# Density = 2.107417 g / cm^3
# Si number density = 21.122245 Si / 1000 Ang^3
#
#
#
# Elastic Constant Matrix: (Units=GPa)
#
#
# Indices 1 2 3 4 5 6 
#
# 1 80.2961 18.8518 48.1499 0.0000 0.0000 0.0000
# 2 18.8518 80.2963 48.1499 0.0000 0.0000 0.0000
# 3 48.1499 48.1499 159.2787 0.0000 0.0000 0.0000
# 4 0.0000 0.0000 0.0000 30.0512 0.0000 0.0000
# 5 0.0000 0.0000 0.0000 0.0000 30.0512 0.0000
# 6 0.0000 0.0000 0.0000 0.0000 0.0000 11.0379
#
#
#
# Elastic Compliance Matrix: (Units=1/GPa)
#
#
# Indices 1 2 3 4 5 6 
#
# 1 0.015277 -0.000998 -0.004316 0.000000 0.000000 0.000000
# 2 -0.000998 0.015277 -0.004316 0.000000 0.000000 0.000000
# 3 -0.004316 -0.004316 0.008888 0.000000 0.000000 0.000000
# 4 0.000000 0.000000 0.000000 0.033277 0.000000 0.000000
# 5 0.000000 0.000000 0.000000 0.000000 0.033277 0.000000
# 6 0.000000 0.000000 0.000000 0.000000 0.000000 0.090597
#
#
# Mechanical properties :
#
#
# Convention : Reuss Voigt Hill
#
# Bulk Modulus (GPa) = 49.55598 61.13048 55.34323
# Shear Modulus (GPa) = 22.46389 27.87601 25.16995
#
# Velocity S-wave (km/s) = 3.26470 3.63677 3.45575
# Velocity P-wave (km/s) = 6.14194 6.82927 6.49471
#
# Compressibility (1/GPa) = 0.02017920
#
# Stress axis : x y z
#
# Youngs Moduli (GPa) = 65.45969 65.45982 112.51205
#
# Poissons Ratio (x) = 0.06535 0.48564
# Poissons Ratio (y) = 0.06535 0.48564
# Poissons Ratio (z) = 0.28254 0.28254
#
# Static dielectric constant tensor:
#      x y z
#    x 3.745730 0.000000 0.000000 
#    y 0.000000 3.745730 0.000000 
#    z 0.000000 0.000000 3.779300 
# 
# 
# High freq. dielectric constant tensor:
#      x y z
#    x 1.803080 0.000000 0.000000 
#    y 0.000000 1.803080 0.000000 
#    z 0.000000 0.000000 1.827960 
# 
# From -- ./inp_files/5515.got.cif
#   From: 2010.03.12/outbox.cif.g09.slc.cpg/sg115_3_cif.got.tgz:5515.got - 2010.04.14 02:11:21.
