data_PCOD8309581
_publ_section_title
;
Structure prediction by ZEFSAII (Michael W. Deem and Ramdas Pophale) SiO2 
 PCOD8309581
Probable space group: P -4 M 2
;
_chemical_formula_sum "Si O2"
_cell_formula_units_Z 48
_cell_length_a 9.083812
_cell_length_b 9.083812
_cell_length_c 30.793687
_cell_angle_alpha 90.000000
_cell_angle_beta 90.000000
_cell_angle_gamma 90.000000
_cell_volume 2540.960805
_symmetry_space_group_name_H-M "P -4 M 2"
_symmetry_group_IT_number 115
_symmetry_cell_setting 'tetragonal'
loop_
_space_group_symop_operation_xyz
x,y,z
y,-x,-z
-x,-y,z
-y,x,-z
y,x,-z
-y,-x,-z
-x,y,z
x,-y,z
loop_
_atom_site_type_symbol
_atom_site_label
_atom_site_fract_x
_atom_site_fract_y
_atom_site_fract_z
Si Si1 0.669578 0.173458 0.210166
Si Si2 0.670366 0.826938 0.539019
Si Si3 0.171844 0.329036 0.133752
Si Si4 0.665947 0.325137 0.374619
Si Si5 0.161996 0.673474 0.036336
Si Si6 0.672564 0.171373 0.711049
O O1 0.500000 0.219582 0.216097
O O2 0.726964 0.230368 0.164143
O O3 0.765765 0.244767 0.247707
O O4 0.690153 0.000000 0.211962
O O5 0.768189 0.768189 0.500000
O O6 0.500000 0.786270 0.530393
O O7 0.730390 0.751238 0.582808
O O8 0.692235 0.000000 0.544093
O O9 0.208573 0.500000 0.141774
O O10 0.212448 0.280289 0.084672
O O11 0.000000 0.299824 0.143319
O O12 0.500000 0.262558 0.375358
O O13 0.666434 0.500000 0.373887
O O14 0.748014 0.265786 0.331873
O O15 0.155120 0.500000 0.034361
O O16 0.000000 0.739026 0.026778
O O17 0.273288 0.726713 0.000000
O O18 0.500000 0.200194 0.717413
O O19 0.707720 0.000000 0.706211
#
# Coordination Sequence:
#
# PCOD8309581 Si02
#       6
#     8   8   8   8   8   8
#     4  11  24  38  52  76 109 141 175 218 266 314
#     4  10  20  34  53  78 108 141 178 220 264 311
#     4   9  19  37  58  78 102 136 178 220 262 311
#     4   9  17  31  54  82 109 138 174 217 264 313
#     4   9  19  35  54  78 108 139 173 215 261 311
#     4  10  20  35  57  83 109 139 176 217 262 315
#
# _framework density 18.89049
#
# number of rings (size 3 to 8) (size 9 to 14) (size 15 to 20)
#    0.000    2.333    0.000    3.500    0.000    9.333 
#    0.000    5.833    0.000    5.000    0.000    0.000 
#    0.000    0.000    0.000    0.000    0.000    0.000 
#
# Total GULP energy -595268.056420 kJ/mol
# GULP energy per Si atom -12401.417842 kJ/mol
# Density = 1.884749 g / cm^3
# Si number density = 18.890490 Si / 1000 Ang^3
#
#
#
# Elastic Constant Matrix: (Units=GPa)
#
#
# Indices 1 2 3 4 5 6 
#
# 1 73.3986 43.3347 54.2548 0.0000 0.0000 0.0000
# 2 43.3347 73.4000 54.2554 0.0000 0.0000 0.0000
# 3 54.2548 54.2554 150.7319 0.0000 0.0000 0.0000
# 4 0.0000 0.0000 0.0000 -28.2357 0.0000 0.0000
# 5 0.0000 0.0000 0.0000 0.0000 -28.2253 0.0000
# 6 0.0000 0.0000 0.0000 0.0000 0.0000 25.6138
#
#
#
# Elastic Compliance Matrix: (Units=1/GPa)
#
#
# Indices 1 2 3 4 5 6 
#
# 1 0.023068 -0.010194 -0.004634 0.000000 0.000000 0.000000
# 2 -0.010194 0.023068 -0.004634 0.000000 0.000000 0.000000
# 3 -0.004634 -0.004634 0.009970 0.000000 0.000000 0.000000
# 4 0.000000 0.000000 0.000000 -0.035416 0.000000 0.000000
# 5 0.000000 0.000000 0.000000 0.000000 -0.035429 0.000000
# 6 0.000000 0.000000 0.000000 0.000000 0.000000 0.039042
#
#
# Mechanical properties :
#
#
# Convention : Reuss Voigt Hill
#
# Bulk Modulus (GPa) = 58.19894 66.80228 62.50061
# Shear Modulus (GPa) = 72.51350 3.54295 38.02822
#
# Velocity S-wave (km/s) = 6.20238 1.37098 4.49161
# Velocity P-wave (km/s) = 9.06467 6.16002 7.74965
#
# Compressibility (1/GPa) = 0.01718244
#
# Stress axis : x y z
#
# Youngs Moduli (GPa) = 43.35008 43.35085 100.29908
#
# Poissons Ratio (x) = 0.44191 0.46478
# Poissons Ratio (y) = 0.44191 0.46477
# Poissons Ratio (z) = 0.20088 0.20088
#
# Static dielectric constant tensor:
#      x y z
#    x 3.485840 0.000000 0.000000 
#    y 0.000000 3.485870 0.000000 
#    z 0.000000 0.000000 3.659040 
# 
# 
# High freq. dielectric constant tensor:
#      x y z
#    x 1.723890 0.000000 0.000000 
#    y 0.000000 1.723890 0.000000 
#    z 0.000000 0.000000 1.751030 
# 
# From -- ./inp_files/5969.got.cif
#   From: 2010.03.12/outbox.cif.g09.slc.cpg/sg115_3_cif.got.tgz:5969.got - 2010.04.14 02:11:21.
