data_PCOD8309349
_publ_section_title
;
Structure prediction by ZEFSAII (Michael W. Deem and Ramdas Pophale) SiO2 
 PCOD8309349
Probable space group: P -4 M 2
;
_chemical_formula_sum "Si O2"
_cell_formula_units_Z 48
_cell_length_a 9.318103
_cell_length_b 9.318103
_cell_length_c 30.865988
_cell_angle_alpha 90.000000
_cell_angle_beta 90.000000
_cell_angle_gamma 90.000000
_cell_volume 2680.002483
_symmetry_space_group_name_H-M "P -4 M 2"
_symmetry_group_IT_number 115
_symmetry_cell_setting 'tetragonal'
loop_
_space_group_symop_operation_xyz
x,y,z
y,-x,-z
-x,-y,z
-y,x,-z
y,x,-z
-y,-x,-z
-x,y,z
x,-y,z
loop_
_atom_site_type_symbol
_atom_site_label
_atom_site_fract_x
_atom_site_fract_y
_atom_site_fract_z
Si Si1 0.839851 0.170863 0.047633
Si Si2 0.662003 0.828709 0.128520
Si Si3 0.836046 0.665783 0.464598
Si Si4 0.164191 0.331006 0.366867
Si Si5 0.666508 0.168469 0.294896
Si Si6 0.837453 0.170747 0.210884
O O1 0.733023 0.230836 0.084302
O O2 0.000000 0.232161 0.056210
O O3 0.846533 0.000000 0.049249
O O4 0.782541 0.217460 0.000000
O O5 0.500000 0.769494 0.131869
O O6 0.754237 0.769529 0.168858
O O7 0.661571 0.000000 0.128736
O O8 0.743330 0.743330 0.500000
O O9 0.799398 0.500000 0.467875
O O10 0.801652 0.718536 0.415914
O O11 0.000000 0.697130 0.475743
O O12 0.188060 0.500000 0.361500
O O13 0.274885 0.247652 0.336948
O O14 0.000000 0.291109 0.354854
O O15 0.500000 0.206126 0.288068
O O16 0.753859 0.225304 0.253299
O O17 0.689669 0.000000 0.301511
O O18 0.000000 0.231101 0.211265
O O19 0.839178 0.000000 0.209656
#
# Coordination Sequence:
#
# PCOD8309349 Si02
#       6
#     8   8   8   8   8   8
#     4   8  13  21  33  50  74 105 140 175 212 261
#     4   9  15  22  34  55  84 114 143 181 230 277
#     4   9  19  35  53  74 100 128 160 199 241 286
#     4   9  19  36  54  71  95 129 166 201 238 284
#     4  10  20  32  47  71 101 129 160 201 246 290
#     4   9  16  26  41  61  88 123 158 191 233 285
#
# _framework density 17.910429000000001
#
# number of rings (size 3 to 8) (size 9 to 14) (size 15 to 20)
#    0.000    3.000    0.000    3.000    0.000    7.000 
#    0.000    5.000    0.000    0.000    0.000    1.167 
#    0.000    7.000    0.000    0.000    0.000    0.000 
#
# Total GULP energy -595052.772236 kJ/mol
# GULP energy per Si atom -12396.932755 kJ/mol
# Density = 1.786966 g / cm^3
# Si number density = 17.910429 Si / 1000 Ang^3
#
#
#
# Elastic Constant Matrix: (Units=GPa)
#
#
# Indices 1 2 3 4 5 6 
#
# 1 75.0244 31.1457 58.8481 0.0000 0.0000 0.0000
# 2 31.1457 75.0243 58.8480 0.0000 0.0000 0.0000
# 3 58.8481 58.8480 149.5261 0.0000 0.0000 0.0000
# 4 0.0000 0.0000 0.0000 2.8971 0.0000 0.0000
# 5 0.0000 0.0000 0.0000 0.0000 2.8971 0.0000
# 6 0.0000 0.0000 0.0000 0.0000 0.0000 19.3641
#
#
#
# Elastic Compliance Matrix: (Units=1/GPa)
#
#
# Indices 1 2 3 4 5 6 
#
# 1 0.019749 -0.003041 -0.006576 0.000000 0.000000 0.000000
# 2 -0.003041 0.019749 -0.006576 0.000000 0.000000 0.000000
# 3 -0.006576 -0.006576 0.011864 0.000000 0.000000 0.000000
# 4 0.000000 0.000000 0.000000 0.345174 0.000000 0.000000
# 5 0.000000 0.000000 0.000000 0.000000 0.345175 0.000000
# 6 0.000000 0.000000 0.000000 0.000000 0.000000 0.051642
#
#
# Mechanical properties :
#
#
# Convention : Reuss Voigt Hill
#
# Bulk Modulus (GPa) = 52.69390 66.36205 59.52798
# Shear Modulus (GPa) = 6.00915 15.08051 10.54483
#
# Velocity S-wave (km/s) = 1.83368 2.90486 2.42906
# Velocity P-wave (km/s) = 5.82819 6.95583 6.41683
#
# Compressibility (1/GPa) = 0.01897753
#
# Stress axis : x y z
#
# Youngs Moduli (GPa) = 50.63449 50.63437 84.28940
#
# Poissons Ratio (x) = 0.15397 0.55428
# Poissons Ratio (y) = 0.15397 0.55428
# Poissons Ratio (z) = 0.33297 0.33297
#
# Static dielectric constant tensor:
#      x y z
#    x 3.076990 0.000000 0.000000 
#    y 0.000000 3.076990 0.000000 
#    z 0.000000 0.000000 3.543570 
# 
# 
# High freq. dielectric constant tensor:
#      x y z
#    x 1.663330 0.000000 0.000000 
#    y 0.000000 1.663330 0.000000 
#    z 0.000000 0.000000 1.710930 
# 
# From -- ./inp_files/6095.got.cif
#   From: 2010.03.12/outbox.cif.g09.slc.cpg/sg115_4_cif.got.tgz:6095.got - 2010.04.14 02:11:21.
