data_PCOD8309684
_publ_section_title
;
Structure prediction by ZEFSAII (Michael W. Deem and Ramdas Pophale) SiO2 
 PCOD8309684
Probable space group: P -4 M 2
;
_chemical_formula_sum "Si O2"
_cell_formula_units_Z 48
_cell_length_a 8.159602
_cell_length_b 8.159602
_cell_length_c 34.235143
_cell_angle_alpha 90.000000
_cell_angle_beta 90.000000
_cell_angle_gamma 90.000000
_cell_volume 2279.345174
_symmetry_space_group_name_H-M "P -4 M 2"
_symmetry_group_IT_number 115
_symmetry_cell_setting 'tetragonal'
loop_
_space_group_symop_operation_xyz
x,y,z
y,-x,-z
-x,-y,z
-y,x,-z
y,x,-z
-y,-x,-z
-x,y,z
x,-y,z
loop_
_atom_site_type_symbol
_atom_site_label
_atom_site_fract_x
_atom_site_fract_y
_atom_site_fract_z
Si Si1 0.819074 0.311106 0.538980
Si Si2 0.695423 0.500000 0.747508
Si Si3 0.686532 0.812108 0.039581
Si Si4 0.191135 0.818374 0.380819
Si Si5 0.500000 0.304656 0.163444
Si Si6 0.693319 0.181359 0.881627
Si Si7 0.689796 0.185137 0.701312
O O1 0.716466 0.283534 0.500000
O O2 0.834484 0.500000 0.546533
O O3 0.732212 0.238680 0.577976
O O4 0.000000 0.231706 0.533747
O O5 0.500000 0.500000 0.743431
O O6 0.754912 0.500000 0.792038
O O7 0.765795 0.330895 0.728156
O O8 0.500000 0.788153 0.053434
O O9 0.802723 0.744117 0.073379
O O10 0.729868 0.000000 0.031349
O O11 0.712386 0.712386 0.000000
O O12 0.246088 0.713748 0.343329
O O13 0.000000 0.835885 0.379338
O O14 0.272494 0.000000 0.378851
O O15 0.500000 0.500000 0.160411
O O16 0.333340 0.232654 0.143491
O O17 0.500000 0.188727 0.878262
O O18 0.753939 0.000000 0.866954
O O19 0.500000 0.170694 0.710610
O O20 0.766637 0.000000 0.708654
#
# Coordination Sequence:
#
# PCOD8309684 Si02
#       7
#     8   4   8   8   4   8   8
#     4  10  21  35  51  73 100 132 172 214 257 311
#     4   9  18  32  53  81 111 143 179 225 283 337
#     4  11  23  37  55  81 113 150 191 235 287 343
#     4   9  18  33  53  75 100 133 171 213 264 318
#     4   9  18  34  55  81 113 145 185 237 287 341
#     4  10  20  35  57  83 110 146 192 237 288 345
#     4   9  18  32  51  77 107 138 176 221 272 333
#
# _framework density 21.058678
#
# number of rings (size 3 to 8) (size 9 to 14) (size 15 to 20)
#    0.000    2.333    0.833    1.500    1.167    5.667 
#    0.000    5.000    0.000    2.000    0.000    2.333 
#    0.000    0.000    0.000    0.000    0.000    0.000 
#
# Total GULP energy -594804.602437 kJ/mol
# GULP energy per Si atom -12391.762551 kJ/mol
# Density = 2.101075 g / cm^3
# Si number density = 21.058678 Si / 1000 Ang^3
#
#
#
# Elastic Constant Matrix: (Units=GPa)
#
#
# Indices 1 2 3 4 5 6 
#
# 1 78.1033 17.3821 42.6726 0.0000 0.0000 0.0000
# 2 17.3821 78.1033 42.6726 0.0000 0.0000 0.0000
# 3 42.6726 42.6726 158.7434 0.0000 0.0000 0.0000
# 4 0.0000 0.0000 0.0000 19.0575 0.0000 0.0000
# 5 0.0000 0.0000 0.0000 0.0000 19.0575 0.0000
# 6 0.0000 0.0000 0.0000 0.0000 0.0000 14.8282
#
#
#
# Elastic Compliance Matrix: (Units=1/GPa)
#
#
# Indices 1 2 3 4 5 6 
#
# 1 0.015127 -0.001342 -0.003706 0.000000 0.000000 0.000000
# 2 -0.001342 0.015127 -0.003706 0.000000 0.000000 0.000000
# 3 -0.003706 -0.003706 0.008292 0.000000 0.000000 0.000000
# 4 0.000000 0.000000 0.000000 0.052473 0.000000 0.000000
# 5 0.000000 0.000000 0.000000 0.000000 0.052473 0.000000
# 6 0.000000 0.000000 0.000000 0.000000 0.000000 0.067439
#
#
# Mechanical properties :
#
#
# Convention : Reuss Voigt Hill
#
# Bulk Modulus (GPa) = 47.53050 57.82273 52.67661
# Shear Modulus (GPa) = 21.23600 24.73682 22.98641
#
# Velocity S-wave (km/s) = 3.17901 3.43105 3.30743
# Velocity P-wave (km/s) = 6.00785 6.57371 6.29714
#
# Compressibility (1/GPa) = 0.02103912
#
# Stress axis : x y z
#
# Youngs Moduli (GPa) = 66.10794 66.10794 120.60248
#
# Poissons Ratio (x) = 0.08871 0.44690
# Poissons Ratio (y) = 0.08871 0.44690
# Poissons Ratio (z) = 0.24497 0.24497
#
# Static dielectric constant tensor:
#      x y z
#    x 3.936010 0.000000 0.000000 
#    y 0.000000 3.936010 0.000000 
#    z 0.000000 0.000000 3.836180 
# 
# 
# High freq. dielectric constant tensor:
#      x y z
#    x 1.809450 0.000000 0.000000 
#    y 0.000000 1.809450 0.000000 
#    z 0.000000 0.000000 1.823160 
# 
# From -- ./inp_files/6162.got.cif
#   From: 2010.03.12/outbox.cif.g09.slc.cpg/sg115_4_cif.got.tgz:6162.got - 2010.04.14 02:11:21.
