data_PCOD8309775
_publ_section_title
;
Structure prediction by ZEFSAII (Michael W. Deem and Ramdas Pophale) SiO2 
 PCOD8309775
Probable space group: P -4 M 2
;
_chemical_formula_sum "Si O2"
_cell_formula_units_Z 48
_cell_length_a 9.172694
_cell_length_b 9.172694
_cell_length_c 30.612329
_cell_angle_alpha 90.000000
_cell_angle_beta 90.000000
_cell_angle_gamma 90.000000
_cell_volume 2575.669787
_symmetry_space_group_name_H-M "P -4 M 2"
_symmetry_group_IT_number 115
_symmetry_cell_setting 'tetragonal'
loop_
_space_group_symop_operation_xyz
x,y,z
y,-x,-z
-x,-y,z
-y,x,-z
y,x,-z
-y,-x,-z
-x,y,z
x,-y,z
loop_
_atom_site_type_symbol
_atom_site_label
_atom_site_fract_x
_atom_site_fract_y
_atom_site_fract_z
Si Si1 0.669877 0.331085 0.126591
Si Si2 0.170841 0.668051 0.962008
Si Si3 0.170525 0.332327 0.289987
Si Si4 0.833196 0.172403 0.796222
Si Si5 0.828723 0.835912 0.549511
Si Si6 0.669025 0.330981 0.376275
O O1 0.500000 0.310324 0.136369
O O2 0.712983 0.500000 0.122585
O O3 0.715110 0.251639 0.082083
O O4 0.758153 0.259172 0.165393
O O5 0.204964 0.500000 0.973669
O O6 0.000000 0.694917 0.955568
O O7 0.229275 0.770726 0.000000
O O8 0.212287 0.500000 0.280171
O O9 0.224264 0.235077 0.249559
O O10 0.250664 0.272819 0.333002
O O11 0.000000 0.313964 0.298232
O O12 0.000000 0.225936 0.798564
O O13 0.821506 0.000000 0.800984
O O14 0.790518 0.790518 0.500000
O O15 0.751575 0.723373 0.581178
O O16 0.000000 0.827754 0.557259
O O17 0.772899 0.000000 0.558932
O O18 0.500000 0.299156 0.370093
O O19 0.703848 0.500000 0.383110
#
# Coordination Sequence:
#
# PCOD8309775 Si02
#       6
#     8   8   8   8   8   8
#     4  10  21  37  58  82 108 142 182 222 265 314
#     4  10  21  37  57  81 109 142 180 221 266 316
#     4   9  18  34  54  74 101 141 184 220 257 308
#     4  10  21  36  55  81 111 141 175 218 267 316
#     4   9  19  36  56  77 102 135 176 219 262 311
#     4  10  21  35  52  78 110 140 172 214 263 314
#
# _framework density 18.635928
#
# number of rings (size 3 to 8) (size 9 to 14) (size 15 to 20)
#    0.000    2.333    0.000    2.500    0.000    7.000 
#    0.000    5.833    0.000    0.000    0.000    0.000 
#    0.000    0.000    0.000    0.000    0.000    0.000 
#
# Total GULP energy -595378.506297 kJ/mol
# GULP energy per Si atom -12403.718881 kJ/mol
# Density = 1.859351 g / cm^3
# Si number density = 18.635928 Si / 1000 Ang^3
#
#
#
# Elastic Constant Matrix: (Units=GPa)
#
#
# Indices 1 2 3 4 5 6 
#
# 1 74.4985 39.4266 66.1273 0.0000 0.0000 0.0000
# 2 39.4266 74.4978 66.1261 0.0000 0.0000 0.0000
# 3 66.1273 66.1261 154.5609 0.0000 0.0000 0.0000
# 4 0.0000 0.0000 0.0000 36.6827 0.0000 0.0000
# 5 0.0000 0.0000 0.0000 0.0000 36.6827 0.0000
# 6 0.0000 0.0000 0.0000 0.0000 0.0000 29.7374
#
#
#
# Elastic Compliance Matrix: (Units=1/GPa)
#
#
# Indices 1 2 3 4 5 6 
#
# 1 0.022976 -0.005537 -0.007461 0.000000 0.000000 0.000000
# 2 -0.005537 0.022976 -0.007461 0.000000 0.000000 0.000000
# 3 -0.007461 -0.007461 0.012854 0.000000 0.000000 0.000000
# 4 0.000000 0.000000 0.000000 0.027261 0.000000 0.000000
# 5 0.000000 0.000000 0.000000 0.000000 0.027261 0.000000
# 6 0.000000 0.000000 0.000000 0.000000 0.000000 0.033628
#
#
# Mechanical properties :
#
#
# Convention : Reuss Voigt Hill
#
# Bulk Modulus (GPa) = 55.90292 71.87970 63.89131
# Shear Modulus (GPa) = 25.79486 29.41237 27.60361
#
# Velocity S-wave (km/s) = 3.72445 3.97704 3.85282
# Velocity P-wave (km/s) = 6.96835 7.72939 7.35871
#
# Compressibility (1/GPa) = 0.01788815
#
# Stress axis : x y z
#
# Youngs Moduli (GPa) = 43.52318 43.52343 77.79549
#
# Poissons Ratio (x) = 0.24099 0.58045
# Poissons Ratio (y) = 0.24099 0.58043
# Poissons Ratio (z) = 0.32474 0.32473
#
# Static dielectric constant tensor:
#      x y z
#    x 3.397780 0.000000 0.000000 
#    y 0.000000 3.397770 0.000000 
#    z 0.000000 0.000000 3.528220 
# 
# 
# High freq. dielectric constant tensor:
#      x y z
#    x 1.721620 0.000000 0.000000 
#    y 0.000000 1.721620 0.000000 
#    z 0.000000 0.000000 1.735520 
# 
# From -- ./inp_files/6034.got.cif
#   From: 2010.03.12/outbox.cif.g09.slc.cpg/sg115_4_cif.got.tgz:6034.got - 2010.04.14 02:11:21.
