data_PCOD8309901
_publ_section_title
;
Structure prediction by ZEFSAII (Michael W. Deem and Ramdas Pophale) SiO2 
 PCOD8309901
Probable space group: P -4 M 2
;
_chemical_formula_sum "Si O2"
_cell_formula_units_Z 44
_cell_length_a 9.271382
_cell_length_b 9.271382
_cell_length_c 28.330583
_cell_angle_alpha 90.000000
_cell_angle_beta 90.000000
_cell_angle_gamma 90.000000
_cell_volume 2435.255104
_symmetry_space_group_name_H-M "P -4 M 2"
_symmetry_group_IT_number 115
_symmetry_cell_setting 'tetragonal'
loop_
_space_group_symop_operation_xyz
x,y,z
y,-x,-z
-x,-y,z
-y,x,-z
y,x,-z
-y,-x,-z
-x,y,z
x,-y,z
loop_
_atom_site_type_symbol
_atom_site_label
_atom_site_fract_x
_atom_site_fract_y
_atom_site_fract_z
Si Si1 0.330370 0.330370 0.500000
Si Si2 0.335232 0.832734 0.676498
Si Si3 0.671715 0.160037 0.142838
Si Si4 0.828734 0.662236 0.960820
Si Si5 0.169327 0.832509 0.582121
Si Si6 0.332450 0.332698 0.768178
O O1 0.298674 0.500000 0.495752
O O2 0.268705 0.250278 0.454533
O O3 0.500000 0.787335 0.664304
O O4 0.232321 0.793203 0.633140
O O5 0.274903 0.747363 0.721667
O O6 0.326759 0.000000 0.688939
O O7 0.500000 0.155840 0.144068
O O8 0.717553 0.220762 0.091265
O O9 0.732694 0.258305 0.185036
O O10 0.734646 0.000000 0.150453
O O11 0.772182 0.500000 0.969931
O O12 0.000000 0.665829 0.963201
O O13 0.766726 0.766726 0.000000
O O14 0.000000 0.798161 0.581380
O O15 0.198603 0.000000 0.569470
O O16 0.500000 0.303621 0.774737
O O17 0.295409 0.500000 0.761868
#
# Coordination Sequence:
#
# PCOD8309901 Si02
#       6
#     4   8   8   8   8   8
#     4  11  24  39  56  80 108 137 170 209 252 298
#     4   9  18  33  51  71 100 136 166 197 245 297
#     4   8  15  29  47  66  91 123 157 195 241 292
#     4   9  18  32  49  70  96 126 162 204 249 298
#     4  10  21  37  57  80 105 135 172 211 250 295
#     4   9  17  29  47  71  96 123 159 202 243 286
#
# _framework density 18.067921999999999
#
# number of rings (size 3 to 8) (size 9 to 14) (size 15 to 20)
#    0.000    2.818    0.000    2.182    0.000    5.455 
#    0.000    4.545    0.000    3.273    0.000    0.000 
#    0.000    0.000    0.000    0.000    0.000    0.000 
#
# Total GULP energy -545512.412763 kJ/mol
# GULP energy per Si atom -12398.009381 kJ/mol
# Density = 1.802680 g / cm^3
# Si number density = 18.067922 Si / 1000 Ang^3
#
#
#
# Elastic Constant Matrix: (Units=GPa)
#
#
# Indices 1 2 3 4 5 6 
#
# 1 64.5777 40.7272 69.1777 0.0000 0.0000 0.0000
# 2 40.7272 64.5777 69.1777 0.0000 0.0000 0.0000
# 3 69.1777 69.1777 174.7934 0.0000 0.0000 0.0000
# 4 0.0000 0.0000 0.0000 -16.3769 0.0000 0.0000
# 5 0.0000 0.0000 0.0000 0.0000 -16.3769 0.0000
# 6 0.0000 0.0000 0.0000 0.0000 0.0000 22.7684
#
#
#
# Elastic Compliance Matrix: (Units=1/GPa)
#
#
# Indices 1 2 3 4 5 6 
#
# 1 0.030856 -0.011072 -0.007830 0.000000 0.000000 0.000000
# 2 -0.011072 0.030856 -0.007830 0.000000 0.000000 0.000000
# 3 -0.007830 -0.007830 0.011918 0.000000 0.000000 0.000000
# 4 0.000000 0.000000 0.000000 -0.061062 0.000000 0.000000
# 5 0.000000 0.000000 0.000000 0.000000 -0.061062 0.000000
# 6 0.000000 0.000000 0.000000 0.000000 0.000000 0.043921
#
#
# Mechanical properties :
#
#
# Convention : Reuss Voigt Hill
#
# Bulk Modulus (GPa) = 49.58719 73.56822 61.57771
# Shear Modulus (GPa) = 89.90896 6.32732 48.11814
#
# Velocity S-wave (km/s) = 7.06185 1.87338 5.16620
# Velocity P-wave (km/s) = 9.69522 6.74429 8.35113
#
# Compressibility (1/GPa) = 0.02016650
#
# Stress axis : x y z
#
# Youngs Moduli (GPa) = 32.40913 32.40913 83.90385
#
# Poissons Ratio (x) = 0.35885 0.65693
# Poissons Ratio (y) = 0.35885 0.65693
# Poissons Ratio (z) = 0.25375 0.25375
#
# Static dielectric constant tensor:
#      x y z
#    x 3.279740 0.000000 0.000000 
#    y 0.000000 3.279740 0.000000 
#    z 0.000000 0.000000 3.658890 
# 
# 
# High freq. dielectric constant tensor:
#      x y z
#    x 1.684910 0.000000 0.000000 
#    y 0.000000 1.684910 0.000000 
#    z 0.000000 0.000000 1.715430 
# 
# From -- ./inp_files/5811.got.cif
#   From: 2010.03.12/outbox.cif.g09.slc.cpg/sg115_3_cif.got.tgz:5811.got - 2010.04.14 02:11:21.
