data_PCOD8309873
_publ_section_title
;
Structure prediction by ZEFSAII (Michael W. Deem and Ramdas Pophale) SiO2 
 PCOD8309873
Probable space group: P -4 M 2
;
_chemical_formula_sum "Si O2"
_cell_formula_units_Z 32
_cell_length_a 9.042873
_cell_length_b 9.042873
_cell_length_c 20.455080
_cell_angle_alpha 90.000000
_cell_angle_beta 90.000000
_cell_angle_gamma 90.000000
_cell_volume 1672.684550
_symmetry_space_group_name_H-M "P -4 M 2"
_symmetry_group_IT_number 115
_symmetry_cell_setting 'tetragonal'
loop_
_space_group_symop_operation_xyz
x,y,z
y,-x,-z
-x,-y,z
-y,x,-z
y,x,-z
-y,-x,-z
-x,y,z
x,-y,z
loop_
_atom_site_type_symbol
_atom_site_label
_atom_site_fract_x
_atom_site_fract_y
_atom_site_fract_z
Si Si1 0.671525 0.330421 0.189469
Si Si2 0.326824 0.827987 0.560053
Si Si3 0.826132 0.668848 0.058385
Si Si4 0.670777 0.173691 0.321742
O O1 0.500000 0.311449 0.173076
O O2 0.711339 0.500000 0.206118
O O3 0.760367 0.272803 0.126647
O O4 0.718624 0.230084 0.250479
O O5 0.262351 0.737649 0.500000
O O6 0.500000 0.796686 0.564549
O O7 0.252414 0.775018 0.626505
O O8 0.292455 0.000000 0.549162
O O9 0.775998 0.500000 0.046353
O O10 0.000000 0.684515 0.062243
O O11 0.768405 0.768405 0.000000
O O12 0.500000 0.214601 0.336155
O O13 0.697191 0.000000 0.325720
#
# Coordination Sequence:
#
# PCOD8309873 Si02
#       4
#     8   8   8   8
#     4   9  18  34  56  80 108 145 187 228 270 320
#     4  11  24  40  59  84 113 146 185 228 273 323
#     4  10  21  36  55  80 110 144 183 228 276 327
#     4  10  21  37  58  85 115 146 182 224 271 325
#
# _framework density 19.130922999999999
#
# number of rings (size 3 to 8) (size 9 to 14) (size 15 to 20)
#    0.000    2.000    0.000    3.000    0.000   10.000 
#    0.000    5.000    0.000    0.000    0.000    0.000 
#    0.000    0.000    0.000    0.000    0.000    0.000 
#
# Total GULP energy -396966.423533 kJ/mol
# GULP energy per Si atom -12405.200735 kJ/mol
# Density = 1.908738 g / cm^3
# Si number density = 19.130923 Si / 1000 Ang^3
#
#
#
# Elastic Constant Matrix: (Units=GPa)
#
#
# Indices 1 2 3 4 5 6 
#
# 1 73.0039 43.4014 57.7720 0.0000 0.0000 0.0000
# 2 43.4014 73.0089 57.7752 0.0000 0.0000 0.0000
# 3 57.7720 57.7752 140.8759 0.0000 0.0000 0.0000
# 4 0.0000 0.0000 0.0000 -308.1310 0.0000 0.0000
# 5 0.0000 0.0000 0.0000 0.0000 -307.9217 0.0000
# 6 0.0000 0.0000 0.0000 0.0000 0.0000 27.3817
#
#
#
# Elastic Compliance Matrix: (Units=1/GPa)
#
#
# Indices 1 2 3 4 5 6 
#
# 1 0.024134 -0.009645 -0.005942 0.000000 0.000000 0.000000
# 2 -0.009645 0.024133 -0.005942 0.000000 0.000000 0.000000
# 3 -0.005942 -0.005942 0.011972 0.000000 0.000000 0.000000
# 4 0.000000 0.000000 0.000000 -0.003245 0.000000 0.000000
# 5 0.000000 0.000000 0.000000 0.000000 -0.003248 0.000000
# 6 0.000000 0.000000 0.000000 0.000000 0.000000 0.036521
#
#
# Mechanical properties :
#
#
# Convention : Reuss Voigt Hill
#
# Bulk Modulus (GPa) = 58.20171 67.19843 62.70007
# Shear Modulus (GPa) = 35.95842 -109.20485 -36.62322
#
# Velocity S-wave (km/s) = 4.34013 -7.56352 -4.38007
# Velocity P-wave (km/s) = 7.45685 6.40890 2.69543
#
# Compressibility (1/GPa) = 0.01718162
#
# Stress axis : x y z
#
# Youngs Moduli (GPa) = 41.43581 41.43782 83.52951
#
# Poissons Ratio (x) = 0.39966 0.49629
# Poissons Ratio (y) = 0.39965 0.49631
# Poissons Ratio (z) = 0.24619 0.24621
#
# Static dielectric constant tensor:
#      x y z
#    x 3.574110 0.000000 0.000000 
#    y 0.000000 3.574130 0.000000 
#    z 0.000000 0.000000 3.676170 
# 
# 
# High freq. dielectric constant tensor:
#      x y z
#    x 1.744450 0.000000 0.000000 
#    y 0.000000 1.744450 0.000000 
#    z 0.000000 0.000000 1.758250 
# 
# From -- ./inp_files/4571.got.cif
#   From: 2010.03.12/outbox.cif.g09.slc.cpg/sg115_3_cif.got.tgz:4571.got - 2010.04.14 02:11:21.
