data_PCOD8309058
_publ_section_title
;
Structure prediction by ZEFSAII (Michael W. Deem and Ramdas Pophale) SiO2 
 PCOD8309058
Probable space group: P -4 21 C
;
_chemical_formula_sum "Si O2"
_cell_formula_units_Z 64
_cell_length_a 14.106681
_cell_length_b 14.106681
_cell_length_c 17.992558
_cell_angle_alpha 90.000000
_cell_angle_beta 90.000000
_cell_angle_gamma 90.000000
_cell_volume 3580.491133
_symmetry_space_group_name_H-M "P -4 21 C"
_symmetry_group_IT_number 114
_symmetry_cell_setting 'tetragonal'
loop_
_space_group_symop_operation_xyz
x,y,z
y,-x,-z
-x,-y,z
-y,x,-z
1/2+x,1/2-y,1/2-z
1/2-x,1/2+y,1/2-z
1/2-y,1/2-x,1/2+z
1/2+y,1/2+x,1/2+z
loop_
_atom_site_type_symbol
_atom_site_label
_atom_site_fract_x
_atom_site_fract_y
_atom_site_fract_z
Si Si1 0.108749 0.608829 0.075149
Si Si2 0.750084 0.268055 0.163452
Si Si3 0.889989 0.238276 0.953053
Si Si4 0.606115 0.610953 0.916494
Si Si5 0.391171 0.891251 0.924851
Si Si6 0.268055 0.750084 0.836548
Si Si7 0.393885 0.610953 0.916494
Si Si8 0.889989 0.761724 0.953053
O O1 0.165051 0.661589 0.140507
O O2 0.142823 0.500000 0.065234
O O3 0.000000 0.612942 0.099330
O O4 0.125633 0.663420 0.997546
O O5 0.653036 0.320053 0.141621
O O6 0.750000 0.250000 0.250000
O O7 0.756140 0.165937 0.124268
O O8 0.834063 0.243860 0.875732
O O9 0.000000 0.220017 0.935591
O O10 0.850360 0.149640 0.000000
O O11 0.500000 0.650400 0.902089
O O12 0.606040 0.500000 0.906107
O O13 0.638882 0.638882 1.000000
O O14 0.338411 0.834949 0.859493
O O15 0.336580 0.874367 0.002453
O O16 0.320053 0.653036 0.858379
#
# Coordination Sequence:
#
# PCOD8309058 Si02
#       8
#     8   8   8   8   8   8   8   8
#     4   9  18  35  57  76  96 128 172 216 253 293
#     4  11  22  32  49  77 110 140 163 199 253 312
#     4   9  19  35  53  74  98 131 178 221 252 290
#     4   9  18  34  57  81 101 127 168 213 256 303
#     4   9  18  35  57  76  96 128 172 216 253 293
#     4  11  22  32  49  77 110 140 163 199 253 312
#     4   9  18  34  57  81 101 127 168 213 256 303
#     4   9  19  35  53  74  98 131 178 221 252 290
#
# _framework density 17.874642999999999
#
# number of rings (size 3 to 8) (size 9 to 14) (size 15 to 20)
#    0.000    2.500    0.000    3.750    0.000    6.250 
#    0.000    0.000    0.000    3.000    0.000    0.000 
#    0.000    0.000    0.000    0.000    0.000    0.000 
#
# Total GULP energy -793530.895538 kJ/mol
# GULP energy per Si atom -12398.920243 kJ/mol
# Density = 1.783396 g / cm^3
# Si number density = 17.874643 Si / 1000 Ang^3
#
#
#
# Elastic Constant Matrix: (Units=GPa)
#
#
# Indices 1 2 3 4 5 6 
#
# 1 121.3508 53.8538 62.8181 0.0000 0.0000 0.0000
# 2 53.8538 121.3508 62.8181 0.0000 0.0000 0.0000
# 3 62.8181 62.8181 148.3024 0.0000 0.0000 0.0000
# 4 0.0000 0.0000 0.0000 16.2197 0.0000 0.0000
# 5 0.0000 0.0000 0.0000 0.0000 16.2197 0.0000
# 6 0.0000 0.0000 0.0000 0.0000 0.0000 30.4499
#
#
#
# Elastic Compliance Matrix: (Units=1/GPa)
#
#
# Indices 1 2 3 4 5 6 
#
# 1 0.011507 -0.003309 -0.003472 0.000000 0.000000 0.000000
# 2 -0.003309 0.011507 -0.003472 0.000000 0.000000 0.000000
# 3 -0.003472 -0.003472 0.009685 0.000000 0.000000 0.000000
# 4 0.000000 0.000000 0.000000 0.061653 0.000000 0.000000
# 5 0.000000 0.000000 0.000000 0.000000 0.061653 0.000000
# 6 0.000000 0.000000 0.000000 0.000000 0.000000 0.032841
#
#
# Mechanical properties :
#
#
# Convention : Reuss Voigt Hill
#
# Bulk Modulus (GPa) = 82.03176 83.33157 82.68166
# Shear Modulus (GPa) = 23.42841 26.67878 25.05359
#
# Velocity S-wave (km/s) = 3.62430 3.86754 3.74789
# Velocity P-wave (km/s) = 7.96909 8.16487 8.06757
#
# Compressibility (1/GPa) = 0.01219040
#
# Stress axis : x y z
#
# Youngs Moduli (GPa) = 86.90721 86.90721 103.25661
#
# Poissons Ratio (x) = 0.28757 0.35854
# Poissons Ratio (y) = 0.28757 0.35854
# Poissons Ratio (z) = 0.30177 0.30177
#
# Static dielectric constant tensor:
#      x y z
#    x 3.388310 0.000000 0.000000 
#    y 0.000000 3.388310 0.000000 
#    z 0.000000 0.000000 3.016510 
# 
# 
# High freq. dielectric constant tensor:
#      x y z
#    x 1.704800 0.000000 0.000000 
#    y 0.000000 1.704800 0.000000 
#    z 0.000000 0.000000 1.659860 
# 
# From -- ./inp_files/2741.got.cif
#   From: 2010.03.12/outbox.cif.g09.slc.cpg/sg114_2_cif.got.tgz:2741.got - 2010.04.14 02:08:34.
