data_PCOD8309369
_publ_section_title
;
Structure prediction by ZEFSAII (Michael W. Deem and Ramdas Pophale) SiO2 
 PCOD8309369
Probable space group: P -4 M 2
;
_chemical_formula_sum "Si O2"
_cell_formula_units_Z 56
_cell_length_a 14.172097
_cell_length_b 14.172097
_cell_length_c 15.329168
_cell_angle_alpha 90.000000
_cell_angle_beta 90.000000
_cell_angle_gamma 90.000000
_cell_volume 3078.837845
_symmetry_space_group_name_H-M "P -4 M 2"
_symmetry_group_IT_number 115
_symmetry_cell_setting 'tetragonal'
loop_
_space_group_symop_operation_xyz
x,y,z
y,-x,-z
-x,-y,z
-y,x,-z
y,x,-z
-y,-x,-z
-x,y,z
x,-y,z
loop_
_atom_site_type_symbol
_atom_site_label
_atom_site_fract_x
_atom_site_fract_y
_atom_site_fract_z
Si Si1 0.108229 0.602988 0.000812
Si Si2 0.110881 0.605460 0.493440
Si Si3 0.891870 0.257089 0.643218
Si Si4 0.392832 0.609544 0.101967
Si Si5 0.111613 0.271499 0.327638
Si Si6 0.208468 0.294114 0.152327
Si Si7 0.716754 0.896668 0.164139
O O1 0.152859 0.500000 0.013903
O O2 0.121584 0.628270 0.899273
O O3 0.000000 0.604135 0.028451
O O4 0.162455 0.672140 0.063755
O O5 0.155752 0.500000 0.498101
O O6 0.150373 0.672369 0.570550
O O7 0.135685 0.651980 0.401174
O O8 0.000000 0.597044 0.506260
O O9 0.826966 0.163714 0.649470
O O10 0.888998 0.314430 0.734724
O O11 0.000000 0.225713 0.621384
O O12 0.500000 0.641497 0.125204
O O13 0.380087 0.500000 0.124778
O O14 0.316735 0.668569 0.158732
O O15 0.372659 0.627342 0.000000
O O16 0.149648 0.320654 0.238793
O O17 0.000000 0.250905 0.320795
O O18 0.204140 0.180865 0.144581
O O19 0.760838 0.000000 0.145091
#
# Coordination Sequence:
#
# PCOD8309369 Si02
#       7
#     8   8   8   8   8   8   8
#     4  10  20  32  48  73 103 133 168 212 261 313
#     4   9  18  33  53  76 103 133 163 201 250 303
#     4   9  18  34  56  79 102 131 170 215 264 315
#     4   9  18  32  50  73 100 131 172 223 274 319
#     4  10  21  35  51  76 108 139 174 213 254 305
#     4  11  20  32  51  72 100 141 178 211 254 311
#     4   9  19  33  48  70  99 131 169 214 260 303
#
# _framework density 18.188682
#
# number of rings (size 3 to 8) (size 9 to 14) (size 15 to 20)
#    0.000    2.429    0.000    3.000    0.000    3.714 
#    0.000    6.429    0.000    3.857    0.000   10.000 
#    0.000    1.143    0.000    0.286    0.000    0.143 
#
# Total GULP energy -694052.454297 kJ/mol
# GULP energy per Si atom -12393.793827 kJ/mol
# Density = 1.814728 g / cm^3
# Si number density = 18.188682 Si / 1000 Ang^3
#
#
#
# Elastic Constant Matrix: (Units=GPa)
#
#
# Indices 1 2 3 4 5 6 
#
# 1 94.0877 45.5864 57.1820 0.0000 0.0000 0.0000
# 2 45.5864 94.0874 57.1821 0.0000 0.0000 0.0000
# 3 57.1820 57.1821 112.6504 0.0000 0.0000 0.0000
# 4 0.0000 0.0000 0.0000 24.8603 0.0000 0.0000
# 5 0.0000 0.0000 0.0000 0.0000 24.8603 0.0000
# 6 0.0000 0.0000 0.0000 0.0000 0.0000 21.4182
#
#
#
# Elastic Compliance Matrix: (Units=1/GPa)
#
#
# Indices 1 2 3 4 5 6 
#
# 1 0.016435 -0.004183 -0.006219 0.000000 0.000000 0.000000
# 2 -0.004183 0.016435 -0.006219 0.000000 0.000000 0.000000
# 3 -0.006219 -0.006219 0.015191 0.000000 0.000000 0.000000
# 4 0.000000 0.000000 0.000000 0.040225 0.000000 0.000000
# 5 0.000000 0.000000 0.000000 0.000000 0.040225 0.000000
# 6 0.000000 0.000000 0.000000 0.000000 0.000000 0.046689
#
#
# Mechanical properties :
#
#
# Convention : Reuss Voigt Hill
#
# Bulk Modulus (GPa) = 67.48614 68.96961 68.22788
# Shear Modulus (GPa) = 23.43227 23.61941 23.52584
#
# Velocity S-wave (km/s) = 3.59317 3.60749 3.60033
# Velocity P-wave (km/s) = 7.37553 7.43998 7.40782
#
# Compressibility (1/GPa) = 0.01481786
#
# Stress axis : x y z
#
# Youngs Moduli (GPa) = 60.84649 60.84622 65.83011
#
# Poissons Ratio (x) = 0.25453 0.40940
# Poissons Ratio (y) = 0.25454 0.40940
# Poissons Ratio (z) = 0.37840 0.37840
#
# Static dielectric constant tensor:
#      x y z
#    x 3.416160 0.000000 0.000000 
#    y 0.000000 3.416160 0.000000 
#    z 0.000000 0.000000 3.439490 
# 
# 
# High freq. dielectric constant tensor:
#      x y z
#    x 1.696620 0.000000 0.000000 
#    y 0.000000 1.696620 0.000000 
#    z 0.000000 0.000000 1.704680 
# 
# From -- ./inp_files/3820.got.cif
#   From: 2010.03.12/outbox.cif.g09.slc.cpg/sg115_2_cif.got.tgz:3820.got - 2010.04.14 02:11:21.
