data_PCOD8309492
_publ_section_title
;
Structure prediction by ZEFSAII (Michael W. Deem and Ramdas Pophale) SiO2 
 PCOD8309492
Probable space group: P -4 M 2
;
_chemical_formula_sum "Si O2"
_cell_formula_units_Z 28
_cell_length_a 9.232425
_cell_length_b 9.232425
_cell_length_c 18.027511
_cell_angle_alpha 90.000000
_cell_angle_beta 90.000000
_cell_angle_gamma 90.000000
_cell_volume 1536.623058
_symmetry_space_group_name_H-M "P -4 M 2"
_symmetry_group_IT_number 115
_symmetry_cell_setting 'tetragonal'
loop_
_space_group_symop_operation_xyz
x,y,z
y,-x,-z
-x,-y,z
-y,x,-z
y,x,-z
-y,-x,-z
-x,y,z
x,-y,z
loop_
_atom_site_type_symbol
_atom_site_label
_atom_site_fract_x
_atom_site_fract_y
_atom_site_fract_z
Si Si1 0.333131 0.666870 0.500000
Si Si2 0.331737 0.169646 0.776575
Si Si3 0.338813 0.327784 0.080767
Si Si4 0.830280 0.667434 0.647612
O O1 0.500000 0.694423 0.521178
O O2 0.284620 0.763744 0.430797
O O3 0.500000 0.208862 0.764493
O O4 0.272927 0.233683 0.854262
O O5 0.239940 0.236333 0.710767
O O6 0.305238 0.000000 0.778412
O O7 0.500000 0.264617 0.095457
O O8 0.346165 0.500000 0.079240
O O9 0.277706 0.277706 0.000000
O O10 0.794177 0.500000 0.663878
O O11 0.000000 0.697344 0.645093
#
# Coordination Sequence:
#
# PCOD8309492 Si02
#       4
#     4   8   8   8
#     4   9  18  34  56  79 102 130 166 209 254 299
#     4  10  20  33  51  76 105 137 172 209 251 300
#     4   8  14  27  49  74  98 128 169 215 258 298
#     4  10  21  36  54  77 104 134 169 208 251 300
#
# _framework density 18.221775000000001
#
# number of rings (size 3 to 8) (size 9 to 14) (size 15 to 20)
#    0.000    2.714    0.000    2.571    0.000    4.571 
#    0.000    4.286    0.000    5.143    0.000    0.000 
#    0.000    0.000    0.000    0.000    0.000    0.000 
#
# Total GULP energy -347183.527624 kJ/mol
# GULP energy per Si atom -12399.411701 kJ/mol
# Density = 1.818030 g / cm^3
# Si number density = 18.221775 Si / 1000 Ang^3
#
#
#
# Elastic Constant Matrix: (Units=GPa)
#
#
# Indices 1 2 3 4 5 6 
#
# 1 73.6678 47.8139 77.4007 0.0000 0.0000 0.0000
# 2 47.8139 73.6675 77.4010 0.0000 0.0000 0.0000
# 3 77.4007 77.4010 183.7371 0.0000 0.0000 0.0000
# 4 0.0000 0.0000 0.0000 -5.4796 0.0000 0.0000
# 5 0.0000 0.0000 0.0000 0.0000 -5.4801 0.0000
# 6 0.0000 0.0000 0.0000 0.0000 0.0000 20.8342
#
#
#
# Elastic Compliance Matrix: (Units=1/GPa)
#
#
# Indices 1 2 3 4 5 6 
#
# 1 0.028225 -0.010454 -0.007486 0.000000 0.000000 0.000000
# 2 -0.010454 0.028225 -0.007486 0.000000 0.000000 0.000000
# 3 -0.007486 -0.007486 0.011750 0.000000 0.000000 0.000000
# 4 0.000000 0.000000 0.000000 -0.182495 0.000000 0.000000
# 5 0.000000 0.000000 0.000000 0.000000 -0.182478 0.000000
# 6 0.000000 0.000000 0.000000 0.000000 0.000000 0.047998
#
#
# Mechanical properties :
#
#
# Convention : Reuss Voigt Hill
#
# Bulk Modulus (GPa) = 57.64566 81.81151 69.72859
# Shear Modulus (GPa) = -26.02281 10.53870 -7.74206
#
# Velocity S-wave (km/s) = -3.78314 2.40752 -2.06350
# Velocity P-wave (km/s) = 3.55266 7.26108 5.71597
#
# Compressibility (1/GPa) = 0.01734736
#
# Stress axis : x y z
#
# Youngs Moduli (GPa) = 35.42950 35.42906 85.10663
#
# Poissons Ratio (x) = 0.37037 0.63713
# Poissons Ratio (y) = 0.37037 0.63715
# Poissons Ratio (z) = 0.26524 0.26524
#
# Static dielectric constant tensor:
#      x y z
#    x 3.231280 0.000000 0.000000 
#    y 0.000000 3.231290 0.000000 
#    z 0.000000 0.000000 3.698870 
# 
# 
# High freq. dielectric constant tensor:
#      x y z
#    x 1.685940 0.000000 0.000000 
#    y 0.000000 1.685940 0.000000 
#    z 0.000000 0.000000 1.723610 
# 
# From -- ./inp_files/4018.got.cif
#   From: 2010.03.12/outbox.cif.g09.slc.cpg/sg115_3_cif.got.tgz:4018.got - 2010.04.14 02:11:21.
