data_PCOD8309624
_publ_section_title
;
Structure prediction by ZEFSAII (Michael W. Deem and Ramdas Pophale) SiO2 
 PCOD8309624
Probable space group: P -4 M 2
;
_chemical_formula_sum "Si O2"
_cell_formula_units_Z 24
_cell_length_a 7.814692
_cell_length_b 7.814692
_cell_length_c 18.818355
_cell_angle_alpha 90.000000
_cell_angle_beta 90.000000
_cell_angle_gamma 90.000000
_cell_volume 1149.225857
_symmetry_space_group_name_H-M "P -4 M 2"
_symmetry_group_IT_number 115
_symmetry_cell_setting 'tetragonal'
loop_
_space_group_symop_operation_xyz
x,y,z
y,-x,-z
-x,-y,z
-y,x,-z
y,x,-z
-y,-x,-z
-x,y,z
x,-y,z
loop_
_atom_site_type_symbol
_atom_site_label
_atom_site_fract_x
_atom_site_fract_y
_atom_site_fract_z
Si Si1 0.797738 0.000000 0.671100
Si Si2 0.311315 0.297436 0.079802
Si Si3 0.197846 0.690957 0.573999
Si Si4 0.302844 0.000000 0.831533
O O1 0.732729 0.830459 0.629919
O O2 0.713090 0.000000 0.747487
O O3 0.000000 0.000000 0.680259
O O4 0.500000 0.218257 0.096139
O O5 0.325001 0.500000 0.087609
O O6 0.171773 0.219049 0.134664
O O7 0.251387 0.251387 0.000000
O O8 0.297754 0.702247 0.500000
O O9 0.225253 0.500000 0.605606
O O10 0.000000 0.728925 0.557603
O O11 0.500000 0.000000 0.853683
#
# Coordination Sequence:
#
# PCOD8309624 Si02
#       4
#     4   8   8   4
#     4  10  22  38  54  78 122 153 178 230 293 338
#     4   8  15  31  54  77 105 143 185 232 283 330
#     4  10  20  36  61  85 109 150 196 235 283 339
#     4  10  20  34  54  80 108 145 190 228 277 344
#
# _framework density 20.883623
#
# number of rings (size 3 to 8) (size 9 to 14) (size 15 to 20)
#    0.000    2.667    1.667    1.000    0.000    3.000 
#    3.000    0.000    0.000    0.000    0.000    0.000 
#    0.000    0.000    0.000    0.000    0.000    0.000 
#
# Total GULP energy -297511.805643 kJ/mol
# GULP energy per Si atom -12396.325235 kJ/mol
# Density = 2.083609 g / cm^3
# Si number density = 20.883623 Si / 1000 Ang^3
#
#
#
# Elastic Constant Matrix: (Units=GPa)
#
#
# Indices 1 2 3 4 5 6 
#
# 1 97.7630 29.1662 53.9320 0.0000 0.0000 0.0000
# 2 29.1662 97.7636 53.9329 0.0000 0.0000 0.0000
# 3 53.9320 53.9329 148.0839 0.0000 0.0000 0.0000
# 4 0.0000 0.0000 0.0000 28.2643 0.0000 0.0000
# 5 0.0000 0.0000 0.0000 0.0000 28.2642 0.0000
# 6 0.0000 0.0000 0.0000 0.0000 0.0000 10.2462
#
#
#
# Elastic Compliance Matrix: (Units=1/GPa)
#
#
# Indices 1 2 3 4 5 6 
#
# 1 0.012994 -0.001584 -0.004155 0.000000 0.000000 0.000000
# 2 -0.001584 0.012994 -0.004155 0.000000 0.000000 0.000000
# 3 -0.004155 -0.004155 0.009780 0.000000 0.000000 0.000000
# 4 0.000000 0.000000 0.000000 0.035380 0.000000 0.000000
# 5 0.000000 0.000000 0.000000 0.000000 0.035380 0.000000
# 6 0.000000 0.000000 0.000000 0.000000 0.000000 0.097598
#
#
# Mechanical properties :
#
#
# Convention : Reuss Voigt Hill
#
# Bulk Modulus (GPa) = 62.58840 68.63031 65.60935
# Shear Modulus (GPa) = 21.81107 27.12689 24.46898
#
# Velocity S-wave (km/s) = 3.23524 3.60801 3.42670
# Velocity P-wave (km/s) = 6.63256 7.09165 6.86595
#
# Compressibility (1/GPa) = 0.01597740
#
# Stress axis : x y z
#
# Youngs Moduli (GPa) = 76.95996 76.95989 102.25204
#
# Poissons Ratio (x) = 0.12191 0.42490
# Poissons Ratio (y) = 0.12191 0.42491
# Poissons Ratio (z) = 0.31980 0.31980
#
# Static dielectric constant tensor:
#      x y z
#    x 3.872480 0.000000 0.000000 
#    y 0.000000 3.872480 0.000000 
#    z 0.000000 0.000000 3.574360 
# 
# 
# High freq. dielectric constant tensor:
#      x y z
#    x 1.806890 0.000000 0.000000 
#    y 0.000000 1.806890 0.000000 
#    z 0.000000 0.000000 1.799770 
# 
# From -- ./inp_files/3965.got.cif
#   From: 2010.03.12/outbox.cif.g09.slc.cpg/sg115_2_cif.got.tgz:3965.got - 2010.04.14 02:11:21.
