data_PCOD8309321
_publ_section_title
;
Structure prediction by ZEFSAII (Michael W. Deem and Ramdas Pophale) SiO2 
 PCOD8309321
Probable space group: P -4 M 2
;
_chemical_formula_sum "Si O2"
_cell_formula_units_Z 64
_cell_length_a 13.179864
_cell_length_b 13.179864
_cell_length_c 21.418375
_cell_angle_alpha 90.000000
_cell_angle_beta 90.000000
_cell_angle_gamma 90.000000
_cell_volume 3720.560542
_symmetry_space_group_name_H-M "P -4 M 2"
_symmetry_group_IT_number 115
_symmetry_cell_setting 'tetragonal'
loop_
_space_group_symop_operation_xyz
x,y,z
y,-x,-z
-x,-y,z
-y,x,-z
y,x,-z
-y,-x,-z
-x,y,z
x,-y,z
loop_
_atom_site_type_symbol
_atom_site_label
_atom_site_fract_x
_atom_site_fract_y
_atom_site_fract_z
Si Si1 0.883925 0.618983 0.367478
Si Si2 0.882547 0.881821 0.188073
Si Si3 0.381739 0.382680 0.187980
Si Si4 0.251860 0.248371 0.279770
Si Si5 0.382915 0.782313 0.503617
Si Si6 0.882852 0.783030 0.056863
Si Si7 0.883312 0.382602 0.626357
Si Si8 0.282636 0.617126 0.056742
O O1 0.871341 0.500000 0.356126
O O2 0.822656 0.674953 0.313971
O O3 0.844318 0.650605 0.435517
O O4 0.000000 0.653242 0.362600
O O5 0.813873 0.827514 0.238784
O O6 0.853836 0.840639 0.120072
O O7 0.000000 0.860852 0.203648
O O8 0.856992 0.000000 0.189834
O O9 0.500000 0.357685 0.189228
O O10 0.360567 0.500000 0.204041
O O11 0.328489 0.313327 0.238765
O O12 0.340057 0.354326 0.120072
O O13 0.315512 0.184671 0.328921
O O14 0.321871 0.678130 0.500000
O O15 0.500000 0.750484 0.506610
O O16 0.359967 0.853973 0.444963
O O17 0.821326 0.678917 0.051180
O O18 0.000000 0.752817 0.055016
O O19 0.857934 0.857934 0.000000
O O20 0.864972 0.500000 0.642894
O O21 0.000000 0.352198 0.635685
O O22 0.252304 0.500000 0.054545
O O23 0.357699 0.642302 0.000000
#
# Coordination Sequence:
#
# PCOD8309321 Si02
#       8
#     8   8   8   8   8   8   8   8
#     4  10  21  36  56  80 107 140 179 221 266 320
#     4  10  21  36  54  79 109 141 179 220 265 316
#     4  10  21  36  54  79 111 145 179 216 263 320
#     4  12  20  35  55  80 110 144 178 216 266 313
#     4  10  19  36  57  80 106 136 174 221 270 316
#     4  10  20  36  58  82 107 140 180 225 271 315
#     4  10  21  36  56  80 105 138 181 222 262 313
#     4  10  20  36  58  82 107 140 181 225 267 315
#
# _framework density 17.201709999999999
#
# number of rings (size 3 to 8) (size 9 to 14) (size 15 to 20)
#    0.000    1.750    2.500    2.625    0.000    3.125 
#    0.000    0.000    0.000    0.000    0.000    0.875 
#    0.000    0.000    0.000    0.000    0.000    0.000 
#
# Total GULP energy -793847.893403 kJ/mol
# GULP energy per Si atom -12403.873334 kJ/mol
# Density = 1.716256 g / cm^3
# Si number density = 17.201710 Si / 1000 Ang^3
#
#
#
# Elastic Constant Matrix: (Units=GPa)
#
#
# Indices 1 2 3 4 5 6 
#
# 1 69.5249 52.9109 36.1068 0.0000 0.0000 0.0000
# 2 52.9109 69.5337 36.1079 0.0000 0.0000 0.0000
# 3 36.1068 36.1079 87.0453 0.0000 0.0000 0.0000
# 4 0.0000 0.0000 0.0000 38.5081 0.0000 0.0000
# 5 0.0000 0.0000 0.0000 0.0000 38.5048 0.0000
# 6 0.0000 0.0000 0.0000 0.0000 0.0000 26.6800
#
#
#
# Elastic Compliance Matrix: (Units=1/GPa)
#
#
# Indices 1 2 3 4 5 6 
#
# 1 0.035496 -0.024681 -0.004486 0.000000 0.000000 0.000000
# 2 -0.024681 0.035491 -0.004484 0.000000 0.000000 0.000000
# 3 -0.004486 -0.004484 0.015209 0.000000 0.000000 0.000000
# 4 0.000000 0.000000 0.000000 0.025969 0.000000 0.000000
# 5 0.000000 0.000000 0.000000 0.000000 0.025971 0.000000
# 6 0.000000 0.000000 0.000000 0.000000 0.000000 0.037481
#
#
# Mechanical properties :
#
#
# Convention : Reuss Voigt Hill
#
# Bulk Modulus (GPa) = 52.92759 52.92833 52.92796
# Shear Modulus (GPa) = 20.06288 27.47047 23.76668
#
# Velocity S-wave (km/s) = 3.41886 4.00054 3.72108
# Velocity P-wave (km/s) = 6.81325 7.22323 7.02124
#
# Compressibility (1/GPa) = 0.01889374
#
# Stress axis : x y z
#
# Youngs Moduli (GPa) = 28.17231 28.17638 65.74936
#
# Poissons Ratio (x) = 0.69541 0.29494
# Poissons Ratio (y) = 0.69531 0.29485
# Poissons Ratio (z) = 0.12638 0.12636
#
# Static dielectric constant tensor:
#      x y z
#    x 3.227230 0.000000 0.000000 
#    y 0.000000 3.227230 0.000000 
#    z 0.000000 0.000000 3.342880 
# 
# 
# High freq. dielectric constant tensor:
#      x y z
#    x 1.668310 0.000000 0.000000 
#    y 0.000000 1.668310 0.000000 
#    z 0.000000 0.000000 1.678990 
# 
# From -- ./inp_files/5373.got.cif
#   From: 2010.03.12/outbox.cif.g09.slc.cpg/sg115_3_cif.got.tgz:5373.got - 2010.04.14 02:11:21.
