data_PCOD8309057
_publ_section_title
;
Structure prediction by ZEFSAII (Michael W. Deem and Ramdas Pophale) SiO2 
 PCOD8309057
Probable space group: P -4 21 C
;
_chemical_formula_sum "Si O2"
_cell_formula_units_Z 42
_cell_length_a 14.757992
_cell_length_b 14.757992
_cell_length_c 9.157815
_cell_angle_alpha 90.000000
_cell_angle_beta 90.000000
_cell_angle_gamma 90.000000
_cell_volume 1994.556794
_symmetry_space_group_name_H-M "P -4 21 C"
_symmetry_group_IT_number 114
_symmetry_cell_setting 'tetragonal'
loop_
_space_group_symop_operation_xyz
x,y,z
y,-x,-z
-x,-y,z
-y,x,-z
1/2+x,1/2-y,1/2-z
1/2-x,1/2+y,1/2-z
1/2-y,1/2-x,1/2+z
1/2+y,1/2+x,1/2+z
loop_
_atom_site_type_symbol
_atom_site_label
_atom_site_fract_x
_atom_site_fract_y
_atom_site_fract_z
Si Si1 0.000000 0.000000 0.000000
Si Si2 0.699462 0.730797 0.872764
Si Si3 0.817568 0.610766 0.513049
Si Si4 0.948950 0.585326 0.278053
Si Si5 0.596323 0.764546 0.166092
Si Si6 0.840273 0.053013 0.814584
O O1 0.937113 0.055804 0.890040
O O2 0.712829 0.818132 0.769570
O O3 0.667858 0.644189 0.780345
O O4 0.791949 0.705777 0.951738
O O5 0.626188 0.750289 0.998856
O O6 0.883838 0.553170 0.409137
O O7 0.870239 0.621589 0.665936
O O8 0.728768 0.552484 0.547797
O O9 0.000000 0.500000 0.208572
O O10 0.024497 0.654590 0.334166
O O11 0.539868 0.676188 0.222332
#
# Coordination Sequence:
#
# PCOD8309057 Si02
#       6
#     2   8   8   8   8   8
#     4  12  28  48  70 104 140 192 246 296 344 452
#     4  12  23  45  72 100 141 188 230 297 350 436
#     4  11  21  45  64  96 138 179 225 283 359 416
#     4  11  25  39  67 103 141 176 229 293 351 420
#     4  11  26  42  70 105 138 183 241 280 368 423
#     4  11  26  46  69 101 139 188 240 286 361 422
#
# _framework density 21.057310000000001
#
# number of rings (size 3 to 8) (size 9 to 14) (size 15 to 20)
#    0.000    0.762    5.714    1.714    8.000    1.524 
#    0.000    0.000    0.000    0.000    0.000    0.000 
#    0.000    0.000    0.000    0.000    0.000    0.000 
#
# Total GULP energy -520599.795757 kJ/mol
# GULP energy per Si atom -12395.233232 kJ/mol
# Density = 2.100938 g / cm^3
# Si number density = 21.057310 Si / 1000 Ang^3
#
#
#
# Elastic Constant Matrix: (Units=GPa)
#
#
# Indices 1 2 3 4 5 6 
#
# 1 82.4715 0.0988 56.1169 0.0000 0.0000 0.0000
# 2 0.0988 82.4715 56.1169 0.0000 0.0000 0.0000
# 3 56.1169 56.1169 120.2934 0.0000 0.0000 0.0000
# 4 0.0000 0.0000 0.0000 31.4941 0.0000 0.0000
# 5 0.0000 0.0000 0.0000 0.0000 31.4941 0.0000
# 6 0.0000 0.0000 0.0000 0.0000 0.0000 10.3492
#
#
#
# Elastic Compliance Matrix: (Units=1/GPa)
#
#
# Indices 1 2 3 4 5 6 
#
# 1 0.022619 0.010479 -0.015440 0.000000 0.000000 0.000000
# 2 0.010479 0.022619 -0.015440 0.000000 0.000000 0.000000
# 3 -0.015440 -0.015440 0.022719 0.000000 0.000000 0.000000
# 4 0.000000 0.000000 0.000000 0.031752 0.000000 0.000000
# 5 0.000000 0.000000 0.000000 0.000000 0.031752 0.000000
# 6 0.000000 0.000000 0.000000 0.000000 0.000000 0.096625
#
#
# Mechanical properties :
#
#
# Convention : Reuss Voigt Hill
#
# Bulk Modulus (GPa) = 36.82709 56.65573 46.74141
# Shear Modulus (GPa) = 17.98946 26.19442 22.09194
#
# Velocity S-wave (km/s) = 2.92603 3.53081 3.24255
# Velocity P-wave (km/s) = 5.37982 6.60197 6.02198
#
# Compressibility (1/GPa) = 0.02715393
#
# Stress axis : x y z
#
# Youngs Moduli (GPa) = 44.21052 44.21052 44.01637
#
# Poissons Ratio (x) = -0.46329 0.67963
# Poissons Ratio (y) = -0.46329 0.67963
# Poissons Ratio (z) = 0.68262 0.68262
#
# Static dielectric constant tensor:
#      x y z
#    x 3.890130 0.000000 0.000000 
#    y 0.000000 3.890130 0.000000 
#    z 0.000000 0.000000 4.206720 
# 
# 
# High freq. dielectric constant tensor:
#      x y z
#    x 1.828070 0.000000 0.000000 
#    y 0.000000 1.828070 0.000000 
#    z 0.000000 0.000000 1.838610 
# 
# From -- ./inp_files/807.got.cif
#   From: 2010.03.12/outbox.cif.g09.slc.cpg/sg114_1_cif.got.tgz:807.got - 2010.04.14 02:08:34.
