data_PCOD8309862
_publ_section_title
;
Structure prediction by ZEFSAII (Michael W. Deem and Ramdas Pophale) SiO2 
 PCOD8309862
Probable space group: P -4 M 2
;
_chemical_formula_sum "Si O2"
_cell_formula_units_Z 45
_cell_length_a 8.550639
_cell_length_b 8.550639
_cell_length_c 31.266192
_cell_angle_alpha 90.000000
_cell_angle_beta 90.000000
_cell_angle_gamma 90.000000
_cell_volume 2285.978456
_symmetry_space_group_name_H-M "P -4 M 2"
_symmetry_group_IT_number 115
_symmetry_cell_setting 'tetragonal'
loop_
_space_group_symop_operation_xyz
x,y,z
y,-x,-z
-x,-y,z
-y,x,-z
y,x,-z
-y,-x,-z
-x,y,z
x,-y,z
loop_
_atom_site_type_symbol
_atom_site_label
_atom_site_fract_x
_atom_site_fract_y
_atom_site_fract_z
Si Si1 0.500000 0.326704 0.081809
Si Si2 0.177334 0.682450 0.120240
Si Si3 0.500000 0.500000 0.000000
Si Si4 0.823366 0.177013 0.210249
Si Si5 0.817626 0.825338 0.371960
Si Si6 0.678375 0.323193 0.290456
Si Si7 0.174902 0.682566 0.540967
O O1 0.500000 0.500000 0.103420
O O2 0.667368 0.245025 0.095692
O O3 0.500000 0.344610 0.029968
O O4 0.171345 0.500000 0.110034
O O5 0.209122 0.711126 0.170147
O O6 0.000000 0.750777 0.108090
O O7 0.711426 0.216664 0.249456
O O8 0.000000 0.198046 0.226848
O O9 0.791074 0.000000 0.195267
O O10 0.780280 0.720678 0.331233
O O11 0.750452 0.749143 0.415515
O O12 0.000000 0.833992 0.377518
O O13 0.747138 0.000000 0.365321
O O14 0.500000 0.300697 0.303913
O O15 0.718132 0.500000 0.277395
O O16 0.276737 0.723264 0.500000
O O17 0.170643 0.500000 0.546270
O O18 0.000000 0.751363 0.535040
#
# Coordination Sequence:
#
# PCOD8309862 Si02
#       7
#     4   8   1   8   8   8   8
#     4   8  16  30  53  80 113 148 189 237 294 341
#     4   9  17  31  53  80 108 147 192 236 286 343
#     4   8  16  32  52  88 112 152 192 240 292 340
#     4  10  21  36  54  78 110 146 187 235 285 339
#     4  10  21  38  60  82 105 137 178 224 273 327
#     4  11  24  38  53  77 109 145 185 226 275 331
#     4  10  21  37  58  83 109 138 173 215 267 328
#
# _framework density 19.685224000000002
#
# number of rings (size 3 to 8) (size 9 to 14) (size 15 to 20)
#    0.267    1.956    0.000    2.667    1.244    7.467 
#    0.000    0.000    0.000    2.133    0.000    0.000 
#    0.000    0.000    0.000    0.000    0.000    0.000 
#
# Total GULP energy -557659.481716 kJ/mol
# GULP energy per Si atom -12392.432927 kJ/mol
# Density = 1.964042 g / cm^3
# Si number density = 19.685224 Si / 1000 Ang^3
#
#
#
# Elastic Constant Matrix: (Units=GPa)
#
#
# Indices 1 2 3 4 5 6 
#
# 1 69.3244 23.8164 32.6779 0.0000 0.0000 0.0000
# 2 23.8164 69.3247 32.6784 0.0000 0.0000 0.0000
# 3 32.6779 32.6784 115.6607 0.0000 0.0000 0.0000
# 4 0.0000 0.0000 0.0000 14.8498 0.0000 0.0000
# 5 0.0000 0.0000 0.0000 0.0000 14.8498 0.0000
# 6 0.0000 0.0000 0.0000 0.0000 0.0000 20.5207
#
#
#
# Elastic Compliance Matrix: (Units=1/GPa)
#
#
# Indices 1 2 3 4 5 6 
#
# 1 0.017683 -0.004291 -0.003783 0.000000 0.000000 0.000000
# 2 -0.004291 0.017683 -0.003784 0.000000 0.000000 0.000000
# 3 -0.003783 -0.003784 0.010784 0.000000 0.000000 0.000000
# 4 0.000000 0.000000 0.000000 0.067341 0.000000 0.000000
# 5 0.000000 0.000000 0.000000 0.000000 0.067341 0.000000
# 6 0.000000 0.000000 0.000000 0.000000 0.000000 0.048731
#
#
# Mechanical properties :
#
#
# Convention : Reuss Voigt Hill
#
# Bulk Modulus (GPa) = 44.57826 48.07281 46.32554
# Shear Modulus (GPa) = 19.17495 21.05319 20.11407
#
# Velocity S-wave (km/s) = 3.12441 3.27386 3.20001
# Velocity P-wave (km/s) = 5.97584 6.22612 6.10226
#
# Compressibility (1/GPa) = 0.02243246
#
# Stress axis : x y z
#
# Youngs Moduli (GPa) = 56.55256 56.55260 92.73064
#
# Poissons Ratio (x) = 0.24269 0.35084
# Poissons Ratio (y) = 0.24269 0.35085
# Poissons Ratio (z) = 0.21396 0.21397
#
# Static dielectric constant tensor:
#      x y z
#    x 3.638410 0.000000 0.000000 
#    y 0.000000 3.638410 0.000000 
#    z 0.000000 0.000000 3.361630 
# 
# 
# High freq. dielectric constant tensor:
#      x y z
#    x 1.758270 0.000000 0.000000 
#    y 0.000000 1.758270 0.000000 
#    z 0.000000 0.000000 1.755630 
# 
# From -- ./inp_files/5846.got.cif
#   From: 2010.03.12/outbox.cif.g09.slc.cpg/sg115_3_cif.got.tgz:5846.got - 2010.04.14 02:11:21.
