data_PCOD8309988
_publ_section_title
;
Structure prediction by ZEFSAII (Michael W. Deem and Ramdas Pophale) SiO2 
 PCOD8309988
Probable space group: P -4 M 2
;
_chemical_formula_sum "Si O2"
_cell_formula_units_Z 40
_cell_length_a 14.501346
_cell_length_b 14.501346
_cell_length_c 9.103128
_cell_angle_alpha 90.000000
_cell_angle_beta 90.000000
_cell_angle_gamma 90.000000
_cell_volume 1914.288010
_symmetry_space_group_name_H-M "P -4 M 2"
_symmetry_group_IT_number 115
_symmetry_cell_setting 'tetragonal'
loop_
_space_group_symop_operation_xyz
x,y,z
y,-x,-z
-x,-y,z
-y,x,-z
y,x,-z
-y,-x,-z
-x,y,z
x,-y,z
loop_
_atom_site_type_symbol
_atom_site_label
_atom_site_fract_x
_atom_site_fract_y
_atom_site_fract_z
Si Si1 0.600569 0.893249 0.548940
Si Si2 0.265242 0.609166 0.917781
Si Si3 0.790943 0.723101 0.650030
Si Si4 0.390237 0.896546 0.867261
Si Si5 0.896539 0.898282 0.674695
O O1 0.500000 0.847505 0.518859
O O2 0.666071 0.879560 0.408968
O O3 0.643890 0.857955 0.706251
O O4 0.586387 0.000000 0.575710
O O5 0.269197 0.500000 0.895203
O O6 0.265181 0.660683 0.762377
O O7 0.357708 0.642293 0.000000
O O8 0.174246 0.642028 0.007185
O O9 0.732237 0.732237 0.500000
O O10 0.826905 0.817893 0.726955
O O11 0.500000 0.899039 0.859905
O O12 0.352460 0.000000 0.902711
O O13 0.896685 0.896685 0.500000
O O14 0.000000 0.880876 0.734811
O O15 0.862203 0.000000 0.728459
#
# Coordination Sequence:
#
# PCOD8309988 Si02
#       5
#     8   8   8   8   8
#     4   9  17  31  53  82 116 151 185 228 285 341
#     4  11  24  42  62  84 112 149 195 245 303 372
#     4  11  21  33  54  86 116 146 192 248 303 353
#     4   8  16  33  57  85 119 156 189 227 284 354
#     4   8  15  29  49  76 115 161 201 233 270 327
#
# _framework density 20.895499000000001
#
# number of rings (size 3 to 8) (size 9 to 14) (size 15 to 20)
#    0.000    2.600    0.000    4.200    0.000    2.600 
#    0.000    4.000    0.000    0.000    0.000    2.800 
#    0.000    4.800    0.000    0.000    0.000    0.000 
#
# Total GULP energy -495663.916492 kJ/mol
# GULP energy per Si atom -12391.597912 kJ/mol
# Density = 2.084794 g / cm^3
# Si number density = 20.895499 Si / 1000 Ang^3
#
#
#
# Elastic Constant Matrix: (Units=GPa)
#
#
# Indices 1 2 3 4 5 6 
#
# 1 101.9246 39.6847 41.0767 0.0000 0.0000 0.0000
# 2 39.6847 101.9267 41.0773 0.0000 0.0000 0.0000
# 3 41.0767 41.0773 84.1378 0.0000 0.0000 0.0000
# 4 0.0000 0.0000 0.0000 23.2531 0.0000 0.0000
# 5 0.0000 0.0000 0.0000 0.0000 23.2527 0.0000
# 6 0.0000 0.0000 0.0000 0.0000 0.0000 25.9754
#
#
#
# Elastic Compliance Matrix: (Units=1/GPa)
#
#
# Indices 1 2 3 4 5 6 
#
# 1 0.012959 -0.003107 -0.004810 0.000000 0.000000 0.000000
# 2 -0.003107 0.012959 -0.004810 0.000000 0.000000 0.000000
# 3 -0.004810 -0.004810 0.016582 0.000000 0.000000 0.000000
# 4 0.000000 0.000000 0.000000 0.043005 0.000000 0.000000
# 5 0.000000 0.000000 0.000000 0.000000 0.043006 0.000000
# 6 0.000000 0.000000 0.000000 0.000000 0.000000 0.038498
#
#
# Mechanical properties :
#
#
# Convention : Reuss Voigt Hill
#
# Bulk Modulus (GPa) = 58.66374 59.07407 58.86891
# Shear Modulus (GPa) = 25.23400 25.57292 25.40346
#
# Velocity S-wave (km/s) = 3.47887 3.50215 3.49053
# Velocity P-wave (km/s) = 6.65375 6.68476 6.66927
#
# Compressibility (1/GPa) = 0.01704631
#
# Stress axis : x y z
#
# Youngs Moduli (GPa) = 77.16380 77.16521 60.30736
#
# Poissons Ratio (x) = 0.23977 0.29007
# Poissons Ratio (y) = 0.23977 0.29007
# Poissons Ratio (z) = 0.37115 0.37116
#
# Static dielectric constant tensor:
#      x y z
#    x 3.912110 0.000000 0.000000 
#    y 0.000000 3.912110 0.000000 
#    z 0.000000 0.000000 3.654690 
# 
# 
# High freq. dielectric constant tensor:
#      x y z
#    x 1.811910 0.000000 0.000000 
#    y 0.000000 1.811910 0.000000 
#    z 0.000000 0.000000 1.790010 
# 
# From -- ./inp_files/1589.got.cif
#   From: 2010.03.12/outbox.cif.g09.slc.cpg/sg115_1_cif.got.tgz:1589.got - 2010.04.14 02:11:21.
