data_PCOD8309999
_publ_section_title
;
Structure prediction by ZEFSAII (Michael W. Deem and Ramdas Pophale) SiO2 
 PCOD8309999
Probable space group: P -4 M 2
;
_chemical_formula_sum "Si O2"
_cell_formula_units_Z 24
_cell_length_a 7.861192
_cell_length_b 7.861192
_cell_length_c 18.815651
_cell_angle_alpha 90.000000
_cell_angle_beta 90.000000
_cell_angle_gamma 90.000000
_cell_volume 1162.775991
_symmetry_space_group_name_H-M "P -4 M 2"
_symmetry_group_IT_number 115
_symmetry_cell_setting 'tetragonal'
loop_
_space_group_symop_operation_xyz
x,y,z
y,-x,-z
-x,-y,z
-y,x,-z
y,x,-z
-y,-x,-z
-x,y,z
x,-y,z
loop_
_atom_site_type_symbol
_atom_site_label
_atom_site_fract_x
_atom_site_fract_y
_atom_site_fract_z
Si Si1 0.699857 0.000000 0.667798
Si Si2 0.311260 0.298833 0.079925
Si Si3 0.194243 0.688127 0.572653
Si Si4 0.296608 0.000000 0.827862
O O1 0.760178 0.171297 0.630240
O O2 0.500000 0.000000 0.668594
O O3 0.773139 0.000000 0.747550
O O4 0.500000 0.222105 0.096625
O O5 0.322368 0.500000 0.087444
O O6 0.169877 0.224549 0.133748
O O7 0.252830 0.252830 0.000000
O O8 0.299439 0.700562 0.500000
O O9 0.228027 0.500000 0.605450
O O10 0.000000 0.711724 0.549867
O O11 0.500000 0.000000 0.830661
#
# Coordination Sequence:
#
# PCOD8309999 Si02
#       4
#     4   8   8   4
#     4  11  23  37  57  91 125 158 195 241 308 364
#     4   8  14  27  50  77 106 148 196 239 288 341
#     4  11  23  40  63  87 115 157 205 248 296 354
#     4   9  18  31  51  81 117 150 189 238 289 352
#
# _framework density 20.640260999999999
#
# number of rings (size 3 to 8) (size 9 to 14) (size 15 to 20)
#    0.000    2.333    1.667    2.500    0.000    3.667 
#    0.000    3.333    7.333    0.000    0.000    0.000 
#    0.000    0.000    0.000    0.000    0.000    0.000 
#
# Total GULP energy -297505.459177 kJ/mol
# GULP energy per Si atom -12396.060799 kJ/mol
# Density = 2.059328 g / cm^3
# Si number density = 20.640261 Si / 1000 Ang^3
#
#
#
# Elastic Constant Matrix: (Units=GPa)
#
#
# Indices 1 2 3 4 5 6 
#
# 1 112.6734 38.8347 66.6292 0.0000 0.0000 0.0000
# 2 38.8347 112.6747 66.6297 0.0000 0.0000 0.0000
# 3 66.6292 66.6297 163.9295 0.0000 0.0000 0.0000
# 4 0.0000 0.0000 0.0000 26.0271 0.0000 0.0000
# 5 0.0000 0.0000 0.0000 0.0000 26.0272 0.0000
# 6 0.0000 0.0000 0.0000 0.0000 0.0000 15.9659
#
#
#
# Elastic Compliance Matrix: (Units=1/GPa)
#
#
# Indices 1 2 3 4 5 6 
#
# 1 0.011908 -0.001635 -0.004175 0.000000 0.000000 0.000000
# 2 -0.001635 0.011908 -0.004175 0.000000 0.000000 0.000000
# 3 -0.004175 -0.004175 0.009494 0.000000 0.000000 0.000000
# 4 0.000000 0.000000 0.000000 0.038421 0.000000 0.000000
# 5 0.000000 0.000000 0.000000 0.000000 0.038421 0.000000
# 6 0.000000 0.000000 0.000000 0.000000 0.000000 0.062633
#
#
# Mechanical properties :
#
#
# Convention : Reuss Voigt Hill
#
# Bulk Modulus (GPa) = 74.97200 81.49608 78.23404
# Shear Modulus (GPa) = 25.35447 28.08299 26.71873
#
# Velocity S-wave (km/s) = 3.50865 3.69262 3.60181
# Velocity P-wave (km/s) = 7.26748 7.59937 7.43527
#
# Compressibility (1/GPa) = 0.01333831
#
# Stress axis : x y z
#
# Youngs Moduli (GPa) = 83.97816 83.97901 105.32593
#
# Poissons Ratio (x) = 0.13731 0.43977
# Poissons Ratio (y) = 0.13731 0.43977
# Poissons Ratio (z) = 0.35064 0.35064
#
# Static dielectric constant tensor:
#      x y z
#    x 3.900200 0.000000 0.000000 
#    y 0.000000 3.900200 0.000000 
#    z 0.000000 0.000000 3.869980 
# 
# 
# High freq. dielectric constant tensor:
#      x y z
#    x 1.801440 0.000000 0.000000 
#    y 0.000000 1.801440 0.000000 
#    z 0.000000 0.000000 1.794050 
# 
# From -- ./inp_files/3967.got.cif
#   From: 2010.03.12/outbox.cif.g09.slc.cpg/sg115_2_cif.got.tgz:3967.got - 2010.04.14 02:11:21.
