data_PCOD8309132
_publ_section_title
;
Structure prediction by ZEFSAII (Michael W. Deem and Ramdas Pophale) SiO2 
 PCOD8309132
Probable space group: P -4 21 C
;
_chemical_formula_sum "Si O2"
_cell_formula_units_Z 40
_cell_length_a 9.152001
_cell_length_b 9.152001
_cell_length_c 21.140554
_cell_angle_alpha 90.000000
_cell_angle_beta 90.000000
_cell_angle_gamma 90.000000
_cell_volume 1770.714248
_symmetry_space_group_name_H-M "P -4 21 C"
_symmetry_group_IT_number 114
_symmetry_cell_setting 'tetragonal'
loop_
_space_group_symop_operation_xyz
x,y,z
y,-x,-z
-x,-y,z
-y,x,-z
1/2+x,1/2-y,1/2-z
1/2-x,1/2+y,1/2-z
1/2-y,1/2-x,1/2+z
1/2+y,1/2+x,1/2+z
loop_
_atom_site_type_symbol
_atom_site_label
_atom_site_fract_x
_atom_site_fract_y
_atom_site_fract_z
Si Si1 0.631775 0.275464 0.406773
Si Si2 0.000000 0.000000 0.500000
Si Si3 0.779332 0.461241 0.924406
Si Si4 0.500000 0.500000 0.500000
Si Si5 0.000000 0.500000 0.529302
Si Si6 0.105543 0.378884 0.803076
Si Si7 0.116491 0.107896 0.222015
O O1 0.804166 0.251296 0.392226
O O2 0.606001 0.398783 0.458974
O O3 0.565748 0.121919 0.425765
O O4 0.551543 0.320590 0.341724
O O5 0.033977 0.133461 0.452631
O O6 0.853934 0.572809 0.874740
O O7 0.878487 0.429376 0.984920
O O8 0.258473 0.342890 0.768197
O O9 0.000000 0.500000 0.770496
O O10 0.999350 0.242140 0.802403
O O11 0.000000 0.000000 0.255842
#
# Coordination Sequence:
#
# PCOD8309132 Si02
#       7
#     8   2   8   2   4   8   8
#     4  12  25  44  72 108 148 191 246 300 378 445
#     4  12  28  40  74 116 148 192 256 294 380 468
#     4  12  25  47  72 108 149 196 240 308 375 448
#     4  12  24  44  74 104 148 196 232 310 364 452
#     4  12  24  42  74 108 152 192 238 306 370 462
#     4  12  27  50  78 103 153 200 248 315 385 441
#     4  12  28  49  73 110 140 196 259 313 375 454
#
# _framework density 22.589753999999999
#
# number of rings (size 3 to 8) (size 9 to 14) (size 15 to 20)
#    0.000    0.000    8.000    1.200    2.800    1.600 
#    0.000    0.000    0.000    0.000    0.000    0.000 
#    0.000    0.000    0.000    0.000    0.000    0.000 
#
# Total GULP energy -495857.046733 kJ/mol
# GULP energy per Si atom -12396.426168 kJ/mol
# Density = 2.253834 g / cm^3
# Si number density = 22.589754 Si / 1000 Ang^3
#
#
#
# Elastic Constant Matrix: (Units=GPa)
#
#
# Indices 1 2 3 4 5 6 
#
# 1 134.1060 46.4808 43.3043 0.0000 0.0000 0.0000
# 2 46.4808 134.1060 43.3043 0.0000 0.0000 0.0000
# 3 43.3043 43.3043 96.1933 0.0000 0.0000 0.0000
# 4 0.0000 0.0000 0.0000 24.3238 0.0000 0.0000
# 5 0.0000 0.0000 0.0000 0.0000 24.3238 0.0000
# 6 0.0000 0.0000 0.0000 0.0000 0.0000 46.2557
#
#
#
# Elastic Compliance Matrix: (Units=1/GPa)
#
#
# Indices 1 2 3 4 5 6 
#
# 1 0.009237 -0.002175 -0.003179 0.000000 0.000000 0.000000
# 2 -0.002175 0.009237 -0.003179 0.000000 0.000000 0.000000
# 3 -0.003179 -0.003179 0.013258 0.000000 0.000000 0.000000
# 4 0.000000 0.000000 0.000000 0.041112 0.000000 0.000000
# 5 0.000000 0.000000 0.000000 0.000000 0.041112 0.000000
# 6 0.000000 0.000000 0.000000 0.000000 0.000000 0.021619
#
#
# Mechanical properties :
#
#
# Convention : Reuss Voigt Hill
#
# Bulk Modulus (GPa) = 68.18667 70.06488 69.12578
# Shear Modulus (GPa) = 31.73969 34.40172 33.07071
#
# Velocity S-wave (km/s) = 3.75246 3.90666 3.83034
# Velocity P-wave (km/s) = 7.00178 7.17167 7.08723
#
# Compressibility (1/GPa) = 0.01466562
#
# Stress axis : x y z
#
# Youngs Moduli (GPa) = 108.25719 108.25719 75.42476
#
# Poissons Ratio (x) = 0.23546 0.23980
# Poissons Ratio (y) = 0.23546 0.23980
# Poissons Ratio (z) = 0.34418 0.34418
#
# Static dielectric constant tensor:
#      x y z
#    x 4.301490 0.000000 0.000000 
#    y 0.000000 4.301490 0.000000 
#    z 0.000000 0.000000 3.937750 
# 
# 
# High freq. dielectric constant tensor:
#      x y z
#    x 1.902180 0.000000 0.000000 
#    y 0.000000 1.902180 0.000000 
#    z 0.000000 0.000000 1.882600 
# 
# From -- ./inp_files/3455.got.cif
#   From: 2010.03.12/outbox.cif.g09.slc.cpg/sg114_2_cif.got.tgz:3455.got - 2010.04.14 02:08:34.
