data_PCOD8309961
_publ_section_title
;
Structure prediction by ZEFSAII (Michael W. Deem and Ramdas Pophale) SiO2 
 PCOD8309961
Probable space group: P -4 M 2
;
_chemical_formula_sum "Si O2"
_cell_formula_units_Z 29
_cell_length_a 8.085588
_cell_length_b 8.085588
_cell_length_c 20.848949
_cell_angle_alpha 90.000000
_cell_angle_beta 90.000000
_cell_angle_gamma 90.000000
_cell_volume 1363.036178
_symmetry_space_group_name_H-M "P -4 M 2"
_symmetry_group_IT_number 115
_symmetry_cell_setting 'tetragonal'
loop_
_space_group_symop_operation_xyz
x,y,z
y,-x,-z
-x,-y,z
-y,x,-z
y,x,-z
-y,-x,-z
-x,y,z
x,-y,z
loop_
_atom_site_type_symbol
_atom_site_label
_atom_site_fract_x
_atom_site_fract_y
_atom_site_fract_z
Si Si1 0.000000 0.000000 0.500000
Si Si2 0.701497 0.000000 0.597150
Si Si3 0.309988 0.679343 0.675370
Si Si4 0.683901 0.304283 0.930367
Si Si5 0.188781 0.184160 0.800833
O O1 0.176806 0.000000 0.536527
O O2 0.759313 0.837140 0.636801
O O3 0.500000 0.000000 0.581799
O O4 0.500000 0.667481 0.658528
O O5 0.228980 0.500000 0.655940
O O6 0.289460 0.701647 0.751824
O O7 0.500000 0.232196 0.918015
O O8 0.676454 0.500000 0.932143
O O9 0.802005 0.245133 0.873805
O O10 0.754347 0.245654 0.000000
O O11 0.000000 0.189366 0.778850
O O12 0.261709 0.000000 0.796215
#
# Coordination Sequence:
#
# PCOD8309961 Si02
#       5
#     1   4   8   8   8
#     4  12  28  44  76 104 140 176 218 252 296 384
#     4  10  24  46  68 100 140 173 211 262 311 360
#     4  10  21  39  65  93 124 165 211 259 312 371
#     4   9  19  36  55  75 104 147 201 257 315 382
#     4  11  23  35  52  82 120 156 200 257 317 380
#
# _framework density 21.276032000000001
#
# number of rings (size 3 to 8) (size 9 to 14) (size 15 to 20)
#    0.000    1.931    1.379    2.483    1.931    8.276 
#    0.000    4.138    0.000    0.000    0.000    0.000 
#    0.000    0.000    0.000    0.000    0.000    0.000 
#
# Total GULP energy -359329.646908 kJ/mol
# GULP energy per Si atom -12390.677480 kJ/mol
# Density = 2.122761 g / cm^3
# Si number density = 21.276032 Si / 1000 Ang^3
#
#
#
# Elastic Constant Matrix: (Units=GPa)
#
#
# Indices 1 2 3 4 5 6 
#
# 1 94.9798 26.6271 47.5162 0.0000 0.0000 0.0000
# 2 26.6271 94.9798 47.5163 0.0000 0.0000 0.0000
# 3 47.5162 47.5163 121.5581 0.0000 0.0000 0.0000
# 4 0.0000 0.0000 0.0000 33.6293 0.0000 0.0000
# 5 0.0000 0.0000 0.0000 0.0000 33.6291 0.0000
# 6 0.0000 0.0000 0.0000 0.0000 0.0000 18.1635
#
#
#
# Elastic Compliance Matrix: (Units=1/GPa)
#
#
# Indices 1 2 3 4 5 6 
#
# 1 0.013235 -0.001395 -0.004628 0.000000 0.000000 0.000000
# 2 -0.001395 0.013235 -0.004628 0.000000 0.000000 0.000000
# 3 -0.004628 -0.004628 0.011845 0.000000 0.000000 0.000000
# 4 0.000000 0.000000 0.000000 0.029736 0.000000 0.000000
# 5 0.000000 0.000000 0.000000 0.000000 0.029736 0.000000
# 6 0.000000 0.000000 0.000000 0.000000 0.000000 0.055055
#
#
# Mechanical properties :
#
#
# Convention : Reuss Voigt Hill
#
# Bulk Modulus (GPa) = 58.78177 61.64853 60.21515
# Shear Modulus (GPa) = 27.80624 29.74159 28.77391
#
# Velocity S-wave (km/s) = 3.61907 3.74290 3.68150
# Velocity P-wave (km/s) = 6.71950 6.90779 6.81429
#
# Compressibility (1/GPa) = 0.01701208
#
# Stress axis : x y z
#
# Youngs Moduli (GPa) = 75.55725 75.55714 84.42546
#
# Poissons Ratio (x) = 0.10540 0.39074
# Poissons Ratio (y) = 0.10540 0.39074
# Poissons Ratio (z) = 0.34969 0.34969
#
# Static dielectric constant tensor:
#      x y z
#    x 4.104290 0.000000 0.000000 
#    y 0.000000 4.104280 0.000000 
#    z 0.000000 0.000000 3.853260 
# 
# 
# High freq. dielectric constant tensor:
#      x y z
#    x 1.830830 0.000000 0.000000 
#    y 0.000000 1.830830 0.000000 
#    z 0.000000 0.000000 1.821990 
# 
# From -- ./inp_files/4596.got.cif
#   From: 2010.03.12/outbox.cif.g09.slc.cpg/sg115_3_cif.got.tgz:4596.got - 2010.04.14 02:11:21.
