data_PCOD8309658
_publ_section_title
;
Structure prediction by ZEFSAII (Michael W. Deem and Ramdas Pophale) SiO2 
 PCOD8309658
Probable space group: P -4 M 2
;
_chemical_formula_sum "Si O2"
_cell_formula_units_Z 29
_cell_length_a 8.069297
_cell_length_b 8.069297
_cell_length_c 21.023746
_cell_angle_alpha 90.000000
_cell_angle_beta 90.000000
_cell_angle_gamma 90.000000
_cell_volume 1368.930822
_symmetry_space_group_name_H-M "P -4 M 2"
_symmetry_group_IT_number 115
_symmetry_cell_setting 'tetragonal'
loop_
_space_group_symop_operation_xyz
x,y,z
y,-x,-z
-x,-y,z
-y,x,-z
y,x,-z
-y,-x,-z
-x,y,z
x,-y,z
loop_
_atom_site_type_symbol
_atom_site_label
_atom_site_fract_x
_atom_site_fract_y
_atom_site_fract_z
Si Si1 0.690180 0.319520 0.324870
Si Si2 0.000000 0.000000 0.500000
Si Si3 0.808933 0.809153 0.197110
Si Si4 0.681461 0.806906 0.064781
Si Si5 0.000000 0.702002 0.596714
O O1 0.500000 0.331592 0.342208
O O2 0.771776 0.500000 0.342846
O O3 0.708299 0.292027 0.249500
O O4 0.760536 0.163212 0.364046
O O5 0.000000 0.823043 0.536340
O O6 0.773609 0.733242 0.126866
O O7 0.000000 0.788143 0.213162
O O8 0.752860 0.000000 0.200621
O O9 0.500000 0.725113 0.059382
O O10 0.666854 0.000000 0.075548
O O11 0.779445 0.779445 0.000000
O O12 0.000000 0.500000 0.581818
#
# Coordination Sequence:
#
# PCOD8309658 Si02
#       5
#     8   1   8   8   4
#     4  10  21  38  63  93 127 168 209 255 315 372
#     4  12  28  44  76 104 132 176 226 244 304 384
#     4  10  20  34  57  86 117 153 201 259 317 377
#     4  10  21  36  54  76 108 153 201 253 313 373
#     4  10  24  46  68  98 140 173 209 266 309 360
#
# _framework density 21.184415999999999
#
# number of rings (size 3 to 8) (size 9 to 14) (size 15 to 20)
#    0.000    1.931    1.379    1.655    1.931    5.517 
#    0.000    0.000    0.000    0.000    0.000    0.000 
#    0.000    0.000    0.000    0.000    0.000    0.000 
#
# Total GULP energy -359319.299747 kJ/mol
# GULP energy per Si atom -12390.320681 kJ/mol
# Density = 2.113620 g / cm^3
# Si number density = 21.184416 Si / 1000 Ang^3
#
#
#
# Elastic Constant Matrix: (Units=GPa)
#
#
# Indices 1 2 3 4 5 6 
#
# 1 85.5046 32.5043 43.9281 0.0000 0.0000 0.0000
# 2 32.5043 85.5046 43.9281 0.0000 0.0000 0.0000
# 3 43.9281 43.9281 132.8018 0.0000 0.0000 0.0000
# 4 0.0000 0.0000 0.0000 21.2851 0.0000 0.0000
# 5 0.0000 0.0000 0.0000 0.0000 21.2851 0.0000
# 6 0.0000 0.0000 0.0000 0.0000 0.0000 12.5693
#
#
#
# Elastic Compliance Matrix: (Units=1/GPa)
#
#
# Indices 1 2 3 4 5 6 
#
# 1 0.015055 -0.003813 -0.003719 0.000000 0.000000 0.000000
# 2 -0.003813 0.015055 -0.003719 0.000000 0.000000 0.000000
# 3 -0.003719 -0.003719 0.009990 0.000000 0.000000 0.000000
# 4 0.000000 0.000000 0.000000 0.046981 0.000000 0.000000
# 5 0.000000 0.000000 0.000000 0.000000 0.046981 0.000000
# 6 0.000000 0.000000 0.000000 0.000000 0.000000 0.079559
#
#
# Mechanical properties :
#
#
# Convention : Reuss Voigt Hill
#
# Bulk Modulus (GPa) = 56.81786 60.50356 58.66071
# Shear Modulus (GPa) = 20.66205 23.25791 21.95998
#
# Velocity S-wave (km/s) = 3.12643 3.31702 3.22314
# Velocity P-wave (km/s) = 6.31756 6.57971 6.44997
#
# Compressibility (1/GPa) = 0.01760010
#
# Stress axis : x y z
#
# Youngs Moduli (GPa) = 66.42234 66.42234 100.09779
#
# Poissons Ratio (x) = 0.25324 0.37224
# Poissons Ratio (y) = 0.25324 0.37224
# Poissons Ratio (z) = 0.24701 0.24701
#
# Static dielectric constant tensor:
#      x y z
#    x 4.023570 0.000000 0.000000 
#    y 0.000000 4.023570 0.000000 
#    z 0.000000 0.000000 3.717540 
# 
# 
# High freq. dielectric constant tensor:
#      x y z
#    x 1.825650 0.000000 0.000000 
#    y 0.000000 1.825650 0.000000 
#    z 0.000000 0.000000 1.821010 
# 
# From -- ./inp_files/4524.got.cif
#   From: 2010.03.12/outbox.cif.g09.slc.cpg/sg115_3_cif.got.tgz:4524.got - 2010.04.14 02:11:21.
