data_PCOD8309204
_publ_section_title
;
Structure prediction by ZEFSAII (Michael W. Deem and Ramdas Pophale) SiO2 
 PCOD8309204
Probable space group: P -4 M 2
;
_chemical_formula_sum "Si O2"
_cell_formula_units_Z 37
_cell_length_a 13.547092
_cell_length_b 13.547092
_cell_length_c 10.935913
_cell_angle_alpha 90.000000
_cell_angle_beta 90.000000
_cell_angle_gamma 90.000000
_cell_volume 2006.999235
_symmetry_space_group_name_H-M "P -4 M 2"
_symmetry_group_IT_number 115
_symmetry_cell_setting 'tetragonal'
loop_
_space_group_symop_operation_xyz
x,y,z
y,-x,-z
-x,-y,z
-y,x,-z
y,x,-z
-y,-x,-z
-x,y,z
x,-y,z
loop_
_atom_site_type_symbol
_atom_site_label
_atom_site_fract_x
_atom_site_fract_y
_atom_site_fract_z
Si Si1 0.109195 0.500000 0.928029
Si Si2 0.314366 0.261276 0.704779
Si Si3 0.612699 0.387302 0.500000
Si Si4 0.500000 0.500000 0.000000
Si Si5 0.715398 0.500000 0.121812
Si Si6 0.391039 0.889908 0.524316
Si Si7 0.892264 0.683016 0.750238
O O1 0.116734 0.405924 0.842854
O O2 0.000000 0.500000 0.993972
O O3 0.203383 0.500000 0.015604
O O4 0.322329 0.358863 0.618780
O O5 0.400496 0.263679 0.804079
O O6 0.320527 0.168309 0.615455
O O7 0.206791 0.251760 0.770280
O O8 0.500000 0.366902 0.534069
O O9 0.500000 0.399066 0.920977
O O10 0.500000 0.841510 0.528623
O O11 0.352657 0.888635 0.387831
O O12 0.394959 0.000000 0.575495
O O13 0.000000 0.736658 0.771505
#
# Coordination Sequence:
#
# PCOD8309204 Si02
#       7
#     4   8   4   1   4   8   8
#     4  10  22  41  60  78 104 149 203 249 274 314
#     4  12  22  34  57  84 116 149 182 232 285 342
#     4  11  22  32  48  82 118 155 182 208 260 347
#     4  12  28  44  44  74 120 164 188 216 262 372
#     4  12  26  39  54  79 113 157 187 225 296 338
#     4  10  18  32  54  86 116 142 183 234 288 330
#     4  10  20  35  58  78 106 151 195 235 269 322
#
# _framework density 18.435483000000001
#
# number of rings (size 3 to 8) (size 9 to 14) (size 15 to 20)
#    0.000    1.189    5.405    1.297    3.027    0.865 
#    0.000    0.000    0.000    0.649    0.000    3.027 
#    0.000    1.730    0.000    0.000    0.000    0.000 
#
# Total GULP energy -458398.110137 kJ/mol
# GULP energy per Si atom -12389.138112 kJ/mol
# Density = 1.839352 g / cm^3
# Si number density = 18.435483 Si / 1000 Ang^3
#
#
#
# Elastic Constant Matrix: (Units=GPa)
#
#
# Indices 1 2 3 4 5 6 
#
# 1 121.0319 19.8072 34.7415 0.0000 0.0000 0.0000
# 2 19.8072 121.0324 34.7415 0.0000 0.0000 0.0000
# 3 34.7415 34.7415 81.8667 0.0000 0.0000 0.0000
# 4 0.0000 0.0000 0.0000 -151.8239 0.0000 0.0000
# 5 0.0000 0.0000 0.0000 0.0000 -151.7095 0.0000
# 6 0.0000 0.0000 0.0000 0.0000 0.0000 18.9417
#
#
#
# Elastic Compliance Matrix: (Units=1/GPa)
#
#
# Indices 1 2 3 4 5 6 
#
# 1 0.009430 -0.000449 -0.003811 0.000000 0.000000 0.000000
# 2 -0.000449 0.009430 -0.003811 0.000000 0.000000 0.000000
# 3 -0.003811 -0.003811 0.015450 0.000000 0.000000 0.000000
# 4 0.000000 0.000000 0.000000 -0.006587 0.000000 0.000000
# 5 0.000000 0.000000 0.000000 0.000000 -0.006592 0.000000
# 6 0.000000 0.000000 0.000000 0.000000 0.000000 0.052794
#
#
# Mechanical properties :
#
#
# Convention : Reuss Voigt Hill
#
# Bulk Modulus (GPa) = 55.04672 55.83460 55.44066
# Shear Modulus (GPa) = 52.01698 -41.27561 5.37068
#
# Velocity S-wave (km/s) = 5.31761 -4.73686 1.70867
# Velocity P-wave (km/s) = 8.22353 0.65965 5.83359
#
# Compressibility (1/GPa) = 0.01816639
#
# Stress axis : x y z
#
# Youngs Moduli (GPa) = 106.04750 106.04805 64.72700
#
# Poissons Ratio (x) = 0.04764 0.24668
# Poissons Ratio (y) = 0.04764 0.24667
# Poissons Ratio (z) = 0.40415 0.40415
#
# Static dielectric constant tensor:
#      x y z
#    x 4.063050 0.000000 0.000000 
#    y 0.000000 4.063260 0.000000 
#    z 0.000000 0.000000 3.407270 
# 
# 
# High freq. dielectric constant tensor:
#      x y z
#    x 1.710250 0.000000 0.000000 
#    y 0.000000 1.710250 0.000000 
#    z 0.000000 0.000000 1.706030 
# 
# From -- ./inp_files/1551.got.cif
#   From: 2010.03.12/outbox.cif.g09.slc.cpg/sg115_1_cif.got.tgz:1551.got - 2010.04.14 02:11:21.
