data_PCOD8309598
_publ_section_title
;
Structure prediction by ZEFSAII (Michael W. Deem and Ramdas Pophale) SiO2 
 PCOD8309598
Probable space group: P -4 M 2
;
_chemical_formula_sum "Si O2"
_cell_formula_units_Z 44
_cell_length_a 9.195814
_cell_length_b 9.195814
_cell_length_c 28.480244
_cell_angle_alpha 90.000000
_cell_angle_beta 90.000000
_cell_angle_gamma 90.000000
_cell_volume 2408.374734
_symmetry_space_group_name_H-M "P -4 M 2"
_symmetry_group_IT_number 115
_symmetry_cell_setting 'tetragonal'
loop_
_space_group_symop_operation_xyz
x,y,z
y,-x,-z
-x,-y,z
-y,x,-z
y,x,-z
-y,-x,-z
-x,y,z
x,-y,z
loop_
_atom_site_type_symbol
_atom_site_label
_atom_site_fract_x
_atom_site_fract_y
_atom_site_fract_z
Si Si1 0.828059 0.667703 0.858420
Si Si2 0.838138 0.827234 0.051292
Si Si3 0.831894 0.671478 0.693155
Si Si4 0.168870 0.168870 0.500000
Si Si5 0.830012 0.329639 0.225243
Si Si6 0.339356 0.827301 0.411486
O O1 0.782975 0.500000 0.855115
O O2 0.772559 0.729107 0.908426
O O3 0.749604 0.755992 0.818088
O O4 0.000000 0.688394 0.852425
O O5 0.000000 0.763348 0.060884
O O6 0.847263 0.000000 0.050960
O O7 0.777929 0.777929 0.000000
O O8 0.808222 0.500000 0.701041
O O9 0.728911 0.762334 0.726806
O O10 0.784774 0.717456 0.640332
O O11 0.000000 0.711324 0.702949
O O12 0.236776 0.238750 0.547162
O O13 0.000000 0.203193 0.496355
O O14 0.799029 0.500000 0.221552
O O15 0.000000 0.293749 0.224637
O O16 0.500000 0.762890 0.419198
O O17 0.344176 0.000000 0.414230
#
# Coordination Sequence:
#
# PCOD8309598 Si02
#       6
#     8   8   8   4   8   8
#     4  10  20  34  54  79 104 133 171 209 246 294
#     4   8  14  27  49  75 102 133 168 206 247 288
#     4   9  18  34  56  78  98 126 167 209 249 298
#     4   9  16  26  44  71  98 124 158 197 234 276
#     4  11  24  38  51  72 102 133 166 206 254 304
#     4   8  15  29  48  70  97 127 158 195 240 288
#
# _framework density 18.269583000000001
#
# number of rings (size 3 to 8) (size 9 to 14) (size 15 to 20)
#    0.000    2.818    0.000    3.273    0.000    5.818 
#    0.000    3.636    0.000    6.818    0.000    0.000 
#    0.000    0.000    0.000    0.000    0.000    0.000 
#
# Total GULP energy -545429.135204 kJ/mol
# GULP energy per Si atom -12396.116709 kJ/mol
# Density = 1.822800 g / cm^3
# Si number density = 18.269583 Si / 1000 Ang^3
#
#
#
# Elastic Constant Matrix: (Units=GPa)
#
#
# Indices 1 2 3 4 5 6 
#
# 1 60.2317 41.4096 59.7791 0.0000 0.0000 0.0000
# 2 41.4096 60.2317 59.7791 0.0000 0.0000 0.0000
# 3 59.7791 59.7791 179.5748 0.0000 0.0000 0.0000
# 4 0.0000 0.0000 0.0000 -9.0969 0.0000 0.0000
# 5 0.0000 0.0000 0.0000 0.0000 -9.0969 0.0000
# 6 0.0000 0.0000 0.0000 0.0000 0.0000 20.4660
#
#
#
# Elastic Compliance Matrix: (Units=1/GPa)
#
#
# Indices 1 2 3 4 5 6 
#
# 1 0.034650 -0.018479 -0.005383 0.000000 0.000000 0.000000
# 2 -0.018479 0.034650 -0.005383 0.000000 0.000000 0.000000
# 3 -0.005383 -0.005383 0.009153 0.000000 0.000000 0.000000
# 4 0.000000 0.000000 0.000000 -0.109927 0.000000 0.000000
# 5 0.000000 0.000000 0.000000 0.000000 -0.109927 0.000000
# 6 0.000000 0.000000 0.000000 0.000000 0.000000 0.048862
#
#
# Mechanical properties :
#
#
# Convention : Reuss Voigt Hill
#
# Bulk Modulus (GPa) = 50.09657 69.10822 59.60239
# Shear Modulus (GPa) = -182.50912 9.72577 -86.39168
#
# Velocity S-wave (km/s) = -10.00573 2.30977 -6.88403
# Velocity P-wave (km/s) = 10.29592 6.70987 5.52193
#
# Compressibility (1/GPa) = 0.01996145
#
# Stress axis : x y z
#
# Youngs Moduli (GPa) = 28.86023 28.86023 109.25794
#
# Poissons Ratio (x) = 0.53332 0.58814
# Poissons Ratio (y) = 0.53332 0.58814
# Poissons Ratio (z) = 0.15536 0.15536
#
# Static dielectric constant tensor:
#      x y z
#    x 3.241650 0.000000 0.000000 
#    y 0.000000 3.241650 0.000000 
#    z 0.000000 0.000000 3.915240 
# 
# 
# High freq. dielectric constant tensor:
#      x y z
#    x 1.684330 0.000000 0.000000 
#    y 0.000000 1.684330 0.000000 
#    z 0.000000 0.000000 1.730070 
# 
# From -- ./inp_files/5798.got.cif
#   From: 2010.03.12/outbox.cif.g09.slc.cpg/sg115_3_cif.got.tgz:5798.got - 2010.04.14 02:11:21.
