data_PCOD8309476
_publ_section_title
;
Structure prediction by ZEFSAII (Michael W. Deem and Ramdas Pophale) SiO2 
 PCOD8309476
Probable space group: P -4 M 2
;
_chemical_formula_sum "Si O2"
_cell_formula_units_Z 40
_cell_length_a 9.186771
_cell_length_b 9.186771
_cell_length_c 25.655207
_cell_angle_alpha 90.000000
_cell_angle_beta 90.000000
_cell_angle_gamma 90.000000
_cell_volume 2165.216384
_symmetry_space_group_name_H-M "P -4 M 2"
_symmetry_group_IT_number 115
_symmetry_cell_setting 'tetragonal'
loop_
_space_group_symop_operation_xyz
x,y,z
y,-x,-z
-x,-y,z
-y,x,-z
y,x,-z
-y,-x,-z
-x,y,z
x,-y,z
loop_
_atom_site_type_symbol
_atom_site_label
_atom_site_fract_x
_atom_site_fract_y
_atom_site_fract_z
Si Si1 0.827463 0.333764 0.454089
Si Si2 0.827365 0.161090 0.354901
Si Si3 0.667998 0.171021 0.954482
Si Si4 0.164703 0.827667 0.239194
Si Si5 0.669096 0.331700 0.850039
O O1 0.756949 0.243052 0.500000
O O2 0.777003 0.500000 0.457907
O O3 0.769785 0.271416 0.398882
O O4 0.000000 0.317599 0.458658
O O5 0.781895 0.216466 0.297372
O O6 0.000000 0.150757 0.356435
O O7 0.762188 0.000000 0.365813
O O8 0.500000 0.209667 0.966253
O O9 0.720055 0.243864 0.900850
O O10 0.693132 0.000000 0.949618
O O11 0.767460 0.232541 0.000000
O O12 0.275651 0.756052 0.199507
O O13 0.000000 0.771409 0.228965
O O14 0.170036 0.000000 0.232776
O O15 0.500000 0.305633 0.839025
O O16 0.705833 0.500000 0.859401
#
# Coordination Sequence:
#
# PCOD8309476 Si02
#       5
#     8   8   8   8   8
#     4  10  20  33  51  76 103 133 171 212 256 307
#     4   8  15  30  52  76 101 131 169 212 256 302
#     4  10  21  37  57  80 105 136 174 214 258 306
#     4   9  18  33  54  80 107 134 168 212 259 305
#     4  10  21  36  54  77 106 141 178 212 250 301
#
# _framework density 18.473904999999998
#
# number of rings (size 3 to 8) (size 9 to 14) (size 15 to 20)
#    0.000    2.600    0.000    3.000    0.000    5.600 
#    0.000    3.000    0.000    1.200    0.000    0.000 
#    0.000    0.000    0.000    0.000    0.000    0.000 
#
# Total GULP energy -496006.352258 kJ/mol
# GULP energy per Si atom -12400.158806 kJ/mol
# Density = 1.843186 g / cm^3
# Si number density = 18.473905 Si / 1000 Ang^3
#
#
#
# Elastic Constant Matrix: (Units=GPa)
#
#
# Indices 1 2 3 4 5 6 
#
# 1 59.5719 33.5536 53.9733 0.0000 0.0000 0.0000
# 2 33.5536 59.5769 53.9763 0.0000 0.0000 0.0000
# 3 53.9733 53.9763 155.0011 0.0000 0.0000 0.0000
# 4 0.0000 0.0000 0.0000 -62.1246 0.0000 0.0000
# 5 0.0000 0.0000 0.0000 0.0000 -62.0811 0.0000
# 6 0.0000 0.0000 0.0000 0.0000 0.0000 26.2429
#
#
#
# Elastic Compliance Matrix: (Units=1/GPa)
#
#
# Indices 1 2 3 4 5 6 
#
# 1 0.028219 -0.010212 -0.006270 0.000000 0.000000 0.000000
# 2 -0.010212 0.028217 -0.006270 0.000000 0.000000 0.000000
# 3 -0.006270 -0.006270 0.010818 0.000000 0.000000 0.000000
# 4 0.000000 0.000000 0.000000 -0.016097 0.000000 0.000000
# 5 0.000000 0.000000 0.000000 0.000000 -0.016108 0.000000
# 6 0.000000 0.000000 0.000000 0.000000 0.000000 0.038106
#
#
# Mechanical properties :
#
#
# Convention : Reuss Voigt Hill
#
# Bulk Modulus (GPa) = 45.97732 61.90625 53.94179
# Shear Modulus (GPa) = 39.71066 -10.74945 14.48060
#
# Velocity S-wave (km/s) = 4.64136 -2.41482 2.80275
# Velocity P-wave (km/s) = 7.32562 5.08013 6.30367
#
# Compressibility (1/GPa) = 0.02174985
#
# Stress axis : x y z
#
# Youngs Moduli (GPa) = 35.43674 35.43924 92.43602
#
# Poissons Ratio (x) = 0.36192 0.57957
# Poissons Ratio (y) = 0.36190 0.57958
# Poissons Ratio (z) = 0.22219 0.22221
#
# Static dielectric constant tensor:
#      x y z
#    x 3.429720 0.000000 0.000000 
#    y 0.000000 3.429790 0.000000 
#    z 0.000000 0.000000 3.660630 
# 
# 
# High freq. dielectric constant tensor:
#      x y z
#    x 1.702470 0.000000 0.000000 
#    y 0.000000 1.702470 0.000000 
#    z 0.000000 0.000000 1.731820 
# 
# From -- ./inp_files/5054.got.cif
#   From: 2010.03.12/outbox.cif.g09.slc.cpg/sg115_3_cif.got.tgz:5054.got - 2010.04.14 02:11:21.
