data_PCOD8309342
_publ_section_title
;
Structure prediction by ZEFSAII (Michael W. Deem and Ramdas Pophale) SiO2 
 PCOD8309342
Probable space group: P -4 M 2
;
_chemical_formula_sum "Si O2"
_cell_formula_units_Z 44
_cell_length_a 9.045871
_cell_length_b 9.045871
_cell_length_c 28.814083
_cell_angle_alpha 90.000000
_cell_angle_beta 90.000000
_cell_angle_gamma 90.000000
_cell_volume 2357.792507
_symmetry_space_group_name_H-M "P -4 M 2"
_symmetry_group_IT_number 115
_symmetry_cell_setting 'tetragonal'
loop_
_space_group_symop_operation_xyz
x,y,z
y,-x,-z
-x,-y,z
-y,x,-z
y,x,-z
-y,-x,-z
-x,y,z
x,-y,z
loop_
_atom_site_type_symbol
_atom_site_label
_atom_site_fract_x
_atom_site_fract_y
_atom_site_fract_z
Si Si1 0.667239 0.323418 0.900657
Si Si2 0.167752 0.324498 0.810184
Si Si3 0.166634 0.824350 0.634344
Si Si4 0.673759 0.170738 0.541946
Si Si5 0.827811 0.327463 0.273828
Si Si6 0.328156 0.328156 0.000000
O O1 0.500000 0.264432 0.892661
O O2 0.663972 0.500000 0.901653
O O3 0.770784 0.264722 0.859366
O O4 0.735952 0.267266 0.950641
O O5 0.177799 0.500000 0.807978
O O6 0.268013 0.259691 0.769973
O O7 0.000000 0.268903 0.804434
O O8 0.251185 0.767604 0.588747
O O9 0.248152 0.764644 0.680181
O O10 0.000000 0.762197 0.633675
O O11 0.168846 0.000000 0.634893
O O12 0.731259 0.268742 0.500000
O O13 0.500000 0.190904 0.547424
O O14 0.716486 0.000000 0.532945
O O15 0.797632 0.500000 0.279452
O O16 0.000000 0.292501 0.266751
O O17 0.295528 0.500000 0.004245
#
# Coordination Sequence:
#
# PCOD8309342 Si02
#       6
#     8   8   8   8   8   4
#     4   8  13  23  41  64  89 118 155 200 247 292
#     4  10  20  32  47  70 100 133 168 204 244 294
#     4   9  17  31  53  78 102 130 165 205 249 297
#     4  10  20  34  53  77 104 133 166 204 245 290
#     4  10  20  34  53  76 101 130 166 208 253 300
#     4   7  10  18  36  62  86 111 150 198 244 289
#
# _framework density 18.661522999999999
#
# number of rings (size 3 to 8) (size 9 to 14) (size 15 to 20)
#    0.000    2.818    0.000    3.273    0.000    5.455 
#    0.000    0.909    0.000    6.545    0.000    5.091 
#    0.000    0.000    0.000    0.000    0.000    0.000 
#
# Total GULP energy -545344.010618 kJ/mol
# GULP energy per Si atom -12394.182060 kJ/mol
# Density = 1.861905 g / cm^3
# Si number density = 18.661523 Si / 1000 Ang^3
#
#
#
# Elastic Constant Matrix: (Units=GPa)
#
#
# Indices 1 2 3 4 5 6 
#
# 1 55.7424 22.1953 43.5197 0.0000 0.0000 0.0000
# 2 22.1953 55.7414 43.5182 0.0000 0.0000 0.0000
# 3 43.5197 43.5182 182.1427 0.0000 0.0000 0.0000
# 4 0.0000 0.0000 0.0000 4.6080 0.0000 0.0000
# 5 0.0000 0.0000 0.0000 0.0000 4.6059 0.0000
# 6 0.0000 0.0000 0.0000 0.0000 0.0000 19.2020
#
#
#
# Elastic Compliance Matrix: (Units=1/GPa)
#
#
# Indices 1 2 3 4 5 6 
#
# 1 0.023655 -0.006154 -0.004181 0.000000 0.000000 0.000000
# 2 -0.006154 0.023655 -0.004181 0.000000 0.000000 0.000000
# 3 -0.004181 -0.004181 0.007488 0.000000 0.000000 0.000000
# 4 0.000000 0.000000 0.000000 0.217012 0.000000 0.000000
# 5 0.000000 0.000000 0.000000 0.000000 0.217111 0.000000
# 6 0.000000 0.000000 0.000000 0.000000 0.000000 0.052078
#
#
# Mechanical properties :
#
#
# Convention : Reuss Voigt Hill
#
# Bulk Modulus (GPa) = 38.81417 56.89921 47.85669
# Shear Modulus (GPa) = 8.64123 17.97607 13.30865
#
# Velocity S-wave (km/s) = 2.15420 3.10703 2.67340
# Velocity P-wave (km/s) = 5.19919 6.58998 5.93546
#
# Compressibility (1/GPa) = 0.02576379
#
# Stress axis : x y z
#
# Youngs Moduli (GPa) = 42.27479 42.27445 133.54206
#
# Poissons Ratio (x) = 0.26017 0.55840
# Poissons Ratio (y) = 0.26018 0.55837
# Poissons Ratio (z) = 0.17677 0.17676
#
# Static dielectric constant tensor:
#      x y z
#    x 3.234850 0.000000 0.000000 
#    y 0.000000 3.234840 0.000000 
#    z 0.000000 0.000000 3.869580 
# 
# 
# High freq. dielectric constant tensor:
#      x y z
#    x 1.692060 0.000000 0.000000 
#    y 0.000000 1.692060 0.000000 
#    z 0.000000 0.000000 1.751550 
# 
# From -- ./inp_files/5686.got.cif
#   From: 2010.03.12/outbox.cif.g09.slc.cpg/sg115_3_cif.got.tgz:5686.got - 2010.04.14 02:11:21.
