data_PCOD8309143
_publ_section_title
;
Structure prediction by ZEFSAII (Michael W. Deem and Ramdas Pophale) SiO2 
 PCOD8309143
Probable space group: P -4 21 C
;
_chemical_formula_sum "Si O2"
_cell_formula_units_Z 38
_cell_length_a 10.914654
_cell_length_b 10.914654
_cell_length_c 14.287706
_cell_angle_alpha 90.000000
_cell_angle_beta 90.000000
_cell_angle_gamma 90.000000
_cell_volume 1702.089729
_symmetry_space_group_name_H-M "P -4 21 C"
_symmetry_group_IT_number 114
_symmetry_cell_setting 'tetragonal'
loop_
_space_group_symop_operation_xyz
x,y,z
y,-x,-z
-x,-y,z
-y,x,-z
1/2+x,1/2-y,1/2-z
1/2-x,1/2+y,1/2-z
1/2-y,1/2-x,1/2+z
1/2+y,1/2+x,1/2+z
loop_
_atom_site_type_symbol
_atom_site_label
_atom_site_fract_x
_atom_site_fract_y
_atom_site_fract_z
Si Si1 0.826803 0.820032 0.375464
Si Si2 0.413879 0.599037 0.319338
Si Si3 0.680638 0.954542 0.900456
Si Si4 0.500000 0.500000 0.000000
Si Si5 0.000000 0.500000 0.248193
Si Si6 0.187290 0.467614 0.399181
O O1 0.852423 0.826845 0.264908
O O2 0.686769 0.857159 0.390319
O O3 0.831571 0.677874 0.402562
O O4 0.918822 0.905494 0.436975
O O5 0.500000 0.500000 0.268599
O O6 0.501555 0.679749 0.386954
O O7 0.322076 0.524242 0.386854
O O8 0.613489 0.030569 0.818982
O O9 0.632835 0.989015 0.002573
O O10 0.114786 0.529093 0.313924
#
# Coordination Sequence:
#
# PCOD8309143 Si02
#       6
#     8   8   8   2   4   8
#     4  12  27  51  75 109 157 202 252 327 387 459
#     4  12  25  48  75 107 152 194 253 316 384 458
#     4  12  27  47  76 110 152 200 259 314 382 458
#     4  12  32  48  76 112 150 200 260 316 404 468
#     4  12  26  44  72 110 152 200 254 312 376 450
#     4  12  27  47  76 110 152 200 259 314 382 458
#
# _framework density 22.325496000000001
#
# number of rings (size 3 to 8) (size 9 to 14) (size 15 to 20)
#    0.000    0.000    7.368    1.895    5.895    0.000 
#    7.579    0.000    0.000    0.000    0.000    0.000 
#    0.000    0.000    0.000    0.000    0.000    0.000 
#
# Total GULP energy -470880.795890 kJ/mol
# GULP energy per Si atom -12391.599892 kJ/mol
# Density = 2.227468 g / cm^3
# Si number density = 22.325496 Si / 1000 Ang^3
#
#
#
# Elastic Constant Matrix: (Units=GPa)
#
#
# Indices 1 2 3 4 5 6 
#
# 1 100.9675 15.9341 34.4818 0.0000 0.0000 0.0000
# 2 15.9341 100.9675 34.4818 0.0000 0.0000 0.0000
# 3 34.4818 34.4818 158.3906 0.0000 0.0000 0.0000
# 4 0.0000 0.0000 0.0000 35.7413 0.0000 0.0000
# 5 0.0000 0.0000 0.0000 0.0000 35.7413 0.0000
# 6 0.0000 0.0000 0.0000 0.0000 0.0000 48.4763
#
#
#
# Elastic Compliance Matrix: (Units=1/GPa)
#
#
# Indices 1 2 3 4 5 6 
#
# 1 0.010787 -0.000973 -0.002137 0.000000 0.000000 0.000000
# 2 -0.000973 0.010787 -0.002137 0.000000 0.000000 0.000000
# 3 -0.002137 -0.002137 0.007244 0.000000 0.000000 0.000000
# 4 0.000000 0.000000 0.000000 0.027979 0.000000 0.000000
# 5 0.000000 0.000000 0.000000 0.000000 0.027979 0.000000
# 6 0.000000 0.000000 0.000000 0.000000 0.000000 0.020629
#
#
# Mechanical properties :
#
#
# Convention : Reuss Voigt Hill
#
# Bulk Modulus (GPa) = 54.56573 58.90232 56.73402
# Shear Modulus (GPa) = 40.98167 42.35366 41.66767
#
# Velocity S-wave (km/s) = 4.28909 4.36029 4.32484
# Velocity P-wave (km/s) = 7.00160 7.19655 7.09974
#
# Compressibility (1/GPa) = 0.01832652
#
# Stress axis : x y z
#
# Youngs Moduli (GPa) = 92.70089 92.70089 138.04889
#
# Poissons Ratio (x) = 0.09017 0.29496
# Poissons Ratio (y) = 0.09017 0.29496
# Poissons Ratio (z) = 0.19807 0.19807
#
# Static dielectric constant tensor:
#      x y z
#    x 3.577700 0.000000 0.000000 
#    y 0.000000 3.577700 0.000000 
#    z 0.000000 0.000000 3.996570 
# 
# 
# High freq. dielectric constant tensor:
#      x y z
#    x 1.886700 0.000000 0.000000 
#    y 0.000000 1.886700 0.000000 
#    z 0.000000 0.000000 1.893670 
# 
# From -- ./inp_files/2185.got.cif
#   From: 2010.03.12/outbox.cif.g09.slc.cpg/sg114_2_cif.got.tgz:2185.got - 2010.04.14 02:08:34.
