data_PCOD8309644
_publ_section_title
;
Structure prediction by ZEFSAII (Michael W. Deem and Ramdas Pophale) SiO2 
 PCOD8309644
Probable space group: P -4 M 2
;
_chemical_formula_sum "Si O2"
_cell_formula_units_Z 48
_cell_length_a 9.070360
_cell_length_b 9.070360
_cell_length_c 30.825546
_cell_angle_alpha 90.000000
_cell_angle_beta 90.000000
_cell_angle_gamma 90.000000
_cell_volume 2536.061766
_symmetry_space_group_name_H-M "P -4 M 2"
_symmetry_group_IT_number 115
_symmetry_cell_setting 'tetragonal'
loop_
_space_group_symop_operation_xyz
x,y,z
y,-x,-z
-x,-y,z
-y,x,-z
y,x,-z
-y,-x,-z
-x,y,z
x,-y,z
loop_
_atom_site_type_symbol
_atom_site_label
_atom_site_fract_x
_atom_site_fract_y
_atom_site_fract_z
Si Si1 0.163291 0.325139 0.662235
Si Si2 0.334123 0.825302 0.241901
Si Si3 0.673495 0.329729 0.078383
Si Si4 0.828156 0.171845 0.000000
Si Si5 0.331874 0.674889 0.578482
Si Si6 0.169894 0.670801 0.166023
Si Si7 0.171993 0.828008 0.500000
O O1 0.152055 0.500000 0.661534
O O2 0.220944 0.277989 0.709943
O O3 0.275325 0.269054 0.625394
O O4 0.000000 0.259027 0.653218
O O5 0.500000 0.765271 0.233358
O O6 0.221339 0.759198 0.207812
O O7 0.333417 0.000000 0.237970
O O8 0.500000 0.304817 0.078844
O O9 0.714202 0.500000 0.068996
O O10 0.737431 0.277644 0.124397
O O11 0.743173 0.228219 0.041927
O O12 0.000000 0.204633 0.006177
O O13 0.500000 0.726306 0.572825
O O14 0.317310 0.500000 0.574021
O O15 0.232105 0.747739 0.542231
O O16 0.197015 0.500000 0.175566
O O17 0.000000 0.706341 0.156701
O O18 0.000000 0.794203 0.495894
#
# Coordination Sequence:
#
# PCOD8309644 Si02
#       7
#     8   8   8   4   8   8   4
#     4   8  15  30  52  77 106 140 176 215 260 310
#     4   9  18  33  54  80 108 140 180 221 262 313
#     4  10  21  38  60  83 106 138 181 224 267 316
#     4  11  24  39  56  82 114 145 176 213 262 318
#     4  10  20  34  55  83 109 134 170 216 265 316
#     4  10  21  36  54  78 109 144 181 222 268 315
#     4  11  24  39  54  74 102 139 180 217 258 312
#
# _framework density 18.926984000000001
#
# number of rings (size 3 to 8) (size 9 to 14) (size 15 to 20)
#    0.000    2.333    0.000    3.500    0.000    8.000 
#    0.000    2.500    0.000    1.000    0.000    0.000 
#    0.000    0.000    0.000    0.000    0.000    0.000 
#
# Total GULP energy -595253.945363 kJ/mol
# GULP energy per Si atom -12401.123862 kJ/mol
# Density = 1.888391 g / cm^3
# Si number density = 18.926984 Si / 1000 Ang^3
#
#
#
# Elastic Constant Matrix: (Units=GPa)
#
#
# Indices 1 2 3 4 5 6 
#
# 1 56.0675 33.8789 45.0236 0.0000 0.0000 0.0000
# 2 33.8789 56.0654 45.0226 0.0000 0.0000 0.0000
# 3 45.0236 45.0226 143.6892 0.0000 0.0000 0.0000
# 4 0.0000 0.0000 0.0000 83.9899 0.0000 0.0000
# 5 0.0000 0.0000 0.0000 0.0000 83.9873 0.0000
# 6 0.0000 0.0000 0.0000 0.0000 0.0000 27.9763
#
#
#
# Elastic Compliance Matrix: (Units=1/GPa)
#
#
# Indices 1 2 3 4 5 6 
#
# 1 0.030634 -0.014435 -0.005076 0.000000 0.000000 0.000000
# 2 -0.014435 0.030635 -0.005076 0.000000 0.000000 0.000000
# 3 -0.005076 -0.005076 0.010140 0.000000 0.000000 0.000000
# 4 0.000000 0.000000 0.000000 0.011906 0.000000 0.000000
# 5 0.000000 0.000000 0.000000 0.000000 0.011907 0.000000
# 6 0.000000 0.000000 0.000000 0.000000 0.000000 0.035745
#
#
# Mechanical properties :
#
#
# Convention : Reuss Voigt Hill
#
# Bulk Modulus (GPa) = 44.97264 55.96357 50.46810
# Shear Modulus (GPa) = 26.65903 47.98382 37.32143
#
# Velocity S-wave (km/s) = 3.75710 5.04055 4.44538
# Velocity P-wave (km/s) = 6.52945 7.96922 7.28499
#
# Compressibility (1/GPa) = 0.02223574
#
# Stress axis : x y z
#
# Youngs Moduli (GPa) = 32.64311 32.64195 98.61564
#
# Poissons Ratio (x) = 0.47120 0.50056
# Poissons Ratio (y) = 0.47122 0.50056
# Poissons Ratio (z) = 0.16569 0.16569
#
# Static dielectric constant tensor:
#      x y z
#    x 3.288030 0.000000 0.000000 
#    y 0.000000 3.288010 0.000000 
#    z 0.000000 0.000000 3.820620 
# 
# 
# High freq. dielectric constant tensor:
#      x y z
#    x 1.725760 0.000000 0.000000 
#    y 0.000000 1.725760 0.000000 
#    z 0.000000 0.000000 1.752390 
# 
# From -- ./inp_files/6152.got.cif
#   From: 2010.03.12/outbox.cif.g09.slc.cpg/sg115_4_cif.got.tgz:6152.got - 2010.04.14 02:11:21.
