data_PCOD8309258
_publ_section_title
;
Structure prediction by ZEFSAII (Michael W. Deem and Ramdas Pophale) SiO2 
 PCOD8309258
Probable space group: P -4 M 2
;
_chemical_formula_sum "Si O2"
_cell_formula_units_Z 48
_cell_length_a 8.136594
_cell_length_b 8.136594
_cell_length_c 34.120320
_cell_angle_alpha 90.000000
_cell_angle_beta 90.000000
_cell_angle_gamma 90.000000
_cell_volume 2258.907190
_symmetry_space_group_name_H-M "P -4 M 2"
_symmetry_group_IT_number 115
_symmetry_cell_setting 'tetragonal'
loop_
_space_group_symop_operation_xyz
x,y,z
y,-x,-z
-x,-y,z
-y,x,-z
y,x,-z
-y,-x,-z
-x,y,z
x,-y,z
loop_
_atom_site_type_symbol
_atom_site_label
_atom_site_fract_x
_atom_site_fract_y
_atom_site_fract_z
Si Si1 0.804165 0.816502 0.457974
Si Si2 0.683802 0.185438 0.038374
Si Si3 0.680204 0.189834 0.299357
Si Si4 0.311819 0.812381 0.623286
Si Si5 0.688873 0.315358 0.879216
Si Si6 0.000000 0.694970 0.166364
Si Si7 0.000000 0.804303 0.255154
O O1 0.742170 0.742170 0.500000
O O2 0.742762 0.710346 0.420880
O O3 0.000000 0.817611 0.460574
O O4 0.736025 0.000000 0.451517
O O5 0.500000 0.232445 0.025402
O O6 0.738119 0.295502 0.075270
O O7 0.697511 0.000000 0.053384
O O8 0.794646 0.205355 0.000000
O O9 0.500000 0.266748 0.287986
O O10 0.706008 0.209484 0.345877
O O11 0.834753 0.269465 0.275832
O O12 0.674179 0.000000 0.288702
O O13 0.500000 0.799650 0.635499
O O14 0.247797 0.000000 0.625135
O O15 0.500000 0.328828 0.867877
O O16 0.768529 0.500000 0.872380
O O17 0.768549 0.167984 0.853235
O O18 0.000000 0.500000 0.161003
O O19 0.000000 0.746177 0.211011
O O20 0.000000 0.000000 0.258505
#
# Coordination Sequence:
#
# PCOD8309258 Si02
#       7
#     8   8   8   8   8   4   4
#     4   8  14  26  46  71 100 141 191 233 270 321
#     4  10  21  35  53  80 113 149 190 237 287 337
#     4  10  21  38  60  84 110 144 186 229 280 344
#     4  10  19  31  51  79 110 144 181 226 283 336
#     4   9  19  37  58  80 111 152 195 237 282 337
#     4  10  22  38  60  86 112 148 192 234 282 346
#     4  10  22  40  60  86 116 144 178 230 292 344
#
# _framework density 21.249213999999998
#
# number of rings (size 3 to 8) (size 9 to 14) (size 15 to 20)
#    0.000    2.500    0.833    1.500    1.167    4.000 
#    0.000    0.833    0.000    3.000    0.000    0.000 
#    0.000    0.000    0.000    0.000    0.000    0.000 
#
# Total GULP energy -594772.622504 kJ/mol
# GULP energy per Si atom -12391.096302 kJ/mol
# Density = 2.120085 g / cm^3
# Si number density = 21.249214 Si / 1000 Ang^3
#
#
#
# Elastic Constant Matrix: (Units=GPa)
#
#
# Indices 1 2 3 4 5 6 
#
# 1 75.4024 24.4661 42.4505 0.0000 0.0000 0.0000
# 2 24.4661 75.4027 42.4508 0.0000 0.0000 0.0000
# 3 42.4505 42.4508 149.5908 0.0000 0.0000 0.0000
# 4 0.0000 0.0000 0.0000 19.9395 0.0000 0.0000
# 5 0.0000 0.0000 0.0000 0.0000 19.9395 0.0000
# 6 0.0000 0.0000 0.0000 0.0000 0.0000 11.2553
#
#
#
# Elastic Compliance Matrix: (Units=1/GPa)
#
#
# Indices 1 2 3 4 5 6 
#
# 1 0.016415 -0.003218 -0.003745 0.000000 0.000000 0.000000
# 2 -0.003218 0.016415 -0.003745 0.000000 0.000000 0.000000
# 3 -0.003745 -0.003745 0.008810 0.000000 0.000000 0.000000
# 4 0.000000 0.000000 0.000000 0.050152 0.000000 0.000000
# 5 0.000000 0.000000 0.000000 0.000000 0.050152 0.000000
# 6 0.000000 0.000000 0.000000 0.000000 0.000000 0.088847
#
#
# Mechanical properties :
#
#
# Convention : Reuss Voigt Hill
#
# Bulk Modulus (GPa) = 49.44575 57.68120 53.56348
# Shear Modulus (GPa) = 19.30898 22.96208 21.13553
#
# Velocity S-wave (km/s) = 3.01772 3.29083 3.15723
# Velocity P-wave (km/s) = 5.95501 6.45317 6.20909
#
# Compressibility (1/GPa) = 0.02022418
#
# Stress axis : x y z
#
# Youngs Moduli (GPa) = 60.92136 60.92144 113.50220
#
# Poissons Ratio (x) = 0.19603 0.42506
# Poissons Ratio (y) = 0.19603 0.42507
# Poissons Ratio (z) = 0.22815 0.22815
#
# Static dielectric constant tensor:
#      x y z
#    x 3.819590 0.000000 0.000000 
#    y 0.000000 3.819590 0.000000 
#    z 0.000000 0.000000 3.874610 
# 
# 
# High freq. dielectric constant tensor:
#      x y z
#    x 1.811780 0.000000 0.000000 
#    y 0.000000 1.811780 0.000000 
#    z 0.000000 0.000000 1.831570 
# 
# From -- ./inp_files/6188.got.cif
#   From: 2010.03.12/outbox.cif.g09.slc.cpg/sg115_4_cif.got.tgz:6188.got - 2010.04.14 02:11:21.
