data_PCOD8309149
_publ_section_title
;
Structure prediction by ZEFSAII (Michael W. Deem and Ramdas Pophale) SiO2 
 PCOD8309149
Probable space group: P -4 21 C
;
_chemical_formula_sum "Si O2"
_cell_formula_units_Z 18
_cell_length_a 9.352902
_cell_length_b 9.352902
_cell_length_c 8.053647
_cell_angle_alpha 90.000000
_cell_angle_beta 90.000000
_cell_angle_gamma 90.000000
_cell_volume 704.507073
_symmetry_space_group_name_H-M "P -4 21 C"
_symmetry_group_IT_number 114
_symmetry_cell_setting 'tetragonal'
loop_
_space_group_symop_operation_xyz
x,y,z
y,-x,-z
-x,-y,z
-y,x,-z
1/2+x,1/2-y,1/2-z
1/2-x,1/2+y,1/2-z
1/2-y,1/2-x,1/2+z
1/2+y,1/2+x,1/2+z
loop_
_atom_site_type_symbol
_atom_site_label
_atom_site_fract_x
_atom_site_fract_y
_atom_site_fract_z
Si Si1 0.832023 0.510538 0.931253
Si Si2 0.500000 0.500000 0.500000
Si Si3 0.209986 0.857184 0.257889
O O1 0.794004 0.644692 0.815888
O O2 0.779017 0.369492 0.837368
O O3 0.000000 0.500000 0.969659
O O4 0.745810 0.524315 0.103198
O O5 0.620579 0.570567 0.387348
#
# Coordination Sequence:
#
# PCOD8309149 Si02
#       3
#     8   2   8
#     4  12  30  52  87 127 173 229 289 363 428 525
#     4  12  28  54  80 128 172 234 276 352 420 526
#     4  12  29  53  84 124 175 222 293 343 439 507
#
# _framework density 25.549778
#
# number of rings (size 3 to 8) (size 9 to 14) (size 15 to 20)
#    0.000    0.000    0.000    6.667   24.889    0.000 
#    0.000    0.000    0.000    0.000    0.000    0.000 
#    0.000    0.000    0.000    0.000    0.000    0.000 
#
# Total GULP energy -223395.209355 kJ/mol
# GULP energy per Si atom -12410.844964 kJ/mol
# Density = 2.549163 g / cm^3
# Si number density = 25.549778 Si / 1000 Ang^3
#
#
#
# Elastic Constant Matrix: (Units=GPa)
#
#
# Indices 1 2 3 4 5 6 
#
# 1 129.1520 38.4600 50.4232 0.0000 0.0000 0.0000
# 2 38.4600 129.1520 50.4232 0.0000 0.0000 0.0000
# 3 50.4232 50.4232 156.0995 0.0000 0.0000 0.0000
# 4 0.0000 0.0000 0.0000 26.4535 0.0000 0.0000
# 5 0.0000 0.0000 0.0000 0.0000 26.4535 0.0000
# 6 0.0000 0.0000 0.0000 0.0000 0.0000 49.0113
#
#
#
# Elastic Compliance Matrix: (Units=1/GPa)
#
#
# Indices 1 2 3 4 5 6 
#
# 1 0.009216 -0.001810 -0.002392 0.000000 0.000000 0.000000
# 2 -0.001810 0.009216 -0.002392 0.000000 0.000000 0.000000
# 3 -0.002392 -0.002392 0.007952 0.000000 0.000000 0.000000
# 4 0.000000 0.000000 0.000000 0.037802 0.000000 0.000000
# 5 0.000000 0.000000 0.000000 0.000000 0.037802 0.000000
# 6 0.000000 0.000000 0.000000 0.000000 0.000000 0.020403
#
#
# Mechanical properties :
#
#
# Convention : Reuss Voigt Hill
#
# Bulk Modulus (GPa) = 75.79206 77.00181 76.39694
# Shear Modulus (GPa) = 35.71980 38.72348 37.22164
#
# Velocity S-wave (km/s) = 3.74310 3.89731 3.82098
# Velocity P-wave (km/s) = 6.95773 7.10319 7.03084
#
# Compressibility (1/GPa) = 0.01319399
#
# Stress axis : x y z
#
# Youngs Moduli (GPa) = 108.50857 108.50857 125.76155
#
# Poissons Ratio (x) = 0.19645 0.30083
# Poissons Ratio (y) = 0.19645 0.30083
# Poissons Ratio (z) = 0.25956 0.25956
#
# Static dielectric constant tensor:
#      x y z
#    x 4.803040 0.000000 0.000000 
#    y 0.000000 4.803040 0.000000 
#    z 0.000000 0.000000 5.114440 
# 
# 
# High freq. dielectric constant tensor:
#      x y z
#    x 2.030020 0.000000 0.000000 
#    y 0.000000 2.030020 0.000000 
#    z 0.000000 0.000000 2.047250 
# 
# From -- ./inp_files/337.got.cif
#   From: 2010.03.12/outbox.cif.g09.slc.cpg/sg114_1_cif.got.tgz:337.got - 2010.04.14 02:08:34.
