data_PCOD8309022
_publ_section_title
;
Structure prediction by ZEFSAII (Michael W. Deem and Ramdas Pophale) SiO2 
 PCOD8309022
Probable space group: P -4 21 C
;
_chemical_formula_sum "Si O2"
_cell_formula_units_Z 36
_cell_length_a 8.769704
_cell_length_b 8.769704
_cell_length_c 21.801382
_cell_angle_alpha 90.000000
_cell_angle_beta 90.000000
_cell_angle_gamma 90.000000
_cell_volume 1676.694326
_symmetry_space_group_name_H-M "P -4 21 C"
_symmetry_group_IT_number 114
_symmetry_cell_setting 'tetragonal'
loop_
_space_group_symop_operation_xyz
x,y,z
y,-x,-z
-x,-y,z
-y,x,-z
1/2+x,1/2-y,1/2-z
1/2-x,1/2+y,1/2-z
1/2-y,1/2-x,1/2+z
1/2+y,1/2+x,1/2+z
loop_
_atom_site_type_symbol
_atom_site_label
_atom_site_fract_x
_atom_site_fract_y
_atom_site_fract_z
Si Si1 0.682671 0.854406 0.870073
Si Si2 0.177377 0.827678 0.828371
Si Si3 0.965636 0.663212 0.910122
Si Si4 0.000000 0.500000 0.028007
Si Si5 0.667429 0.525278 0.214338
O O1 0.812271 0.734273 0.884937
O O2 0.572297 0.869991 0.929100
O O3 0.580040 0.791725 0.816397
O O4 0.748464 0.012187 0.845094
O O5 0.299151 0.718141 0.794002
O O6 0.114552 0.763800 0.893274
O O7 0.027209 0.841899 0.785450
O O8 0.000000 0.500000 0.877869
O O9 0.943882 0.638674 0.983693
O O10 0.500000 0.500000 0.184600
#
# Coordination Sequence:
#
# PCOD8309022 Si02
#       5
#     8   8   8   4   8
#     4  12  24  48  68 103 143 187 239 295 362 434
#     4  12  24  45  70 105 138 190 233 303 362 439
#     4  10  25  43  71  98 139 178 245 285 358 415
#     4  10  26  44  70 104 136 192 236 300 348 430
#     4  12  25  41  71 100 144 179 236 294 371 433
#
# _framework density 21.470818000000001
#
# number of rings (size 3 to 8) (size 9 to 14) (size 15 to 20)
#    0.667    0.000    2.222    6.000    3.111    1.778 
#    0.000    0.000    0.000    0.000    0.000    0.000 
#    0.000    0.000    0.000    0.000    0.000    0.000 
#
# Total GULP energy -446158.172173 kJ/mol
# GULP energy per Si atom -12393.282560 kJ/mol
# Density = 2.142195 g / cm^3
# Si number density = 21.470818 Si / 1000 Ang^3
#
#
#
# Elastic Constant Matrix: (Units=GPa)
#
#
# Indices 1 2 3 4 5 6 
#
# 1 114.7979 42.7383 37.7040 0.0000 0.0000 0.0000
# 2 42.7383 114.7979 37.7040 0.0000 0.0000 0.0000
# 3 37.7040 37.7040 106.0961 0.0000 0.0000 0.0000
# 4 0.0000 0.0000 0.0000 38.8841 0.0000 0.0000
# 5 0.0000 0.0000 0.0000 0.0000 38.8841 0.0000
# 6 0.0000 0.0000 0.0000 0.0000 0.0000 54.3529
#
#
#
# Elastic Compliance Matrix: (Units=1/GPa)
#
#
# Indices 1 2 3 4 5 6 
#
# 1 0.010763 -0.003114 -0.002718 0.000000 0.000000 0.000000
# 2 -0.003114 0.010763 -0.002718 0.000000 0.000000 0.000000
# 3 -0.002718 -0.002718 0.011357 0.000000 0.000000 0.000000
# 4 0.000000 0.000000 0.000000 0.025717 0.000000 0.000000
# 5 0.000000 0.000000 0.000000 0.000000 0.025717 0.000000
# 6 0.000000 0.000000 0.000000 0.000000 0.000000 0.018398
#
#
# Mechanical properties :
#
#
# Convention : Reuss Voigt Hill
#
# Bulk Modulus (GPa) = 63.36231 63.55384 63.45807
# Shear Modulus (GPa) = 39.97470 40.92725 40.45097
#
# Velocity S-wave (km/s) = 4.31956 4.37072 4.34521
# Velocity P-wave (km/s) = 7.37923 7.42531 7.40231
#
# Compressibility (1/GPa) = 0.01578225
#
# Stress axis : x y z
#
# Youngs Moduli (GPa) = 92.90963 92.90963 88.04826
#
# Poissons Ratio (x) = 0.28934 0.23934
# Poissons Ratio (y) = 0.28934 0.23934
# Poissons Ratio (z) = 0.25255 0.25255
#
# Static dielectric constant tensor:
#      x y z
#    x 4.052700 0.000000 0.000000 
#    y 0.000000 4.052700 0.000000 
#    z 0.000000 0.000000 3.883910 
# 
# 
# High freq. dielectric constant tensor:
#      x y z
#    x 1.852200 0.000000 0.000000 
#    y 0.000000 1.852200 0.000000 
#    z 0.000000 0.000000 1.838250 
# 
# From -- ./inp_files/2961.got.cif
#   From: 2010.03.12/outbox.cif.g09.slc.cpg/sg114_2_cif.got.tgz:2961.got - 2010.04.14 02:08:34.
