data_PCOD8309525
_publ_section_title
;
Structure prediction by ZEFSAII (Michael W. Deem and Ramdas Pophale) SiO2 
 PCOD8309525
Probable space group: P -4 M 2
;
_chemical_formula_sum "Si O2"
_cell_formula_units_Z 56
_cell_length_a 14.828792
_cell_length_b 14.828792
_cell_length_c 13.248983
_cell_angle_alpha 90.000000
_cell_angle_beta 90.000000
_cell_angle_gamma 90.000000
_cell_volume 2913.359575
_symmetry_space_group_name_H-M "P -4 M 2"
_symmetry_group_IT_number 115
_symmetry_cell_setting 'tetragonal'
loop_
_space_group_symop_operation_xyz
x,y,z
y,-x,-z
-x,-y,z
-y,x,-z
y,x,-z
-y,-x,-z
-x,y,z
x,-y,z
loop_
_atom_site_type_symbol
_atom_site_label
_atom_site_fract_x
_atom_site_fract_y
_atom_site_fract_z
Si Si1 0.400951 0.897517 0.919753
Si Si2 0.299981 0.776536 0.593487
Si Si3 0.251980 0.900881 0.764719
Si Si4 0.221826 0.329103 0.921041
Si Si5 0.603396 0.899555 0.448997
Si Si6 0.154669 0.897652 0.106893
Si Si7 0.742841 0.605767 0.699751
O O1 0.500000 0.891770 0.869317
O O2 0.325725 0.859789 0.842931
O O3 0.375514 0.000000 0.948208
O O4 0.402568 0.839360 0.021739
O O5 0.232616 0.767385 0.500000
O O6 0.243905 0.831765 0.674604
O O7 0.380983 0.838491 0.550407
O O8 0.324945 0.676535 0.640488
O O9 0.153585 0.909599 0.814294
O O10 0.283377 0.000000 0.728486
O O11 0.156341 0.247584 0.893588
O O12 0.260984 0.373584 0.819141
O O13 0.300446 0.300446 0.000000
O O14 0.500000 0.921170 0.448379
O O15 0.627292 0.841961 0.347659
O O16 0.651623 0.000000 0.449627
O O17 0.170252 0.000000 0.141417
O O18 0.104930 0.895071 0.000000
O O19 0.715661 0.500000 0.681114
#
# Coordination Sequence:
#
# PCOD8309525 Si02
#       7
#     8   8   8   8   8   8   8
#     4  10  20  33  51  78 110 141 176 222 277 334
#     4  10  20  37  55  78 109 145 185 234 290 344
#     4  11  21  36  53  76 108 142 185 233 277 338
#     4  11  19  34  53  77 113 150 191 230 276 339
#     4   9  19  35  57  86 115 145 187 240 301 362
#     4  11  21  34  53  74 104 146 190 233 277 328
#     4  10  20  35  56  82 113 150 192 236 288 349
#
# _framework density 19.221795
#
# number of rings (size 3 to 8) (size 9 to 14) (size 15 to 20)
#    0.000    1.714    4.286    1.714    0.000    2.714 
#    0.000    3.571    0.000    0.429    0.000    3.000 
#    0.000    3.714    0.000    0.000    0.000    0.000 
#
# Total GULP energy -693741.690646 kJ/mol
# GULP energy per Si atom -12388.244476 kJ/mol
# Density = 1.917805 g / cm^3
# Si number density = 19.221795 Si / 1000 Ang^3
#
#
#
# Elastic Constant Matrix: (Units=GPa)
#
#
# Indices 1 2 3 4 5 6 
#
# 1 81.9260 10.2698 35.5420 0.0000 0.0000 0.0000
# 2 10.2698 81.9259 35.5421 0.0000 0.0000 0.0000
# 3 35.5420 35.5421 123.0332 0.0000 0.0000 0.0000
# 4 0.0000 0.0000 0.0000 15.4556 0.0000 0.0000
# 5 0.0000 0.0000 0.0000 0.0000 15.4557 0.0000
# 6 0.0000 0.0000 0.0000 0.0000 0.0000 20.7702
#
#
#
# Elastic Compliance Matrix: (Units=1/GPa)
#
#
# Indices 1 2 3 4 5 6 
#
# 1 0.013955 0.000000 -0.004031 0.000000 0.000000 0.000000
# 2 0.000000 0.013955 -0.004031 0.000000 0.000000 0.000000
# 3 -0.004031 -0.004031 0.010457 0.000000 0.000000 0.000000
# 4 0.000000 0.000000 0.000000 0.064702 0.000000 0.000000
# 5 0.000000 0.000000 0.000000 0.000000 0.064701 0.000000
# 6 0.000000 0.000000 0.000000 0.000000 0.000000 0.048146
#
#
# Mechanical properties :
#
#
# Convention : Reuss Voigt Hill
#
# Bulk Modulus (GPa) = 44.96146 49.95479 47.45812
# Shear Modulus (GPa) = 20.88073 24.03837 22.45955
#
# Velocity S-wave (km/s) = 3.29949 3.54019 3.42196
# Velocity P-wave (km/s) = 6.16094 6.53878 6.35267
#
# Compressibility (1/GPa) = 0.02224127
#
# Stress axis : x y z
#
# Youngs Moduli (GPa) = 71.65858 71.65848 95.62985
#
# Poissons Ratio (x) = 0.00003 0.38551
# Poissons Ratio (y) = 0.00003 0.38551
# Poissons Ratio (z) = 0.28887 0.28887
#
# Static dielectric constant tensor:
#      x y z
#    x 3.573420 0.000000 0.000000 
#    y 0.000000 3.573420 0.000000 
#    z 0.000000 0.000000 3.615330 
# 
# 
# High freq. dielectric constant tensor:
#      x y z
#    x 1.733290 0.000000 0.000000 
#    y 0.000000 1.733290 0.000000 
#    z 0.000000 0.000000 1.745180 
# 
# From -- ./inp_files/3111.got.cif
#   From: 2010.03.12/outbox.cif.g09.slc.cpg/sg115_2_cif.got.tgz:3111.got - 2010.04.14 02:11:21.
