data_PCOD8309432
_publ_section_title
;
Structure prediction by ZEFSAII (Michael W. Deem and Ramdas Pophale) SiO2 
 PCOD8309432
Probable space group: P -4 M 2
;
_chemical_formula_sum "Si O2"
_cell_formula_units_Z 48
_cell_length_a 9.340921
_cell_length_b 9.340921
_cell_length_c 30.904872
_cell_angle_alpha 90.000000
_cell_angle_beta 90.000000
_cell_angle_gamma 90.000000
_cell_volume 2696.536774
_symmetry_space_group_name_H-M "P -4 M 2"
_symmetry_group_IT_number 115
_symmetry_cell_setting 'tetragonal'
loop_
_space_group_symop_operation_xyz
x,y,z
y,-x,-z
-x,-y,z
-y,x,-z
y,x,-z
-y,-x,-z
-x,y,z
x,-y,z
loop_
_atom_site_type_symbol
_atom_site_label
_atom_site_fract_x
_atom_site_fract_y
_atom_site_fract_z
Si Si1 0.839139 0.169195 0.381364
Si Si2 0.830084 0.840682 0.952691
Si Si3 0.832030 0.333048 0.203853
Si Si4 0.666919 0.831840 0.129627
Si Si5 0.169844 0.158724 0.286014
Si Si6 0.339003 0.331105 0.548463
O O1 0.778804 0.210502 0.333559
O O2 0.738540 0.234134 0.417424
O O3 0.000000 0.228635 0.387576
O O4 0.837868 0.000000 0.386464
O O5 0.777053 0.731963 0.915862
O O6 0.000000 0.850459 0.953091
O O7 0.766852 0.000000 0.943590
O O8 0.781735 0.781735 0.000000
O O9 0.796071 0.500000 0.202985
O O10 0.744261 0.254102 0.167092
O O11 0.778745 0.270746 0.249847
O O12 0.000000 0.303469 0.196627
O O13 0.500000 0.795295 0.129802
O O14 0.695488 0.000000 0.136499
O O15 0.000000 0.149151 0.287394
O O16 0.231390 0.000000 0.275193
O O17 0.289193 0.289193 0.500000
O O18 0.500000 0.275801 0.556803
O O19 0.332366 0.500000 0.554080
#
# Coordination Sequence:
#
# PCOD8309432 Si02
#       6
#     8   8   8   8   8   8
#     4   9  18  32  51  77 104 126 154 197 247 296
#     4   8  14  27  49  74  97 124 162 206 246 284
#     4  10  20  33  51  75  99 126 164 206 245 287
#     4  10  20  33  50  73 101 133 166 199 240 290
#     4   8  15  30  51  73  98 127 158 196 243 292
#     4   9  19  35  51  68  95 132 171 206 239 281
#
# _framework density 17.800609999999999
#
# number of rings (size 3 to 8) (size 9 to 14) (size 15 to 20)
#    0.000    3.000    0.000    3.000    0.000    4.000 
#    0.000    5.833    0.000    4.000    0.000    0.000 
#    0.000    0.000    0.000    0.000    0.000    0.000 
#
# Total GULP energy -594997.431274 kJ/mol
# GULP energy per Si atom -12395.779818 kJ/mol
# Density = 1.776010 g / cm^3
# Si number density = 17.800610 Si / 1000 Ang^3
#
#
#
# Elastic Constant Matrix: (Units=GPa)
#
#
# Indices 1 2 3 4 5 6 
#
# 1 59.3846 37.8292 65.9483 0.0000 0.0000 0.0000
# 2 37.8292 59.3846 65.9483 0.0000 0.0000 0.0000
# 3 65.9483 65.9483 178.6972 0.0000 0.0000 0.0000
# 4 0.0000 0.0000 0.0000 -14.9204 0.0000 0.0000
# 5 0.0000 0.0000 0.0000 0.0000 -14.9204 0.0000
# 6 0.0000 0.0000 0.0000 0.0000 0.0000 23.6575
#
#
#
# Elastic Compliance Matrix: (Units=1/GPa)
#
#
# Indices 1 2 3 4 5 6 
#
# 1 0.033497 -0.012895 -0.007603 0.000000 0.000000 0.000000
# 2 -0.012895 0.033497 -0.007603 0.000000 0.000000 0.000000
# 3 -0.007603 -0.007603 0.011208 0.000000 0.000000 0.000000
# 4 0.000000 0.000000 0.000000 -0.067022 0.000000 0.000000
# 5 0.000000 0.000000 0.000000 0.000000 -0.067022 0.000000
# 6 0.000000 0.000000 0.000000 0.000000 0.000000 0.042270
#
#
# Mechanical properties :
#
#
# Convention : Reuss Voigt Hill
#
# Bulk Modulus (GPa) = 45.45498 70.76867 58.11182
# Shear Modulus (GPa) = 100.07166 7.27940 53.67553
#
# Velocity S-wave (km/s) = 7.50601 2.02442 5.49720
# Velocity P-wave (km/s) = 10.03550 6.73105 8.54454
#
# Compressibility (1/GPa) = 0.02199979
#
# Stress axis : x y z
#
# Youngs Moduli (GPa) = 29.85309 29.85309 89.22079
#
# Poissons Ratio (x) = 0.38495 0.67838
# Poissons Ratio (y) = 0.38495 0.67838
# Poissons Ratio (z) = 0.22699 0.22699
#
# Static dielectric constant tensor:
#      x y z
#    x 3.189170 0.000000 0.000000 
#    y 0.000000 3.189170 0.000000 
#    z 0.000000 0.000000 3.697570 
# 
# 
# High freq. dielectric constant tensor:
#      x y z
#    x 1.665250 0.000000 0.000000 
#    y 0.000000 1.665250 0.000000 
#    z 0.000000 0.000000 1.706270 
# 
# From -- ./inp_files/5945.got.cif
#   From: 2010.03.12/outbox.cif.g09.slc.cpg/sg115_3_cif.got.tgz:5945.got - 2010.04.14 02:11:21.
