data_PCOD8309652
_publ_section_title
;
Structure prediction by ZEFSAII (Michael W. Deem and Ramdas Pophale) SiO2 
 PCOD8309652
Probable space group: P -4 M 2
;
_chemical_formula_sum "Si O2"
_cell_formula_units_Z 44
_cell_length_a 8.946535
_cell_length_b 8.946535
_cell_length_c 28.277768
_cell_angle_alpha 90.000000
_cell_angle_beta 90.000000
_cell_angle_gamma 90.000000
_cell_volume 2263.366365
_symmetry_space_group_name_H-M "P -4 M 2"
_symmetry_group_IT_number 115
_symmetry_cell_setting 'tetragonal'
loop_
_space_group_symop_operation_xyz
x,y,z
y,-x,-z
-x,-y,z
-y,x,-z
y,x,-z
-y,-x,-z
-x,y,z
x,-y,z
loop_
_atom_site_type_symbol
_atom_site_label
_atom_site_fract_x
_atom_site_fract_y
_atom_site_fract_z
Si Si1 0.323946 0.172260 0.868466
Si Si2 0.672120 0.327881 0.500000
Si Si3 0.673047 0.174948 0.043850
Si Si4 0.177148 0.167710 0.414926
Si Si5 0.176691 0.671065 0.781804
Si Si6 0.165629 0.177299 0.310934
O O1 0.500000 0.195423 0.868166
O O2 0.255600 0.275216 0.908870
O O3 0.258731 0.222509 0.818548
O O4 0.281075 0.000000 0.877781
O O5 0.500000 0.294154 0.490868
O O6 0.721476 0.240424 0.546379
O O7 0.500000 0.211784 0.034469
O O8 0.699982 0.000000 0.050315
O O9 0.768703 0.231298 0.000000
O O10 0.224075 0.228202 0.362725
O O11 0.000000 0.165450 0.418730
O O12 0.239614 0.000000 0.423597
O O13 0.224348 0.500000 0.790040
O O14 0.230723 0.720172 0.729551
O O15 0.000000 0.691878 0.787960
O O16 0.000000 0.243500 0.300574
O O17 0.154155 0.000000 0.311699
#
# Coordination Sequence:
#
# PCOD8309652 Si02
#       6
#     8   4   8   8   8   8
#     4  11  24  40  58  82 112 148 191 233 273 321
#     4  11  24  37  48  70 106 143 178 217 264 320
#     4  11  24  41  62  89 118 148 185 227 273 327
#     4   9  18  34  57  82 104 131 174 223 268 320
#     4  10  20  34  55  84 114 144 181 223 269 324
#     4   8  15  30  53  80 108 137 172 218 269 319
#
# _framework density 19.440071
#
# number of rings (size 3 to 8) (size 9 to 14) (size 15 to 20)
#    0.000    2.091    0.000    4.364    0.000   11.273 
#    0.000    2.727    0.000    1.091    0.000    0.000 
#    0.000    0.000    0.000    0.000    0.000    0.000 
#
# Total GULP energy -545646.643693 kJ/mol
# GULP energy per Si atom -12401.060084 kJ/mol
# Density = 1.939582 g / cm^3
# Si number density = 19.440071 Si / 1000 Ang^3
#
#
#
# Elastic Constant Matrix: (Units=GPa)
#
#
# Indices 1 2 3 4 5 6 
#
# 1 41.7216 37.9736 29.0133 0.0000 0.0000 0.0000
# 2 37.9736 41.7228 29.0119 0.0000 0.0000 0.0000
# 3 29.0133 29.0119 128.3002 0.0000 0.0000 0.0000
# 4 0.0000 0.0000 0.0000-1322.9281 0.0000 0.0000
# 5 0.0000 0.0000 0.0000 0.0000-1317.1612 0.0000
# 6 0.0000 0.0000 0.0000 0.0000 0.0000 27.1742
#
#
#
# Elastic Compliance Matrix: (Units=1/GPa)
#
#
# Indices 1 2 3 4 5 6 
#
# 1 0.140897 -0.125873 -0.003399 0.000000 0.000000 0.000000
# 2 -0.125873 0.140890 -0.003394 0.000000 0.000000 0.000000
# 3 -0.003399 -0.003394 0.009330 0.000000 0.000000 0.000000
# 4 0.000000 0.000000 0.000000 -0.000756 0.000000 0.000000
# 5 0.000000 0.000000 0.000000 0.000000 -0.000759 0.000000
# 6 0.000000 0.000000 0.000000 0.000000 0.000000 0.036800
#
#
# Mechanical properties :
#
#
# Convention : Reuss Voigt Hill
#
# Bulk Modulus (GPa) = 38.78181 44.86027 41.82104
# Shear Modulus (GPa) = 8.32875 -514.86663 -253.26894
#
# Velocity S-wave (km/s) = 2.07211 -16.29181 -11.42649
# Velocity P-wave (km/s) = 5.07125 18.18712 12.35017
#
# Compressibility (1/GPa) = 0.02578528
#
# Stress axis : x y z
#
# Youngs Moduli (GPa) = 7.09736 7.09773 107.17663
#
# Poissons Ratio (x) = 0.89341 0.36429
# Poissons Ratio (y) = 0.89337 0.36380
# Poissons Ratio (z) = 0.02412 0.02409
#
# Static dielectric constant tensor:
#      x y z
#    x 3.512170 0.000000 0.000000 
#    y 0.000000 3.512230 0.000000 
#    z 0.000000 0.000000 4.369480 
# 
# 
# High freq. dielectric constant tensor:
#      x y z
#    x 1.747530 0.000000 0.000000 
#    y 0.000000 1.747530 0.000000 
#    z 0.000000 0.000000 1.776160 
# 
# From -- ./inp_files/5773.got.cif
#   From: 2010.03.12/outbox.cif.g09.slc.cpg/sg115_3_cif.got.tgz:5773.got - 2010.04.14 02:11:21.
