data_PCOD8309067
_publ_section_title
;
Structure prediction by ZEFSAII (Michael W. Deem and Ramdas Pophale) SiO2 
 PCOD8309067
Probable space group: P -4 21 C
;
_chemical_formula_sum "Si O2"
_cell_formula_units_Z 32
_cell_length_a 9.587738
_cell_length_b 9.587738
_cell_length_c 17.028192
_cell_angle_alpha 90.000000
_cell_angle_beta 90.000000
_cell_angle_gamma 90.000000
_cell_volume 1565.311781
_symmetry_space_group_name_H-M "P -4 21 C"
_symmetry_group_IT_number 114
_symmetry_cell_setting 'tetragonal'
loop_
_space_group_symop_operation_xyz
x,y,z
y,-x,-z
-x,-y,z
-y,x,-z
1/2+x,1/2-y,1/2-z
1/2-x,1/2+y,1/2-z
1/2-y,1/2-x,1/2+z
1/2+y,1/2+x,1/2+z
loop_
_atom_site_type_symbol
_atom_site_label
_atom_site_fract_x
_atom_site_fract_y
_atom_site_fract_z
Si Si1 1.000000 0.833025 0.874910
Si Si2 0.500000 0.664543 0.804865
Si Si3 0.159844 0.758890 0.416448
Si Si4 0.159844 0.241110 0.416448
O O1 1.000000 0.783455 0.784359
O O2 0.131556 0.766620 0.917965
O O3 0.868444 0.766620 0.917965
O O4 0.000000 0.000000 0.884646
O O5 0.500000 0.500000 0.810472
O O6 0.362195 0.718470 0.849141
O O7 0.637805 0.718470 0.849141
O O8 0.164057 0.835943 0.500000
O O9 1.000000 0.711826 0.399607
#
# Coordination Sequence:
#
# PCOD8309067 Si02
#       4
#     8   8   8   8
#     4  11  25  41  61  93 134 163 195 258 318 365
#     4   9  20  41  67  93 120 163 215 256 300 361
#     4  11  22  40  67  92 122 164 213 254 302 365
#     4  11  22  40  67  92 122 164 213 254 302 365
#
# _framework density 20.443211999999999
#
# number of rings (size 3 to 8) (size 9 to 14) (size 15 to 20)
#    0.000    1.500    2.500    2.250    3.500    0.000 
#    0.000    3.750    0.000    0.000    0.000    0.000 
#    0.000    0.000    0.000    0.000    0.000    0.000 
#
# Total GULP energy -396869.187468 kJ/mol
# GULP energy per Si atom -12402.162108 kJ/mol
# Density = 2.039668 g / cm^3
# Si number density = 20.443212 Si / 1000 Ang^3
#
#
#
# Elastic Constant Matrix: (Units=GPa)
#
#
# Indices 1 2 3 4 5 6 
#
# 1 111.9562 48.2489 16.0050 0.0000 0.0000 0.0000
# 2 48.2489 111.9562 16.0050 0.0000 0.0000 0.0000
# 3 16.0050 16.0050 79.3988 0.0000 0.0000 0.0000
# 4 0.0000 0.0000 0.0000 31.1623 0.0000 0.0000
# 5 0.0000 0.0000 0.0000 0.0000 31.1623 0.0000
# 6 0.0000 0.0000 0.0000 0.0000 0.0000 17.4501
#
#
#
# Elastic Compliance Matrix: (Units=1/GPa)
#
#
# Indices 1 2 3 4 5 6 
#
# 1 0.011100 -0.004596 -0.001311 0.000000 0.000000 0.000000
# 2 -0.004596 0.011100 -0.001311 0.000000 0.000000 0.000000
# 3 -0.001311 -0.001311 0.013123 0.000000 0.000000 0.000000
# 4 0.000000 0.000000 0.000000 0.032090 0.000000 0.000000
# 5 0.000000 0.000000 0.000000 0.000000 0.032090 0.000000
# 6 0.000000 0.000000 0.000000 0.000000 0.000000 0.057306
#
#
# Mechanical properties :
#
#
# Convention : Reuss Voigt Hill
#
# Bulk Modulus (GPa) = 47.87690 51.53658 49.70674
# Shear Modulus (GPa) = 28.05681 30.82507 29.44094
#
# Velocity S-wave (km/s) = 3.70865 3.88730 3.79903
# Velocity P-wave (km/s) = 6.46599 6.73888 6.60385
#
# Compressibility (1/GPa) = 0.02088690
#
# Stress axis : x y z
#
# Youngs Moduli (GPa) = 90.08708 90.08708 76.20091
#
# Poissons Ratio (x) = 0.41408 0.09990
# Poissons Ratio (y) = 0.41408 0.09990
# Poissons Ratio (z) = 0.11811 0.11811
#
# Static dielectric constant tensor:
#      x y z
#    x 3.524900 0.000000 0.000000 
#    y 0.000000 3.524900 0.000000 
#    z 0.000000 0.000000 3.918580 
# 
# 
# High freq. dielectric constant tensor:
#      x y z
#    x 1.791900 0.000000 0.000000 
#    y 0.000000 1.791900 0.000000 
#    z 0.000000 0.000000 1.812250 
# 
# From -- ./inp_files/2846.got.cif
#   From: 2010.03.12/outbox.cif.g09.slc.cpg/sg114_2_cif.got.tgz:2846.got - 2010.04.14 02:08:34.
