data_PCOD8309706
_publ_section_title
;
Structure prediction by ZEFSAII (Michael W. Deem and Ramdas Pophale) SiO2 
 PCOD8309706
Probable space group: P -4 M 2
;
_chemical_formula_sum "Si O2"
_cell_formula_units_Z 56
_cell_length_a 15.451436
_cell_length_b 15.451436
_cell_length_c 11.803871
_cell_angle_alpha 90.000000
_cell_angle_beta 90.000000
_cell_angle_gamma 90.000000
_cell_volume 2818.137308
_symmetry_space_group_name_H-M "P -4 M 2"
_symmetry_group_IT_number 115
_symmetry_cell_setting 'tetragonal'
loop_
_space_group_symop_operation_xyz
x,y,z
y,-x,-z
-x,-y,z
-y,x,-z
y,x,-z
-y,-x,-z
-x,y,z
x,-y,z
loop_
_atom_site_type_symbol
_atom_site_label
_atom_site_fract_x
_atom_site_fract_y
_atom_site_fract_z
Si Si1 0.791586 0.331826 0.434805
Si Si2 0.600016 0.772530 0.180556
Si Si3 0.327150 0.595155 0.254886
Si Si4 0.899638 0.730537 0.225172
Si Si5 0.902776 0.398842 0.634841
Si Si6 0.181771 0.402136 0.067753
Si Si7 0.906315 0.899347 0.869366
O O1 0.747287 0.252714 0.500000
O O2 0.719574 0.393213 0.376652
O O3 0.851400 0.296451 0.336720
O O4 0.853775 0.385415 0.516660
O O5 0.500000 0.791296 0.174363
O O6 0.609979 0.675741 0.231087
O O7 0.642922 0.843808 0.264729
O O8 0.636417 0.786636 0.053574
O O9 0.373767 0.500000 0.258090
O O10 0.262455 0.595642 0.150559
O O11 0.888265 0.663129 0.121149
O O12 0.858792 0.824892 0.196588
O O13 0.000000 0.736983 0.252263
O O14 0.911901 0.500000 0.654913
O O15 0.000000 0.357616 0.634412
O O16 0.143066 0.500000 0.056923
O O17 0.000000 0.856701 0.836750
O O18 0.911976 0.000000 0.840773
O O19 0.885921 0.885921 0.000000
#
# Coordination Sequence:
#
# PCOD8309706 Si02
#       7
#     8   8   8   8   8   8   8
#     4  11  21  38  57  79 114 155 200 256 304 356
#     4  10  20  36  58  87 121 155 192 242 298 359
#     4  10  20  36  59  84 114 156 198 242 301 359
#     4  10  21  35  57  85 112 148 201 251 298 359
#     4  10  21  38  60  84 114 157 203 247 302 365
#     4   9  20  36  56  83 119 156 188 233 297 357
#     4   8  15  31  53  77 109 145 181 231 292 351
#
# _framework density 19.871282000000001
#
# number of rings (size 3 to 8) (size 9 to 14) (size 15 to 20)
#    0.000    2.286    1.429    1.714    0.000    4.000 
#    0.000    2.857    0.000    2.571    0.000    0.000 
#    0.000    0.000    0.000    0.000    0.000    0.000 
#
# Total GULP energy -693866.390425 kJ/mol
# GULP energy per Si atom -12390.471258 kJ/mol
# Density = 1.982605 g / cm^3
# Si number density = 19.871282 Si / 1000 Ang^3
#
#
#
# Elastic Constant Matrix: (Units=GPa)
#
#
# Indices 1 2 3 4 5 6 
#
# 1 79.5632 11.8185 39.1055 0.0000 0.0000 0.0000
# 2 11.8185 79.5646 39.1072 0.0000 0.0000 0.0000
# 3 39.1055 39.1072 125.0413 0.0000 0.0000 0.0000
# 4 0.0000 0.0000 0.0000 39.9075 0.0000 0.0000
# 5 0.0000 0.0000 0.0000 0.0000 39.8831 0.0000
# 6 0.0000 0.0000 0.0000 0.0000 0.0000 15.1620
#
#
#
# Elastic Compliance Matrix: (Units=1/GPa)
#
#
# Indices 1 2 3 4 5 6 
#
# 1 0.014852 0.000091 -0.004673 0.000000 0.000000 0.000000
# 2 0.000091 0.014852 -0.004673 0.000000 0.000000 0.000000
# 3 -0.004673 -0.004673 0.010921 0.000000 0.000000 0.000000
# 4 0.000000 0.000000 0.000000 0.025058 0.000000 0.000000
# 5 0.000000 0.000000 0.000000 0.000000 0.025073 0.000000
# 6 0.000000 0.000000 0.000000 0.000000 0.000000 0.065954
#
#
# Mechanical properties :
#
#
# Convention : Reuss Voigt Hill
#
# Bulk Modulus (GPa) = 45.22253 51.58127 48.40190
# Shear Modulus (GPa) = 27.38338 31.93306 29.65822
#
# Velocity S-wave (km/s) = 3.71622 4.01308 3.86750
# Velocity P-wave (km/s) = 6.42035 6.89109 6.65988
#
# Compressibility (1/GPa) = 0.02211287
#
# Stress axis : x y z
#
# Youngs Moduli (GPa) = 67.33078 67.33119 91.57088
#
# Poissons Ratio (x) = -0.00612 0.42793
# Poissons Ratio (y) = -0.00612 0.42795
# Poissons Ratio (z) = 0.31465 0.31467
#
# Static dielectric constant tensor:
#      x y z
#    x 2.370750 0.000000 0.000000 
#    y 0.000000 2.369400 0.000000 
#    z 0.000000 0.000000 3.833460 
# 
# 
# High freq. dielectric constant tensor:
#      x y z
#    x 1.765030 0.000000 0.000000 
#    y 0.000000 1.765030 0.000000 
#    z 0.000000 0.000000 1.779660 
# 
# From -- ./inp_files/3056.got.cif
#   From: 2010.03.12/outbox.cif.g09.slc.cpg/sg115_2_cif.got.tgz:3056.got - 2010.04.14 02:11:21.
