data_PCOD8309218
_publ_section_title
;
Structure prediction by ZEFSAII (Michael W. Deem and Ramdas Pophale) SiO2 
 PCOD8309218
Probable space group: P -4 M 2
;
_chemical_formula_sum "Si O2"
_cell_formula_units_Z 56
_cell_length_a 14.505740
_cell_length_b 14.505740
_cell_length_c 17.872036
_cell_angle_alpha 90.000000
_cell_angle_beta 90.000000
_cell_angle_gamma 90.000000
_cell_volume 3760.571137
_symmetry_space_group_name_H-M "P -4 M 2"
_symmetry_group_IT_number 115
_symmetry_cell_setting 'tetragonal'
loop_
_space_group_symop_operation_xyz
x,y,z
y,-x,-z
-x,-y,z
-y,x,-z
y,x,-z
-y,-x,-z
-x,y,z
x,-y,z
loop_
_atom_site_type_symbol
_atom_site_label
_atom_site_fract_x
_atom_site_fract_y
_atom_site_fract_z
Si Si1 0.602155 0.109535 0.203569
Si Si2 0.261050 0.110127 0.500000
Si Si3 0.397845 0.109535 0.796431
Si Si4 0.746031 0.894118 0.915562
Si Si5 0.397091 0.890835 0.370443
Si Si6 0.602909 0.890835 0.629557
Si Si7 0.253969 0.894118 0.084438
O O1 0.500000 0.147885 0.186130
O O2 0.632413 0.140974 0.286944
O O3 0.671495 0.149293 0.141363
O O4 0.600989 0.000000 0.198596
O O5 0.163338 0.163338 0.500000
O O6 0.320103 0.143541 0.428363
O O7 0.320103 0.143541 0.571637
O O8 0.241604 0.000000 0.500000
O O9 0.500000 0.147885 0.813870
O O10 0.328505 0.149293 0.858637
O O11 0.367587 0.140974 0.713056
O O12 0.399010 0.000000 0.801404
O O13 0.841970 0.841970 0.904835
O O14 0.766812 0.000000 0.896554
O O15 0.707745 0.882695 1.000000
O O16 0.500000 0.852401 0.389904
O O17 0.402321 0.000000 0.374607
O O18 0.500000 0.852402 0.610096
O O19 0.597679 0.000000 0.625393
O O20 0.233188 0.000000 0.103446
#
# Coordination Sequence:
#
# PCOD8309218 Si02
#       7
#     8   8   8   8   8   8   8
#     4   8  14  25  41  59  76  95 123 163 210 250
#     4  10  19  28  39  57  82 112 141 165 190 223
#     4   8  14  25  41  59  76  95 123 163 210 250
#     4   9  17  27  38  54  78 109 142 170 193 222
#     4   8  14  26  43  59  74  95 127 168 208 239
#     4   8  14  26  43  59  74  95 127 168 208 239
#     4   9  17  27  38  54  78 109 142 170 193 222
#
# _framework density 14.891355000000001
#
# number of rings (size 3 to 8) (size 9 to 14) (size 15 to 20)
#    0.000    3.429    0.000    2.143    0.000    3.857 
#    0.000    4.286    0.000    0.000    0.000    8.000 
#    0.000    5.143    0.000   15.714    0.000    8.286 
#
# Total GULP energy -693896.767413 kJ/mol
# GULP energy per Si atom -12391.013704 kJ/mol
# Density = 1.485746 g / cm^3
# Si number density = 14.891355 Si / 1000 Ang^3
#
#
#
# Elastic Constant Matrix: (Units=GPa)
#
#
# Indices 1 2 3 4 5 6 
#
# 1 57.4468 31.1074 49.4992 0.0000 0.0000 0.0000
# 2 31.1074 57.4468 49.4992 0.0000 0.0000 0.0000
# 3 49.4992 49.4992 116.0917 0.0000 0.0000 0.0000
# 4 0.0000 0.0000 0.0000 18.7889 0.0000 0.0000
# 5 0.0000 0.0000 0.0000 0.0000 18.7889 0.0000
# 6 0.0000 0.0000 0.0000 0.0000 0.0000 3.4192
#
#
#
# Elastic Compliance Matrix: (Units=1/GPa)
#
#
# Indices 1 2 3 4 5 6 
#
# 1 0.029772 -0.008194 -0.009200 0.000000 0.000000 0.000000
# 2 -0.008194 0.029772 -0.009200 0.000000 0.000000 0.000000
# 3 -0.009200 -0.009200 0.016460 0.000000 0.000000 0.000000
# 4 0.000000 0.000000 0.000000 0.053223 0.000000 0.000000
# 5 0.000000 0.000000 0.000000 0.000000 0.053223 0.000000
# 6 0.000000 0.000000 0.000000 0.000000 0.000000 0.292465
#
#
# Mechanical properties :
#
#
# Convention : Reuss Voigt Hill
#
# Bulk Modulus (GPa) = 43.83275 54.57744 49.20509
# Shear Modulus (GPa) = 9.33342 14.92471 12.12907
#
# Velocity S-wave (km/s) = 2.50625 3.16925 2.85705
# Velocity P-wave (km/s) = 6.15418 7.07970 6.63311
#
# Compressibility (1/GPa) = 0.02281399
#
# Stress axis : x y z
#
# Youngs Moduli (GPa) = 33.58852 33.58852 60.75455
#
# Poissons Ratio (x) = 0.27522 0.55897
# Poissons Ratio (y) = 0.27522 0.55897
# Poissons Ratio (z) = 0.30903 0.30903
#
# Static dielectric constant tensor:
#      x y z
#    x 2.675520 0.000000 0.000000 
#    y 0.000000 2.675520 0.000000 
#    z 0.000000 0.000000 3.289190 
# 
# 
# High freq. dielectric constant tensor:
#      x y z
#    x 1.533380 0.000000 0.000000 
#    y 0.000000 1.533380 0.000000 
#    z 0.000000 0.000000 1.587900 
# 
# From -- ./inp_files/4915.got.cif
#   From: 2010.03.12/outbox.cif.g09.slc.cpg/sg115_3_cif.got.tgz:4915.got - 2010.04.14 02:11:21.
