data_PCOD8309489
_publ_section_title
;
Structure prediction by ZEFSAII (Michael W. Deem and Ramdas Pophale) SiO2 
 PCOD8309489
Probable space group: P -4 M 2
;
_chemical_formula_sum "Si O2"
_cell_formula_units_Z 40
_cell_length_a 9.094989
_cell_length_b 9.094989
_cell_length_c 25.848714
_cell_angle_alpha 90.000000
_cell_angle_beta 90.000000
_cell_angle_gamma 90.000000
_cell_volume 2138.175248
_symmetry_space_group_name_H-M "P -4 M 2"
_symmetry_group_IT_number 115
_symmetry_cell_setting 'tetragonal'
loop_
_space_group_symop_operation_xyz
x,y,z
y,-x,-z
-x,-y,z
-y,x,-z
y,x,-z
-y,-x,-z
-x,y,z
x,-y,z
loop_
_atom_site_type_symbol
_atom_site_label
_atom_site_fract_x
_atom_site_fract_y
_atom_site_fract_z
Si Si1 0.164937 0.675202 0.344737
Si Si2 0.332929 0.674549 0.243677
Si Si3 0.664070 0.675349 0.443406
Si Si4 0.169113 0.327828 0.954338
Si Si5 0.829375 0.828760 0.849036
O O1 0.165416 0.500000 0.345892
O O2 0.262050 0.732923 0.296965
O O3 0.231473 0.737842 0.398299
O O4 0.000000 0.736371 0.338533
O O5 0.500000 0.732093 0.240707
O O6 0.326974 0.500000 0.241265
O O7 0.240039 0.735667 0.196528
O O8 0.724607 0.724607 0.500000
O O9 0.500000 0.737492 0.433932
O O10 0.658977 0.500000 0.442158
O O11 0.193676 0.500000 0.946426
O O12 0.219200 0.247231 0.902211
O O13 0.000000 0.290432 0.967605
O O14 0.271779 0.271779 0.000000
O O15 0.000000 0.799805 0.837569
O O16 0.792470 0.000000 0.853340
#
# Coordination Sequence:
#
# PCOD8309489 Si02
#       5
#     8   8   8   8   8
#     4   9  16  26  42  66  96 128 162 203 251 302
#     4  10  20  33  51  76 105 136 171 213 259 305
#     4   8  13  22  38  60  85 115 154 199 245 295
#     4  10  21  37  57  80 105 135 171 210 253 301
#     4  10  21  37  57  79 104 137 175 213 255 305
#
# _framework density 18.707542
#
# number of rings (size 3 to 8) (size 9 to 14) (size 15 to 20)
#    0.000    2.600    0.000    3.000    0.000    6.800 
#    0.000    0.000    0.000    1.200    0.000    2.800 
#    0.000    0.000    0.000    0.000    0.000    0.000 
#
# Total GULP energy -495998.562186 kJ/mol
# GULP energy per Si atom -12399.964055 kJ/mol
# Density = 1.866496 g / cm^3
# Si number density = 18.707542 Si / 1000 Ang^3
#
#
#
# Elastic Constant Matrix: (Units=GPa)
#
#
# Indices 1 2 3 4 5 6 
#
# 1 71.5626 27.7416 54.8145 0.0000 0.0000 0.0000
# 2 27.7416 71.5626 54.8145 0.0000 0.0000 0.0000
# 3 54.8145 54.8145 165.6244 0.0000 0.0000 0.0000
# 4 0.0000 0.0000 0.0000 -2.0712 0.0000 0.0000
# 5 0.0000 0.0000 0.0000 0.0000 -2.0712 0.0000
# 6 0.0000 0.0000 0.0000 0.0000 0.0000 20.7234
#
#
#
# Elastic Compliance Matrix: (Units=1/GPa)
#
#
# Indices 1 2 3 4 5 6 
#
# 1 0.019344 -0.003476 -0.005251 0.000000 0.000000 0.000000
# 2 -0.003476 0.019344 -0.005251 0.000000 0.000000 0.000000
# 3 -0.005251 -0.005251 0.009514 0.000000 0.000000 0.000000
# 4 0.000000 0.000000 0.000000 -0.482815 0.000000 0.000000
# 5 0.000000 0.000000 0.000000 0.000000 -0.482815 0.000000
# 6 0.000000 0.000000 0.000000 0.000000 0.000000 0.048255
#
#
# Mechanical properties :
#
#
# Convention : Reuss Voigt Hill
#
# Bulk Modulus (GPa) = 49.39980 64.83227 57.11604
# Shear Modulus (GPa) = -5.99184 14.74147 4.37481
#
# Velocity S-wave (km/s) = -1.79161 2.81017 1.53088
# Velocity P-wave (km/s) = 4.70998 6.72758 5.80707
#
# Compressibility (1/GPa) = 0.02024300
#
# Stress axis : x y z
#
# Youngs Moduli (GPa) = 51.69608 51.69608 105.11080
#
# Poissons Ratio (x) = 0.17971 0.55199
# Poissons Ratio (y) = 0.17971 0.55199
# Poissons Ratio (z) = 0.27148 0.27148
#
# Static dielectric constant tensor:
#      x y z
#    x 3.311520 0.000000 0.000000 
#    y 0.000000 3.311520 0.000000 
#    z 0.000000 0.000000 3.695120 
# 
# 
# High freq. dielectric constant tensor:
#      x y z
#    x 1.704440 0.000000 0.000000 
#    y 0.000000 1.704440 0.000000 
#    z 0.000000 0.000000 1.744650 
# 
# From -- ./inp_files/5090.got.cif
#   From: 2010.03.12/outbox.cif.g09.slc.cpg/sg115_3_cif.got.tgz:5090.got - 2010.04.14 02:11:21.
