data_PCOD8309639
_publ_section_title
;
Structure prediction by ZEFSAII (Michael W. Deem and Ramdas Pophale) SiO2 
 PCOD8309639
Probable space group: P -4 M 2
;
_chemical_formula_sum "Si O2"
_cell_formula_units_Z 48
_cell_length_a 9.102330
_cell_length_b 9.102330
_cell_length_c 30.837846
_cell_angle_alpha 90.000000
_cell_angle_beta 90.000000
_cell_angle_gamma 90.000000
_cell_volume 2554.989904
_symmetry_space_group_name_H-M "P -4 M 2"
_symmetry_group_IT_number 115
_symmetry_cell_setting 'tetragonal'
loop_
_space_group_symop_operation_xyz
x,y,z
y,-x,-z
-x,-y,z
-y,x,-z
y,x,-z
-y,-x,-z
-x,y,z
x,-y,z
loop_
_atom_site_type_symbol
_atom_site_label
_atom_site_fract_x
_atom_site_fract_y
_atom_site_fract_z
Si Si1 0.171154 0.828070 0.717097
Si Si2 0.663926 0.174293 0.632831
Si Si3 0.328513 0.831245 0.037972
Si Si4 0.665567 0.826824 0.537438
Si Si5 0.672947 0.669965 0.795375
Si Si6 0.171815 0.830054 0.126817
O O1 0.224499 0.772006 0.669917
O O2 0.255566 0.734711 0.752473
O O3 0.000000 0.795632 0.721266
O O4 0.206130 0.000000 0.724083
O O5 0.500000 0.234534 0.642907
O O6 0.716699 0.229873 0.585251
O O7 0.658708 0.000000 0.631943
O O8 0.500000 0.804311 0.045687
O O9 0.243856 0.786185 0.081368
O O10 0.295082 0.000000 0.025586
O O11 0.273178 0.726823 0.000000
O O12 0.767653 0.767653 0.500000
O O13 0.500000 0.773194 0.529029
O O14 0.675931 0.000000 0.535904
O O15 0.500000 0.691932 0.792048
O O16 0.716884 0.500000 0.799984
O O17 0.730276 0.756986 0.836733
O O18 0.000000 0.795893 0.124138
O O19 0.201771 0.000000 0.138184
#
# Coordination Sequence:
#
# PCOD8309639 Si02
#       6
#     8   8   8   8   8   8
#     4  10  20  34  55  82 107 133 171 217 264 316
#     4   8  15  30  51  73 100 135 173 214 259 307
#     4  10  21  37  58  84 114 149 186 224 269 318
#     4   9  18  32  50  74 103 135 173 215 259 310
#     4  11  24  39  55  78 109 144 180 217 261 315
#     4  10  21  38  61  86 110 140 181 226 270 317
#
# _framework density 18.786764999999999
#
# number of rings (size 3 to 8) (size 9 to 14) (size 15 to 20)
#    0.000    2.333    0.000    3.500    0.000    8.000 
#    0.000    2.500    0.000    1.000    0.000    0.000 
#    0.000    0.000    0.000    0.000    0.000    0.000 
#
# Total GULP energy -595195.656570 kJ/mol
# GULP energy per Si atom -12399.909512 kJ/mol
# Density = 1.874401 g / cm^3
# Si number density = 18.786765 Si / 1000 Ang^3
#
#
#
# Elastic Constant Matrix: (Units=GPa)
#
#
# Indices 1 2 3 4 5 6 
#
# 1 73.4595 45.1116 61.7844 0.0000 0.0000 0.0000
# 2 45.1116 73.4601 61.7852 0.0000 0.0000 0.0000
# 3 61.7844 61.7852 152.0958 0.0000 0.0000 0.0000
# 4 0.0000 0.0000 0.0000 109.2894 0.0000 0.0000
# 5 0.0000 0.0000 0.0000 0.0000 109.2862 0.0000
# 6 0.0000 0.0000 0.0000 0.0000 0.0000 27.2739
#
#
#
# Elastic Compliance Matrix: (Units=1/GPa)
#
#
# Indices 1 2 3 4 5 6 
#
# 1 0.024950 -0.010325 -0.005941 0.000000 0.000000 0.000000
# 2 -0.010325 0.024951 -0.005941 0.000000 0.000000 0.000000
# 3 -0.005941 -0.005941 0.011402 0.000000 0.000000 0.000000
# 4 0.000000 0.000000 0.000000 0.009150 0.000000 0.000000
# 5 0.000000 0.000000 0.000000 0.000000 0.009150 0.000000
# 6 0.000000 0.000000 0.000000 0.000000 0.000000 0.036665
#
#
# Mechanical properties :
#
#
# Convention : Reuss Voigt Hill
#
# Bulk Modulus (GPa) = 59.21459 70.70863 64.96161
# Shear Modulus (GPa) = 30.06396 57.85885 43.96141
#
# Velocity S-wave (km/s) = 4.00468 5.55559 4.84262
# Velocity P-wave (km/s) = 7.27812 8.88098 8.11920
#
# Compressibility (1/GPa) = 0.01688773
#
# Stress axis : x y z
#
# Youngs Moduli (GPa) = 40.07941 40.07935 87.70661
#
# Poissons Ratio (x) = 0.41383 0.52107
# Poissons Ratio (y) = 0.41383 0.52109
# Poissons Ratio (z) = 0.23811 0.23812
#
# Static dielectric constant tensor:
#      x y z
#    x 3.260930 0.000000 0.000000 
#    y 0.000000 3.260930 0.000000 
#    z 0.000000 0.000000 3.831300 
# 
# 
# High freq. dielectric constant tensor:
#      x y z
#    x 1.720940 0.000000 0.000000 
#    y 0.000000 1.720940 0.000000 
#    z 0.000000 0.000000 1.747460 
# 
# From -- ./inp_files/6017.got.cif
#   From: 2010.03.12/outbox.cif.g09.slc.cpg/sg115_4_cif.got.tgz:6017.got - 2010.04.14 02:11:21.
