data_PCOD8309130
_publ_section_title
;
Structure prediction by ZEFSAII (Michael W. Deem and Ramdas Pophale) SiO2 
 PCOD8309130
Probable space group: P -4 21 C
;
_chemical_formula_sum "Si O2"
_cell_formula_units_Z 42
_cell_length_a 14.230620
_cell_length_b 14.230620
_cell_length_c 9.208950
_cell_angle_alpha 90.000000
_cell_angle_beta 90.000000
_cell_angle_gamma 90.000000
_cell_volume 1864.909489
_symmetry_space_group_name_H-M "P -4 21 C"
_symmetry_group_IT_number 114
_symmetry_cell_setting 'tetragonal'
loop_
_space_group_symop_operation_xyz
x,y,z
y,-x,-z
-x,-y,z
-y,x,-z
1/2+x,1/2-y,1/2-z
1/2-x,1/2+y,1/2-z
1/2-y,1/2-x,1/2+z
1/2+y,1/2+x,1/2+z
loop_
_atom_site_type_symbol
_atom_site_label
_atom_site_fract_x
_atom_site_fract_y
_atom_site_fract_z
Si Si1 0.198931 0.796715 0.108159
Si Si2 0.956895 0.178120 0.304944
Si Si3 0.000000 0.000000 0.500000
Si Si4 0.125105 0.640549 0.437260
Si Si5 0.604318 0.000225 0.305715
Si Si6 0.138747 0.282459 0.183811
O O1 0.117723 0.861117 0.184822
O O2 0.272087 0.749459 0.222054
O O3 0.137570 0.712869 0.043797
O O4 0.253917 0.854025 0.984693
O O5 0.893908 0.252229 0.392747
O O6 0.992932 0.092479 0.401839
O O7 0.044730 0.235049 0.241938
O O8 0.155121 0.571075 0.305820
O O9 0.034842 0.606287 0.528369
O O10 0.644059 0.105085 0.300746
O O11 0.500000 0.000000 0.246007
#
# Coordination Sequence:
#
# PCOD8309130 Si02
#       6
#     8   8   2   8   8   8
#     4  12  26  48  72 110 149 199 251 309 381 455
#     4  12  27  50  76 104 151 202 258 310 373 459
#     4  12  32  52  74 108 148 220 262 312 380 452
#     4  12  23  46  72 107 149 188 240 305 376 452
#     4  12  25  41  74 114 146 182 237 310 387 448
#     4  12  27  46  76 111 151 194 249 317 385 451
#
# _framework density 22.521197999999998
#
# number of rings (size 3 to 8) (size 9 to 14) (size 15 to 20)
#    0.000    0.000    5.714    2.857    8.000    1.524 
#    0.000    0.000    0.000    0.000    0.000    0.000 
#    0.000    0.000    0.000    0.000    0.000    0.000 
#
# Total GULP energy -520719.682803 kJ/mol
# GULP energy per Si atom -12398.087686 kJ/mol
# Density = 2.246994 g / cm^3
# Si number density = 22.521198 Si / 1000 Ang^3
#
#
#
# Elastic Constant Matrix: (Units=GPa)
#
#
# Indices 1 2 3 4 5 6 
#
# 1 112.4504 20.9107 42.3235 0.0000 0.0000 0.0000
# 2 20.9107 112.4504 42.3235 0.0000 0.0000 0.0000
# 3 42.3235 42.3235 122.5696 0.0000 0.0000 0.0000
# 4 0.0000 0.0000 0.0000 35.8630 0.0000 0.0000
# 5 0.0000 0.0000 0.0000 0.0000 35.8630 0.0000
# 6 0.0000 0.0000 0.0000 0.0000 0.0000 30.6005
#
#
#
# Elastic Compliance Matrix: (Units=1/GPa)
#
#
# Indices 1 2 3 4 5 6 
#
# 1 0.010264 -0.000661 -0.003316 0.000000 0.000000 0.000000
# 2 -0.000661 0.010264 -0.003316 0.000000 0.000000 0.000000
# 3 -0.003316 -0.003316 0.010449 0.000000 0.000000 0.000000
# 4 0.000000 0.000000 0.000000 0.027884 0.000000 0.000000
# 5 0.000000 0.000000 0.000000 0.000000 0.027884 0.000000
# 6 0.000000 0.000000 0.000000 0.000000 0.000000 0.032679
#
#
# Mechanical properties :
#
#
# Convention : Reuss Voigt Hill
#
# Bulk Modulus (GPa) = 61.00896 62.06509 61.53703
# Shear Modulus (GPa) = 35.84956 36.59281 36.22119
#
# Velocity S-wave (km/s) = 3.99408 4.03527 4.01473
# Velocity P-wave (km/s) = 6.95835 7.02350 6.99100
#
# Compressibility (1/GPa) = 0.01639103
#
# Stress axis : x y z
#
# Youngs Moduli (GPa) = 97.43076 97.43076 95.70596
#
# Poissons Ratio (x) = 0.06436 0.31736
# Poissons Ratio (y) = 0.06436 0.31736
# Poissons Ratio (z) = 0.32308 0.32308
#
# Static dielectric constant tensor:
#      x y z
#    x 4.097350 0.000000 0.000000 
#    y 0.000000 4.097350 0.000000 
#    z 0.000000 0.000000 4.366070 
# 
# 
# High freq. dielectric constant tensor:
#      x y z
#    x 1.887760 0.000000 0.000000 
#    y 0.000000 1.887760 0.000000 
#    z 0.000000 0.000000 1.909020 
# 
# From -- ./inp_files/819.got.cif
#   From: 2010.03.12/outbox.cif.g09.slc.cpg/sg114_1_cif.got.tgz:819.got - 2010.04.14 02:08:34.
