data_PCOD8309167
_publ_section_title
;
Structure prediction by ZEFSAII (Michael W. Deem and Ramdas Pophale) SiO2 
 PCOD8309167
Probable space group: P -4 M 2
;
_chemical_formula_sum "Si O2"
_cell_formula_units_Z 64
_cell_length_a 17.901327
_cell_length_b 17.901327
_cell_length_c 12.681899
_cell_angle_alpha 90.000000
_cell_angle_beta 90.000000
_cell_angle_gamma 90.000000
_cell_volume 4064.009755
_symmetry_space_group_name_H-M "P -4 M 2"
_symmetry_group_IT_number 115
_symmetry_cell_setting 'tetragonal'
loop_
_space_group_symop_operation_xyz
x,y,z
y,-x,-z
-x,-y,z
-y,x,-z
y,x,-z
-y,-x,-z
-x,y,z
x,-y,z
loop_
_atom_site_type_symbol
_atom_site_label
_atom_site_fract_x
_atom_site_fract_y
_atom_site_fract_z
Si Si1 0.085228 0.791816 0.494989
Si Si2 0.417615 0.388166 0.378298
Si Si3 0.789853 0.085422 0.116194
Si Si4 0.086221 0.796208 0.122214
Si Si5 0.221083 0.582569 0.590612
Si Si6 0.252998 0.416835 0.352775
Si Si7 0.832875 0.721677 0.304555
Si Si8 0.282000 0.147354 0.310052
O O1 0.131125 0.868876 0.500000
O O2 0.117455 0.733449 0.409139
O O3 0.088093 0.752884 0.608850
O O4 0.000000 0.811407 0.466615
O O5 0.410119 0.410119 0.500000
O O6 0.500000 0.419635 0.339747
O O7 0.418577 0.300681 0.352539
O O8 0.341921 0.418367 0.322302
O O9 0.866777 0.128463 0.141272
O O10 0.722931 0.113240 0.192287
O O11 0.808503 0.000000 0.138602
O O12 0.764308 0.098361 0.995688
O O13 0.115214 0.734139 0.202949
O O14 0.000000 0.815577 0.143787
O O15 0.185322 0.500000 0.588578
O O16 0.238506 0.611019 0.472443
O O17 0.163585 0.633323 0.655779
O O18 0.221991 0.500000 0.334196
O O19 0.201866 0.360520 0.286016
O O20 0.762198 0.775425 0.313931
#
# Coordination Sequence:
#
# PCOD8309167 Si02
#       8
#     8   8   8   8   8   8   8   8
#     4  10  20  30  45  66  87 117 150 182 227 275
#     4   9  16  24  37  62  96 128 155 185 228 276
#     4   9  18  31  49  74  95 115 146 184 234 284
#     4   9  18  32  50  71  93 119 149 185 231 278
#     4   9  16  26  43  65  92 123 154 186 223 265
#     4  10  18  27  43  66  95 129 161 192 225 267
#     4  10  18  30  47  64  91 124 159 186 218 270
#     4  10  17  29  48  65  92 121 151 186 224 272
#
# _framework density 15.747994
#
# number of rings (size 3 to 8) (size 9 to 14) (size 15 to 20)
#    0.000    2.500    2.500    1.875    0.000    1.250 
#    0.000    1.250    0.000    9.000    0.000    1.750 
#    0.000    0.000    0.000    0.000    0.250    0.875 
#
# Total GULP energy -793045.720115 kJ/mol
# GULP energy per Si atom -12391.339377 kJ/mol
# Density = 1.571215 g / cm^3
# Si number density = 15.747994 Si / 1000 Ang^3
#
#
#
# Elastic Constant Matrix: (Units=GPa)
#
#
# Indices 1 2 3 4 5 6 
#
# 1 84.2397 44.7451 32.9153 0.0000 0.0000 0.0000
# 2 44.7451 84.2396 32.9153 0.0000 0.0000 0.0000
# 3 32.9153 32.9153 69.4833 0.0000 0.0000 0.0000
# 4 0.0000 0.0000 0.0000 17.3704 0.0000 0.0000
# 5 0.0000 0.0000 0.0000 0.0000 17.3705 0.0000
# 6 0.0000 0.0000 0.0000 0.0000 0.0000 15.4181
#
#
#
# Elastic Compliance Matrix: (Units=1/GPa)
#
#
# Indices 1 2 3 4 5 6 
#
# 1 0.017772 -0.007547 -0.004844 0.000000 0.000000 0.000000
# 2 -0.007547 0.017772 -0.004844 0.000000 0.000000 0.000000
# 3 -0.004844 -0.004844 0.018981 0.000000 0.000000 0.000000
# 4 0.000000 0.000000 0.000000 0.057569 0.000000 0.000000
# 5 0.000000 0.000000 0.000000 0.000000 0.057569 0.000000
# 6 0.000000 0.000000 0.000000 0.000000 0.000000 0.064859
#
#
# Mechanical properties :
#
#
# Convention : Reuss Voigt Hill
#
# Bulk Modulus (GPa) = 49.86018 51.01266 50.43642
# Shear Modulus (GPa) = 18.13708 18.52425 18.33067
#
# Velocity S-wave (km/s) = 3.39736 3.43343 3.41545
# Velocity P-wave (km/s) = 6.86436 6.94128 6.90293
#
# Compressibility (1/GPa) = 0.02005609
#
# Stress axis : x y z
#
# Youngs Moduli (GPa) = 56.26689 56.26679 52.68418
#
# Poissons Ratio (x) = 0.42467 0.25519
# Poissons Ratio (y) = 0.42467 0.25519
# Poissons Ratio (z) = 0.27254 0.27254
#
# Static dielectric constant tensor:
#      x y z
#    x 2.956850 0.000000 0.000000 
#    y 0.000000 2.956850 0.000000 
#    z 0.000000 0.000000 2.857040 
# 
# 
# High freq. dielectric constant tensor:
#      x y z
#    x 1.597220 0.000000 0.000000 
#    y 0.000000 1.597220 0.000000 
#    z 0.000000 0.000000 1.569950 
# 
# From -- ./inp_files/3241.got.cif
#   From: 2010.03.12/outbox.cif.g09.slc.cpg/sg115_2_cif.got.tgz:3241.got - 2010.04.14 02:11:21.
