data_PCOD8309552
_publ_section_title
;
Structure prediction by ZEFSAII (Michael W. Deem and Ramdas Pophale) SiO2 
 PCOD8309552
Probable space group: P -4 M 2
;
_chemical_formula_sum "Si O2"
_cell_formula_units_Z 40
_cell_length_a 14.868999
_cell_length_b 14.868999
_cell_length_c 10.135441
_cell_angle_alpha 90.000000
_cell_angle_beta 90.000000
_cell_angle_gamma 90.000000
_cell_volume 2240.815575
_symmetry_space_group_name_H-M "P -4 M 2"
_symmetry_group_IT_number 115
_symmetry_cell_setting 'tetragonal'
loop_
_space_group_symop_operation_xyz
x,y,z
y,-x,-z
-x,-y,z
-y,x,-z
y,x,-z
-y,-x,-z
-x,y,z
x,-y,z
loop_
_atom_site_type_symbol
_atom_site_label
_atom_site_fract_x
_atom_site_fract_y
_atom_site_fract_z
Si Si1 0.401560 0.899118 0.543002
Si Si2 0.602419 0.099836 0.014265
Si Si3 0.750727 0.287406 0.356044
Si Si4 0.702421 0.098955 0.284927
Si Si5 0.606153 0.712370 0.888621
O O1 0.500000 0.855319 0.562468
O O2 0.330530 0.848878 0.634803
O O3 0.379453 0.894684 0.387872
O O4 0.401713 0.000000 0.595636
O O5 0.500000 0.108423 0.062673
O O6 0.665679 0.111313 0.139366
O O7 0.618211 0.000000 0.950124
O O8 0.624391 0.181503 0.915464
O O9 0.703408 0.296593 0.500000
O O10 0.767892 0.182924 0.315667
O O11 0.691132 0.341805 0.248586
O O12 0.749957 0.000000 0.299336
O O13 0.500000 0.691409 0.876261
O O14 0.648133 0.648133 0.000000
#
# Coordination Sequence:
#
# PCOD8309552 Si02
#       5
#     8   8   8   8   8
#     4   9  17  29  48  75 107 140 173 219 278 327
#     4   9  17  30  52  80 105 130 167 219 273 319
#     4  10  20  34  52  78 108 139 179 220 269 318
#     4   9  16  29  50  75 105 137 174 218 267 326
#     4  11  22  37  54  76 107 142 180 222 269 322
#
# _framework density 17.850643999999999
#
# number of rings (size 3 to 8) (size 9 to 14) (size 15 to 20)
#    0.000    2.400    2.000    1.200    0.000    3.400 
#    0.000    3.000    0.000    0.600    0.000    4.200 
#    0.000    0.400    0.000    0.000    0.000    0.000 
#
# Total GULP energy -495615.824080 kJ/mol
# GULP energy per Si atom -12390.395602 kJ/mol
# Density = 1.781002 g / cm^3
# Si number density = 17.850644 Si / 1000 Ang^3
#
#
#
# Elastic Constant Matrix: (Units=GPa)
#
#
# Indices 1 2 3 4 5 6 
#
# 1 105.7265 48.5588 34.3787 0.0000 0.0000 0.0000
# 2 48.5588 105.7263 34.3787 0.0000 0.0000 0.0000
# 3 34.3787 34.3787 91.9252 0.0000 0.0000 0.0000
# 4 0.0000 0.0000 0.0000 18.3044 0.0000 0.0000
# 5 0.0000 0.0000 0.0000 0.0000 18.3043 0.0000
# 6 0.0000 0.0000 0.0000 0.0000 0.0000 28.7773
#
#
#
# Elastic Compliance Matrix: (Units=1/GPa)
#
#
# Indices 1 2 3 4 5 6 
#
# 1 0.012635 -0.004857 -0.002909 0.000000 0.000000 0.000000
# 2 -0.004857 0.012635 -0.002909 0.000000 0.000000 0.000000
# 3 -0.002909 -0.002909 0.013054 0.000000 0.000000 0.000000
# 4 0.000000 0.000000 0.000000 0.054632 0.000000 0.000000
# 5 0.000000 0.000000 0.000000 0.000000 0.054632 0.000000
# 6 0.000000 0.000000 0.000000 0.000000 0.000000 0.034750
#
#
# Mechanical properties :
#
#
# Convention : Reuss Voigt Hill
#
# Bulk Modulus (GPa) = 58.91166 59.77892 59.34529
# Shear Modulus (GPa) = 23.88396 25.48132 24.68264
#
# Velocity S-wave (km/s) = 3.66182 3.78229 3.72254
# Velocity P-wave (km/s) = 7.13812 7.25502 7.19681
#
# Compressibility (1/GPa) = 0.01697457
#
# Stress axis : x y z
#
# Youngs Moduli (GPa) = 79.14452 79.14435 76.60427
#
# Poissons Ratio (x) = 0.38443 0.22283
# Poissons Ratio (y) = 0.38443 0.22283
# Poissons Ratio (z) = 0.23021 0.23021
#
# Static dielectric constant tensor:
#      x y z
#    x 3.376200 0.000000 0.000000 
#    y 0.000000 3.376200 0.000000 
#    z 0.000000 0.000000 3.333840 
# 
# 
# High freq. dielectric constant tensor:
#      x y z
#    x 1.674430 0.000000 0.000000 
#    y 0.000000 1.674430 0.000000 
#    z 0.000000 0.000000 1.697610 
# 
# From -- ./inp_files/1579.got.cif
#   From: 2010.03.12/outbox.cif.g09.slc.cpg/sg115_1_cif.got.tgz:1579.got - 2010.04.14 02:11:21.
