data_PCOD8309179
_publ_section_title
;
Structure prediction by ZEFSAII (Michael W. Deem and Ramdas Pophale) SiO2 
 PCOD8309179
Probable space group: P -4 M 2
;
_chemical_formula_sum "Si O2"
_cell_formula_units_Z 44
_cell_length_a 16.127380
_cell_length_b 16.127380
_cell_length_c 10.830724
_cell_angle_alpha 90.000000
_cell_angle_beta 90.000000
_cell_angle_gamma 90.000000
_cell_volume 2816.988844
_symmetry_space_group_name_H-M "P -4 M 2"
_symmetry_group_IT_number 115
_symmetry_cell_setting 'tetragonal'
loop_
_space_group_symop_operation_xyz
x,y,z
y,-x,-z
-x,-y,z
-y,x,-z
y,x,-z
-y,-x,-z
-x,y,z
x,-y,z
loop_
_atom_site_type_symbol
_atom_site_label
_atom_site_fract_x
_atom_site_fract_y
_atom_site_fract_z
Si Si1 0.168281 0.168281 0.000000
Si Si2 0.168036 0.093407 0.742685
Si Si3 0.097419 0.673915 0.888422
Si Si4 0.903478 0.748949 0.628164
Si Si5 0.500000 0.900377 0.729721
Si Si6 0.094612 0.667155 0.384007
Si Si7 0.500000 0.098027 0.007662
O O1 0.140107 0.114483 0.881897
O O2 0.151661 0.264712 0.972908
O O3 0.129009 0.157597 0.645867
O O4 0.267608 0.100538 0.728848
O O5 0.138285 0.000000 0.710467
O O6 0.116735 0.691310 0.745304
O O7 0.127972 0.581284 0.918525
O O8 0.000000 0.687698 0.917931
O O9 0.862571 0.704996 0.507730
O O10 0.000000 0.758496 0.604100
O O11 0.580997 0.863945 0.659812
O O12 0.500000 0.000000 0.733348
O O13 0.500000 0.865530 0.869324
O O14 0.000000 0.646690 0.416681
O O15 0.500000 0.000000 0.001767
#
# Coordination Sequence:
#
# PCOD8309179 Si02
#       7
#     4   8   8   8   4   8   4
#     4  10  18  28  42  61  84 109 142 180 222 264
#     4  10  19  30  44  59  80 112 146 183 222 258
#     4   9  17  28  42  60  84 112 140 175 218 263
#     4   9  18  30  42  59  82 110 145 179 214 256
#     4   9  16  25  41  61  77  98 130 169 212 258
#     4   9  17  29  43  59  79 103 135 174 214 257
#     4   9  16  27  43  63  85 109 140 175 216 269
#
# _framework density 15.619515
#
# number of rings (size 3 to 8) (size 9 to 14) (size 15 to 20)
#    0.000    2.727    0.000    2.182    0.000    4.727 
#    0.000    3.636    0.000    6.818    0.000    0.000 
#    0.000    0.364    0.000    0.091    0.000   39.000 
#
# Total GULP energy -545370.108981 kJ/mol
# GULP energy per Si atom -12394.775204 kJ/mol
# Density = 1.558396 g / cm^3
# Si number density = 15.619515 Si / 1000 Ang^3
#
#
#
# Elastic Constant Matrix: (Units=GPa)
#
#
# Indices 1 2 3 4 5 6 
#
# 1 80.8221 24.7847 37.5956 0.0000 0.0000 0.0000
# 2 24.7847 80.8221 37.5956 0.0000 0.0000 0.0000
# 3 37.5956 37.5956 95.3403 0.0000 0.0000 0.0000
# 4 0.0000 0.0000 0.0000 19.6191 0.0000 0.0000
# 5 0.0000 0.0000 0.0000 0.0000 19.6191 0.0000
# 6 0.0000 0.0000 0.0000 0.0000 0.0000 4.0168
#
#
#
# Elastic Compliance Matrix: (Units=1/GPa)
#
#
# Indices 1 2 3 4 5 6 
#
# 1 0.015505 -0.002340 -0.005192 0.000000 0.000000 0.000000
# 2 -0.002340 0.015505 -0.005192 0.000000 0.000000 0.000000
# 3 -0.005192 -0.005192 0.014583 0.000000 0.000000 0.000000
# 4 0.000000 0.000000 0.000000 0.050971 0.000000 0.000000
# 5 0.000000 0.000000 0.000000 0.000000 0.050971 0.000000
# 6 0.000000 0.000000 0.000000 0.000000 0.000000 0.248952
#
#
# Mechanical properties :
#
#
# Convention : Reuss Voigt Hill
#
# Bulk Modulus (GPa) = 49.63320 50.77074 50.20197
# Shear Modulus (GPa) = 11.66456 19.11823 15.39139
#
# Velocity S-wave (km/s) = 2.73572 3.50236 3.14251
# Velocity P-wave (km/s) = 6.46717 6.99504 6.73628
#
# Compressibility (1/GPa) = 0.02014781
#
# Stress axis : x y z
#
# Youngs Moduli (GPa) = 64.49399 64.49399 68.57244
#
# Poissons Ratio (x) = 0.15091 0.35600
# Poissons Ratio (y) = 0.15091 0.35600
# Poissons Ratio (z) = 0.33482 0.33482
#
# Static dielectric constant tensor:
#      x y z
#    x 2.857310 0.000000 0.000000 
#    y 0.000000 2.857310 0.000000 
#    z 0.000000 0.000000 3.220380 
# 
# 
# High freq. dielectric constant tensor:
#      x y z
#    x 1.564610 0.000000 0.000000 
#    y 0.000000 1.564610 0.000000 
#    z 0.000000 0.000000 1.618290 
# 
# From -- ./inp_files/2882.got.cif
#   From: 2010.03.12/outbox.cif.g09.slc.cpg/sg115_2_cif.got.tgz:2882.got - 2010.04.14 02:11:21.
