data_PCOD8309501
_publ_section_title
;
Structure prediction by ZEFSAII (Michael W. Deem and Ramdas Pophale) SiO2 
 PCOD8309501
Probable space group: P -4 M 2
;
_chemical_formula_sum "Si O2"
_cell_formula_units_Z 48
_cell_length_a 9.342097
_cell_length_b 9.342097
_cell_length_c 30.868576
_cell_angle_alpha 90.000000
_cell_angle_beta 90.000000
_cell_angle_gamma 90.000000
_cell_volume 2694.048067
_symmetry_space_group_name_H-M "P -4 M 2"
_symmetry_group_IT_number 115
_symmetry_cell_setting 'tetragonal'
loop_
_space_group_symop_operation_xyz
x,y,z
y,-x,-z
-x,-y,z
-y,x,-z
y,x,-z
-y,-x,-z
-x,y,z
x,-y,z
loop_
_atom_site_type_symbol
_atom_site_label
_atom_site_fract_x
_atom_site_fract_y
_atom_site_fract_z
Si Si1 0.667323 0.663181 0.737691
Si Si2 0.166549 0.166549 0.000000
Si Si3 0.333300 0.339234 0.163208
Si Si4 0.166857 0.833144 0.500000
Si Si5 0.165604 0.831268 0.333054
Si Si6 0.661900 0.170052 0.416215
Si Si7 0.829929 0.163514 0.907005
O O1 0.500000 0.685783 0.728939
O O2 0.711014 0.500000 0.726301
O O3 0.705143 0.697393 0.787386
O O4 0.756750 0.773894 0.709526
O O5 0.228663 0.224748 0.046085
O O6 0.000000 0.197406 0.003023
O O7 0.500000 0.329524 0.153204
O O8 0.277724 0.500000 0.154822
O O9 0.253645 0.231352 0.132058
O O10 0.256704 0.776626 0.459093
O O11 0.000000 0.805434 0.490359
O O12 0.252859 0.772355 0.374465
O O13 0.000000 0.790439 0.339251
O O14 0.185823 0.000000 0.327624
O O15 0.500000 0.230768 0.415671
O O16 0.661252 0.000000 0.415591
O O17 0.000000 0.172917 0.905352
O O18 0.779259 0.000000 0.901560
#
# Coordination Sequence:
#
# PCOD8309501 Si02
#       7
#     8   4   8   4   8   8   8
#     4   9  19  36  54  70  93 129 168 202 241 291
#     4   7  12  26  46  67  94 126 156 191 238 287
#     4   9  19  35  51  68  95 130 164 198 240 291
#     4   9  16  28  48  71  94 122 158 199 240 282
#     4  10  20  33  51  77 105 130 161 203 247 291
#     4   9  17  30  49  72  98 129 163 198 239 287
#     4   9  17  30  50  74  97 123 159 201 242 286
#
# _framework density 17.817056000000001
#
# number of rings (size 3 to 8) (size 9 to 14) (size 15 to 20)
#    0.000    3.000    0.000    3.000    0.000    5.333 
#    0.000    6.667    0.000    7.250    0.000    0.000 
#    0.000    0.000    0.000    0.000    0.000    0.000 
#
# Total GULP energy -594920.393782 kJ/mol
# GULP energy per Si atom -12394.174870 kJ/mol
# Density = 1.777650 g / cm^3
# Si number density = 17.817056 Si / 1000 Ang^3
#
#
#
# Elastic Constant Matrix: (Units=GPa)
#
#
# Indices 1 2 3 4 5 6 
#
# 1 61.3552 32.1189 58.8264 0.0000 0.0000 0.0000
# 2 32.1189 61.3557 58.8264 0.0000 0.0000 0.0000
# 3 58.8264 58.8264 145.2577 0.0000 0.0000 0.0000
# 4 0.0000 0.0000 0.0000 2.8354 0.0000 0.0000
# 5 0.0000 0.0000 0.0000 0.0000 2.8364 0.0000
# 6 0.0000 0.0000 0.0000 0.0000 0.0000 25.2366
#
#
#
# Elastic Compliance Matrix: (Units=1/GPa)
#
#
# Indices 1 2 3 4 5 6 
#
# 1 0.028013 -0.006191 -0.008837 0.000000 0.000000 0.000000
# 2 -0.006191 0.028012 -0.008837 0.000000 0.000000 0.000000
# 3 -0.008837 -0.008837 0.014042 0.000000 0.000000 0.000000
# 4 0.000000 0.000000 0.000000 0.352683 0.000000 0.000000
# 5 0.000000 0.000000 0.000000 0.000000 0.352566 0.000000
# 6 0.000000 0.000000 0.000000 0.000000 0.000000 0.039625
#
#
# Mechanical properties :
#
#
# Convention : Reuss Voigt Hill
#
# Bulk Modulus (GPa) = 44.77131 63.05692 53.91411
# Shear Modulus (GPa) = 5.74636 14.06146 9.90391
#
# Velocity S-wave (km/s) = 1.79783 2.81234 2.36024
# Velocity P-wave (km/s) = 5.43070 6.78335 6.14436
#
# Compressibility (1/GPa) = 0.02233573
#
# Stress axis : x y z
#
# Youngs Moduli (GPa) = 35.69823 35.69874 71.21497
#
# Poissons Ratio (x) = 0.22102 0.62934
# Poissons Ratio (y) = 0.22102 0.62933
# Poissons Ratio (z) = 0.31547 0.31547
#
# Static dielectric constant tensor:
#      x y z
#    x 3.101030 0.000000 0.000000 
#    y 0.000000 3.101020 0.000000 
#    z 0.000000 0.000000 3.536100 
# 
# 
# High freq. dielectric constant tensor:
#      x y z
#    x 1.667590 0.000000 0.000000 
#    y 0.000000 1.667590 0.000000 
#    z 0.000000 0.000000 1.708220 
# 
# From -- ./inp_files/6243.got.cif
#   From: 2010.03.12/outbox.cif.g09.slc.cpg/sg115_4_cif.got.tgz:6243.got - 2010.04.14 02:11:21.
