data_PCOD8309043
_publ_section_title
;
Structure prediction by ZEFSAII (Michael W. Deem and Ramdas Pophale) SiO2 
 PCOD8309043
Probable space group: P -4 21 C
;
_chemical_formula_sum "Si O2"
_cell_formula_units_Z 48
_cell_length_a 8.959975
_cell_length_b 8.959975
_cell_length_c 29.358612
_cell_angle_alpha 90.000000
_cell_angle_beta 90.000000
_cell_angle_gamma 90.000000
_cell_volume 2356.943192
_symmetry_space_group_name_H-M "P -4 21 C"
_symmetry_group_IT_number 114
_symmetry_cell_setting 'tetragonal'
loop_
_space_group_symop_operation_xyz
x,y,z
y,-x,-z
-x,-y,z
-y,x,-z
1/2+x,1/2-y,1/2-z
1/2-x,1/2+y,1/2-z
1/2-y,1/2-x,1/2+z
1/2+y,1/2+x,1/2+z
loop_
_atom_site_type_symbol
_atom_site_label
_atom_site_fract_x
_atom_site_fract_y
_atom_site_fract_z
Si Si1 0.836837 0.539629 0.859378
Si Si2 0.162440 0.752137 0.701752
Si Si3 0.922855 0.764088 0.454161
Si Si4 0.229135 0.941545 0.448663
Si Si5 0.334846 0.456650 0.710390
Si Si6 0.753886 0.648170 0.149195
O O1 0.780477 0.688502 0.835006
O O2 0.855382 0.572758 0.913344
O O3 0.711790 0.413932 0.850283
O O4 0.000000 0.500000 0.839798
O O5 0.224340 0.594844 0.719774
O O6 0.155103 0.863097 0.743776
O O7 0.998840 0.736937 0.680191
O O8 0.904930 0.682283 0.503784
O O9 0.072499 0.860430 0.455503
O O10 0.789581 0.880226 0.443336
O O11 0.308726 0.884100 0.402610
O O12 0.500000 0.500000 0.695118
O O13 0.272448 0.362988 0.668327
#
# Coordination Sequence:
#
# PCOD8309043 Si02
#       6
#     8   8   8   8   8   8
#     4  11  21  35  59  91 123 157 196 250 308 359
#     4  12  24  42  63  86 117 161 203 250 304 369
#     4   8  14  28  54  89 120 152 193 247 296 340
#     4   8  14  29  57  87 117 152 198 247 288 350
#     4  12  26  42  61  89 121 155 201 257 310 369
#     4  11  22  40  64  89 119 160 205 251 303 365
#
# _framework density 20.365362000000001
#
# number of rings (size 3 to 8) (size 9 to 14) (size 15 to 20)
#    0.000    1.667    1.667    6.000    0.000    1.333 
#    0.000    1.667    0.000    0.000    0.000    0.000 
#    0.000    0.000    0.000    0.000    0.000    0.000 
#
# Total GULP energy -595010.069563 kJ/mol
# GULP energy per Si atom -12396.043116 kJ/mol
# Density = 2.031901 g / cm^3
# Si number density = 20.365362 Si / 1000 Ang^3
#
#
#
# Elastic Constant Matrix: (Units=GPa)
#
#
# Indices 1 2 3 4 5 6 
#
# 1 71.5929 14.2388 58.8908 0.0000 0.0000 0.0000
# 2 14.2388 71.5929 58.8908 0.0000 0.0000 0.0000
# 3 58.8908 58.8908 161.2306 0.0000 0.0000 0.0000
# 4 0.0000 0.0000 0.0000 18.6384 0.0000 0.0000
# 5 0.0000 0.0000 0.0000 0.0000 18.6384 0.0000
# 6 0.0000 0.0000 0.0000 0.0000 0.0000 30.1617
#
#
#
# Elastic Compliance Matrix: (Units=1/GPa)
#
#
# Indices 1 2 3 4 5 6 
#
# 1 0.020397 0.002961 -0.008532 0.000000 0.000000 0.000000
# 2 0.002961 0.020397 -0.008532 0.000000 0.000000 0.000000
# 3 -0.008532 -0.008532 0.012435 0.000000 0.000000 0.000000
# 4 0.000000 0.000000 0.000000 0.053653 0.000000 0.000000
# 5 0.000000 0.000000 0.000000 0.000000 0.053653 0.000000
# 6 0.000000 0.000000 0.000000 0.000000 0.000000 0.033155
#
#
# Mechanical properties :
#
#
# Convention : Reuss Voigt Hill
#
# Bulk Modulus (GPa) = 39.96092 63.16193 51.56143
# Shear Modulus (GPa) = 21.71694 24.98077 23.34885
#
# Velocity S-wave (km/s) = 3.26907 3.50613 3.38967
# Velocity P-wave (km/s) = 5.82355 6.89001 6.37911
#
# Compressibility (1/GPa) = 0.02502445
#
# Stress axis : x y z
#
# Youngs Moduli (GPa) = 49.02673 49.02673 80.41826
#
# Poissons Ratio (x) = -0.14519 0.68612
# Poissons Ratio (y) = -0.14519 0.68612
# Poissons Ratio (z) = 0.41829 0.41829
#
# Static dielectric constant tensor:
#      x y z
#    x 3.534790 0.000000 0.000000 
#    y 0.000000 3.534790 0.000000 
#    z 0.000000 0.000000 4.177190 
# 
# 
# High freq. dielectric constant tensor:
#      x y z
#    x 1.772910 0.000000 0.000000 
#    y 0.000000 1.772910 0.000000 
#    z 0.000000 0.000000 1.818900 
# 
# From -- ./inp_files/3927.got.cif
#   From: 2010.03.12/outbox.cif.g09.slc.cpg/sg114_2_cif.got.tgz:3927.got - 2010.04.14 02:08:34.
