data_PCOD8309512
_publ_section_title
;
Structure prediction by ZEFSAII (Michael W. Deem and Ramdas Pophale) SiO2 
 PCOD8309512
Probable space group: P -4 M 2
;
_chemical_formula_sum "Si O2"
_cell_formula_units_Z 48
_cell_length_a 9.112362
_cell_length_b 9.112362
_cell_length_c 30.710004
_cell_angle_alpha 90.000000
_cell_angle_beta 90.000000
_cell_angle_gamma 90.000000
_cell_volume 2550.009519
_symmetry_space_group_name_H-M "P -4 M 2"
_symmetry_group_IT_number 115
_symmetry_cell_setting 'tetragonal'
loop_
_space_group_symop_operation_xyz
x,y,z
y,-x,-z
-x,-y,z
-y,x,-z
y,x,-z
-y,-x,-z
-x,y,z
x,-y,z
loop_
_atom_site_type_symbol
_atom_site_label
_atom_site_fract_x
_atom_site_fract_y
_atom_site_fract_z
Si Si1 0.165444 0.325382 0.709140
Si Si2 0.171704 0.672107 0.960235
Si Si3 0.329701 0.667883 0.794253
Si Si4 0.172048 0.330123 0.117453
Si Si5 0.172133 0.834395 0.450547
Si Si6 0.671545 0.669209 0.375430
O O1 0.173628 0.500000 0.708755
O O2 0.242877 0.267800 0.752911
O O3 0.245913 0.262959 0.666364
O O4 0.000000 0.266536 0.708637
O O5 0.205060 0.500000 0.958407
O O6 0.226041 0.745198 0.915990
O O7 0.000000 0.703700 0.966517
O O8 0.258913 0.741088 0.000000
O O9 0.500000 0.677445 0.782523
O O10 0.284540 0.500000 0.804917
O O11 0.288950 0.769105 0.834980
O O12 0.205853 0.500000 0.106304
O O13 0.000000 0.297520 0.115347
O O14 0.210085 0.789916 0.500000
O O15 0.253541 0.722357 0.419387
O O16 0.000000 0.823077 0.442423
O O17 0.226408 0.000000 0.441054
O O18 0.500000 0.699328 0.380196
O O19 0.707619 0.500000 0.368362
#
# Coordination Sequence:
#
# PCOD8309512 Si02
#       6
#     8   8   8   8   8   8
#     4   9  17  30  50  75 102 135 177 222 265 310
#     4  11  24  40  59  84 112 143 181 223 267 317
#     4   9  17  31  52  76 103 137 177 221 268 315
#     4  10  21  37  57  82 112 145 181 220 264 316
#     4   9  19  36  55  74  99 133 172 213 259 313
#     4  10  20  33  51  77 107 137 172 215 261 310
#
# _framework density 18.823457999999999
#
# number of rings (size 3 to 8) (size 9 to 14) (size 15 to 20)
#    0.000    2.333    0.000    3.000    0.000    9.000 
#    0.000    5.000    0.000    3.000    0.000    0.000 
#    0.000    0.000    0.000    0.000    0.000    0.000 
#
# Total GULP energy -595323.621523 kJ/mol
# GULP energy per Si atom -12402.575448 kJ/mol
# Density = 1.878061 g / cm^3
# Si number density = 18.823458 Si / 1000 Ang^3
#
#
#
# Elastic Constant Matrix: (Units=GPa)
#
#
# Indices 1 2 3 4 5 6 
#
# 1 73.3208 53.2145 68.1883 0.0000 0.0000 0.0000
# 2 53.2145 73.3235 68.1894 0.0000 0.0000 0.0000
# 3 68.1883 68.1894 149.8213 0.0000 0.0000 0.0000
# 4 0.0000 0.0000 0.0000 -10.8226 0.0000 0.0000
# 5 0.0000 0.0000 0.0000 0.0000 -10.8187 0.0000
# 6 0.0000 0.0000 0.0000 0.0000 0.0000 25.6018
#
#
#
# Elastic Compliance Matrix: (Units=1/GPa)
#
#
# Indices 1 2 3 4 5 6 
#
# 1 0.032623 -0.017110 -0.007060 0.000000 0.000000 0.000000
# 2 -0.017110 0.032622 -0.007060 0.000000 0.000000 0.000000
# 3 -0.007060 -0.007060 0.013101 0.000000 0.000000 0.000000
# 4 0.000000 0.000000 0.000000 -0.092399 0.000000 0.000000
# 5 0.000000 0.000000 0.000000 0.000000 -0.092432 0.000000
# 6 0.000000 0.000000 0.000000 0.000000 0.000000 0.039060
#
#
# Mechanical properties :
#
#
# Convention : Reuss Voigt Hill
#
# Bulk Modulus (GPa) = 62.95275 75.07223 69.01249
# Shear Modulus (GPa) = 15169.55988 7.91698 7588.73843
#
# Velocity S-wave (km/s) = 89.86854 2.05306 63.56323
# Velocity P-wave (km/s) = 103.93262 6.75196 73.64638
#
# Compressibility (1/GPa) = 0.01588493
#
# Stress axis : x y z
#
# Youngs Moduli (GPa) = 30.65340 30.65462 76.32934
#
# Poissons Ratio (x) = 0.52451 0.53889
# Poissons Ratio (y) = 0.52449 0.53888
# Poissons Ratio (z) = 0.21642 0.21642
#
# Static dielectric constant tensor:
#      x y z
#    x 3.385050 0.000000 0.000000 
#    y 0.000000 3.385050 0.000000 
#    z 0.000000 0.000000 3.610490 
# 
# 
# High freq. dielectric constant tensor:
#      x y z
#    x 1.722350 0.000000 0.000000 
#    y 0.000000 1.722350 0.000000 
#    z 0.000000 0.000000 1.746640 
# 
# From -- ./inp_files/6043.got.cif
#   From: 2010.03.12/outbox.cif.g09.slc.cpg/sg115_4_cif.got.tgz:6043.got - 2010.04.14 02:11:21.
