data_PCOD8309757
_publ_section_title
;
Structure prediction by ZEFSAII (Michael W. Deem and Ramdas Pophale) SiO2 
 PCOD8309757
Probable space group: P -4 M 2
;
_chemical_formula_sum "Si O2"
_cell_formula_units_Z 44
_cell_length_a 9.272663
_cell_length_b 9.272663
_cell_length_c 28.218552
_cell_angle_alpha 90.000000
_cell_angle_beta 90.000000
_cell_angle_gamma 90.000000
_cell_volume 2426.295414
_symmetry_space_group_name_H-M "P -4 M 2"
_symmetry_group_IT_number 115
_symmetry_cell_setting 'tetragonal'
loop_
_space_group_symop_operation_xyz
x,y,z
y,-x,-z
-x,-y,z
-y,x,-z
y,x,-z
-y,-x,-z
-x,y,z
x,-y,z
loop_
_atom_site_type_symbol
_atom_site_label
_atom_site_fract_x
_atom_site_fract_y
_atom_site_fract_z
Si Si1 0.668354 0.336923 0.054278
Si Si2 0.336909 0.328221 0.317473
Si Si3 0.332216 0.332216 0.500000
Si Si4 0.831629 0.166470 0.132528
Si Si5 0.668224 0.167040 0.774460
Si Si6 0.328395 0.837065 0.592437
O O1 0.500000 0.321772 0.064750
O O2 0.719360 0.500000 0.065276
O O3 0.753045 0.225526 0.086459
O O4 0.702379 0.297622 0.000000
O O5 0.500000 0.268432 0.318719
O O6 0.336562 0.500000 0.319128
O O7 0.258997 0.274082 0.269857
O O8 0.249750 0.266163 0.362501
O O9 0.304074 0.500000 0.510687
O O10 0.242210 0.276196 0.455104
O O11 0.777013 0.248601 0.179304
O O12 0.000000 0.192960 0.125137
O O13 0.792863 0.000000 0.138741
O O14 0.500000 0.193389 0.783479
O O15 0.701133 0.000000 0.763700
O O16 0.500000 0.837930 0.594537
O O17 0.267795 0.000000 0.593254
#
# Coordination Sequence:
#
# PCOD8309757 Si02
#       6
#     8   8   4   8   8   8
#     4   9  19  36  56  77 101 130 166 208 252 297
#     4   9  16  26  43  69  97 122 153 196 242 285
#     4   9  16  26  42  65  92 120 150 187 230 272
#     4  10  21  35  51  74 104 136 169 205 246 295
#     4   9  17  30  48  69  95 129 166 201 239 285
#     4   9  16  26  42  65  93 123 153 188 232 280
#
# _framework density 18.134643000000001
#
# number of rings (size 3 to 8) (size 9 to 14) (size 15 to 20)
#    0.000    2.818    0.000    2.182    0.000    7.273 
#    0.000    4.545    0.000    1.364    0.000    0.000 
#    0.000    0.000    0.000    0.000    0.000    0.000 
#
# Total GULP energy -545634.486902 kJ/mol
# GULP energy per Si atom -12400.783793 kJ/mol
# Density = 1.809337 g / cm^3
# Si number density = 18.134643 Si / 1000 Ang^3
#
#
#
# Elastic Constant Matrix: (Units=GPa)
#
#
# Indices 1 2 3 4 5 6 
#
# 1 74.1378 35.8652 68.6752 0.0000 0.0000 0.0000
# 2 35.8652 74.1379 68.6752 0.0000 0.0000 0.0000
# 3 68.6752 68.6752 167.2788 0.0000 0.0000 0.0000
# 4 0.0000 0.0000 0.0000 10.7643 0.0000 0.0000
# 5 0.0000 0.0000 0.0000 0.0000 10.7643 0.0000
# 6 0.0000 0.0000 0.0000 0.0000 0.0000 17.1911
#
#
#
# Elastic Compliance Matrix: (Units=1/GPa)
#
#
# Indices 1 2 3 4 5 6 
#
# 1 0.022390 -0.003738 -0.007657 0.000000 0.000000 0.000000
# 2 -0.003738 0.022390 -0.007657 0.000000 0.000000 0.000000
# 3 -0.007657 -0.007657 0.012265 0.000000 0.000000 0.000000
# 4 0.000000 0.000000 0.000000 0.092900 0.000000 0.000000
# 5 0.000000 0.000000 0.000000 0.000000 0.092900 0.000000
# 6 0.000000 0.000000 0.000000 0.000000 0.000000 0.058170
#
#
# Mechanical properties :
#
#
# Convention : Reuss Voigt Hill
#
# Bulk Modulus (GPa) = 52.80013 73.55397 63.17705
# Shear Modulus (GPa) = 14.47457 17.23319 15.85388
#
# Velocity S-wave (km/s) = 2.82826 3.08602 2.95995
# Velocity P-wave (km/s) = 6.31223 7.30384 6.82606
#
# Compressibility (1/GPa) = 0.01893935
#
# Stress axis : x y z
#
# Youngs Moduli (GPa) = 44.66288 44.66299 81.53071
#
# Poissons Ratio (x) = 0.16697 0.62430
# Poissons Ratio (y) = 0.16697 0.62430
# Poissons Ratio (z) = 0.34200 0.34200
#
# Static dielectric constant tensor:
#      x y z
#    x 3.161020 0.000000 0.000000 
#    y 0.000000 3.161020 0.000000 
#    z 0.000000 0.000000 3.487470 
# 
# 
# High freq. dielectric constant tensor:
#      x y z
#    x 1.679410 0.000000 0.000000 
#    y 0.000000 1.679410 0.000000 
#    z 0.000000 0.000000 1.717430 
# 
# From -- ./inp_files/5689.got.cif
#   From: 2010.03.12/outbox.cif.g09.slc.cpg/sg115_3_cif.got.tgz:5689.got - 2010.04.14 02:11:21.
