data_PCOD8309557
_publ_section_title
;
Structure prediction by ZEFSAII (Michael W. Deem and Ramdas Pophale) SiO2 
 PCOD8309557
Probable space group: P -4 M 2
;
_chemical_formula_sum "Si O2"
_cell_formula_units_Z 28
_cell_length_a 9.163406
_cell_length_b 9.163406
_cell_length_c 18.121222
_cell_angle_alpha 90.000000
_cell_angle_beta 90.000000
_cell_angle_gamma 90.000000
_cell_volume 1521.602941
_symmetry_space_group_name_H-M "P -4 M 2"
_symmetry_group_IT_number 115
_symmetry_cell_setting 'tetragonal'
loop_
_space_group_symop_operation_xyz
x,y,z
y,-x,-z
-x,-y,z
-y,x,-z
y,x,-z
-y,-x,-z
-x,y,z
x,-y,z
loop_
_atom_site_type_symbol
_atom_site_label
_atom_site_fract_x
_atom_site_fract_y
_atom_site_fract_z
Si Si1 0.169282 0.328326 0.565392
Si Si2 0.826610 0.835623 0.711333
Si Si3 0.668220 0.828546 0.145757
Si Si4 0.669398 0.330603 0.000000
O O1 0.266280 0.266280 0.500000
O O2 0.193438 0.500000 0.572547
O O3 0.226836 0.254545 0.640473
O O4 0.000000 0.289930 0.550581
O O5 0.766006 0.759461 0.785247
O O6 0.000000 0.835030 0.713879
O O7 0.765029 0.000000 0.706510
O O8 0.500000 0.787436 0.159578
O O9 0.728361 0.753746 0.071661
O O10 0.689807 0.000000 0.136620
O O11 0.500000 0.298117 0.987329
#
# Coordination Sequence:
#
# PCOD8309557 Si02
#       4
#     8   8   8   4
#     4  10  20  34  53  76 102 133 169 208 251 300
#     4   9  17  30  50  75 100 127 162 204 248 293
#     4   9  17  30  48  69  94 125 161 200 242 289
#     4   9  18  32  48  67  94 128 162 195 238 292
#
# _framework density 18.401647000000001
#
# number of rings (size 3 to 8) (size 9 to 14) (size 15 to 20)
#    0.000    2.714    0.000    1.714    0.000    6.286 
#    0.000    1.429    0.000    5.143    0.000    0.000 
#    0.000    0.000    0.000    0.000    0.000    0.000 
#
# Total GULP energy -347233.901938 kJ/mol
# GULP energy per Si atom -12401.210783 kJ/mol
# Density = 1.835976 g / cm^3
# Si number density = 18.401647 Si / 1000 Ang^3
#
#
#
# Elastic Constant Matrix: (Units=GPa)
#
#
# Indices 1 2 3 4 5 6 
#
# 1 69.3238 35.3622 67.0924 0.0000 0.0000 0.0000
# 2 35.3622 69.3242 67.0922 0.0000 0.0000 0.0000
# 3 67.0924 67.0922 197.0979 0.0000 0.0000 0.0000
# 4 0.0000 0.0000 0.0000 19.3920 0.0000 0.0000
# 5 0.0000 0.0000 0.0000 0.0000 19.3952 0.0000
# 6 0.0000 0.0000 0.0000 0.0000 0.0000 18.7606
#
#
#
# Elastic Compliance Matrix: (Units=1/GPa)
#
#
# Indices 1 2 3 4 5 6 
#
# 1 0.023196 -0.006249 -0.005769 0.000000 0.000000 0.000000
# 2 -0.006249 0.023195 -0.005768 0.000000 0.000000 0.000000
# 3 -0.005769 -0.005768 0.009001 0.000000 0.000000 0.000000
# 4 0.000000 0.000000 0.000000 0.051568 0.000000 0.000000
# 5 0.000000 0.000000 0.000000 0.000000 0.051559 0.000000
# 6 0.000000 0.000000 0.000000 0.000000 0.000000 0.053303
#
#
# Mechanical properties :
#
#
# Convention : Reuss Voigt Hill
#
# Bulk Modulus (GPa) = 50.45568 74.98216 62.71892
# Shear Modulus (GPa) = 19.68496 22.58952 21.13724
#
# Velocity S-wave (km/s) = 3.27423 3.50749 3.39287
# Velocity P-wave (km/s) = 6.46319 7.56566 7.03605
#
# Compressibility (1/GPa) = 0.01981937
#
# Stress axis : x y z
#
# Youngs Moduli (GPa) = 43.11131 43.11186 111.10041
#
# Poissons Ratio (x) = 0.26942 0.64090
# Poissons Ratio (y) = 0.26941 0.64088
# Poissons Ratio (z) = 0.24869 0.24869
#
# Static dielectric constant tensor:
#      x y z
#    x 3.252410 0.000000 0.000000 
#    y 0.000000 3.252400 0.000000 
#    z 0.000000 0.000000 3.652390 
# 
# 
# High freq. dielectric constant tensor:
#      x y z
#    x 1.694540 0.000000 0.000000 
#    y 0.000000 1.694540 0.000000 
#    z 0.000000 0.000000 1.730430 
# 
# From -- ./inp_files/4023.got.cif
#   From: 2010.03.12/outbox.cif.g09.slc.cpg/sg115_3_cif.got.tgz:4023.got - 2010.04.14 02:11:21.
