data_PCOD8309707
_publ_section_title
;
Structure prediction by ZEFSAII (Michael W. Deem and Ramdas Pophale) SiO2 
 PCOD8309707
Probable space group: P -4 M 2
;
_chemical_formula_sum "Si O2"
_cell_formula_units_Z 48
_cell_length_a 9.607347
_cell_length_b 9.607347
_cell_length_c 27.707614
_cell_angle_alpha 90.000000
_cell_angle_beta 90.000000
_cell_angle_gamma 90.000000
_cell_volume 2557.443704
_symmetry_space_group_name_H-M "P -4 M 2"
_symmetry_group_IT_number 115
_symmetry_cell_setting 'tetragonal'
loop_
_space_group_symop_operation_xyz
x,y,z
y,-x,-z
-x,-y,z
-y,x,-z
y,x,-z
-y,-x,-z
-x,y,z
x,-y,z
loop_
_atom_site_type_symbol
_atom_site_label
_atom_site_fract_x
_atom_site_fract_y
_atom_site_fract_z
Si Si1 0.500000 0.337552 0.209603
Si Si2 0.749421 0.663951 0.278319
Si Si3 0.840367 0.162066 0.633789
Si Si4 0.000000 0.335484 0.215949
Si Si5 0.838373 0.775789 0.945915
Si Si6 0.000000 0.666955 0.107934
Si Si7 0.844010 0.500000 0.886868
Si Si8 0.840403 0.664171 0.536798
O O1 0.500000 0.500000 0.195964
O O2 0.376136 0.294744 0.244283
O O3 0.500000 0.257827 0.158887
O O4 0.754777 0.500000 0.290162
O O5 0.754363 0.745679 0.328387
O O6 0.872428 0.721322 0.245815
O O7 0.819802 0.248215 0.585195
O O8 0.000000 0.167283 0.650895
O O9 0.793078 0.000000 0.627369
O O10 0.000000 0.500000 0.212858
O O11 0.000000 0.276945 0.162373
O O12 0.732373 0.866194 0.915663
O O13 0.819718 0.625960 0.923062
O O14 0.000000 0.826040 0.944003
O O15 0.781369 0.781369 0.000000
O O16 0.000000 0.500000 0.102813
O O17 0.000000 0.500000 0.865564
O O18 0.729845 0.729845 0.500000
O O19 0.807307 0.500000 0.544714
O O20 0.000000 0.682092 0.518294
#
# Coordination Sequence:
#
# PCOD8309707 Si02
#       8
#     4   8   8   4   8   4   4   8
#     4  10  22  40  60  86 122 160 196 244 307 360
#     4  10  20  36  59  83 118 158 198 243 295 356
#     4  10  21  37  58  89 122 158 204 253 301 355
#     4   9  18  35  55  83 113 147 199 243 280 345
#     4  11  23  40  62  87 120 155 195 247 306 366
#     4  11  23  37  65  91 115 161 203 241 298 361
#     4  10  24  42  62  88 122 156 200 252 303 364
#     4  10  22  40  62  89 123 163 207 257 309 364
#
# _framework density 18.768742
#
# number of rings (size 3 to 8) (size 9 to 14) (size 15 to 20)
#    0.000    1.833    1.667    1.750    2.333    4.333 
#    0.000    1.667    0.000    0.000    0.000    0.000 
#    0.000    0.000    0.000    0.000    0.000    0.000 
#
# Total GULP energy -594886.521743 kJ/mol
# GULP energy per Si atom -12393.469203 kJ/mol
# Density = 1.872602 g / cm^3
# Si number density = 18.768742 Si / 1000 Ang^3
#
#
#
# Elastic Constant Matrix: (Units=GPa)
#
#
# Indices 1 2 3 4 5 6 
#
# 1 115.6326 50.3025 60.3369 0.0000 0.0000 0.0000
# 2 50.3025 115.6326 60.3369 0.0000 0.0000 0.0000
# 3 60.3369 60.3369 126.6344 0.0000 0.0000 0.0000
# 4 0.0000 0.0000 0.0000 65.3678 0.0000 0.0000
# 5 0.0000 0.0000 0.0000 0.0000 65.3678 0.0000
# 6 0.0000 0.0000 0.0000 0.0000 0.0000 30.6276
#
#
#
# Elastic Compliance Matrix: (Units=1/GPa)
#
#
# Indices 1 2 3 4 5 6 
#
# 1 0.012264 -0.003043 -0.004394 0.000000 0.000000 0.000000
# 2 -0.003043 0.012264 -0.004394 0.000000 0.000000 0.000000
# 3 -0.004394 -0.004394 0.012084 0.000000 0.000000 0.000000
# 4 0.000000 0.000000 0.000000 0.015298 0.000000 0.000000
# 5 0.000000 0.000000 0.000000 0.000000 0.015298 0.000000
# 6 0.000000 0.000000 0.000000 0.000000 0.000000 0.032650
#
#
# Mechanical properties :
#
#
# Convention : Reuss Voigt Hill
#
# Bulk Modulus (GPa) = 77.20845 77.76136 77.48490
# Shear Modulus (GPa) = 39.11233 44.73417 41.92325
#
# Velocity S-wave (km/s) = 4.56994 4.88735 4.73130
# Velocity P-wave (km/s) = 8.31094 8.56560 8.43923
#
# Compressibility (1/GPa) = 0.01295195
#
# Stress axis : x y z
#
# Youngs Moduli (GPa) = 81.53701 81.53701 82.75522
#
# Poissons Ratio (x) = 0.24808 0.36362
# Poissons Ratio (y) = 0.24808 0.36362
# Poissons Ratio (z) = 0.35826 0.35826
#
# Static dielectric constant tensor:
#      x y z
#    x 3.536100 0.000000 0.000000 
#    y 0.000000 3.536100 0.000000 
#    z 0.000000 0.000000 3.740740 
# 
# 
# High freq. dielectric constant tensor:
#      x y z
#    x 1.733600 0.000000 0.000000 
#    y 0.000000 1.733600 0.000000 
#    z 0.000000 0.000000 1.739450 
# 
# From -- ./inp_files/6290.got.cif
#   From: 2010.03.12/outbox.cif.g09.slc.cpg/sg115_4_cif.got.tgz:6290.got - 2010.04.14 02:11:21.
