data_PCOD8309297
_publ_section_title
;
Structure prediction by ZEFSAII (Michael W. Deem and Ramdas Pophale) SiO2 
 PCOD8309297
Probable space group: P -4 M 2
;
_chemical_formula_sum "Si O2"
_cell_formula_units_Z 48
_cell_length_a 15.045810
_cell_length_b 15.045810
_cell_length_c 11.283679
_cell_angle_alpha 90.000000
_cell_angle_beta 90.000000
_cell_angle_gamma 90.000000
_cell_volume 2554.358614
_symmetry_space_group_name_H-M "P -4 M 2"
_symmetry_group_IT_number 115
_symmetry_cell_setting 'tetragonal'
loop_
_space_group_symop_operation_xyz
x,y,z
y,-x,-z
-x,-y,z
-y,x,-z
y,x,-z
-y,-x,-z
-x,y,z
x,-y,z
loop_
_atom_site_type_symbol
_atom_site_label
_atom_site_fract_x
_atom_site_fract_y
_atom_site_fract_z
Si Si1 0.755352 0.899038 0.005416
Si Si2 0.282662 0.098542 0.745330
Si Si3 0.668085 0.099780 0.250471
Si Si4 0.403355 0.270582 0.355871
Si Si5 0.899443 0.853624 0.634531
Si Si6 0.249673 0.397629 0.365820
O O1 0.700421 0.883134 0.884561
O O2 0.785920 0.000000 0.019672
O O3 0.845108 0.845108 0.000000
O O4 0.696596 0.871819 0.118123
O O5 0.176755 0.105275 0.718061
O O6 0.346564 0.161318 0.671341
O O7 0.313633 0.000000 0.711652
O O8 0.600149 0.175356 0.290725
O O9 0.748547 0.102041 0.344154
O O10 0.625855 0.000000 0.250363
O O11 0.500000 0.311772 0.329305
O O12 0.332180 0.342766 0.309564
O O13 0.392223 0.253620 0.494162
O O14 0.874897 0.874897 0.500000
O O15 0.000000 0.889801 0.663115
O O16 0.250725 0.500000 0.320798
#
# Coordination Sequence:
#
# PCOD8309297 Si02
#       6
#     8   8   8   8   8   8
#     4  10  19  33  52  74 104 146 191 235 275 313
#     4  11  22  35  55  80 109 148 191 228 270 324
#     4  10  20  35  55  79 111 147 186 230 271 321
#     4  10  20  36  60  85 110 142 179 221 276 337
#     4  11  21  33  50  75 112 151 185 224 269 318
#     4  10  21  38  58  82 113 142 176 226 278 331
#
# _framework density 18.791409000000002
#
# number of rings (size 3 to 8) (size 9 to 14) (size 15 to 20)
#    0.000    1.667    3.333    1.500    0.000    4.333 
#    0.000    5.833    0.000    3.000    0.000    0.000 
#    0.000    4.000    0.000    0.000    0.000    0.000 
#
# Total GULP energy -594948.054620 kJ/mol
# GULP energy per Si atom -12394.751138 kJ/mol
# Density = 1.874864 g / cm^3
# Si number density = 18.791409 Si / 1000 Ang^3
#
#
#
# Elastic Constant Matrix: (Units=GPa)
#
#
# Indices 1 2 3 4 5 6 
#
# 1 111.1493 56.8108 26.6793 0.0000 0.0000 0.0000
# 2 56.8108 111.1493 26.6793 0.0000 0.0000 0.0000
# 3 26.6793 26.6793 53.6996 0.0000 0.0000 0.0000
# 4 0.0000 0.0000 0.0000 16.2490 0.0000 0.0000
# 5 0.0000 0.0000 0.0000 0.0000 16.2490 0.0000
# 6 0.0000 0.0000 0.0000 0.0000 0.0000 6.2270
#
#
#
# Elastic Compliance Matrix: (Units=1/GPa)
#
#
# Indices 1 2 3 4 5 6 
#
# 1 0.012736 -0.005667 -0.003512 0.000000 0.000000 0.000000
# 2 -0.005667 0.012736 -0.003512 0.000000 0.000000 0.000000
# 3 -0.003512 -0.003512 0.022112 0.000000 0.000000 0.000000
# 4 0.000000 0.000000 0.000000 0.061542 0.000000 0.000000
# 5 0.000000 0.000000 0.000000 0.000000 0.061542 0.000000
# 6 0.000000 0.000000 0.000000 0.000000 0.000000 0.160591
#
#
# Mechanical properties :
#
#
# Convention : Reuss Voigt Hill
#
# Bulk Modulus (GPa) = 45.04106 55.14855 50.09481
# Shear Modulus (GPa) = 13.73458 18.80025 16.26742
#
# Velocity S-wave (km/s) = 2.70644 3.16645 2.94544
# Velocity P-wave (km/s) = 5.81270 6.54064 6.18739
#
# Compressibility (1/GPa) = 0.02220197
#
# Stress axis : x y z
#
# Youngs Moduli (GPa) = 78.51518 78.51518 45.22393
#
# Poissons Ratio (x) = 0.44493 0.15884
# Poissons Ratio (y) = 0.44493 0.15884
# Poissons Ratio (z) = 0.27577 0.27577
#
# Static dielectric constant tensor:
#      x y z
#    x 3.468160 0.000000 0.000000 
#    y 0.000000 3.468160 0.000000 
#    z 0.000000 0.000000 3.619650 
# 
# 
# High freq. dielectric constant tensor:
#      x y z
#    x 1.720900 0.000000 0.000000 
#    y 0.000000 1.720900 0.000000 
#    z 0.000000 0.000000 1.725440 
# 
# From -- ./inp_files/2985.got.cif
#   From: 2010.03.12/outbox.cif.g09.slc.cpg/sg115_2_cif.got.tgz:2985.got - 2010.04.14 02:11:21.
