data_PCOD8309208
_publ_section_title
;
Structure prediction by ZEFSAII (Michael W. Deem and Ramdas Pophale) SiO2 
 PCOD8309208
Probable space group: P -4 M 2
;
_chemical_formula_sum "Si O2"
_cell_formula_units_Z 48
_cell_length_a 14.195091
_cell_length_b 14.195091
_cell_length_c 12.424173
_cell_angle_alpha 90.000000
_cell_angle_beta 90.000000
_cell_angle_gamma 90.000000
_cell_volume 2503.478420
_symmetry_space_group_name_H-M "P -4 M 2"
_symmetry_group_IT_number 115
_symmetry_cell_setting 'tetragonal'
loop_
_space_group_symop_operation_xyz
x,y,z
y,-x,-z
-x,-y,z
-y,x,-z
y,x,-z
-y,-x,-z
-x,y,z
x,-y,z
loop_
_atom_site_type_symbol
_atom_site_label
_atom_site_fract_x
_atom_site_fract_y
_atom_site_fract_z
Si Si1 0.396209 0.888104 0.867573
Si Si2 0.605665 0.243178 0.455275
Si Si3 0.706866 0.106372 0.284718
Si Si4 0.138565 0.100755 0.615287
Si Si5 0.353277 0.107264 0.631124
Si Si6 0.888795 0.252991 0.957007
O O1 0.500000 0.847510 0.887190
O O2 0.359501 0.852750 0.752005
O O3 0.395533 0.000000 0.870101
O O4 0.331458 0.848568 0.961804
O O5 0.670949 0.329051 0.500000
O O6 0.500000 0.279423 0.421494
O O7 0.652784 0.185002 0.355705
O O8 0.585709 0.170907 0.552113
O O9 0.816164 0.094814 0.315897
O O10 0.709767 0.140579 0.161078
O O11 0.662140 0.000000 0.296461
O O12 0.090413 0.090413 0.500000
O O13 0.247602 0.117981 0.590107
O O14 0.124304 0.000000 0.676627
O O15 0.390520 0.000000 0.625378
O O16 0.000000 0.238317 0.963480
O O17 0.843646 0.156355 0.000000
#
# Coordination Sequence:
#
# PCOD8309208 Si02
#       6
#     8   8   8   8   8   8
#     4   9  18  33  54  81 108 138 183 235 286 335
#     4  12  25  41  61  86 118 152 194 245 305 370
#     4  11  22  38  58  86 122 159 200 244 293 349
#     4  11  20  32  53  80 117 155 189 228 274 338
#     4  10  18  33  59  87 115 145 183 235 289 343
#     4  10  22  37  57  82 117 161 200 241 284 336
#
# _framework density 19.173324000000001
#
# number of rings (size 3 to 8) (size 9 to 14) (size 15 to 20)
#    0.000    1.500    3.333    2.500    0.000    6.167 
#    0.000    3.333    0.000    0.000    0.000    0.000 
#    0.000    0.333    0.000    0.000    0.000    0.000 
#
# Total GULP energy -594810.849452 kJ/mol
# GULP energy per Si atom -12391.892697 kJ/mol
# Density = 1.912968 g / cm^3
# Si number density = 19.173324 Si / 1000 Ang^3
#
#
#
# Elastic Constant Matrix: (Units=GPa)
#
#
# Indices 1 2 3 4 5 6 
#
# 1 91.8962 41.3068 44.1508 0.0000 0.0000 0.0000
# 2 41.3068 91.8980 44.1504 0.0000 0.0000 0.0000
# 3 44.1508 44.1504 142.8477 0.0000 0.0000 0.0000
# 4 0.0000 0.0000 0.0000 14.7067 0.0000 0.0000
# 5 0.0000 0.0000 0.0000 0.0000 14.7067 0.0000
# 6 0.0000 0.0000 0.0000 0.0000 0.0000 10.3306
#
#
#
# Elastic Compliance Matrix: (Units=1/GPa)
#
#
# Indices 1 2 3 4 5 6 
#
# 1 0.014604 -0.005162 -0.002918 0.000000 0.000000 0.000000
# 2 -0.005162 0.014604 -0.002918 0.000000 0.000000 0.000000
# 3 -0.002918 -0.002918 0.008804 0.000000 0.000000 0.000000
# 4 0.000000 0.000000 0.000000 0.067996 0.000000 0.000000
# 5 0.000000 0.000000 0.000000 0.000000 0.067996 0.000000
# 6 0.000000 0.000000 0.000000 0.000000 0.000000 0.096800
#
#
# Mechanical properties :
#
#
# Convention : Reuss Voigt Hill
#
# Bulk Modulus (GPa) = 62.44123 65.09531 63.76827
# Shear Modulus (GPa) = 16.77058 21.08439 18.92748
#
# Velocity S-wave (km/s) = 2.96071 3.31973 3.14535
# Velocity P-wave (km/s) = 6.65772 6.97989 6.82070
#
# Compressibility (1/GPa) = 0.01601506
#
# Stress axis : x y z
#
# Youngs Moduli (GPa) = 68.47252 68.47433 113.58015
#
# Poissons Ratio (x) = 0.35349 0.33146
# Poissons Ratio (y) = 0.35348 0.33144
# Poissons Ratio (z) = 0.19982 0.19982
#
# Static dielectric constant tensor:
#      x y z
#    x 3.443640 0.000000 0.000000 
#    y 0.000000 3.443640 0.000000 
#    z 0.000000 0.000000 3.639420 
# 
# 
# High freq. dielectric constant tensor:
#      x y z
#    x 1.728600 0.000000 0.000000 
#    y 0.000000 1.728600 0.000000 
#    z 0.000000 0.000000 1.748910 
# 
# From -- ./inp_files/2955.got.cif
#   From: 2010.03.12/outbox.cif.g09.slc.cpg/sg115_2_cif.got.tgz:2955.got - 2010.04.14 02:11:21.
