data_PCOD8309827
_publ_section_title
;
Structure prediction by ZEFSAII (Michael W. Deem and Ramdas Pophale) SiO2 
 PCOD8309827
Probable space group: P -4 M 2
;
_chemical_formula_sum "Si O2"
_cell_formula_units_Z 48
_cell_length_a 9.341043
_cell_length_b 9.341043
_cell_length_c 30.950748
_cell_angle_alpha 90.000000
_cell_angle_beta 90.000000
_cell_angle_gamma 90.000000
_cell_volume 2700.610127
_symmetry_space_group_name_H-M "P -4 M 2"
_symmetry_group_IT_number 115
_symmetry_cell_setting 'tetragonal'
loop_
_space_group_symop_operation_xyz
x,y,z
y,-x,-z
-x,-y,z
-y,x,-z
y,x,-z
-y,-x,-z
-x,y,z
x,-y,z
loop_
_atom_site_type_symbol
_atom_site_label
_atom_site_fract_x
_atom_site_fract_y
_atom_site_fract_z
Si Si1 0.332773 0.165259 0.293792
Si Si2 0.670427 0.338043 0.211298
Si Si3 0.829476 0.840631 0.952966
Si Si4 0.165920 0.835832 0.378364
Si Si5 0.834321 0.331758 0.463554
Si Si6 0.165586 0.332178 0.871169
O O1 0.500000 0.191117 0.301047
O O2 0.272684 0.258407 0.254049
O O3 0.253670 0.216933 0.336916
O O4 0.299177 0.000000 0.283478
O O5 0.500000 0.334022 0.211082
O O6 0.728804 0.500000 0.210957
O O7 0.728593 0.255480 0.169181
O O8 0.773039 0.739601 0.914692
O O9 0.000000 0.845017 0.953381
O O10 0.768102 0.000000 0.945034
O O11 0.780026 0.780026 0.000000
O O12 0.211987 0.736960 0.418179
O O13 0.000000 0.817466 0.367255
O O14 0.203237 0.000000 0.390057
O O15 0.735784 0.264217 0.500000
O O16 0.805941 0.500000 0.461261
O O17 0.000000 0.296757 0.473778
O O18 0.187118 0.500000 0.876731
O O19 0.000000 0.292880 0.863125
#
# Coordination Sequence:
#
# PCOD8309827 Si02
#       6
#     8   8   8   8   8   8
#     4   9  17  30  49  71  92 117 154 196 231 268
#     4   9  17  29  45  65  90 120 151 183 224 273
#     4   8  14  26  44  64  86 113 144 178 219 267
#     4   9  18  33  52  73  98 128 160 195 238 286
#     4  10  21  36  54  76 102 133 168 204 243 288
#     4   9  16  27  45  66  85 109 146 187 220 256
#
# _framework density 17.773759999999999
#
# number of rings (size 3 to 8) (size 9 to 14) (size 15 to 20)
#    0.000    3.000    0.000    1.500    0.000    4.333 
#    0.000    3.333    0.000    6.500    0.000    0.000 
#    0.000    0.000    0.000    0.000    0.000    0.000 
#
# Total GULP energy -595150.817117 kJ/mol
# GULP energy per Si atom -12398.975357 kJ/mol
# Density = 1.773331 g / cm^3
# Si number density = 17.773760 Si / 1000 Ang^3
#
#
#
# Elastic Constant Matrix: (Units=GPa)
#
#
# Indices 1 2 3 4 5 6 
#
# 1 64.9751 36.4149 73.7615 0.0000 0.0000 0.0000
# 2 36.4149 64.9747 73.7603 0.0000 0.0000 0.0000
# 3 73.7615 73.7603 196.2213 0.0000 0.0000 0.0000
# 4 0.0000 0.0000 0.0000 20.0270 0.0000 0.0000
# 5 0.0000 0.0000 0.0000 0.0000 20.0274 0.0000
# 6 0.0000 0.0000 0.0000 0.0000 0.0000 15.3281
#
#
#
# Elastic Compliance Matrix: (Units=1/GPa)
#
#
# Indices 1 2 3 4 5 6 
#
# 1 0.028392 -0.006622 -0.008184 0.000000 0.000000 0.000000
# 2 -0.006622 0.028392 -0.008183 0.000000 0.000000 0.000000
# 3 -0.008184 -0.008183 0.011249 0.000000 0.000000 0.000000
# 4 0.000000 0.000000 0.000000 0.049933 0.000000 0.000000
# 5 0.000000 0.000000 0.000000 0.000000 0.049932 0.000000
# 6 0.000000 0.000000 0.000000 0.000000 0.000000 0.065240
#
#
# Mechanical properties :
#
#
# Convention : Reuss Voigt Hill
#
# Bulk Modulus (GPa) = 45.34207 77.11606 61.22907
# Shear Modulus (GPa) = 17.45410 20.55880 19.00645
#
# Velocity S-wave (km/s) = 3.13711 3.40471 3.27365
# Velocity P-wave (km/s) = 6.21997 7.67710 6.98663
#
# Compressibility (1/GPa) = 0.02205457
#
# Stress axis : x y z
#
# Youngs Moduli (GPa) = 35.22110 35.22160 88.89946
#
# Poissons Ratio (x) = 0.23324 0.72751
# Poissons Ratio (y) = 0.23324 0.72748
# Poissons Ratio (z) = 0.28823 0.28823
#
# Static dielectric constant tensor:
#      x y z
#    x 3.144040 0.000000 0.000000 
#    y 0.000000 3.144040 0.000000 
#    z 0.000000 0.000000 3.573260 
# 
# 
# High freq. dielectric constant tensor:
#      x y z
#    x 1.664600 0.000000 0.000000 
#    y 0.000000 1.664600 0.000000 
#    z 0.000000 0.000000 1.702530 
# 
# From -- ./inp_files/5983.got.cif
#   From: 2010.03.12/outbox.cif.g09.slc.cpg/sg115_3_cif.got.tgz:5983.got - 2010.04.14 02:11:21.
