data_PCOD8309238
_publ_section_title
;
Structure prediction by ZEFSAII (Michael W. Deem and Ramdas Pophale) SiO2 
 PCOD8309238
Probable space group: P -4 M 2
;
_chemical_formula_sum "Si O2"
_cell_formula_units_Z 56
_cell_length_a 13.851316
_cell_length_b 13.851316
_cell_length_c 17.974729
_cell_angle_alpha 90.000000
_cell_angle_beta 90.000000
_cell_angle_gamma 90.000000
_cell_volume 3448.612721
_symmetry_space_group_name_H-M "P -4 M 2"
_symmetry_group_IT_number 115
_symmetry_cell_setting 'tetragonal'
loop_
_space_group_symop_operation_xyz
x,y,z
y,-x,-z
-x,-y,z
-y,x,-z
y,x,-z
-y,-x,-z
-x,y,z
x,-y,z
loop_
_atom_site_type_symbol
_atom_site_label
_atom_site_fract_x
_atom_site_fract_y
_atom_site_fract_z
Si Si1 0.748354 0.608985 0.588290
Si Si2 0.611412 0.778304 0.578922
Si Si3 0.795308 0.113958 0.928384
Si Si4 0.194876 0.110698 0.217835
Si Si5 0.284144 0.113494 0.702910
Si Si6 0.393376 0.886186 0.846866
Si Si7 0.606976 0.109881 0.278905
O O1 0.711138 0.500000 0.595451
O O2 0.653019 0.673063 0.598829
O O3 0.799460 0.625353 0.508471
O O4 0.826276 0.635139 0.650286
O O5 0.500000 0.782675 0.603120
O O6 0.672683 0.857700 0.623446
O O7 0.860908 0.147910 0.860116
O O8 0.682756 0.138899 0.912303
O O9 0.810871 0.000000 0.940972
O O10 0.826761 0.173240 0.000000
O O11 0.153873 0.176178 0.284877
O O12 0.311865 0.124638 0.215131
O O13 0.168017 0.000000 0.235378
O O14 0.353104 0.155062 0.768646
O O15 0.277666 0.000000 0.707806
O O16 0.500000 0.841926 0.863947
O O17 0.402263 0.000000 0.839323
O O18 0.500000 0.137084 0.247485
O O19 0.607399 0.000000 0.307182
#
# Coordination Sequence:
#
# PCOD8309238 Si02
#       7
#     8   8   8   8   8   8   8
#     4   9  18  32  48  67  94 123 156 199 247 295
#     4  10  19  30  46  69  95 124 158 197 245 292
#     4  10  20  32  48  72 101 129 160 196 234 282
#     4  10  19  32  50  71  96 127 161 194 236 289
#     4  10  19  30  46  71  98 125 161 200 235 278
#     4   8  15  29  47  66  92 124 154 190 237 281
#     4   9  17  31  51  71  92 122 159 200 244 287
#
# _framework density 16.238415
#
# number of rings (size 3 to 8) (size 9 to 14) (size 15 to 20)
#    0.000    2.571    1.429    2.143    0.000    3.571 
#    0.000    3.571    0.000    3.429    0.000    0.000 
#    0.000    1.714    0.000    0.000    0.000    0.000 
#
# Total GULP energy -694106.756769 kJ/mol
# GULP energy per Si atom -12394.763514 kJ/mol
# Density = 1.620146 g / cm^3
# Si number density = 16.238415 Si / 1000 Ang^3
#
#
#
# Elastic Constant Matrix: (Units=GPa)
#
#
# Indices 1 2 3 4 5 6 
#
# 1 91.6988 34.2163 27.6471 0.0000 0.0000 0.0000
# 2 34.2163 91.6981 27.6472 0.0000 0.0000 0.0000
# 3 27.6471 27.6472 46.4986 0.0000 0.0000 0.0000
# 4 0.0000 0.0000 0.0000 22.5719 0.0000 0.0000
# 5 0.0000 0.0000 0.0000 0.0000 22.5726 0.0000
# 6 0.0000 0.0000 0.0000 0.0000 0.0000 20.6424
#
#
#
# Elastic Compliance Matrix: (Units=1/GPa)
#
#
# Indices 1 2 3 4 5 6 
#
# 1 0.014072 -0.003324 -0.006391 0.000000 0.000000 0.000000
# 2 -0.003324 0.014073 -0.006391 0.000000 0.000000 0.000000
# 3 -0.006391 -0.006391 0.029106 0.000000 0.000000 0.000000
# 4 0.000000 0.000000 0.000000 0.044303 0.000000 0.000000
# 5 0.000000 0.000000 0.000000 0.000000 0.044302 0.000000
# 6 0.000000 0.000000 0.000000 0.000000 0.000000 0.048444
#
#
# Mechanical properties :
#
#
# Convention : Reuss Voigt Hill
#
# Bulk Modulus (GPa) = 39.93717 45.43518 42.68617
# Shear Modulus (GPa) = 21.28957 22.51638 21.90297
#
# Velocity S-wave (km/s) = 3.62479 3.72776 3.67664
# Velocity P-wave (km/s) = 6.49357 6.82415 6.66091
#
# Compressibility (1/GPa) = 0.02503933
#
# Stress axis : x y z
#
# Youngs Moduli (GPa) = 71.06086 71.06023 34.35757
#
# Poissons Ratio (x) = 0.23622 0.21957
# Poissons Ratio (y) = 0.23622 0.21957
# Poissons Ratio (z) = 0.45413 0.45413
#
# Static dielectric constant tensor:
#      x y z
#    x 3.206890 0.000000 0.000000 
#    y 0.000000 3.206890 0.000000 
#    z 0.000000 0.000000 2.969000 
# 
# 
# High freq. dielectric constant tensor:
#      x y z
#    x 1.623860 0.000000 0.000000 
#    y 0.000000 1.623860 0.000000 
#    z 0.000000 0.000000 1.605530 
# 
# From -- ./inp_files/3876.got.cif
#   From: 2010.03.12/outbox.cif.g09.slc.cpg/sg115_2_cif.got.tgz:3876.got - 2010.04.14 02:11:21.
