data_PCOD8309048
_publ_section_title
;
Structure prediction by ZEFSAII (Michael W. Deem and Ramdas Pophale) SiO2 
 PCOD8309048
Probable space group: P -4 21 C
;
_chemical_formula_sum "Si O2"
_cell_formula_units_Z 40
_cell_length_a 9.189921
_cell_length_b 9.189921
_cell_length_c 24.186022
_cell_angle_alpha 90.000000
_cell_angle_beta 90.000000
_cell_angle_gamma 90.000000
_cell_volume 2042.621974
_symmetry_space_group_name_H-M "P -4 21 C"
_symmetry_group_IT_number 114
_symmetry_cell_setting 'tetragonal'
loop_
_space_group_symop_operation_xyz
x,y,z
y,-x,-z
-x,-y,z
-y,x,-z
1/2+x,1/2-y,1/2-z
1/2-x,1/2+y,1/2-z
1/2-y,1/2-x,1/2+z
1/2+y,1/2+x,1/2+z
loop_
_atom_site_type_symbol
_atom_site_label
_atom_site_fract_x
_atom_site_fract_y
_atom_site_fract_z
Si Si1 0.820522 0.156740 0.493381
Si Si2 0.688096 0.140886 0.094379
Si Si3 0.320022 0.132789 0.608070
Si Si4 0.635463 0.895073 0.227208
Si Si5 0.392931 0.633854 0.703785
O O1 0.722004 0.241569 0.538558
O O2 0.782010 0.204839 0.430527
O O3 0.985553 0.204885 0.504454
O O4 0.538336 0.219050 0.113181
O O5 0.802160 0.151077 0.144279
O O6 0.657620 0.974658 0.078639
O O7 0.321266 0.193695 0.670414
O O8 0.598312 0.764828 0.269196
O O9 0.500000 0.000000 0.214475
O O10 0.760098 0.011949 0.244149
O O11 0.500000 0.500000 0.694001
#
# Coordination Sequence:
#
# PCOD8309048 Si02
#       5
#     8   8   8   8   8
#     4   9  18  33  57  86 107 139 197 245 280 349
#     4   9  18  37  56  77 115 150 186 236 293 350
#     4   9  17  36  59  76 112 156 180 228 305 349
#     4  11  21  41  61  84 119 161 197 247 300 364
#     4  11  23  37  61  90 120 156 206 249 299 361
#
# _framework density 19.582674999999998
#
# number of rings (size 3 to 8) (size 9 to 14) (size 15 to 20)
#    0.000    2.200    4.000    1.200    0.000    1.600 
#   10.800    0.000    4.400    0.000    0.000    0.000 
#    0.000    0.000    0.000    0.000    0.000    0.000 
#
# Total GULP energy -495524.134130 kJ/mol
# GULP energy per Si atom -12388.103353 kJ/mol
# Density = 1.953810 g / cm^3
# Si number density = 19.582675 Si / 1000 Ang^3
#
#
#
# Elastic Constant Matrix: (Units=GPa)
#
#
# Indices 1 2 3 4 5 6 
#
# 1 68.2513 32.9370 51.5319 0.0000 0.0000 0.0000
# 2 32.9370 68.2513 51.5319 0.0000 0.0000 0.0000
# 3 51.5319 51.5319 116.9661 0.0000 0.0000 0.0000
# 4 0.0000 0.0000 0.0000 30.1761 0.0000 0.0000
# 5 0.0000 0.0000 0.0000 0.0000 30.1761 0.0000
# 6 0.0000 0.0000 0.0000 0.0000 0.0000 25.8424
#
#
#
# Elastic Compliance Matrix: (Units=1/GPa)
#
#
# Indices 1 2 3 4 5 6 
#
# 1 0.023122 -0.005195 -0.007898 0.000000 0.000000 0.000000
# 2 -0.005195 0.023122 -0.007898 0.000000 0.000000 0.000000
# 3 -0.007898 -0.007898 0.015509 0.000000 0.000000 0.000000
# 4 0.000000 0.000000 0.000000 0.033139 0.000000 0.000000
# 5 0.000000 0.000000 0.000000 0.000000 0.033139 0.000000
# 6 0.000000 0.000000 0.000000 0.000000 0.000000 0.038696
#
#
# Mechanical properties :
#
#
# Convention : Reuss Voigt Hill
#
# Bulk Modulus (GPa) = 50.58050 58.38557 54.48304
# Shear Modulus (GPa) = 23.22343 25.07011 24.14677
#
# Velocity S-wave (km/s) = 3.44745 3.58190 3.51532
# Velocity P-wave (km/s) = 6.46002 6.85465 6.66026
#
# Compressibility (1/GPa) = 0.01977047
#
# Stress axis : x y z
#
# Youngs Moduli (GPa) = 43.24857 43.24857 64.47910
#
# Poissons Ratio (x) = 0.22468 0.50927
# Poissons Ratio (y) = 0.22468 0.50927
# Poissons Ratio (z) = 0.34158 0.34158
#
# Static dielectric constant tensor:
#      x y z
#    x 3.578640 0.000000 0.000000 
#    y 0.000000 3.578640 0.000000 
#    z 0.000000 0.000000 3.524520 
# 
# 
# High freq. dielectric constant tensor:
#      x y z
#    x 1.752250 0.000000 0.000000 
#    y 0.000000 1.752250 0.000000 
#    z 0.000000 0.000000 1.754240 
# 
# From -- ./inp_files/3384.got.cif
#   From: 2010.03.12/outbox.cif.g09.slc.cpg/sg114_2_cif.got.tgz:3384.got - 2010.04.14 02:08:34.
