data_PCOD8309726
_publ_section_title
;
Structure prediction by ZEFSAII (Michael W. Deem and Ramdas Pophale) SiO2 
 PCOD8309726
Probable space group: P -4 M 2
;
_chemical_formula_sum "Si O2"
_cell_formula_units_Z 40
_cell_length_a 8.130341
_cell_length_b 8.130341
_cell_length_c 28.627417
_cell_angle_alpha 90.000000
_cell_angle_beta 90.000000
_cell_angle_gamma 90.000000
_cell_volume 1892.342251
_symmetry_space_group_name_H-M "P -4 M 2"
_symmetry_group_IT_number 115
_symmetry_cell_setting 'tetragonal'
loop_
_space_group_symop_operation_xyz
x,y,z
y,-x,-z
-x,-y,z
-y,x,-z
y,x,-z
-y,-x,-z
-x,y,z
x,-y,z
loop_
_atom_site_type_symbol
_atom_site_label
_atom_site_fract_x
_atom_site_fract_y
_atom_site_fract_z
Si Si1 0.686231 0.813195 0.453143
Si Si2 0.000000 0.808876 0.109931
Si Si3 0.319955 0.809780 0.267333
Si Si4 0.197305 0.000000 0.785654
Si Si5 0.692079 0.684301 0.946523
Si Si6 0.184215 0.311546 0.359002
O O1 0.790491 0.790491 0.500000
O O2 0.500000 0.764661 0.464938
O O3 0.750363 0.699968 0.411544
O O4 0.703027 0.000000 0.436164
O O5 0.830735 0.763307 0.084388
O O6 0.000000 0.731633 0.161712
O O7 0.000000 0.000000 0.116033
O O8 0.500000 0.733362 0.253368
O O9 0.165163 0.730777 0.239360
O O10 0.296349 0.788408 0.322857
O O11 0.325716 0.000000 0.254940
O O12 0.000000 0.000000 0.783009
O O13 0.500000 0.676951 0.937829
O O14 0.764667 0.500000 0.934770
O O15 0.730497 0.730497 0.000000
O O16 0.187912 0.500000 0.343555
O O17 0.000000 0.239698 0.356795
#
# Coordination Sequence:
#
# PCOD8309726 Si02
#       6
#     8   4   8   4   8   8
#     4  11  24  40  58  83 114 149 190 235 290 354
#     4  11  23  35  59  95 127 161 207 261 321 378
#     4  10  20  37  63  87 111 153 203 247 299 362
#     4   9  20  39  57  85 125 159 195 251 307 360
#     4   9  20  39  60  84 120 167 214 259 311 375
#     4  11  23  38  58  86 117 149 190 240 295 356
#
# _framework density 21.137823000000001
#
# number of rings (size 3 to 8) (size 9 to 14) (size 15 to 20)
#    0.000    1.800    1.000    3.300    1.400    9.200 
#    0.000    4.000    0.000    0.000    0.000    0.000 
#    0.000    0.000    0.000    0.000    0.000    0.000 
#
# Total GULP energy -495859.554344 kJ/mol
# GULP energy per Si atom -12396.488859 kJ/mol
# Density = 2.108971 g / cm^3
# Si number density = 21.137823 Si / 1000 Ang^3
#
#
#
# Elastic Constant Matrix: (Units=GPa)
#
#
# Indices 1 2 3 4 5 6 
#
# 1 93.4748 37.2211 45.9119 0.0000 0.0000 0.0000
# 2 37.2211 93.4748 45.9119 0.0000 0.0000 0.0000
# 3 45.9119 45.9119 135.8902 0.0000 0.0000 0.0000
# 4 0.0000 0.0000 0.0000 8.5880 0.0000 0.0000
# 5 0.0000 0.0000 0.0000 0.0000 8.5880 0.0000
# 6 0.0000 0.0000 0.0000 0.0000 0.0000 24.6405
#
#
#
# Elastic Compliance Matrix: (Units=1/GPa)
#
#
# Indices 1 2 3 4 5 6 
#
# 1 0.013905 -0.003872 -0.003390 0.000000 0.000000 0.000000
# 2 -0.003872 0.013905 -0.003390 0.000000 0.000000 0.000000
# 3 -0.003390 -0.003390 0.009649 0.000000 0.000000 0.000000
# 4 0.000000 0.000000 0.000000 0.116441 0.000000 0.000000
# 5 0.000000 0.000000 0.000000 0.000000 0.116441 0.000000
# 6 0.000000 0.000000 0.000000 0.000000 0.000000 0.040584
#
#
# Mechanical properties :
#
#
# Convention : Reuss Voigt Hill
#
# Bulk Modulus (GPa) = 61.89541 64.54776 63.22159
# Shear Modulus (GPa) = 14.80986 21.28296 18.04641
#
# Velocity S-wave (km/s) = 2.64982 3.17656 2.92507
# Velocity P-wave (km/s) = 6.22153 6.63754 6.43290
#
# Compressibility (1/GPa) = 0.01615629
#
# Stress axis : x y z
#
# Youngs Moduli (GPa) = 71.91786 71.91786 103.63357
#
# Poissons Ratio (x) = 0.27846 0.35129
# Poissons Ratio (y) = 0.27846 0.35129
# Poissons Ratio (z) = 0.24378 0.24378
#
# Static dielectric constant tensor:
#      x y z
#    x 3.778330 0.000000 0.000000 
#    y 0.000000 3.778330 0.000000 
#    z 0.000000 0.000000 3.831000 
# 
# 
# High freq. dielectric constant tensor:
#      x y z
#    x 1.827860 0.000000 0.000000 
#    y 0.000000 1.827860 0.000000 
#    z 0.000000 0.000000 1.820890 
# 
# From -- ./inp_files/5557.got.cif
#   From: 2010.03.12/outbox.cif.g09.slc.cpg/sg115_3_cif.got.tgz:5557.got - 2010.04.14 02:11:21.
