data_PCOD8309393
_publ_section_title
;
Structure prediction by ZEFSAII (Michael W. Deem and Ramdas Pophale) SiO2 
 PCOD8309393
Probable space group: P -4 M 2
;
_chemical_formula_sum "Si O2"
_cell_formula_units_Z 48
_cell_length_a 9.093119
_cell_length_b 9.093119
_cell_length_c 30.829232
_cell_angle_alpha 90.000000
_cell_angle_beta 90.000000
_cell_angle_gamma 90.000000
_cell_volume 2549.109287
_symmetry_space_group_name_H-M "P -4 M 2"
_symmetry_group_IT_number 115
_symmetry_cell_setting 'tetragonal'
loop_
_space_group_symop_operation_xyz
x,y,z
y,-x,-z
-x,-y,z
-y,x,-z
y,x,-z
-y,-x,-z
-x,y,z
x,-y,z
loop_
_atom_site_type_symbol
_atom_site_label
_atom_site_fract_x
_atom_site_fract_y
_atom_site_fract_z
Si Si1 0.672817 0.333647 0.048834
Si Si2 0.827587 0.326895 0.459957
Si Si3 0.168926 0.828204 0.875207
Si Si4 0.673386 0.829499 0.695832
Si Si5 0.174407 0.662055 0.207409
Si Si6 0.671961 0.827294 0.380694
O O1 0.500000 0.319895 0.055789
O O2 0.725047 0.500000 0.057257
O O3 0.754261 0.229315 0.081893
O O4 0.714726 0.285275 0.000000
O O5 0.745159 0.254842 0.500000
O O6 0.796808 0.500000 0.459921
O O7 0.765687 0.258424 0.416183
O O8 0.000000 0.292703 0.463558
O O9 0.237815 0.761233 0.831077
O O10 0.000000 0.790456 0.872372
O O11 0.201895 0.000000 0.878665
O O12 0.500000 0.803044 0.688491
O O13 0.720292 0.783807 0.744726
O O14 0.769092 0.723906 0.665767
O O15 0.711406 0.000000 0.686365
O O16 0.241192 0.500000 0.200562
O O17 0.000000 0.655248 0.204665
O O18 0.500000 0.793464 0.387148
O O19 0.703941 0.000000 0.384571
#
# Coordination Sequence:
#
# PCOD8309393 Si02
#       6
#     8   8   8   8   8   8
#     4   9  19  36  55  73  95 128 172 217 259 308
#     4  11  24  41  62  88 115 144 182 225 268 318
#     4  10  20  32  49  77 109 137 168 209 258 313
#     4   9  18  34  57  83 107 135 178 227 269 313
#     4   8  15  30  52  76 103 137 177 218 259 308
#     4  11  24  39  55  80 114 149 185 223 265 317
#
# _framework density 18.830107000000002
#
# number of rings (size 3 to 8) (size 9 to 14) (size 15 to 20)
#    0.000    2.333    0.000    4.000    0.000    9.667 
#    0.000    5.000    0.000    1.000    0.000    0.000 
#    0.000    0.000    0.000    0.000    0.000    0.000 
#
# Total GULP energy -595167.916491 kJ/mol
# GULP energy per Si atom -12399.331594 kJ/mol
# Density = 1.878725 g / cm^3
# Si number density = 18.830107 Si / 1000 Ang^3
#
#
#
# Elastic Constant Matrix: (Units=GPa)
#
#
# Indices 1 2 3 4 5 6 
#
# 1 87.8268 55.1905 63.0303 0.0000 0.0000 0.0000
# 2 55.1905 87.8222 63.0283 0.0000 0.0000 0.0000
# 3 63.0303 63.0283 155.7061 0.0000 0.0000 0.0000
# 4 0.0000 0.0000 0.0000 34.9707 0.0000 0.0000
# 5 0.0000 0.0000 0.0000 0.0000 34.9706 0.0000
# 6 0.0000 0.0000 0.0000 0.0000 0.0000 29.8860
#
#
#
# Elastic Compliance Matrix: (Units=1/GPa)
#
#
# Indices 1 2 3 4 5 6 
#
# 1 0.020756 -0.009886 -0.004401 0.000000 0.000000 0.000000
# 2 -0.009886 0.020757 -0.004401 0.000000 0.000000 0.000000
# 3 -0.004401 -0.004401 0.009985 0.000000 0.000000 0.000000
# 4 0.000000 0.000000 0.000000 0.028595 0.000000 0.000000
# 5 0.000000 0.000000 0.000000 0.000000 0.028595 0.000000
# 6 0.000000 0.000000 0.000000 0.000000 0.000000 0.033460
#
#
# Mechanical properties :
#
#
# Convention : Reuss Voigt Hill
#
# Bulk Modulus (GPa) = 70.79688 77.09478 73.94583
# Shear Modulus (GPa) = 27.13960 29.97254 28.55607
#
# Velocity S-wave (km/s) = 3.80055 3.99398 3.89847
# Velocity P-wave (km/s) = 7.54574 7.89306 7.72135
#
# Compressibility (1/GPa) = 0.01412492
#
# Stress axis : x y z
#
# Youngs Moduli (GPa) = 48.17769 48.17543 100.14986
#
# Poissons Ratio (x) = 0.47626 0.44072
# Poissons Ratio (y) = 0.47628 0.44072
# Poissons Ratio (z) = 0.21201 0.21200
#
# Static dielectric constant tensor:
#      x y z
#    x 3.387510 0.000000 0.000000 
#    y 0.000000 3.387510 0.000000 
#    z 0.000000 0.000000 3.754630 
# 
# 
# High freq. dielectric constant tensor:
#      x y z
#    x 1.722120 0.000000 0.000000 
#    y 0.000000 1.722120 0.000000 
#    z 0.000000 0.000000 1.751470 
# 
# From -- ./inp_files/5959.got.cif
#   From: 2010.03.12/outbox.cif.g09.slc.cpg/sg115_3_cif.got.tgz:5959.got - 2010.04.14 02:11:21.
