data_PCOD8309736
_publ_section_title
;
Structure prediction by ZEFSAII (Michael W. Deem and Ramdas Pophale) SiO2 
 PCOD8309736
Probable space group: P -4 M 2
;
_chemical_formula_sum "Si O2"
_cell_formula_units_Z 48
_cell_length_a 9.320954
_cell_length_b 9.320954
_cell_length_c 31.048701
_cell_angle_alpha 90.000000
_cell_angle_beta 90.000000
_cell_angle_gamma 90.000000
_cell_volume 2697.516839
_symmetry_space_group_name_H-M "P -4 M 2"
_symmetry_group_IT_number 115
_symmetry_cell_setting 'tetragonal'
loop_
_space_group_symop_operation_xyz
x,y,z
y,-x,-z
-x,-y,z
-y,x,-z
y,x,-z
-y,-x,-z
-x,y,z
x,-y,z
loop_
_atom_site_type_symbol
_atom_site_label
_atom_site_fract_x
_atom_site_fract_y
_atom_site_fract_z
Si Si1 0.837546 0.832962 0.549517
Si Si2 0.665880 0.833130 0.296273
Si Si3 0.329191 0.659140 0.954782
Si Si4 0.332801 0.668978 0.861161
Si Si5 0.665660 0.667672 0.619584
Si Si6 0.831036 0.165077 0.787822
O O1 0.800639 0.800639 0.500000
O O2 0.726529 0.745922 0.577983
O O3 0.000000 0.783722 0.559849
O O4 0.820019 0.000000 0.559654
O O5 0.500000 0.799716 0.286024
O O6 0.720991 0.746752 0.337692
O O7 0.758819 0.779670 0.255947
O O8 0.691015 0.000000 0.305879
O O9 0.500000 0.652050 0.959146
O O10 0.265080 0.500000 0.951597
O O11 0.290267 0.732161 0.908930
O O12 0.269327 0.730674 0.000000
O O13 0.500000 0.695071 0.852048
O O14 0.297381 0.500000 0.857507
O O15 0.241498 0.758137 0.827781
O O16 0.500000 0.707325 0.624835
O O17 0.690701 0.500000 0.612722
O O18 0.000000 0.181810 0.793522
O O19 0.783171 0.000000 0.786055
#
# Coordination Sequence:
#
# PCOD8309736 Si02
#       6
#     8   8   8   8   8   8
#     4   9  19  36  56  77 102 135 175 213 245 281
#     4   9  18  34  54  72  93 127 169 207 243 287
#     4   7  10  19  38  65  94 120 149 190 238 284
#     4   9  17  29  48  74  99 124 157 198 244 291
#     4  10  21  35  52  78 109 135 160 197 247 298
#     4  10  21  35  50  70  97 129 164 201 242 289
#
# _framework density 17.794141
#
# number of rings (size 3 to 8) (size 9 to 14) (size 15 to 20)
#    0.000    3.000    0.000    3.000    0.000    4.667 
#    0.000    5.833    0.000    1.000    0.000    5.833 
#    0.000    0.000    0.000    0.000    0.000    0.000 
#
# Total GULP energy -594839.424727 kJ/mol
# GULP energy per Si atom -12392.488015 kJ/mol
# Density = 1.775364 g / cm^3
# Si number density = 17.794141 Si / 1000 Ang^3
#
#
#
# Elastic Constant Matrix: (Units=GPa)
#
#
# Indices 1 2 3 4 5 6 
#
# 1 56.5140 33.4173 62.1813 0.0000 0.0000 0.0000
# 2 33.4173 56.5139 62.1814 0.0000 0.0000 0.0000
# 3 62.1813 62.1814 165.4580 0.0000 0.0000 0.0000
# 4 0.0000 0.0000 0.0000 -22.9157 0.0000 0.0000
# 5 0.0000 0.0000 0.0000 0.0000 -22.9176 0.0000
# 6 0.0000 0.0000 0.0000 0.0000 0.0000 25.1576
#
#
#
# Elastic Compliance Matrix: (Units=1/GPa)
#
#
# Indices 1 2 3 4 5 6 
#
# 1 0.033224 -0.010072 -0.008701 0.000000 0.000000 0.000000
# 2 -0.010072 0.033224 -0.008701 0.000000 0.000000 0.000000
# 3 -0.008701 -0.008701 0.012583 0.000000 0.000000 0.000000
# 4 0.000000 0.000000 0.000000 -0.043638 0.000000 0.000000
# 5 0.000000 0.000000 0.000000 0.000000 -0.043635 0.000000
# 6 0.000000 0.000000 0.000000 0.000000 0.000000 0.039749
#
#
# Mechanical properties :
#
#
# Convention : Reuss Voigt Hill
#
# Bulk Modulus (GPa) = 41.52173 66.00509 53.76341
# Shear Modulus (GPa) = 52.91952 3.91191 28.41571
#
# Velocity S-wave (km/s) = 5.45934 1.48432 4.00048
# Velocity P-wave (km/s) = 7.94508 6.33339 7.18457
#
# Compressibility (1/GPa) = 0.02408378
#
# Stress axis : x y z
#
# Youngs Moduli (GPa) = 30.09891 30.09883 79.46959
#
# Poissons Ratio (x) = 0.30317 0.69143
# Poissons Ratio (y) = 0.30317 0.69143
# Poissons Ratio (z) = 0.26188 0.26188
#
# Static dielectric constant tensor:
#      x y z
#    x 3.077820 0.000000 0.000000 
#    y 0.000000 3.077820 0.000000 
#    z 0.000000 0.000000 3.598530 
# 
# 
# High freq. dielectric constant tensor:
#      x y z
#    x 1.663330 0.000000 0.000000 
#    y 0.000000 1.663330 0.000000 
#    z 0.000000 0.000000 1.711360 
# 
# From -- ./inp_files/5914.got.cif
#   From: 2010.03.12/outbox.cif.g09.slc.cpg/sg115_3_cif.got.tgz:5914.got - 2010.04.14 02:11:21.
