data_PCOD8309537
_publ_section_title
;
Structure prediction by ZEFSAII (Michael W. Deem and Ramdas Pophale) SiO2 
 PCOD8309537
Probable space group: P -4 M 2
;
_chemical_formula_sum "Si O2"
_cell_formula_units_Z 56
_cell_length_a 14.606182
_cell_length_b 14.606182
_cell_length_c 14.311368
_cell_angle_alpha 90.000000
_cell_angle_beta 90.000000
_cell_angle_gamma 90.000000
_cell_volume 3053.195158
_symmetry_space_group_name_H-M "P -4 M 2"
_symmetry_group_IT_number 115
_symmetry_cell_setting 'tetragonal'
loop_
_space_group_symop_operation_xyz
x,y,z
y,-x,-z
-x,-y,z
-y,x,-z
y,x,-z
-y,-x,-z
-x,y,z
x,-y,z
loop_
_atom_site_type_symbol
_atom_site_label
_atom_site_fract_x
_atom_site_fract_y
_atom_site_fract_z
Si Si1 0.401309 0.105891 0.426702
Si Si2 0.748004 0.698125 0.258094
Si Si3 0.898906 0.393792 0.944040
Si Si4 0.606413 0.395100 0.390736
Si Si5 0.391368 0.726893 0.937940
Si Si6 0.608359 0.101983 0.627447
Si Si7 0.897582 0.283950 0.755104
O O1 0.500000 0.151682 0.403371
O O2 0.362805 0.144825 0.525824
O O3 0.335349 0.119180 0.341233
O O4 0.417897 0.000000 0.448304
O O5 0.666480 0.678113 0.332394
O O6 0.715392 0.655511 0.161406
O O7 0.840596 0.650902 0.289365
O O8 0.776946 0.805699 0.242866
O O9 0.882934 0.500000 0.927354
O O10 0.891235 0.351150 0.841975
O O11 0.000000 0.373552 0.986662
O O12 0.822073 0.356612 0.014832
O O13 0.623284 0.376717 0.500000
O O14 0.500000 0.380405 0.365541
O O15 0.635339 0.500000 0.366161
O O16 0.500000 0.723664 0.927145
O O17 0.358663 0.641338 0.000000
O O18 0.500000 0.104774 0.637225
O O19 0.646950 0.000000 0.640584
O O20 0.000000 0.235877 0.754461
#
# Coordination Sequence:
#
# PCOD8309537 Si02
#       7
#     8   8   8   8   8   8   8
#     4   8  15  29  49  75 108 141 174 219 275 326
#     4  12  23  35  57  82 109 144 191 225 278 332
#     4   9  18  35  58  80 104 136 178 230 284 329
#     4   9  20  37  53  76 113 153 191 225 258 312
#     4  11  23  39  54  77 109 143 186 230 274 329
#     4   9  19  35  54  80 113 145 181 230 281 328
#     4  10  20  33  52  79 110 141 179 228 279 329
#
# _framework density 18.341442000000001
#
# number of rings (size 3 to 8) (size 9 to 14) (size 15 to 20)
#    0.000    2.286    1.429    3.000    2.000    4.143 
#    0.000    1.429    0.000    0.429    0.000    0.000 
#    0.000    3.714    0.000    0.000    0.000    0.143 
#
# Total GULP energy -693781.839269 kJ/mol
# GULP energy per Si atom -12388.961416 kJ/mol
# Density = 1.829970 g / cm^3
# Si number density = 18.341442 Si / 1000 Ang^3
#
#
#
# Elastic Constant Matrix: (Units=GPa)
#
#
# Indices 1 2 3 4 5 6 
#
# 1 78.6087 22.8034 29.8550 0.0000 0.0000 0.0000
# 2 22.8034 78.6101 29.8555 0.0000 0.0000 0.0000
# 3 29.8550 29.8555 93.6004 0.0000 0.0000 0.0000
# 4 0.0000 0.0000 0.0000 23.8099 0.0000 0.0000
# 5 0.0000 0.0000 0.0000 0.0000 23.8095 0.0000
# 6 0.0000 0.0000 0.0000 0.0000 0.0000 12.1924
#
#
#
# Elastic Compliance Matrix: (Units=1/GPa)
#
#
# Indices 1 2 3 4 5 6 
#
# 1 0.015030 -0.002889 -0.003872 0.000000 0.000000 0.000000
# 2 -0.002889 0.015030 -0.003872 0.000000 0.000000 0.000000
# 3 -0.003872 -0.003872 0.013154 0.000000 0.000000 0.000000
# 4 0.000000 0.000000 0.000000 0.041999 0.000000 0.000000
# 5 0.000000 0.000000 0.000000 0.000000 0.042000 0.000000
# 6 0.000000 0.000000 0.000000 0.000000 0.000000 0.082018
#
#
# Mechanical properties :
#
#
# Convention : Reuss Voigt Hill
#
# Bulk Modulus (GPa) = 45.56703 46.20521 45.88612
# Shear Modulus (GPa) = 21.02473 23.18273 22.10373
#
# Velocity S-wave (km/s) = 3.38937 3.55907 3.47526
# Velocity P-wave (km/s) = 6.34152 6.49120 6.41679
#
# Compressibility (1/GPa) = 0.02194569
#
# Stress axis : x y z
#
# Youngs Moduli (GPa) = 66.53318 66.53420 76.02205
#
# Poissons Ratio (x) = 0.19223 0.29439
# Poissons Ratio (y) = 0.19223 0.29439
# Poissons Ratio (z) = 0.25765 0.25765
#
# Static dielectric constant tensor:
#      x y z
#    x 3.376160 0.000000 0.000000 
#    y 0.000000 3.376160 0.000000 
#    z 0.000000 0.000000 3.480610 
# 
# 
# High freq. dielectric constant tensor:
#      x y z
#    x 1.692140 0.000000 0.000000 
#    y 0.000000 1.692140 0.000000 
#    z 0.000000 0.000000 1.721990 
# 
# From -- ./inp_files/3874.got.cif
#   From: 2010.03.12/outbox.cif.g09.slc.cpg/sg115_2_cif.got.tgz:3874.got - 2010.04.14 02:11:21.
