data_PCOD8309226
_publ_section_title
;
Structure prediction by ZEFSAII (Michael W. Deem and Ramdas Pophale) SiO2 
 PCOD8309226
Probable space group: P -4 M 2
;
_chemical_formula_sum "Si O2"
_cell_formula_units_Z 56
_cell_length_a 14.043586
_cell_length_b 14.043586
_cell_length_c 15.785721
_cell_angle_alpha 90.000000
_cell_angle_beta 90.000000
_cell_angle_gamma 90.000000
_cell_volume 3113.296325
_symmetry_space_group_name_H-M "P -4 M 2"
_symmetry_group_IT_number 115
_symmetry_cell_setting 'tetragonal'
loop_
_space_group_symop_operation_xyz
x,y,z
y,-x,-z
-x,-y,z
-y,x,-z
y,x,-z
-y,-x,-z
-x,y,z
x,-y,z
loop_
_atom_site_type_symbol
_atom_site_label
_atom_site_fract_x
_atom_site_fract_y
_atom_site_fract_z
Si Si1 0.395480 0.887720 0.170838
Si Si2 0.717935 0.612195 0.575936
Si Si3 0.297884 0.612690 0.083096
Si Si4 0.608455 0.388405 0.745662
Si Si5 0.111614 0.897045 0.594454
Si Si6 0.104310 0.387136 0.013526
Si Si7 0.886920 0.701152 0.659703
O O1 0.500000 0.839880 0.182224
O O2 0.330099 0.852312 0.247406
O O3 0.407171 0.000000 0.176282
O O4 0.348710 0.862798 0.079548
O O5 0.670920 0.670920 0.500000
O O6 0.708661 0.500000 0.556627
O O7 0.664373 0.642373 0.661941
O O8 0.828909 0.640973 0.588795
O O9 0.312384 0.500000 0.083169
O O10 0.340303 0.655412 0.170324
O O11 0.185462 0.641139 0.080621
O O12 0.349680 0.650321 0.000000
O O13 0.500000 0.353722 0.733912
O O14 0.613489 0.500000 0.760540
O O15 0.137585 0.862416 0.500000
O O16 0.143482 0.812447 0.656572
O O17 0.000000 0.911938 0.600023
O O18 0.160088 0.000000 0.616877
O O19 0.095909 0.500000 0.003535
O O20 0.000000 0.346042 0.040457
O O21 0.000000 0.685910 0.642929
#
# Coordination Sequence:
#
# PCOD8309226 Si02
#       7
#     8   8   8   8   8   8   8
#     4   8  14  25  41  65  97 127 156 197 252 306
#     4  11  23  37  55  75  99 137 181 216 253 309
#     4  10  19  29  47  74 102 130 160 199 251 307
#     4   9  19  35  52  72  99 128 164 212 256 300
#     4   8  14  26  44  65  92 126 160 197 248 307
#     4   8  15  28  46  68  96 131 166 199 242 301
#     4  10  19  30  49  77 103 127 162 213 266 308
#
# _framework density 17.987366999999999
#
# number of rings (size 3 to 8) (size 9 to 14) (size 15 to 20)
#    0.000    2.857    0.000    3.000    2.000    2.286 
#    0.000    0.000    0.000    1.714    0.000    2.000 
#    0.000    0.286    0.000    0.000    0.000    0.000 
#
# Total GULP energy -693894.561493 kJ/mol
# GULP energy per Si atom -12390.974312 kJ/mol
# Density = 1.794643 g / cm^3
# Si number density = 17.987367 Si / 1000 Ang^3
#
#
#
# Elastic Constant Matrix: (Units=GPa)
#
#
# Indices 1 2 3 4 5 6 
#
# 1 65.0086 22.3935 47.4105 0.0000 0.0000 0.0000
# 2 22.3935 65.0095 47.4099 0.0000 0.0000 0.0000
# 3 47.4105 47.4099 113.4310 0.0000 0.0000 0.0000
# 4 0.0000 0.0000 0.0000 21.2144 0.0000 0.0000
# 5 0.0000 0.0000 0.0000 0.0000 21.2143 0.0000
# 6 0.0000 0.0000 0.0000 0.0000 0.0000 14.9876
#
#
#
# Elastic Compliance Matrix: (Units=1/GPa)
#
#
# Indices 1 2 3 4 5 6 
#
# 1 0.022200 -0.001266 -0.008750 0.000000 0.000000 0.000000
# 2 -0.001266 0.022199 -0.008749 0.000000 0.000000 0.000000
# 3 -0.008750 -0.008749 0.016130 0.000000 0.000000 0.000000
# 4 0.000000 0.000000 0.000000 0.047138 0.000000 0.000000
# 5 0.000000 0.000000 0.000000 0.000000 0.047138 0.000000
# 6 0.000000 0.000000 0.000000 0.000000 0.000000 0.066722
#
#
# Mechanical properties :
#
#
# Convention : Reuss Voigt Hill
#
# Bulk Modulus (GPa) = 43.48055 53.09743 48.28899
# Shear Modulus (GPa) = 18.74611 19.89896 19.32253
#
# Velocity S-wave (km/s) = 3.23179 3.32968 3.28110
# Velocity P-wave (km/s) = 6.17667 6.66076 6.42328
#
# Compressibility (1/GPa) = 0.02299879
#
# Stress axis : x y z
#
# Youngs Moduli (GPa) = 45.04556 45.04697 61.99719
#
# Poissons Ratio (x) = 0.05704 0.54245
# Poissons Ratio (y) = 0.05704 0.54242
# Poissons Ratio (z) = 0.39413 0.39412
#
# Static dielectric constant tensor:
#      x y z
#    x 3.056650 0.000000 0.000000 
#    y 0.000000 3.056560 0.000000 
#    z 0.000000 0.000000 3.472410 
# 
# 
# High freq. dielectric constant tensor:
#      x y z
#    x 1.682320 0.000000 0.000000 
#    y 0.000000 1.682320 0.000000 
#    z 0.000000 0.000000 1.684870 
# 
# From -- ./inp_files/3843.got.cif
#   From: 2010.03.12/outbox.cif.g09.slc.cpg/sg115_2_cif.got.tgz:3843.got - 2010.04.14 02:11:21.
