data_PCOD8309082
_publ_section_title
;
Structure prediction by ZEFSAII (Michael W. Deem and Ramdas Pophale) SiO2 
 PCOD8309082
Probable space group: P -4 21 C
;
_chemical_formula_sum "Si O2"
_cell_formula_units_Z 32
_cell_length_a 10.205973
_cell_length_b 10.205973
_cell_length_c 11.570786
_cell_angle_alpha 90.000000
_cell_angle_beta 90.000000
_cell_angle_gamma 90.000000
_cell_volume 1205.234879
_symmetry_space_group_name_H-M "P -4 21 C"
_symmetry_group_IT_number 114
_symmetry_cell_setting 'tetragonal'
loop_
_space_group_symop_operation_xyz
x,y,z
y,-x,-z
-x,-y,z
-y,x,-z
1/2+x,1/2-y,1/2-z
1/2-x,1/2+y,1/2-z
1/2-y,1/2-x,1/2+z
1/2+y,1/2+x,1/2+z
loop_
_atom_site_type_symbol
_atom_site_label
_atom_site_fract_x
_atom_site_fract_y
_atom_site_fract_z
Si Si1 0.461480 0.863825 0.263977
Si Si2 0.594812 0.391814 0.365183
Si Si3 0.028703 0.215714 0.656197
Si Si4 0.788826 0.367079 0.948113
O O1 0.490292 0.740738 0.347844
O O2 0.303386 0.880887 0.256101
O O3 0.532166 0.855264 0.141039
O O4 0.500000 0.000000 0.326097
O O5 0.500000 0.500000 0.425765
O O6 0.624520 0.439227 0.235042
O O7 0.726159 0.363843 0.440185
O O8 0.132807 0.139669 0.576690
O O9 0.927858 0.299518 0.576065
#
# Coordination Sequence:
#
# PCOD8309082 Si02
#       4
#     8   8   8   8
#     4  11  23  43  70 106 155 199 261 335 403 472
#     4  11  23  45  77 110 157 201 267 343 406 474
#     4  11  24  44  75 111 151 204 271 326 408 486
#     4  11  24  44  77 116 148 212 269 333 400 498
#
# _framework density 26.550840999999998
#
# number of rings (size 3 to 8) (size 9 to 14) (size 15 to 20)
#    0.000    1.000    5.000    1.500    0.000    1.000 
#    0.000    0.000    0.000    0.000    0.000    0.000 
#    0.000    0.000    0.000    0.000    0.000    0.000 
#
# Total GULP energy -396446.258415 kJ/mol
# GULP energy per Si atom -12388.945575 kJ/mol
# Density = 2.649041 g / cm^3
# Si number density = 26.550841 Si / 1000 Ang^3
#
#
#
# Elastic Constant Matrix: (Units=GPa)
#
#
# Indices 1 2 3 4 5 6 
#
# 1 150.3951 58.0026 52.1948 0.0000 0.0000 0.0000
# 2 58.0026 150.3951 52.1948 0.0000 0.0000 0.0000
# 3 52.1948 52.1948 103.5827 0.0000 0.0000 0.0000
# 4 0.0000 0.0000 0.0000 17.2886 0.0000 0.0000
# 5 0.0000 0.0000 0.0000 0.0000 17.2886 0.0000
# 6 0.0000 0.0000 0.0000 0.0000 0.0000 48.7739
#
#
#
# Elastic Compliance Matrix: (Units=1/GPa)
#
#
# Indices 1 2 3 4 5 6 
#
# 1 0.008621 -0.002202 -0.003234 0.000000 0.000000 0.000000
# 2 -0.002202 0.008621 -0.003234 0.000000 0.000000 0.000000
# 3 -0.003234 -0.003234 0.012914 0.000000 0.000000 0.000000
# 4 0.000000 0.000000 0.000000 0.057842 0.000000 0.000000
# 5 0.000000 0.000000 0.000000 0.000000 0.057842 0.000000
# 6 0.000000 0.000000 0.000000 0.000000 0.000000 0.020503
#
#
# Mechanical properties :
#
#
# Convention : Reuss Voigt Hill
#
# Bulk Modulus (GPa) = 78.04185 81.01747 79.52966
# Shear Modulus (GPa) = 26.60215 32.80228 29.70221
#
# Velocity S-wave (km/s) = 3.16877 3.51871 3.34831
# Velocity P-wave (km/s) = 6.54563 6.86213 6.70575
#
# Compressibility (1/GPa) = 0.01281364
#
# Stress axis : x y z
#
# Youngs Moduli (GPa) = 115.99568 115.99568 77.43754
#
# Poissons Ratio (x) = 0.25547 0.25046
# Poissons Ratio (y) = 0.25547 0.25046
# Poissons Ratio (z) = 0.37517 0.37517
#
# Static dielectric constant tensor:
#      x y z
#    x 5.176390 0.000000 0.000000 
#    y 0.000000 5.176390 0.000000 
#    z 0.000000 0.000000 4.171020 
# 
# 
# High freq. dielectric constant tensor:
#      x y z
#    x 2.078770 0.000000 0.000000 
#    y 0.000000 2.078770 0.000000 
#    z 0.000000 0.000000 2.046940 
# 
# From -- ./inp_files/1371.got.cif
#   From: 2010.03.12/outbox.cif.g09.slc.cpg/sg114_1_cif.got.tgz:1371.got - 2010.04.14 02:08:34.
