data_PCOD8309993
_publ_section_title
;
Structure prediction by ZEFSAII (Michael W. Deem and Ramdas Pophale) SiO2 
 PCOD8309993
Probable space group: P -4 M 2
;
_chemical_formula_sum "Si O2"
_cell_formula_units_Z 42
_cell_length_a 11.382129
_cell_length_b 11.382129
_cell_length_c 20.917728
_cell_angle_alpha 90.000000
_cell_angle_beta 90.000000
_cell_angle_gamma 90.000000
_cell_volume 2709.951499
_symmetry_space_group_name_H-M "P -4 M 2"
_symmetry_group_IT_number 115
_symmetry_cell_setting 'tetragonal'
loop_
_space_group_symop_operation_xyz
x,y,z
y,-x,-z
-x,-y,z
-y,x,-z
y,x,-z
-y,-x,-z
-x,y,z
x,-y,z
loop_
_atom_site_type_symbol
_atom_site_label
_atom_site_fract_x
_atom_site_fract_y
_atom_site_fract_z
Si Si1 0.630135 0.640388 0.432716
Si Si2 0.639360 0.237172 0.170622
Si Si3 0.241589 0.362911 0.059246
Si Si4 0.359792 0.368344 0.295524
Si Si5 0.253733 0.000000 0.119593
Si Si6 0.000000 0.000000 0.921169
Si Si7 0.255866 0.000000 0.970751
O O1 0.688395 0.688395 0.500000
O O2 0.500000 0.694207 0.429421
O O3 0.624156 0.500000 0.437315
O O4 0.692970 0.673711 0.365042
O O5 0.500000 0.227612 0.164827
O O6 0.684886 0.336854 0.122632
O O7 0.680326 0.276863 0.241303
O O8 0.695900 0.112603 0.155220
O O9 0.228062 0.500000 0.048652
O O10 0.113269 0.305901 0.065187
O O11 0.309093 0.309093 0.000000
O O12 0.500000 0.372448 0.300087
O O13 0.314080 0.500000 0.279069
O O14 0.112832 0.000000 0.125074
O O15 0.293172 0.000000 0.045274
O O16 0.115338 0.000000 0.966459
#
# Coordination Sequence:
#
# PCOD8309993 Si02
#       7
#     8   8   8   8   4   2   4
#     4   7   9  15  31  56  85 120 161 194 213 243
#     4  11  22  34  48  69  98 129 157 191 237 293
#     4  12  24  36  52  72  96 123 156 196 237 290
#     4   8  14  25  40  60  93 133 161 181 218 276
#     4  12  22  36  55  71  86 111 158 206 254 284
#     4  12  21  40  64  72  84 110 153 214 261 294
#     4  12  22  40  57  75  88 112 160 214 256 279
#
# _framework density 15.498431999999999
#
# number of rings (size 3 to 8) (size 9 to 14) (size 15 to 20)
#    0.000    1.905    3.810    4.286    0.000    2.857 
#    0.000    0.000    0.000    0.000    0.000    0.000 
#    0.000    3.048    0.000   20.571    0.000    5.143 
#
# Total GULP energy -520382.549876 kJ/mol
# GULP energy per Si atom -12390.060711 kJ/mol
# Density = 1.546316 g / cm^3
# Si number density = 15.498432 Si / 1000 Ang^3
#
#
#
# Elastic Constant Matrix: (Units=GPa)
#
#
# Indices 1 2 3 4 5 6 
#
# 1 72.4384 37.7588 39.5051 0.0000 0.0000 0.0000
# 2 37.7588 72.4384 39.5051 0.0000 0.0000 0.0000
# 3 39.5051 39.5051 145.2693 0.0000 0.0000 0.0000
# 4 0.0000 0.0000 0.0000 10.8384 0.0000 0.0000
# 5 0.0000 0.0000 0.0000 0.0000 10.8384 0.0000
# 6 0.0000 0.0000 0.0000 0.0000 0.0000 14.3873
#
#
#
# Elastic Compliance Matrix: (Units=1/GPa)
#
#
# Indices 1 2 3 4 5 6 
#
# 1 0.020054 -0.008781 -0.003066 0.000000 0.000000 0.000000
# 2 -0.008781 0.020054 -0.003066 0.000000 0.000000 0.000000
# 3 -0.003066 -0.003066 0.008551 0.000000 0.000000 0.000000
# 4 0.000000 0.000000 0.000000 0.092265 0.000000 0.000000
# 5 0.000000 0.000000 0.000000 0.000000 0.092265 0.000000
# 6 0.000000 0.000000 0.000000 0.000000 0.000000 0.069506
#
#
# Mechanical properties :
#
#
# Convention : Reuss Voigt Hill
#
# Bulk Modulus (GPa) = 53.09496 58.18711 55.64104
# Shear Modulus (GPa) = 14.75808 18.77129 16.76469
#
# Velocity S-wave (km/s) = 3.08917 3.48397 3.29249
# Velocity P-wave (km/s) = 6.85978 7.33549 7.10162
#
# Compressibility (1/GPa) = 0.01883418
#
# Stress axis : x y z
#
# Youngs Moduli (GPa) = 49.86547 49.86547 116.94465
#
# Poissons Ratio (x) = 0.43789 0.35849
# Poissons Ratio (y) = 0.43789 0.35849
# Poissons Ratio (z) = 0.15286 0.15286
#
# Static dielectric constant tensor:
#      x y z
#    x 2.835290 0.000000 0.000000 
#    y 0.000000 2.835290 0.000000 
#    z 0.000000 0.000000 3.576980 
# 
# 
# High freq. dielectric constant tensor:
#      x y z
#    x 1.567860 0.000000 0.000000 
#    y 0.000000 1.567860 0.000000 
#    z 0.000000 0.000000 1.599710 
# 
# From -- ./inp_files/4789.got.cif
#   From: 2010.03.12/outbox.cif.g09.slc.cpg/sg115_3_cif.got.tgz:4789.got - 2010.04.14 02:11:21.
