data_PCOD8309514
_publ_section_title
;
Structure prediction by ZEFSAII (Michael W. Deem and Ramdas Pophale) SiO2 
 PCOD8309514
Probable space group: P -4 M 2
;
_chemical_formula_sum "Si O2"
_cell_formula_units_Z 48
_cell_length_a 9.080453
_cell_length_b 9.080453
_cell_length_c 30.916482
_cell_angle_alpha 90.000000
_cell_angle_beta 90.000000
_cell_angle_gamma 90.000000
_cell_volume 2549.206982
_symmetry_space_group_name_H-M "P -4 M 2"
_symmetry_group_IT_number 115
_symmetry_cell_setting 'tetragonal'
loop_
_space_group_symop_operation_xyz
x,y,z
y,-x,-z
-x,-y,z
-y,x,-z
y,x,-z
-y,-x,-z
-x,y,z
x,-y,z
loop_
_atom_site_type_symbol
_atom_site_label
_atom_site_fract_x
_atom_site_fract_y
_atom_site_fract_z
Si Si1 0.836211 0.175064 0.046931
Si Si2 0.327891 0.670230 0.373790
Si Si3 0.169209 0.326761 0.868469
Si Si4 0.828934 0.328476 0.208929
Si Si5 0.330495 0.827472 0.461637
Si Si6 0.168179 0.174037 0.704435
O O1 0.730554 0.229036 0.085351
O O2 0.000000 0.239346 0.055411
O O3 0.843692 0.000000 0.045368
O O4 0.772973 0.227028 0.000000
O O5 0.500000 0.691971 0.365546
O O6 0.283133 0.500000 0.376357
O O7 0.278817 0.746632 0.418196
O O8 0.242655 0.745447 0.335109
O O9 0.185331 0.500000 0.867980
O O10 0.271318 0.260909 0.831685
O O11 0.000000 0.277412 0.860874
O O12 0.797378 0.500000 0.216002
O O13 0.772302 0.243009 0.251245
O O14 0.000000 0.296427 0.200422
O O15 0.228218 0.771783 0.500000
O O16 0.500000 0.789417 0.472425
O O17 0.306580 0.000000 0.454976
O O18 0.000000 0.229159 0.704155
O O19 0.178722 0.000000 0.700029
#
# Coordination Sequence:
#
# PCOD8309514 Si02
#       6
#     8   8   8   8   8   8
#     4   8  14  27  49  74  99 132 175 219 260 304
#     4  10  21  37  58  83 111 145 182 219 263 316
#     4  10  20  33  51  77 107 138 172 212 260 312
#     4  10  21  37  56  77 102 136 178 220 263 313
#     4  10  21  37  57  81 109 143 183 225 268 314
#     4  10  21  37  58  83 109 138 174 218 267 316
#
# _framework density 18.829384000000001
#
# number of rings (size 3 to 8) (size 9 to 14) (size 15 to 20)
#    0.000    2.333    0.000    3.000    0.000    6.333 
#    0.000    0.833    0.000    3.000    0.000    0.000 
#    0.000    0.000    0.000    0.000    0.000    0.000 
#
# Total GULP energy -595293.689933 kJ/mol
# GULP energy per Si atom -12401.951874 kJ/mol
# Density = 1.878653 g / cm^3
# Si number density = 18.829384 Si / 1000 Ang^3
#
#
#
# Elastic Constant Matrix: (Units=GPa)
#
#
# Indices 1 2 3 4 5 6 
#
# 1 73.7464 36.4064 58.5999 0.0000 0.0000 0.0000
# 2 36.4064 73.7454 58.5986 0.0000 0.0000 0.0000
# 3 58.5999 58.5986 165.7841 0.0000 0.0000 0.0000
# 4 0.0000 0.0000 0.0000 93.2518 0.0000 0.0000
# 5 0.0000 0.0000 0.0000 0.0000 93.2425 0.0000
# 6 0.0000 0.0000 0.0000 0.0000 0.0000 27.1447
#
#
#
# Elastic Compliance Matrix: (Units=1/GPa)
#
#
# Indices 1 2 3 4 5 6 
#
# 1 0.020666 -0.006115 -0.005143 0.000000 0.000000 0.000000
# 2 -0.006115 0.020666 -0.005143 0.000000 0.000000 0.000000
# 3 -0.005143 -0.005143 0.009668 0.000000 0.000000 0.000000
# 4 0.000000 0.000000 0.000000 0.010724 0.000000 0.000000
# 5 0.000000 0.000000 0.000000 0.000000 0.010725 0.000000
# 6 0.000000 0.000000 0.000000 0.000000 0.000000 0.036840
#
#
# Mechanical properties :
#
#
# Convention : Reuss Voigt Hill
#
# Bulk Modulus (GPa) = 54.95639 68.94283 61.94961
# Shear Modulus (GPa) = 33.74816 53.37253 43.56034
#
# Velocity S-wave (km/s) = 4.23817 5.32981 4.81502
# Velocity P-wave (km/s) = 7.29378 8.63538 7.99278
#
# Compressibility (1/GPa) = 0.01819625
#
# Stress axis : x y z
#
# Youngs Moduli (GPa) = 48.38900 48.38891 103.43641
#
# Poissons Ratio (x) = 0.29592 0.53199
# Poissons Ratio (y) = 0.29592 0.53197
# Poissons Ratio (z) = 0.24887 0.24886
#
# Static dielectric constant tensor:
#      x y z
#    x 3.217580 0.000000 0.000000 
#    y 0.000000 3.217550 0.000000 
#    z 0.000000 0.000000 3.740610 
# 
# 
# High freq. dielectric constant tensor:
#      x y z
#    x 1.721660 0.000000 0.000000 
#    y 0.000000 1.721660 0.000000 
#    z 0.000000 0.000000 1.748810 
# 
# From -- ./inp_files/5963.got.cif
#   From: 2010.03.12/outbox.cif.g09.slc.cpg/sg115_3_cif.got.tgz:5963.got - 2010.04.14 02:11:21.
