data_PCOD8309307
_publ_section_title
;
Structure prediction by ZEFSAII (Michael W. Deem and Ramdas Pophale) SiO2 
 PCOD8309307
Probable space group: P -4 M 2
;
_chemical_formula_sum "Si O2"
_cell_formula_units_Z 56
_cell_length_a 14.400385
_cell_length_b 14.400385
_cell_length_c 12.985562
_cell_angle_alpha 90.000000
_cell_angle_beta 90.000000
_cell_angle_gamma 90.000000
_cell_volume 2692.830122
_symmetry_space_group_name_H-M "P -4 M 2"
_symmetry_group_IT_number 115
_symmetry_cell_setting 'tetragonal'
loop_
_space_group_symop_operation_xyz
x,y,z
y,-x,-z
-x,-y,z
-y,x,-z
y,x,-z
-y,-x,-z
-x,y,z
x,-y,z
loop_
_atom_site_type_symbol
_atom_site_label
_atom_site_fract_x
_atom_site_fract_y
_atom_site_fract_z
Si Si1 0.643275 0.892632 0.088748
Si Si2 0.104502 0.601919 0.682332
Si Si3 0.853976 0.896894 0.113757
Si Si4 0.391001 0.606376 0.781116
Si Si5 0.602574 0.213233 0.892525
Si Si6 0.728380 0.285402 0.618299
Si Si7 0.895786 0.266785 0.253110
O O1 0.591518 0.877844 0.195883
O O2 0.749025 0.862597 0.104022
O O3 0.633525 0.000000 0.050025
O O4 0.600590 0.817301 0.011204
O O5 0.123460 0.500000 0.634095
O O6 0.166977 0.679814 0.631229
O O7 0.000000 0.634850 0.661203
O O8 0.904038 0.833068 0.197826
O O9 0.860168 0.000000 0.159577
O O10 0.897771 0.897771 0.000000
O O11 0.500000 0.604566 0.758250
O O12 0.357538 0.500000 0.805744
O O13 0.365957 0.678401 0.874861
O O14 0.340458 0.647280 0.680613
O O15 0.500000 0.204790 0.845363
O O16 0.664345 0.137682 0.835413
O O17 0.702614 0.297387 0.500000
O O18 0.726366 0.177299 0.652871
O O19 0.000000 0.292812 0.292166
#
# Coordination Sequence:
#
# PCOD8309307 Si02
#       7
#     8   8   8   8   8   8   8
#     4  10  19  33  57  89 126 165 200 239 287 345
#     4  10  21  38  62  92 123 155 197 251 307 362
#     4  11  21  35  56  84 121 158 196 239 282 336
#     4   9  20  40  64  91 122 157 201 249 299 362
#     4  10  20  35  59  89 123 162 198 237 289 351
#     4  11  24  41  63  87 115 151 197 257 318 375
#     4  11  23  39  58  83 116 156 200 244 296 356
#
# _framework density 20.795966
#
# number of rings (size 3 to 8) (size 9 to 14) (size 15 to 20)
#    0.000    1.714    2.857    1.714    0.000    4.429 
#    0.000    0.714    0.000    0.857    0.000    3.000 
#    0.000    0.000    0.000    0.000    0.000    0.000 
#
# Total GULP energy -694148.119023 kJ/mol
# GULP energy per Si atom -12395.502125 kJ/mol
# Density = 2.074863 g / cm^3
# Si number density = 20.795966 Si / 1000 Ang^3
#
#
#
# Elastic Constant Matrix: (Units=GPa)
#
#
# Indices 1 2 3 4 5 6 
#
# 1 115.3448 42.0979 23.6034 0.0000 0.0000 0.0000
# 2 42.0979 115.3445 23.6033 0.0000 0.0000 0.0000
# 3 23.6034 23.6033 58.3691 0.0000 0.0000 0.0000
# 4 0.0000 0.0000 0.0000 15.7411 0.0000 0.0000
# 5 0.0000 0.0000 0.0000 0.0000 15.7409 0.0000
# 6 0.0000 0.0000 0.0000 0.0000 0.0000 14.7839
#
#
#
# Elastic Compliance Matrix: (Units=1/GPa)
#
#
# Indices 1 2 3 4 5 6 
#
# 1 0.010440 -0.003212 -0.002923 0.000000 0.000000 0.000000
# 2 -0.003212 0.010440 -0.002923 0.000000 0.000000 0.000000
# 3 -0.002923 -0.002923 0.019496 0.000000 0.000000 0.000000
# 4 0.000000 0.000000 0.000000 0.063528 0.000000 0.000000
# 5 0.000000 0.000000 0.000000 0.000000 0.063529 0.000000
# 6 0.000000 0.000000 0.000000 0.000000 0.000000 0.067641
#
#
# Mechanical properties :
#
#
# Convention : Reuss Voigt Hill
#
# Bulk Modulus (GPa) = 44.92219 51.96307 48.44263
# Shear Modulus (GPa) = 19.18573 22.57011 20.87792
#
# Velocity S-wave (km/s) = 3.04068 3.29798 3.17194
# Velocity P-wave (km/s) = 5.82889 6.28837 6.06298
#
# Compressibility (1/GPa) = 0.02226071
#
# Stress axis : x y z
#
# Youngs Moduli (GPa) = 95.78385 95.78360 51.29199
#
# Poissons Ratio (x) = 0.30769 0.14992
# Poissons Ratio (y) = 0.30769 0.14992
# Poissons Ratio (z) = 0.27996 0.27996
#
# Static dielectric constant tensor:
#      x y z
#    x 3.736450 0.000000 0.000000 
#    y 0.000000 3.736420 0.000000 
#    z 0.000000 0.000000 3.392900 
# 
# 
# High freq. dielectric constant tensor:
#      x y z
#    x 1.827750 0.000000 0.000000 
#    y 0.000000 1.827750 0.000000 
#    z 0.000000 0.000000 1.768570 
# 
# From -- ./inp_files/3083.got.cif
#   From: 2010.03.12/outbox.cif.g09.slc.cpg/sg115_2_cif.got.tgz:3083.got - 2010.04.14 02:11:21.
