data_PCOD8309446
_publ_section_title
;
Structure prediction by ZEFSAII (Michael W. Deem and Ramdas Pophale) SiO2 
 PCOD8309446
Probable space group: P -4 M 2
;
_chemical_formula_sum "Si O2"
_cell_formula_units_Z 48
_cell_length_a 8.848539
_cell_length_b 8.848539
_cell_length_c 31.279850
_cell_angle_alpha 90.000000
_cell_angle_beta 90.000000
_cell_angle_gamma 90.000000
_cell_volume 2449.107231
_symmetry_space_group_name_H-M "P -4 M 2"
_symmetry_group_IT_number 115
_symmetry_cell_setting 'tetragonal'
loop_
_space_group_symop_operation_xyz
x,y,z
y,-x,-z
-x,-y,z
-y,x,-z
y,x,-z
-y,-x,-z
-x,y,z
x,-y,z
loop_
_atom_site_type_symbol
_atom_site_label
_atom_site_fract_x
_atom_site_fract_y
_atom_site_fract_z
Si Si1 0.825995 0.324457 0.539762
Si Si2 0.822025 0.326735 0.221528
Si Si3 0.180860 0.167677 0.954977
Si Si4 0.677736 0.826806 0.300822
Si Si5 0.672670 0.177558 0.619350
Si Si6 0.819742 0.169345 0.136547
O O1 0.725856 0.274144 0.500000
O O2 0.798434 0.500000 0.548391
O O3 0.779927 0.236070 0.582032
O O4 0.000000 0.289593 0.529126
O O5 0.778409 0.500000 0.229767
O O6 0.735650 0.220886 0.254521
O O7 0.766652 0.281183 0.174048
O O8 0.000000 0.299405 0.226877
O O9 0.225233 0.248375 0.909749
O O10 0.000000 0.160916 0.957492
O O11 0.249355 0.000000 0.953130
O O12 0.242326 0.242326 0.000000
O O13 0.500000 0.804649 0.303000
O O14 0.751934 0.719688 0.335861
O O15 0.723743 0.000000 0.309579
O O16 0.500000 0.222509 0.609111
O O17 0.692096 0.000000 0.623086
O O18 0.000000 0.167602 0.132856
O O19 0.761978 0.000000 0.147113
#
# Coordination Sequence:
#
# PCOD8309446 Si02
#       6
#     8   8   8   8   8   8
#     4  11  24  41  62  90 122 156 196 237 276 321
#     4  10  20  33  50  74 103 135 172 213 258 311
#     4   7   9  14  27  51  83 116 152 197 248 300
#     4  11  24  40  58  81 107 137 176 220 266 318
#     4  11  24  41  62  89 118 148 184 224 268 321
#     4   8  13  22  38  61  90 124 161 204 255 306
#
# _framework density 19.598977000000001
#
# number of rings (size 3 to 8) (size 9 to 14) (size 15 to 20)
#    0.000    2.333    0.000    5.000    0.000   11.000 
#    0.000    0.000    0.000    0.000    0.000    1.167 
#    0.000    6.667    0.000    0.000    0.000    0.000 
#
# Total GULP energy -594900.300934 kJ/mol
# GULP energy per Si atom -12393.756269 kJ/mol
# Density = 1.955437 g / cm^3
# Si number density = 19.598977 Si / 1000 Ang^3
#
#
#
# Elastic Constant Matrix: (Units=GPa)
#
#
# Indices 1 2 3 4 5 6 
#
# 1 51.7342 34.0584 26.5025 0.0000 0.0000 0.0000
# 2 34.0584 51.7341 26.5013 0.0000 0.0000 0.0000
# 3 26.5025 26.5013 135.1919 0.0000 0.0000 0.0000
# 4 0.0000 0.0000 0.0000 -47.5065 0.0000 0.0000
# 5 0.0000 0.0000 0.0000 0.0000 -47.4998 0.0000
# 6 0.0000 0.0000 0.0000 0.0000 0.0000 21.3961
#
#
#
# Elastic Compliance Matrix: (Units=1/GPa)
#
#
# Indices 1 2 3 4 5 6 
#
# 1 0.034919 -0.021656 -0.002600 0.000000 0.000000 0.000000
# 2 -0.021656 0.034918 -0.002600 0.000000 0.000000 0.000000
# 3 -0.002600 -0.002600 0.008416 0.000000 0.000000 0.000000
# 4 0.000000 0.000000 0.000000 -0.021050 0.000000 0.000000
# 5 0.000000 0.000000 0.000000 0.000000 -0.021053 0.000000
# 6 0.000000 0.000000 0.000000 0.000000 0.000000 0.046737
#
#
# Mechanical properties :
#
#
# Convention : Reuss Voigt Hill
#
# Bulk Modulus (GPa) = 40.74751 45.86495 43.30623
# Shear Modulus (GPa) = 34.53506 -4.61550 14.95978
#
# Velocity S-wave (km/s) = 4.20227 -1.53626 2.76577
# Velocity P-wave (km/s) = 6.66192 4.50619 5.68713
#
# Compressibility (1/GPa) = 0.02454138
#
# Stress axis : x y z
#
# Youngs Moduli (GPa) = 28.63797 28.63824 118.81863
#
# Poissons Ratio (x) = 0.62020 0.30894
# Poissons Ratio (y) = 0.62019 0.30887
# Poissons Ratio (z) = 0.07446 0.07445
#
# Static dielectric constant tensor:
#      x y z
#    x 3.361530 0.000000 0.000000 
#    y 0.000000 3.361530 0.000000 
#    z 0.000000 0.000000 3.506870 
# 
# 
# High freq. dielectric constant tensor:
#      x y z
#    x 1.734970 0.000000 0.000000 
#    y 0.000000 1.734970 0.000000 
#    z 0.000000 0.000000 1.793350 
# 
# From -- ./inp_files/6097.got.cif
#   From: 2010.03.12/outbox.cif.g09.slc.cpg/sg115_4_cif.got.tgz:6097.got - 2010.04.14 02:11:21.
