data_PCOD8309940
_publ_section_title
;
Structure prediction by ZEFSAII (Michael W. Deem and Ramdas Pophale) SiO2 
 PCOD8309940
Probable space group: P -4 M 2
;
_chemical_formula_sum "Si O2"
_cell_formula_units_Z 48
_cell_length_a 8.933606
_cell_length_b 8.933606
_cell_length_c 30.558502
_cell_angle_alpha 90.000000
_cell_angle_beta 90.000000
_cell_angle_gamma 90.000000
_cell_volume 2438.853148
_symmetry_space_group_name_H-M "P -4 M 2"
_symmetry_group_IT_number 115
_symmetry_cell_setting 'tetragonal'
loop_
_space_group_symop_operation_xyz
x,y,z
y,-x,-z
-x,-y,z
-y,x,-z
y,x,-z
-y,-x,-z
-x,y,z
x,-y,z
loop_
_atom_site_type_symbol
_atom_site_label
_atom_site_fract_x
_atom_site_fract_y
_atom_site_fract_z
Si Si1 0.323423 0.171090 0.668826
Si Si2 0.828420 0.828420 0.500000
Si Si3 0.326813 0.174294 0.410867
Si Si4 0.328657 0.676096 0.919790
Si Si5 0.826711 0.173290 0.000000
Si Si6 0.671575 0.175343 0.250234
Si Si7 0.824735 0.671822 0.170066
O O1 0.500000 0.185010 0.672014
O O2 0.271102 0.227883 0.621818
O O3 0.252975 0.273849 0.705869
O O4 0.271408 0.000000 0.675470
O O5 0.722711 0.783614 0.459801
O O6 0.000000 0.802296 0.485812
O O7 0.500000 0.215784 0.404865
O O8 0.297237 0.000000 0.401343
O O9 0.500000 0.722367 0.929836
O O10 0.310754 0.500000 0.916164
O O11 0.223516 0.734526 0.957963
O O12 0.273685 0.746598 0.874352
O O13 0.000000 0.205571 0.008963
O O14 0.500000 0.220283 0.241764
O O15 0.769525 0.226380 0.209397
O O16 0.691110 0.000000 0.256676
O O17 0.783162 0.500000 0.180427
O O18 0.000000 0.693970 0.164114
#
# Coordination Sequence:
#
# PCOD8309940 Si02
#       7
#     8   4   8   8   4   8   8
#     4  11  24  40  59  84 113 147 189 235 283 336
#     4   9  18  34  56  81 112 152 192 229 274 329
#     4  10  21  37  58  85 116 149 187 232 281 334
#     4  10  21  38  61  87 114 148 190 234 283 338
#     4  11  24  39  56  82 116 153 192 235 284 336
#     4  11  24  40  59  85 116 150 189 232 280 335
#     4  10  21  38  61  88 117 150 189 232 280 335
#
# _framework density 19.681381999999999
#
# number of rings (size 3 to 8) (size 9 to 14) (size 15 to 20)
#    0.000    1.667    0.000    4.000    0.000   12.667 
#    0.000    1.667    0.000    0.000    0.000    0.000 
#    0.000    0.000    0.000    0.000    0.000    0.000 
#
# Total GULP energy -595517.318870 kJ/mol
# GULP energy per Si atom -12406.610810 kJ/mol
# Density = 1.963659 g / cm^3
# Si number density = 19.681382 Si / 1000 Ang^3
#
#
#
# Elastic Constant Matrix: (Units=GPa)
#
#
# Indices 1 2 3 4 5 6 
#
# 1 68.0445 39.3388 36.4627 0.0000 0.0000 0.0000
# 2 39.3388 68.0444 36.4629 0.0000 0.0000 0.0000
# 3 36.4627 36.4629 108.0877 0.0000 0.0000 0.0000
# 4 0.0000 0.0000 0.0000 43.3452 0.0000 0.0000
# 5 0.0000 0.0000 0.0000 0.0000 43.3453 0.0000
# 6 0.0000 0.0000 0.0000 0.0000 0.0000 31.0855
#
#
#
# Elastic Compliance Matrix: (Units=1/GPa)
#
#
# Indices 1 2 3 4 5 6 
#
# 1 0.023458 -0.011378 -0.004075 0.000000 0.000000 0.000000
# 2 -0.011378 0.023458 -0.004075 0.000000 0.000000 0.000000
# 3 -0.004075 -0.004075 0.012001 0.000000 0.000000 0.000000
# 4 0.000000 0.000000 0.000000 0.023071 0.000000 0.000000
# 5 0.000000 0.000000 0.000000 0.000000 0.023071 0.000000
# 6 0.000000 0.000000 0.000000 0.000000 0.000000 0.032169
#
#
# Mechanical properties :
#
#
# Convention : Reuss Voigt Hill
#
# Bulk Modulus (GPa) = 50.35095 52.07838 51.21467
# Shear Modulus (GPa) = 27.33661 32.34934 29.84298
#
# Velocity S-wave (km/s) = 3.73092 4.05860 3.89820
# Velocity P-wave (km/s) = 6.64817 6.96284 6.80732
#
# Compressibility (1/GPa) = 0.01986060
#
# Stress axis : x y z
#
# Youngs Moduli (GPa) = 42.62931 42.62907 83.32520
#
# Poissons Ratio (x) = 0.48504 0.33955
# Poissons Ratio (y) = 0.48505 0.33956
# Poissons Ratio (z) = 0.17372 0.17372
#
# Static dielectric constant tensor:
#      x y z
#    x 3.661380 0.000000 0.000000 
#    y 0.000000 3.661390 0.000000 
#    z 0.000000 0.000000 3.818350 
# 
# 
# High freq. dielectric constant tensor:
#      x y z
#    x 1.772790 0.000000 0.000000 
#    y 0.000000 1.772790 0.000000 
#    z 0.000000 0.000000 1.780610 
# 
# From -- ./inp_files/6226.got.cif
#   From: 2010.03.12/outbox.cif.g09.slc.cpg/sg115_4_cif.got.tgz:6226.got - 2010.04.14 02:11:21.
