data_PCOD8309935
_publ_section_title
;
Structure prediction by ZEFSAII (Michael W. Deem and Ramdas Pophale) SiO2 
 PCOD8309935
Probable space group: P -4 M 2
;
_chemical_formula_sum "Si O2"
_cell_formula_units_Z 48
_cell_length_a 8.931971
_cell_length_b 8.931971
_cell_length_c 30.597718
_cell_angle_alpha 90.000000
_cell_angle_beta 90.000000
_cell_angle_gamma 90.000000
_cell_volume 2441.089184
_symmetry_space_group_name_H-M "P -4 M 2"
_symmetry_group_IT_number 115
_symmetry_cell_setting 'tetragonal'
loop_
_space_group_symop_operation_xyz
x,y,z
y,-x,-z
-x,-y,z
-y,x,-z
y,x,-z
-y,-x,-z
-x,y,z
x,-y,z
loop_
_atom_site_type_symbol
_atom_site_label
_atom_site_fract_x
_atom_site_fract_y
_atom_site_fract_z
Si Si1 0.176420 0.828598 0.870642
Si Si2 0.674600 0.828624 0.960471
Si Si3 0.673172 0.674309 0.209571
Si Si4 0.328624 0.825400 0.539529
Si Si5 0.671402 0.676420 0.629358
Si Si6 0.825691 0.173172 0.290429
O O1 0.240444 0.775680 0.917035
O O2 0.241236 0.720733 0.834032
O O3 0.000000 0.810228 0.871711
O O4 0.223536 0.000000 0.860692
O O5 0.500000 0.807340 0.952085
O O6 0.715494 0.000000 0.971753
O O7 0.724446 0.724446 0.000000
O O8 0.500000 0.707706 0.219393
O O9 0.703929 0.500000 0.202810
O O10 0.769754 0.730247 0.250000
O O11 0.224446 0.775554 0.500000
O O12 0.500000 0.784505 0.528247
O O13 0.275680 0.740445 0.582965
O O14 0.307341 0.000000 0.547915
O O15 0.500000 0.723536 0.639308
O O16 0.689771 0.500000 0.628288
O O17 0.779267 0.741235 0.665968
O O18 0.000000 0.203930 0.297190
O O19 0.792296 0.000000 0.280607
#
# Coordination Sequence:
#
# PCOD8309935 Si02
#       6
#     8   8   8   8   8   8
#     4  10  21  38  61  87 114 147 189 235 283 336
#     4  10  21  37  58  84 114 150 191 234 283 337
#     4  11  24  40  59  85 116 150 189 232 280 335
#     4  10  21  37  58  84 114 150 191 234 283 337
#     4  10  21  38  61  87 114 147 189 235 283 336
#     4  11  24  40  59  85 116 150 189 232 280 335
#
# _framework density 19.663354000000002
#
# number of rings (size 3 to 8) (size 9 to 14) (size 15 to 20)
#    0.000    1.667    0.000    4.000    0.000   12.000 
#    0.000    0.000    0.000    0.000    0.000    0.000 
#    0.000    0.000    0.000    0.000    0.000    0.000 
#
# Total GULP energy -595533.276416 kJ/mol
# GULP energy per Si atom -12406.943259 kJ/mol
# Density = 1.961860 g / cm^3
# Si number density = 19.663354 Si / 1000 Ang^3
#
#
#
# Elastic Constant Matrix: (Units=GPa)
#
#
# Indices 1 2 3 4 5 6 
#
# 1 72.6697 34.4023 43.4652 0.0000 0.0000 0.0000
# 2 34.4023 72.6697 43.4652 0.0000 0.0000 0.0000
# 3 43.4652 43.4652 125.8933 0.0000 0.0000 0.0000
# 4 0.0000 0.0000 0.0000 37.2232 0.0000 0.0000
# 5 0.0000 0.0000 0.0000 0.0000 37.2232 0.0000
# 6 0.0000 0.0000 0.0000 0.0000 0.0000 32.3714
#
#
#
# Elastic Compliance Matrix: (Units=1/GPa)
#
#
# Indices 1 2 3 4 5 6 
#
# 1 0.019555 -0.006577 -0.004480 0.000000 0.000000 0.000000
# 2 -0.006577 0.019555 -0.004480 0.000000 0.000000 0.000000
# 3 -0.004480 -0.004480 0.011037 0.000000 0.000000 0.000000
# 4 0.000000 0.000000 0.000000 0.026865 0.000000 0.000000
# 5 0.000000 0.000000 0.000000 0.000000 0.026865 0.000000
# 6 0.000000 0.000000 0.000000 0.000000 0.000000 0.030891
#
#
# Mechanical properties :
#
#
# Convention : Reuss Voigt Hill
#
# Bulk Modulus (GPa) = 52.43955 57.09981 54.76968
# Shear Modulus (GPa) = 29.03594 31.35688 30.19641
#
# Velocity S-wave (km/s) = 3.84689 3.99768 3.92301
# Velocity P-wave (km/s) = 6.81601 7.10003 6.95947
#
# Compressibility (1/GPa) = 0.01906957
#
# Stress axis : x y z
#
# Youngs Moduli (GPa) = 51.13911 51.13911 90.60444
#
# Poissons Ratio (x) = 0.33636 0.40594
# Poissons Ratio (y) = 0.33636 0.40594
# Poissons Ratio (z) = 0.22912 0.22912
#
# Static dielectric constant tensor:
#      x y z
#    x 3.642170 0.000000 0.000000 
#    y 0.000000 3.642170 0.000000 
#    z 0.000000 0.000000 4.023090 
# 
# 
# High freq. dielectric constant tensor:
#      x y z
#    x 1.772080 0.000000 0.000000 
#    y 0.000000 1.772080 0.000000 
#    z 0.000000 0.000000 1.779360 
# 
# From -- ./inp_files/5971.got.cif
#   From: 2010.03.12/outbox.cif.g09.slc.cpg/sg115_3_cif.got.tgz:5971.got - 2010.04.14 02:11:21.
