data_PCOD8309376
_publ_section_title
;
Structure prediction by ZEFSAII (Michael W. Deem and Ramdas Pophale) SiO2 
 PCOD8309376
Probable space group: P -4 M 2
;
_chemical_formula_sum "Si O2"
_cell_formula_units_Z 48
_cell_length_a 9.429831
_cell_length_b 9.429831
_cell_length_c 30.436752
_cell_angle_alpha 90.000000
_cell_angle_beta 90.000000
_cell_angle_gamma 90.000000
_cell_volume 2706.488117
_symmetry_space_group_name_H-M "P -4 M 2"
_symmetry_group_IT_number 115
_symmetry_cell_setting 'tetragonal'
loop_
_space_group_symop_operation_xyz
x,y,z
y,-x,-z
-x,-y,z
-y,x,-z
y,x,-z
-y,-x,-z
-x,y,z
x,-y,z
loop_
_atom_site_type_symbol
_atom_site_label
_atom_site_fract_x
_atom_site_fract_y
_atom_site_fract_z
Si Si1 0.661843 0.663241 0.051011
Si Si2 0.831274 0.658002 0.798119
Si Si3 0.163073 0.832390 0.120009
Si Si4 0.331274 0.841998 0.298119
Si Si5 0.332390 0.663073 0.379991
Si Si6 0.161843 0.836759 0.551010
O O1 0.500000 0.703044 0.062676
O O2 0.691460 0.500000 0.062810
O O3 0.767235 0.762241 0.077695
O O4 0.691405 0.691405 0.000000
O O5 0.769880 0.500000 0.806823
O O6 0.773831 0.762178 0.835810
O O7 0.784019 0.715981 0.750000
O O8 0.000000 0.651615 0.798541
O O9 0.000000 0.787413 0.122346
O O10 0.182066 0.000000 0.115602
O O11 0.500000 0.848385 0.298541
O O12 0.273831 0.737822 0.335810
O O13 0.269880 0.000000 0.306823
O O14 0.500000 0.682067 0.384399
O O15 0.287414 0.500000 0.377654
O O16 0.262240 0.732764 0.422305
O O17 0.191405 0.808595 0.500000
O O18 0.000000 0.796954 0.562675
O O19 0.191458 0.000000 0.562810
#
# Coordination Sequence:
#
# PCOD8309376 Si02
#       6
#     8   8   8   8   8   8
#     4   9  19  36  55  73  94 124 165 208 246 288
#     4   8  14  27  48  70  92 125 170 211 241 275
#     4  10  20  32  48  74 106 134 160 195 242 294
#     4   8  14  27  48  70  92 125 170 211 241 275
#     4  10  20  32  48  74 106 134 160 195 242 294
#     4   9  19  36  55  73  94 124 165 208 246 288
#
# _framework density 17.735161999999999
#
# number of rings (size 3 to 8) (size 9 to 14) (size 15 to 20)
#    0.000    3.000    0.000    3.000    0.000    4.000 
#    0.000    6.667    0.000    6.000    0.000    0.000 
#    0.000    0.000    0.000    0.000    0.000    0.000 
#
# Total GULP energy -595092.124693 kJ/mol
# GULP energy per Si atom -12397.752598 kJ/mol
# Density = 1.769480 g / cm^3
# Si number density = 17.735162 Si / 1000 Ang^3
#
#
#
# Elastic Constant Matrix: (Units=GPa)
#
#
# Indices 1 2 3 4 5 6 
#
# 1 79.6075 45.7277 61.9226 0.0000 0.0000 0.0000
# 2 45.7277 79.6075 61.9226 0.0000 0.0000 0.0000
# 3 61.9226 61.9226 122.3278 0.0000 0.0000 0.0000
# 4 0.0000 0.0000 0.0000 27.3942 0.0000 0.0000
# 5 0.0000 0.0000 0.0000 0.0000 27.3941 0.0000
# 6 0.0000 0.0000 0.0000 0.0000 0.0000 24.9483
#
#
#
# Elastic Compliance Matrix: (Units=1/GPa)
#
#
# Indices 1 2 3 4 5 6 
#
# 1 0.022740 -0.006777 -0.008081 0.000000 0.000000 0.000000
# 2 -0.006777 0.022740 -0.008081 0.000000 0.000000 0.000000
# 3 -0.008081 -0.008081 0.016356 0.000000 0.000000 0.000000
# 4 0.000000 0.000000 0.000000 0.036504 0.000000 0.000000
# 5 0.000000 0.000000 0.000000 0.000000 0.036504 0.000000
# 6 0.000000 0.000000 0.000000 0.000000 0.000000 0.040083
#
#
# Mechanical properties :
#
#
# Convention : Reuss Voigt Hill
#
# Bulk Modulus (GPa) = 62.65855 68.96541 65.81198
# Shear Modulus (GPa) = 22.11205 23.41197 22.76201
#
# Velocity S-wave (km/s) = 3.53482 3.63724 3.58640
# Velocity P-wave (km/s) = 7.21573 7.52397 7.37146
#
# Compressibility (1/GPa) = 0.01595951
#
# Stress axis : x y z
#
# Youngs Moduli (GPa) = 43.97613 43.97613 61.14141
#
# Poissons Ratio (x) = 0.29801 0.49406
# Poissons Ratio (y) = 0.29801 0.49406
# Poissons Ratio (z) = 0.35535 0.35535
#
# Static dielectric constant tensor:
#      x y z
#    x 3.121280 0.000000 0.000000 
#    y 0.000000 3.121280 0.000000 
#    z 0.000000 0.000000 3.499300 
# 
# 
# High freq. dielectric constant tensor:
#      x y z
#    x 1.664850 0.000000 0.000000 
#    y 0.000000 1.664850 0.000000 
#    z 0.000000 0.000000 1.699710 
# 
# From -- ./inp_files/5915.got.cif
#   From: 2010.03.12/outbox.cif.g09.slc.cpg/sg115_3_cif.got.tgz:5915.got - 2010.04.14 02:11:21.
