data_PCOD8309015
_publ_section_title
;
Structure prediction by ZEFSAII (Michael W. Deem and Ramdas Pophale) SiO2 
 PCOD8309015
Probable space group: P -4 21 C
;
_chemical_formula_sum "Si O2"
_cell_formula_units_Z 48
_cell_length_a 13.890422
_cell_length_b 13.890422
_cell_length_c 11.729326
_cell_angle_alpha 90.000000
_cell_angle_beta 90.000000
_cell_angle_gamma 90.000000
_cell_volume 2263.101004
_symmetry_space_group_name_H-M "P -4 21 C"
_symmetry_group_IT_number 114
_symmetry_cell_setting 'tetragonal'
loop_
_space_group_symop_operation_xyz
x,y,z
y,-x,-z
-x,-y,z
-y,x,-z
1/2+x,1/2-y,1/2-z
1/2-x,1/2+y,1/2-z
1/2-y,1/2-x,1/2+z
1/2+y,1/2+x,1/2+z
loop_
_atom_site_type_symbol
_atom_site_label
_atom_site_fract_x
_atom_site_fract_y
_atom_site_fract_z
Si Si1 0.174665 0.811738 0.408976
Si Si2 0.522377 0.732193 0.899045
Si Si3 0.585863 0.427150 0.293157
Si Si4 0.888176 0.252360 0.946372
Si Si5 0.438129 0.095499 0.727245
Si Si6 0.231334 0.060026 0.795856
O O1 0.224053 0.912283 0.444030
O O2 0.251387 0.724457 0.408752
O O3 0.134624 0.830789 0.280936
O O4 0.089388 0.774518 0.490820
O O5 0.552950 0.640627 0.824125
O O6 0.535989 0.833334 0.832649
O O7 0.500000 0.500000 0.313364
O O8 0.657561 0.439771 0.398688
O O9 0.543652 0.319089 0.295090
O O10 0.942628 0.344920 0.891451
O O11 0.895570 0.249227 0.080797
O O12 0.333269 0.050185 0.736433
O O13 0.500000 0.000000 0.722059
#
# Coordination Sequence:
#
# PCOD8309015 Si02
#       6
#     8   8   8   8   8   8
#     4  11  23  43  69 100 140 180 225 289 346 414
#     4  11  23  44  68 106 138 179 236 285 350 427
#     4  11  24  42  68 100 135 185 228 289 353 411
#     4  10  25  43  64 100 138 175 233 287 346 415
#     4  10  24  46  67  94 134 184 233 280 347 421
#     4  11  23  43  63  96 138 175 224 286 340 414
#
# _framework density 21.209834000000001
#
# number of rings (size 3 to 8) (size 9 to 14) (size 15 to 20)
#    0.000    1.333    3.333    1.000    4.667    0.667 
#    0.000    1.667    0.000    0.000    0.000    0.000 
#    0.000    0.000    0.000    0.000    0.000    0.000 
#
# Total GULP energy -595125.813866 kJ/mol
# GULP energy per Si atom -12398.454456 kJ/mol
# Density = 2.116156 g / cm^3
# Si number density = 21.209834 Si / 1000 Ang^3
#
#
#
# Elastic Constant Matrix: (Units=GPa)
#
#
# Indices 1 2 3 4 5 6 
#
# 1 110.3188 63.3580 32.5016 0.0000 0.0000 0.0000
# 2 63.3580 110.3188 32.5016 0.0000 0.0000 0.0000
# 3 32.5016 32.5016 126.1357 0.0000 0.0000 0.0000
# 4 0.0000 0.0000 0.0000 23.0023 0.0000 0.0000
# 5 0.0000 0.0000 0.0000 0.0000 23.0023 0.0000
# 6 0.0000 0.0000 0.0000 0.0000 0.0000 40.0683
#
#
#
# Elastic Compliance Matrix: (Units=1/GPa)
#
#
# Indices 1 2 3 4 5 6 
#
# 1 0.013833 -0.007461 -0.001642 0.000000 0.000000 0.000000
# 2 -0.007461 0.013833 -0.001642 0.000000 0.000000 0.000000
# 3 -0.001642 -0.001642 0.008774 0.000000 0.000000 0.000000
# 4 0.000000 0.000000 0.000000 0.043474 0.000000 0.000000
# 5 0.000000 0.000000 0.000000 0.000000 0.043474 0.000000
# 6 0.000000 0.000000 0.000000 0.000000 0.000000 0.024957
#
#
# Mechanical properties :
#
#
# Convention : Reuss Voigt Hill
#
# Bulk Modulus (GPa) = 66.88525 67.05509 66.97017
# Shear Modulus (GPa) = 28.60087 31.77536 30.18811
#
# Velocity S-wave (km/s) = 3.67614 3.87478 3.77677
# Velocity P-wave (km/s) = 7.04430 7.19043 7.11774
#
# Compressibility (1/GPa) = 0.01495098
#
# Stress axis : x y z
#
# Youngs Moduli (GPa) = 72.28894 72.28894 113.97108
#
# Poissons Ratio (x) = 0.53935 0.18714
# Poissons Ratio (y) = 0.53935 0.18714
# Poissons Ratio (z) = 0.11870 0.11870
#
# Static dielectric constant tensor:
#      x y z
#    x 3.955120 0.000000 0.000000 
#    y 0.000000 3.955120 0.000000 
#    z 0.000000 0.000000 3.865900 
# 
# 
# High freq. dielectric constant tensor:
#      x y z
#    x 1.833370 0.000000 0.000000 
#    y 0.000000 1.833370 0.000000 
#    z 0.000000 0.000000 1.837300 
# 
# From -- ./inp_files/1663.got.cif
#   From: 2010.03.12/outbox.cif.g09.slc.cpg/sg114_1_cif.got.tgz:1663.got - 2010.04.14 02:08:34.
