data_PCOD8309283
_publ_section_title
;
Structure prediction by ZEFSAII (Michael W. Deem and Ramdas Pophale) SiO2 
 PCOD8309283
Probable space group: P -4 M 2
;
_chemical_formula_sum "Si O2"
_cell_formula_units_Z 48
_cell_length_a 8.152164
_cell_length_b 8.152164
_cell_length_c 34.163858
_cell_angle_alpha 90.000000
_cell_angle_beta 90.000000
_cell_angle_gamma 90.000000
_cell_volume 2270.454087
_symmetry_space_group_name_H-M "P -4 M 2"
_symmetry_group_IT_number 115
_symmetry_cell_setting 'tetragonal'
loop_
_space_group_symop_operation_xyz
x,y,z
y,-x,-z
-x,-y,z
-y,x,-z
y,x,-z
-y,-x,-z
-x,y,z
x,-y,z
loop_
_atom_site_type_symbol
_atom_site_label
_atom_site_fract_x
_atom_site_fract_y
_atom_site_fract_z
Si Si1 0.808803 0.179899 0.541577
Si Si2 0.695492 0.500000 0.746651
Si Si3 0.685077 0.816450 0.961743
Si Si4 0.313294 0.315588 0.381084
Si Si5 0.500000 0.192961 0.165192
Si Si6 0.811383 0.184281 0.879448
Si Si7 0.695242 0.182785 0.699206
O O1 0.743191 0.256810 0.500000
O O2 0.780432 0.296798 0.578399
O O3 0.000000 0.161386 0.534652
O O4 0.731114 0.000000 0.550468
O O5 0.500000 0.500000 0.747866
O O6 0.769060 0.500000 0.789451
O O7 0.762024 0.332237 0.726063
O O8 0.500000 0.801893 0.946746
O O9 0.795523 0.763059 0.924928
O O10 0.730982 0.000000 0.974803
O O11 0.705549 0.705549 0.000000
O O12 0.500000 0.308492 0.366717
O O13 0.256166 0.500000 0.389623
O O14 0.207182 0.239917 0.345366
O O15 0.331631 0.269036 0.146404
O O16 0.500000 0.000000 0.156918
O O17 0.000000 0.170787 0.868094
O O18 0.731951 0.000000 0.872469
O O19 0.500000 0.193754 0.698776
O O20 0.752231 0.000000 0.713781
#
# Coordination Sequence:
#
# PCOD8309283 Si02
#       7
#     8   4   8   8   4   8   8
#     4   9  19  35  51  69  99 139 181 222 266 323
#     4  10  20  36  56  82 110 138 180 226 276 338
#     4  10  21  35  53  80 113 147 186 233 281 331
#     4  10  19  32  52  78 106 135 174 224 271 324
#     4  10  22  38  58  82 110 146 184 230 286 340
#     4   9  19  37  58  78 106 148 192 230 274 336
#     4   9  17  32  55  80 108 141 176 220 276 335
#
# _framework density 21.141145999999999
#
# number of rings (size 3 to 8) (size 9 to 14) (size 15 to 20)
#    0.000    2.500    0.833    1.500    1.167    4.333 
#    0.000    3.333    0.000    1.000    0.000    0.000 
#    0.000    0.000    0.000    0.000    0.000    0.000 
#
# Total GULP energy -594735.050195 kJ/mol
# GULP energy per Si atom -12390.313546 kJ/mol
# Density = 2.109303 g / cm^3
# Si number density = 21.141146 Si / 1000 Ang^3
#
#
#
# Elastic Constant Matrix: (Units=GPa)
#
#
# Indices 1 2 3 4 5 6 
#
# 1 74.0900 21.5771 43.0772 0.0000 0.0000 0.0000
# 2 21.5771 74.0899 43.0773 0.0000 0.0000 0.0000
# 3 43.0772 43.0773 148.4022 0.0000 0.0000 0.0000
# 4 0.0000 0.0000 0.0000 32.1475 0.0000 0.0000
# 5 0.0000 0.0000 0.0000 0.0000 32.1475 0.0000
# 6 0.0000 0.0000 0.0000 0.0000 0.0000 13.8315
#
#
#
# Elastic Compliance Matrix: (Units=1/GPa)
#
#
# Indices 1 2 3 4 5 6 
#
# 1 0.016598 -0.002445 -0.004108 0.000000 0.000000 0.000000
# 2 -0.002445 0.016598 -0.004108 0.000000 0.000000 0.000000
# 3 -0.004108 -0.004108 0.009123 0.000000 0.000000 0.000000
# 4 0.000000 0.000000 0.000000 0.031107 0.000000 0.000000
# 5 0.000000 0.000000 0.000000 0.000000 0.031107 0.000000
# 6 0.000000 0.000000 0.000000 0.000000 0.000000 0.072299
#
#
# Mechanical properties :
#
#
# Convention : Reuss Voigt Hill
#
# Bulk Modulus (GPa) = 47.62802 56.89392 52.26097
# Shear Modulus (GPa) = 24.37212 28.21534 26.29373
#
# Velocity S-wave (km/s) = 3.39902 3.65720 3.53047
# Velocity P-wave (km/s) = 6.16295 6.69354 6.43371
#
# Compressibility (1/GPa) = 0.02099604
#
# Stress axis : x y z
#
# Youngs Moduli (GPa) = 60.24919 60.24912 109.60827
#
# Poissons Ratio (x) = 0.14732 0.45028
# Poissons Ratio (y) = 0.14732 0.45028
# Poissons Ratio (z) = 0.24751 0.24751
#
# Static dielectric constant tensor:
#      x y z
#    x 3.754250 0.000000 0.000000 
#    y 0.000000 3.754250 0.000000 
#    z 0.000000 0.000000 3.731370 
# 
# 
# High freq. dielectric constant tensor:
#      x y z
#    x 1.809780 0.000000 0.000000 
#    y 0.000000 1.809780 0.000000 
#    z 0.000000 0.000000 1.827190 
# 
# From -- ./inp_files/6163.got.cif
#   From: 2010.03.12/outbox.cif.g09.slc.cpg/sg115_4_cif.got.tgz:6163.got - 2010.04.14 02:11:21.
