data_PCOD8309116
_publ_section_title
;
Structure prediction by ZEFSAII (Michael W. Deem and Ramdas Pophale) SiO2 
 PCOD8309116
Probable space group: P -4 21 C
;
_chemical_formula_sum "Si O2"
_cell_formula_units_Z 40
_cell_length_a 8.463849
_cell_length_b 8.463849
_cell_length_c 24.027975
_cell_angle_alpha 90.000000
_cell_angle_beta 90.000000
_cell_angle_gamma 90.000000
_cell_volume 1721.285795
_symmetry_space_group_name_H-M "P -4 21 C"
_symmetry_group_IT_number 114
_symmetry_cell_setting 'tetragonal'
loop_
_space_group_symop_operation_xyz
x,y,z
y,-x,-z
-x,-y,z
-y,x,-z
1/2+x,1/2-y,1/2-z
1/2-x,1/2+y,1/2-z
1/2-y,1/2-x,1/2+z
1/2+y,1/2+x,1/2+z
loop_
_atom_site_type_symbol
_atom_site_label
_atom_site_fract_x
_atom_site_fract_y
_atom_site_fract_z
Si Si1 0.268189 0.383266 0.508209
Si Si2 0.754198 0.164155 0.380015
Si Si3 0.163135 0.740423 0.681542
Si Si4 0.328119 0.931275 0.595598
Si Si5 0.163715 0.931910 0.791881
O O1 0.289714 0.567055 0.494087
O O2 0.192825 0.366261 0.569134
O O3 0.147365 0.307017 0.464640
O O4 0.712234 0.285040 0.330766
O O5 0.933625 0.194687 0.399074
O O6 0.731070 0.988567 0.357769
O O7 0.306873 0.799233 0.643157
O O8 0.203378 0.569211 0.707119
O O9 0.136299 0.867529 0.730002
O O10 0.500000 0.000000 0.604072
O O11 0.000000 0.000000 0.814920
#
# Coordination Sequence:
#
# PCOD8309116 Si02
#       5
#     8   8   8   8   8
#     4  11  26  48  75 111 149 202 257 314 382 472
#     4  12  27  47  76 113 154 199 257 325 397 466
#     4  12  27  48  76 110 154 197 261 320 396 470
#     4  12  25  46  72 110 148 199 250 317 385 467
#     4  12  26  47  76 109 149 204 252 322 384 477
#
# _framework density 23.238444000000001
#
# number of rings (size 3 to 8) (size 9 to 14) (size 15 to 20)
#    0.000    0.200    2.000    7.200    5.600    3.200 
#    0.000    0.000    0.000    0.000    0.000    0.000 
#    0.000    0.000    0.000    0.000    0.000    0.000 
#
# Total GULP energy -496356.357295 kJ/mol
# GULP energy per Si atom -12408.908932 kJ/mol
# Density = 2.318555 g / cm^3
# Si number density = 23.238444 Si / 1000 Ang^3
#
#
#
# Elastic Constant Matrix: (Units=GPa)
#
#
# Indices 1 2 3 4 5 6 
#
# 1 114.8247 33.5740 47.8218 0.0000 0.0000 0.0000
# 2 33.5740 114.8247 47.8218 0.0000 0.0000 0.0000
# 3 47.8218 47.8218 144.3229 0.0000 0.0000 0.0000
# 4 0.0000 0.0000 0.0000 47.2576 0.0000 0.0000
# 5 0.0000 0.0000 0.0000 0.0000 47.2576 0.0000
# 6 0.0000 0.0000 0.0000 0.0000 0.0000 38.0238
#
#
#
# Elastic Compliance Matrix: (Units=1/GPa)
#
#
# Indices 1 2 3 4 5 6 
#
# 1 0.010438 -0.001870 -0.002839 0.000000 0.000000 0.000000
# 2 -0.001870 0.010438 -0.002839 0.000000 0.000000 0.000000
# 3 -0.002839 -0.002839 0.008810 0.000000 0.000000 0.000000
# 4 0.000000 0.000000 0.000000 0.021161 0.000000 0.000000
# 5 0.000000 0.000000 0.000000 0.000000 0.021161 0.000000
# 6 0.000000 0.000000 0.000000 0.000000 0.000000 0.026299
#
#
# Mechanical properties :
#
#
# Convention : Reuss Voigt Hill
#
# Bulk Modulus (GPa) = 68.53709 70.26753 69.40231
# Shear Modulus (GPa) = 42.27742 42.82479 42.55110
#
# Velocity S-wave (km/s) = 4.26994 4.29749 4.28374
# Velocity P-wave (km/s) = 7.33940 7.41133 7.37546
#
# Compressibility (1/GPa) = 0.01459064
#
# Stress axis : x y z
#
# Youngs Moduli (GPa) = 95.80353 95.80353 113.50152
#
# Poissons Ratio (x) = 0.17911 0.32225
# Poissons Ratio (y) = 0.17911 0.32225
# Poissons Ratio (z) = 0.27200 0.27200
#
# Static dielectric constant tensor:
#      x y z
#    x 4.327750 0.000000 0.000000 
#    y 0.000000 4.327750 0.000000 
#    z 0.000000 0.000000 4.234190 
# 
# 
# High freq. dielectric constant tensor:
#      x y z
#    x 1.927980 0.000000 0.000000 
#    y 0.000000 1.927980 0.000000 
#    z 0.000000 0.000000 1.929780 
# 
# From -- ./inp_files/3360.got.cif
#   From: 2010.03.12/outbox.cif.g09.slc.cpg/sg114_2_cif.got.tgz:3360.got - 2010.04.14 02:08:34.
