data_PCOD8309010
_publ_section_title
;
Structure prediction by ZEFSAII (Michael W. Deem and Ramdas Pophale) SiO2 
 PCOD8309010
Probable space group: P -4 21 C
;
_chemical_formula_sum "Si O2"
_cell_formula_units_Z 40
_cell_length_a 8.665911
_cell_length_b 8.665911
_cell_length_c 23.786528
_cell_angle_alpha 90.000000
_cell_angle_beta 90.000000
_cell_angle_gamma 90.000000
_cell_volume 1786.321000
_symmetry_space_group_name_H-M "P -4 21 C"
_symmetry_group_IT_number 114
_symmetry_cell_setting 'tetragonal'
loop_
_space_group_symop_operation_xyz
x,y,z
y,-x,-z
-x,-y,z
-y,x,-z
1/2+x,1/2-y,1/2-z
1/2-x,1/2+y,1/2-z
1/2-y,1/2-x,1/2+z
1/2+y,1/2+x,1/2+z
loop_
_atom_site_type_symbol
_atom_site_label
_atom_site_fract_x
_atom_site_fract_y
_atom_site_fract_z
Si Si1 0.110284 0.370466 0.715636
Si Si2 0.006623 0.183671 0.608223
Si Si3 0.159032 0.409058 0.530766
Si Si4 0.183573 0.817543 0.079725
Si Si5 0.867518 0.893921 0.801545
O O1 0.031387 0.268819 0.667480
O O2 0.176775 0.249783 0.761279
O O3 0.235237 0.481145 0.687385
O O4 0.000000 0.500000 0.744555
O O5 0.134680 0.243247 0.562367
O O6 0.841380 0.229344 0.587031
O O7 0.000000 0.000000 0.615384
O O8 0.215088 0.402968 0.466757
O O9 0.291944 0.506132 0.561856
O O10 0.000000 0.500000 0.532971
O O11 0.180012 0.913445 0.138141
O O12 0.000000 0.000000 0.774321
#
# Coordination Sequence:
#
# PCOD8309010 Si02
#       5
#     8   8   8   8   8
#     4  12  24  50  71 100 144 184 237 300 364 425
#     4  11  24  44  75 103 138 189 240 292 355 432
#     4  10  24  44  69 103 144 181 233 292 351 428
#     4  11  25  45  71 102 146 185 229 293 358 422
#     4  12  27  44  72 106 138 188 238 294 363 429
#
# _framework density 22.392391
#
# number of rings (size 3 to 8) (size 9 to 14) (size 15 to 20)
#    0.000    0.800    4.000    2.400   11.200    0.800 
#    0.000    0.000    0.000    0.000    0.000    0.000 
#    0.000    0.000    0.000    0.000    0.000    0.000 
#
# Total GULP energy -495633.221639 kJ/mol
# GULP energy per Si atom -12390.830541 kJ/mol
# Density = 2.234142 g / cm^3
# Si number density = 22.392391 Si / 1000 Ang^3
#
#
#
# Elastic Constant Matrix: (Units=GPa)
#
#
# Indices 1 2 3 4 5 6 
#
# 1 79.9074 10.1760 20.8480 0.0000 0.0000 0.0000
# 2 10.1760 79.9074 20.8480 0.0000 0.0000 0.0000
# 3 20.8480 20.8480 119.3239 0.0000 0.0000 0.0000
# 4 0.0000 0.0000 0.0000 28.8614 0.0000 0.0000
# 5 0.0000 0.0000 0.0000 0.0000 28.8614 0.0000
# 6 0.0000 0.0000 0.0000 0.0000 0.0000 24.0183
#
#
#
# Elastic Compliance Matrix: (Units=1/GPa)
#
#
# Indices 1 2 3 4 5 6 
#
# 1 0.013209 -0.001132 -0.002110 0.000000 0.000000 0.000000
# 2 -0.001132 0.013209 -0.002110 0.000000 0.000000 0.000000
# 3 -0.002110 -0.002110 0.009118 0.000000 0.000000 0.000000
# 4 0.000000 0.000000 0.000000 0.034648 0.000000 0.000000
# 5 0.000000 0.000000 0.000000 0.000000 0.034648 0.000000
# 6 0.000000 0.000000 0.000000 0.000000 0.000000 0.041635
#
#
# Mechanical properties :
#
#
# Convention : Reuss Voigt Hill
#
# Bulk Modulus (GPa) = 40.27004 42.54251 41.40628
# Shear Modulus (GPa) = 30.22077 31.49933 30.86005
#
# Velocity S-wave (km/s) = 3.67768 3.75467 3.71637
# Velocity P-wave (km/s) = 6.00471 6.15114 6.07837
#
# Compressibility (1/GPa) = 0.02483235
#
# Stress axis : x y z
#
# Youngs Moduli (GPa) = 75.70517 75.70517 109.67427
#
# Poissons Ratio (x) = 0.08567 0.23143
# Poissons Ratio (y) = 0.08567 0.23143
# Poissons Ratio (z) = 0.15975 0.15975
#
# Static dielectric constant tensor:
#      x y z
#    x 4.349910 0.000000 0.000000 
#    y 0.000000 4.349910 0.000000 
#    z 0.000000 0.000000 4.084550 
# 
# 
# High freq. dielectric constant tensor:
#      x y z
#    x 1.883520 0.000000 0.000000 
#    y 0.000000 1.883520 0.000000 
#    z 0.000000 0.000000 1.887240 
# 
# From -- ./inp_files/3326.got.cif
#   From: 2010.03.12/outbox.cif.g09.slc.cpg/sg114_2_cif.got.tgz:3326.got - 2010.04.14 02:08:34.
