data_PCOD8309949
_publ_section_title
;
Structure prediction by ZEFSAII (Michael W. Deem and Ramdas Pophale) SiO2 
 PCOD8309949
Probable space group: P -4 M 2
;
_chemical_formula_sum "Si O2"
_cell_formula_units_Z 48
_cell_length_a 8.959956
_cell_length_b 8.959956
_cell_length_c 31.232690
_cell_angle_alpha 90.000000
_cell_angle_beta 90.000000
_cell_angle_gamma 90.000000
_cell_volume 2507.385699
_symmetry_space_group_name_H-M "P -4 M 2"
_symmetry_group_IT_number 115
_symmetry_cell_setting 'tetragonal'
loop_
_space_group_symop_operation_xyz
x,y,z
y,-x,-z
-x,-y,z
-y,x,-z
y,x,-z
-y,-x,-z
-x,y,z
x,-y,z
loop_
_atom_site_type_symbol
_atom_site_label
_atom_site_fract_x
_atom_site_fract_y
_atom_site_fract_z
Si Si1 0.673099 0.676601 0.362050
Si Si2 0.827033 0.674037 0.039561
Si Si3 0.665410 0.322248 0.544960
Si Si4 0.831315 0.176084 0.716092
Si Si5 0.327305 0.673028 0.794317
Si Si6 0.671252 0.175908 0.117962
O O1 0.500000 0.708443 0.352227
O O2 0.704317 0.500000 0.358949
O O3 0.717644 0.742165 0.409499
O O4 0.773065 0.764813 0.328868
O O5 0.795919 0.500000 0.045502
O O6 0.778236 0.756900 0.082358
O O7 0.000000 0.707321 0.030458
O O8 0.731763 0.731763 0.000000
O O9 0.739793 0.260208 0.500000
O O10 0.500000 0.255002 0.548122
O O11 0.657398 0.500000 0.540729
O O12 0.730492 0.235610 0.754253
O O13 0.000000 0.236719 0.720937
O O14 0.827918 0.000000 0.717618
O O15 0.500000 0.709195 0.801791
O O16 0.299979 0.500000 0.784457
O O17 0.238895 0.723744 0.836472
O O18 0.500000 0.221709 0.108319
O O19 0.691092 0.000000 0.118484
#
# Coordination Sequence:
#
# PCOD8309949 Si02
#       6
#     8   8   8   8   8   8
#     4   9  17  30  51  78 103 129 166 211 259 312
#     4  11  24  40  59  85 116 151 191 232 274 319
#     4   7  10  19  39  69 101 127 154 197 253 307
#     4  11  24  38  51  71 102 140 179 217 260 311
#     4  10  21  38  61  86 109 136 174 219 267 319
#     4  10  21  38  61  88 116 146 180 218 264 319
#
# _framework density 19.143443999999999
#
# number of rings (size 3 to 8) (size 9 to 14) (size 15 to 20)
#    0.000    2.333    0.000    4.500    0.000    9.667 
#    0.000    0.000    0.000    1.000    0.000    5.833 
#    0.000    0.000    0.000    0.000    0.000    0.000 
#
# Total GULP energy -594954.963914 kJ/mol
# GULP energy per Si atom -12394.895082 kJ/mol
# Density = 1.909987 g / cm^3
# Si number density = 19.143444 Si / 1000 Ang^3
#
#
#
# Elastic Constant Matrix: (Units=GPa)
#
#
# Indices 1 2 3 4 5 6 
#
# 1 58.2907 32.1315 40.6293 0.0000 0.0000 0.0000
# 2 32.1315 58.2908 40.6293 0.0000 0.0000 0.0000
# 3 40.6293 40.6293 147.7435 0.0000 0.0000 0.0000
# 4 0.0000 0.0000 0.0000 -96.4849 0.0000 0.0000
# 5 0.0000 0.0000 0.0000 0.0000 -96.4838 0.0000
# 6 0.0000 0.0000 0.0000 0.0000 0.0000 26.6166
#
#
#
# Elastic Compliance Matrix: (Units=1/GPa)
#
#
# Indices 1 2 3 4 5 6 
#
# 1 0.026458 -0.011769 -0.004040 0.000000 0.000000 0.000000
# 2 -0.011769 0.026458 -0.004040 0.000000 0.000000 0.000000
# 3 -0.004040 -0.004040 0.008990 0.000000 0.000000 0.000000
# 4 0.000000 0.000000 0.000000 -0.010364 0.000000 0.000000
# 5 0.000000 0.000000 0.000000 0.000000 -0.010364 0.000000
# 6 0.000000 0.000000 0.000000 0.000000 0.000000 0.037571
#
#
# Mechanical properties :
#
#
# Convention : Reuss Voigt Hill
#
# Bulk Modulus (GPa) = 45.02318 54.56723 49.79520
# Shear Modulus (GPa) = 39.73027 -23.20810 8.26109
#
# Velocity S-wave (km/s) = 4.56060 -3.48562 2.07960
# Velocity P-wave (km/s) = 7.16254 3.51665 5.64220
#
# Compressibility (1/GPa) = 0.02221078
#
# Stress axis : x y z
#
# Youngs Moduli (GPa) = 37.79517 37.79525 111.23177
#
# Poissons Ratio (x) = 0.44481 0.44933
# Poissons Ratio (y) = 0.44481 0.44933
# Poissons Ratio (z) = 0.15268 0.15268
#
# Static dielectric constant tensor:
#      x y z
#    x 3.364700 0.000000 0.000000 
#    y 0.000000 3.364700 0.000000 
#    z 0.000000 0.000000 4.100590 
# 
# 
# High freq. dielectric constant tensor:
#      x y z
#    x 1.724760 0.000000 0.000000 
#    y 0.000000 1.724760 0.000000 
#    z 0.000000 0.000000 1.772170 
# 
# From -- ./inp_files/5932.got.cif
#   From: 2010.03.12/outbox.cif.g09.slc.cpg/sg115_3_cif.got.tgz:5932.got - 2010.04.14 02:11:21.
