data_PCOD8309237
_publ_section_title
;
Structure prediction by ZEFSAII (Michael W. Deem and Ramdas Pophale) SiO2 
 PCOD8309237
Probable space group: P -4 M 2
;
_chemical_formula_sum "Si O2"
_cell_formula_units_Z 48
_cell_length_a 13.314583
_cell_length_b 13.314583
_cell_length_c 15.512292
_cell_angle_alpha 90.000000
_cell_angle_beta 90.000000
_cell_angle_gamma 90.000000
_cell_volume 2749.989970
_symmetry_space_group_name_H-M "P -4 M 2"
_symmetry_group_IT_number 115
_symmetry_cell_setting 'tetragonal'
loop_
_space_group_symop_operation_xyz
x,y,z
y,-x,-z
-x,-y,z
-y,x,-z
y,x,-z
-y,-x,-z
-x,y,z
x,-y,z
loop_
_atom_site_type_symbol
_atom_site_label
_atom_site_fract_x
_atom_site_fract_y
_atom_site_fract_z
Si Si1 0.881031 0.611593 0.328599
Si Si2 0.118475 0.277450 0.500000
Si Si3 0.881031 0.611593 0.671401
Si Si4 0.881726 0.720576 0.844233
Si Si5 0.720576 0.118274 0.844233
Si Si6 0.383265 0.217134 0.000000
O O1 0.834230 0.500000 0.322229
O O2 0.843441 0.662217 0.416549
O O3 0.845933 0.676727 0.247268
O O4 0.000000 0.603845 0.329456
O O5 0.167714 0.167714 0.500000
O O6 0.156559 0.337783 0.583451
O O7 0.000000 0.260396 0.500000
O O8 0.834230 0.500000 0.677771
O O9 0.845933 0.676727 0.752732
O O10 0.000000 0.603845 0.670544
O O11 0.826713 0.826713 0.859918
O O12 0.850132 0.641066 0.916724
O O13 0.000000 0.740734 0.848167
O O14 0.740735 0.000000 0.848167
O O15 0.641067 0.149868 0.916724
O O16 0.500000 0.245861 1.000000
O O17 0.320240 0.320240 0.000000
#
# Coordination Sequence:
#
# PCOD8309237 Si02
#       6
#     8   8   8   8   8   8
#     4   9  17  30  48  68  91 122 160 202 245 284
#     4  10  19  30  45  67  96 128 161 197 240 295
#     4   9  17  30  48  68  91 122 160 202 245 284
#     4  10  20  33  50  74 103 134 167 201 240 291
#     4  10  20  33  50  74 103 134 167 201 240 291
#     4  10  21  36  54  76 100 128 165 208 254 300
#
# _framework density 17.454609000000001
#
# number of rings (size 3 to 8) (size 9 to 14) (size 15 to 20)
#    0.000    2.333    0.000    3.000    0.000    5.333 
#    0.000    0.000    0.000    9.000    0.000    0.000 
#    0.000   25.333    0.000    0.000    0.000    0.000 
#
# Total GULP energy -595238.915857 kJ/mol
# GULP energy per Si atom -12400.810747 kJ/mol
# Density = 1.741488 g / cm^3
# Si number density = 17.454609 Si / 1000 Ang^3
#
#
#
# Elastic Constant Matrix: (Units=GPa)
#
#
# Indices 1 2 3 4 5 6 
#
# 1 93.8873 45.0562 39.2353 0.0000 0.0000 0.0000
# 2 45.0562 93.8873 39.2353 0.0000 0.0000 0.0000
# 3 39.2353 39.2353 146.7930 0.0000 0.0000 0.0000
# 4 0.0000 0.0000 0.0000 21.5607 0.0000 0.0000
# 5 0.0000 0.0000 0.0000 0.0000 21.5607 0.0000
# 6 0.0000 0.0000 0.0000 0.0000 0.0000 13.1366
#
#
#
# Elastic Compliance Matrix: (Units=1/GPa)
#
#
# Indices 1 2 3 4 5 6 
#
# 1 0.014478 -0.006001 -0.002266 0.000000 0.000000 0.000000
# 2 -0.006001 0.014478 -0.002266 0.000000 0.000000 0.000000
# 3 -0.002266 -0.002266 0.008023 0.000000 0.000000 0.000000
# 4 0.000000 0.000000 0.000000 0.046381 0.000000 0.000000
# 5 0.000000 0.000000 0.000000 0.000000 0.046381 0.000000
# 6 0.000000 0.000000 0.000000 0.000000 0.000000 0.076123
#
#
# Mechanical properties :
#
#
# Convention : Reuss Voigt Hill
#
# Bulk Modulus (GPa) = 62.83688 64.62456 63.73072
# Shear Modulus (GPa) = 21.53008 25.32098 23.42553
#
# Velocity S-wave (km/s) = 3.51592 3.81291 3.66742
# Velocity P-wave (km/s) = 7.24987 7.51592 7.38409
#
# Compressibility (1/GPa) = 0.01591422
#
# Stress axis : x y z
#
# Youngs Moduli (GPa) = 69.07148 69.07148 124.63422
#
# Poissons Ratio (x) = 0.41450 0.28238
# Poissons Ratio (y) = 0.41450 0.28238
# Poissons Ratio (z) = 0.15649 0.15649
#
# Static dielectric constant tensor:
#      x y z
#    x 3.056410 0.000000 0.000000 
#    y 0.000000 3.056410 0.000000 
#    z 0.000000 0.000000 3.568180 
# 
# 
# High freq. dielectric constant tensor:
#      x y z
#    x 1.656980 0.000000 0.000000 
#    y 0.000000 1.656980 0.000000 
#    z 0.000000 0.000000 1.698750 
# 
# From -- ./inp_files/4253.got.cif
#   From: 2010.03.12/outbox.cif.g09.slc.cpg/sg115_3_cif.got.tgz:4253.got - 2010.04.14 02:11:21.
