data_PCOD8309174
_publ_section_title
;
Structure prediction by ZEFSAII (Michael W. Deem and Ramdas Pophale) SiO2 
 PCOD8309174
Probable space group: P -4 M 2
;
_chemical_formula_sum "Si O2"
_cell_formula_units_Z 56
_cell_length_a 14.307288
_cell_length_b 14.307288
_cell_length_c 18.006010
_cell_angle_alpha 90.000000
_cell_angle_beta 90.000000
_cell_angle_gamma 90.000000
_cell_volume 3685.803056
_symmetry_space_group_name_H-M "P -4 M 2"
_symmetry_group_IT_number 115
_symmetry_cell_setting 'tetragonal'
loop_
_space_group_symop_operation_xyz
x,y,z
y,-x,-z
-x,-y,z
-y,x,-z
y,x,-z
-y,-x,-z
-x,y,z
x,-y,z
loop_
_atom_site_type_symbol
_atom_site_label
_atom_site_fract_x
_atom_site_fract_y
_atom_site_fract_z
Si Si1 0.740539 0.391461 0.299417
Si Si2 0.895922 0.611563 0.184963
Si Si3 0.110753 0.602097 0.025778
Si Si4 0.610559 0.103961 0.409149
Si Si5 0.610845 0.774192 0.271230
Si Si6 0.894881 0.388137 0.866396
Si Si7 0.607775 0.248185 0.529505
O O1 0.715605 0.500000 0.284835
O O2 0.826612 0.355707 0.249471
O O3 0.650853 0.330210 0.277918
O O4 0.770630 0.374369 0.384108
O O5 0.897915 0.500000 0.179084
O O6 0.861692 0.652503 0.103974
O O7 0.000000 0.648653 0.204368
O O8 0.158691 0.500000 0.025367
O O9 0.000000 0.590128 0.025733
O O10 0.138199 0.652646 0.947579
O O11 0.500000 0.095467 0.402969
O O12 0.648331 0.162885 0.339253
O O13 0.640299 0.155732 0.485134
O O14 0.655044 0.000000 0.408916
O O15 0.500000 0.764839 0.272543
O O16 0.647389 0.823037 0.195894
O O17 0.895290 0.500000 0.869940
O O18 0.000000 0.353493 0.846733
O O19 0.662144 0.337857 0.500000
O O20 0.500000 0.270251 0.512735
#
# Coordination Sequence:
#
# PCOD8309174 Si02
#       7
#     8   8   8   8   8   8   8
#     4  10  20  30  42  60  84 115 149 180 206 244
#     4   8  14  26  43  61  81 105 134 174 222 260
#     4   7  10  19  37  59  80 102 132 170 213 259
#     4   9  17  29  45  63  82 105 133 173 225 266
#     4  10  18  28  41  59  87 118 146 176 207 244
#     4   8  13  22  39  62  83 105 136 175 217 255
#     4  10  19  31  44  60  83 111 144 180 211 249
#
# _framework density 15.193432
#
# number of rings (size 3 to 8) (size 9 to 14) (size 15 to 20)
#    0.000    3.143    1.429    2.143    0.000    2.714 
#    0.000    5.000    0.000    0.000    0.000    0.000 
#    0.000    9.429    0.000    0.000    0.000   16.000 
#
# Total GULP energy -693749.718162 kJ/mol
# GULP energy per Si atom -12388.387824 kJ/mol
# Density = 1.515885 g / cm^3
# Si number density = 15.193432 Si / 1000 Ang^3
#
#
#
# Elastic Constant Matrix: (Units=GPa)
#
#
# Indices 1 2 3 4 5 6 
#
# 1 54.3041 28.9591 44.4748 0.0000 0.0000 0.0000
# 2 28.9591 54.3025 44.4752 0.0000 0.0000 0.0000
# 3 44.4748 44.4752 148.0881 0.0000 0.0000 0.0000
# 4 0.0000 0.0000 0.0000 18.0019 0.0000 0.0000
# 5 0.0000 0.0000 0.0000 0.0000 18.0016 0.0000
# 6 0.0000 0.0000 0.0000 0.0000 0.0000 2.3645
#
#
#
# Elastic Compliance Matrix: (Units=1/GPa)
#
#
# Indices 1 2 3 4 5 6 
#
# 1 0.028570 -0.010886 -0.005311 0.000000 0.000000 0.000000
# 2 -0.010886 0.028571 -0.005311 0.000000 0.000000 0.000000
# 3 -0.005311 -0.005311 0.009943 0.000000 0.000000 0.000000
# 4 0.000000 0.000000 0.000000 0.055550 0.000000 0.000000
# 5 0.000000 0.000000 0.000000 0.000000 0.055551 0.000000
# 6 0.000000 0.000000 0.000000 0.000000 0.000000 0.422921
#
#
# Mechanical properties :
#
#
# Convention : Reuss Voigt Hill
#
# Bulk Modulus (GPa) = 41.55094 54.72365 48.13730
# Shear Modulus (GPa) = 7.66702 16.92598 12.29650
#
# Velocity S-wave (km/s) = 2.24883 3.34133 2.84796
# Velocity P-wave (km/s) = 5.84383 7.14018 6.52428
#
# Compressibility (1/GPa) = 0.02406684
#
# Stress axis : x y z
#
# Youngs Moduli (GPa) = 35.00204 35.00045 100.57513
#
# Poissons Ratio (x) = 0.38103 0.53413
# Poissons Ratio (y) = 0.38105 0.53418
# Poissons Ratio (z) = 0.18589 0.18590
#
# Static dielectric constant tensor:
#      x y z
#    x 2.632040 0.000000 0.000000 
#    y 0.000000 2.632040 0.000000 
#    z 0.000000 0.000000 3.444430 
# 
# 
# High freq. dielectric constant tensor:
#      x y z
#    x 1.538360 0.000000 0.000000 
#    y 0.000000 1.538360 0.000000 
#    z 0.000000 0.000000 1.609840 
# 
# From -- ./inp_files/4367.got.cif
#   From: 2010.03.12/outbox.cif.g09.slc.cpg/sg115_3_cif.got.tgz:4367.got - 2010.04.14 02:11:21.
