data_PCOD8309276
_publ_section_title
;
Structure prediction by ZEFSAII (Michael W. Deem and Ramdas Pophale) SiO2 
 PCOD8309276
Probable space group: P -4 M 2
;
_chemical_formula_sum "Si O2"
_cell_formula_units_Z 34
_cell_length_a 7.731848
_cell_length_b 7.731848
_cell_length_c 27.359925
_cell_angle_alpha 90.000000
_cell_angle_beta 90.000000
_cell_angle_gamma 90.000000
_cell_volume 1635.616631
_symmetry_space_group_name_H-M "P -4 M 2"
_symmetry_group_IT_number 115
_symmetry_cell_setting 'tetragonal'
loop_
_space_group_symop_operation_xyz
x,y,z
y,-x,-z
-x,-y,z
-y,x,-z
y,x,-z
-y,-x,-z
-x,y,z
x,-y,z
loop_
_atom_site_type_symbol
_atom_site_label
_atom_site_fract_x
_atom_site_fract_y
_atom_site_fract_z
Si Si1 0.000000 0.707499 0.719277
Si Si2 0.308249 0.704365 0.053988
Si Si3 0.706971 0.000000 0.876160
Si Si4 0.309160 0.804483 0.449808
Si Si5 0.703818 0.310445 0.348787
Si Si6 0.000000 0.000000 0.797763
O O1 0.831911 0.770051 0.689105
O O2 0.000000 0.500000 0.730724
O O3 0.000000 0.820384 0.768042
O O4 0.500000 0.783139 0.065357
O O5 0.322813 0.500000 0.054518
O O6 0.170157 0.765535 0.093946
O O7 0.241065 0.758936 0.000000
O O8 0.820871 0.000000 0.827612
O O9 0.500000 0.000000 0.864694
O O10 0.203168 0.796833 0.500000
O O11 0.500000 0.728428 0.460648
O O12 0.218300 0.707820 0.403836
O O13 0.321277 0.000000 0.432048
O O14 0.500000 0.285639 0.354744
O O15 0.753636 0.500000 0.328250
#
# Coordination Sequence:
#
# PCOD8309276 Si02
#       6
#     4   8   4   8   8   2
#     4  10  22  44  64  83 112 140 187 252 297 344
#     4   8  15  31  57  88 122 161 201 237 277 330
#     4  10  22  39  57  83 122 158 192 241 289 340
#     4  10  19  32  50  78 115 148 181 220 263 329
#     4   9  17  34  62  86 106 142 187 232 286 342
#     4  12  28  42  59  88 113 148 198 242 304 354
#
# _framework density 20.787269999999999
#
# number of rings (size 3 to 8) (size 9 to 14) (size 15 to 20)
#    0.000    2.588    1.176    1.412    0.000    4.235 
#    2.118    1.176    0.000    0.000    0.000    0.000 
#    0.000    0.000    0.000    0.000    0.000    0.000 
#
# Total GULP energy -421310.419488 kJ/mol
# GULP energy per Si atom -12391.482926 kJ/mol
# Density = 2.073996 g / cm^3
# Si number density = 20.787270 Si / 1000 Ang^3
#
#
#
# Elastic Constant Matrix: (Units=GPa)
#
#
# Indices 1 2 3 4 5 6 
#
# 1 104.6451 26.4996 61.0501 0.0000 0.0000 0.0000
# 2 26.4996 104.6446 61.0499 0.0000 0.0000 0.0000
# 3 61.0501 61.0499 149.1922 0.0000 0.0000 0.0000
# 4 0.0000 0.0000 0.0000 34.3331 0.0000 0.0000
# 5 0.0000 0.0000 0.0000 0.0000 34.3333 0.0000
# 6 0.0000 0.0000 0.0000 0.0000 0.0000 12.6320
#
#
#
# Elastic Compliance Matrix: (Units=1/GPa)
#
#
# Indices 1 2 3 4 5 6 
#
# 1 0.012557 -0.000239 -0.005041 0.000000 0.000000 0.000000
# 2 -0.000239 0.012557 -0.005041 0.000000 0.000000 0.000000
# 3 -0.005041 -0.005041 0.010828 0.000000 0.000000 0.000000
# 4 0.000000 0.000000 0.000000 0.029126 0.000000 0.000000
# 5 0.000000 0.000000 0.000000 0.000000 0.029126 0.000000
# 6 0.000000 0.000000 0.000000 0.000000 0.000000 0.079164
#
#
# Mechanical properties :
#
#
# Convention : Reuss Voigt Hill
#
# Bulk Modulus (GPa) = 65.35152 72.85345 69.10249
# Shear Modulus (GPa) = 25.11281 30.25182 27.68232
#
# Velocity S-wave (km/s) = 3.47952 3.81898 3.65320
# Velocity P-wave (km/s) = 6.90285 7.38711 7.14908
#
# Compressibility (1/GPa) = 0.01530186
#
# Stress axis : x y z
#
# Youngs Moduli (GPa) = 79.63415 79.63385 92.35248
#
# Poissons Ratio (x) = 0.01905 0.46552
# Poissons Ratio (y) = 0.01905 0.46552
# Poissons Ratio (z) = 0.40141 0.40141
#
# Static dielectric constant tensor:
#      x y z
#    x 3.811060 0.000000 0.000000 
#    y 0.000000 3.811080 0.000000 
#    z 0.000000 0.000000 3.627240 
# 
# 
# High freq. dielectric constant tensor:
#      x y z
#    x 1.804140 0.000000 0.000000 
#    y 0.000000 1.804140 0.000000 
#    z 0.000000 0.000000 1.795710 
# 
# From -- ./inp_files/4712.got.cif
#   From: 2010.03.12/outbox.cif.g09.slc.cpg/sg115_3_cif.got.tgz:4712.got - 2010.04.14 02:11:21.
