data_PCOD8309285
_publ_section_title
;
Structure prediction by ZEFSAII (Michael W. Deem and Ramdas Pophale) SiO2 
 PCOD8309285
Probable space group: P -4 M 2
;
_chemical_formula_sum "Si O2"
_cell_formula_units_Z 64
_cell_length_a 14.075678
_cell_length_b 14.075678
_cell_length_c 18.364770
_cell_angle_alpha 90.000000
_cell_angle_beta 90.000000
_cell_angle_gamma 90.000000
_cell_volume 3638.514752
_symmetry_space_group_name_H-M "P -4 M 2"
_symmetry_group_IT_number 115
_symmetry_cell_setting 'tetragonal'
loop_
_space_group_symop_operation_xyz
x,y,z
y,-x,-z
-x,-y,z
-y,x,-z
y,x,-z
-y,-x,-z
-x,y,z
x,-y,z
loop_
_atom_site_type_symbol
_atom_site_label
_atom_site_fract_x
_atom_site_fract_y
_atom_site_fract_z
Si Si1 0.302930 0.109543 0.635756
Si Si2 0.706517 0.892782 0.232035
Si Si3 0.234110 0.612373 0.491170
Si Si4 0.894640 0.105822 0.691642
Si Si5 0.744046 0.110085 0.079509
Si Si6 0.270386 0.109640 0.920679
Si Si7 0.394170 0.887858 0.788498
Si Si8 0.107555 0.388794 0.627297
O O1 0.355844 0.178621 0.580717
O O2 0.188175 0.123206 0.631503
O O3 0.335499 0.140079 0.716740
O O4 0.331836 0.000000 0.619239
O O5 0.820530 0.884388 0.242119
O O6 0.682208 0.854966 0.150398
O O7 0.654489 0.841681 0.300034
O O8 0.669354 0.000000 0.237341
O O9 0.334814 0.665187 0.500000
O O10 0.253618 0.500000 0.488256
O O11 0.169128 0.643053 0.558791
O O12 0.000000 0.116434 0.655099
O O13 0.880997 0.000000 0.724663
O O14 0.841060 0.168601 0.080364
O O15 0.771847 0.000000 0.091266
O O16 0.687079 0.123626 0.003238
O O17 0.341921 0.153608 0.860615
O O18 0.252269 0.000000 0.903467
O O19 0.500000 0.843491 0.784299
O O20 0.402001 0.000000 0.795961
O O21 0.106856 0.500000 0.636545
O O22 0.000000 0.349726 0.615688
#
# Coordination Sequence:
#
# PCOD8309285 Si02
#       8
#     8   8   8   8   8   8   8   8
#     4  10  19  32  53  78 101 127 162 201 239 288
#     4   9  16  27  43  62  88 122 158 193 225 266
#     4  11  23  37  53  73  96 123 158 199 245 294
#     4   9  17  28  44  70 103 135 163 191 231 285
#     4   9  17  27  40  60  86 118 156 193 229 278
#     4   9  17  28  40  58  87 120 154 193 236 278
#     4   9  17  29  45  65  90 121 157 199 246 290
#     4   9  18  33  52  72  93 117 148 191 241 287
#
# _framework density 17.589593000000001
#
# number of rings (size 3 to 8) (size 9 to 14) (size 15 to 20)
#    0.000    2.625    0.000    2.250    0.000    3.125 
#    0.000    3.750    0.000    4.500    0.000    3.500 
#    0.000    0.000    0.000    0.000    0.000    1.625 
#
# Total GULP energy -792875.260437 kJ/mol
# GULP energy per Si atom -12388.675944 kJ/mol
# Density = 1.754956 g / cm^3
# Si number density = 17.589593 Si / 1000 Ang^3
#
#
#
# Elastic Constant Matrix: (Units=GPa)
#
#
# Indices 1 2 3 4 5 6 
#
# 1 65.3511 26.2396 45.1077 0.0000 0.0000 0.0000
# 2 26.2396 65.3528 45.1080 0.0000 0.0000 0.0000
# 3 45.1077 45.1080 151.6535 0.0000 0.0000 0.0000
# 4 0.0000 0.0000 0.0000 18.2482 0.0000 0.0000
# 5 0.0000 0.0000 0.0000 0.0000 18.2481 0.0000
# 6 0.0000 0.0000 0.0000 0.0000 0.0000 17.2166
#
#
#
# Elastic Compliance Matrix: (Units=1/GPa)
#
#
# Indices 1 2 3 4 5 6 
#
# 1 0.020505 -0.005063 -0.004593 0.000000 0.000000 0.000000
# 2 -0.005063 0.020504 -0.004593 0.000000 0.000000 0.000000
# 3 -0.004593 -0.004593 0.009326 0.000000 0.000000 0.000000
# 4 0.000000 0.000000 0.000000 0.054800 0.000000 0.000000
# 5 0.000000 0.000000 0.000000 0.000000 0.054800 0.000000
# 6 0.000000 0.000000 0.000000 0.000000 0.000000 0.058083
#
#
# Mechanical properties :
#
#
# Convention : Reuss Voigt Hill
#
# Bulk Modulus (GPa) = 45.79137 57.25200 51.52169
# Shear Modulus (GPa) = 19.70082 21.80273 20.75177
#
# Velocity S-wave (km/s) = 3.35031 3.52451 3.43851
# Velocity P-wave (km/s) = 6.40748 7.01301 6.71707
#
# Compressibility (1/GPa) = 0.02183818
#
# Stress axis : x y z
#
# Youngs Moduli (GPa) = 48.76843 48.76980 107.22330
#
# Poissons Ratio (x) = 0.24690 0.49249
# Poissons Ratio (y) = 0.24690 0.49248
# Poissons Ratio (z) = 0.22400 0.22400
#
# Static dielectric constant tensor:
#      x y z
#    x 3.136960 0.000000 0.000000 
#    y 0.000000 3.136960 0.000000 
#    z 0.000000 0.000000 3.575920 
# 
# 
# High freq. dielectric constant tensor:
#      x y z
#    x 1.650290 0.000000 0.000000 
#    y 0.000000 1.650290 0.000000 
#    z 0.000000 0.000000 1.691230 
# 
# From -- ./inp_files/4475.got.cif
#   From: 2010.03.12/outbox.cif.g09.slc.cpg/sg115_3_cif.got.tgz:4475.got - 2010.04.14 02:11:21.
