data_PCOD8309794
_publ_section_title
;
Structure prediction by ZEFSAII (Michael W. Deem and Ramdas Pophale) SiO2 
 PCOD8309794
Probable space group: P -4 M 2
;
_chemical_formula_sum "Si O2"
_cell_formula_units_Z 40
_cell_length_a 9.494040
_cell_length_b 9.494040
_cell_length_c 25.909732
_cell_angle_alpha 90.000000
_cell_angle_beta 90.000000
_cell_angle_gamma 90.000000
_cell_volume 2335.420215
_symmetry_space_group_name_H-M "P -4 M 2"
_symmetry_group_IT_number 115
_symmetry_cell_setting 'tetragonal'
loop_
_space_group_symop_operation_xyz
x,y,z
y,-x,-z
-x,-y,z
-y,x,-z
y,x,-z
-y,-x,-z
-x,y,z
x,-y,z
loop_
_atom_site_type_symbol
_atom_site_label
_atom_site_fract_x
_atom_site_fract_y
_atom_site_fract_z
Si Si1 0.156652 0.831763 0.556407
Si Si2 0.166058 0.336566 0.958079
Si Si3 0.343461 0.831989 0.648731
Si Si4 0.156571 0.667747 0.238694
Si Si5 0.336618 0.661222 0.143040
O O1 0.215331 0.784670 0.500000
O O2 0.250753 0.768027 0.602404
O O3 0.000000 0.772121 0.564848
O O4 0.154653 0.000000 0.557963
O O5 0.195714 0.500000 0.972059
O O6 0.237784 0.296533 0.904052
O O7 0.000000 0.306131 0.954784
O O8 0.235873 0.235873 0.000000
O O9 0.500000 0.770275 0.641726
O O10 0.280186 0.788564 0.704969
O O11 0.347300 0.000000 0.646041
O O12 0.153263 0.500000 0.240486
O O13 0.257340 0.721476 0.193231
O O14 0.000000 0.726568 0.227573
O O15 0.500000 0.668749 0.156050
O O16 0.291653 0.500000 0.129949
#
# Coordination Sequence:
#
# PCOD8309794 Si02
#       5
#     8   8   8   8   8
#     4   8  13  21  34  53  76 101 131 169 210 249
#     4  10  21  36  53  73  97 125 156 190 228 269
#     4   8  13  22  37  56  77 103 136 172 208 248
#     4   8  14  25  42  64  87 110 140 178 216 254
#     4   9  17  30  49  70  90 115 149 185 218 258
#
# _framework density 17.127537
#
# number of rings (size 3 to 8) (size 9 to 14) (size 15 to 20)
#    0.000    3.400    0.000    2.400    0.000    2.000 
#    0.000    3.000    0.000    2.400    0.000    0.000 
#    0.000    0.000    0.000    0.000    0.000    0.000 
#
# Total GULP energy -495697.325118 kJ/mol
# GULP energy per Si atom -12392.433128 kJ/mol
# Density = 1.708855 g / cm^3
# Si number density = 17.127537 Si / 1000 Ang^3
#
#
#
# Elastic Constant Matrix: (Units=GPa)
#
#
# Indices 1 2 3 4 5 6 
#
# 1 57.3825 30.6815 67.4496 0.0000 0.0000 0.0000
# 2 30.6815 57.3826 67.4496 0.0000 0.0000 0.0000
# 3 67.4496 67.4496 188.7264 0.0000 0.0000 0.0000
# 4 0.0000 0.0000 0.0000 27.1761 0.0000 0.0000
# 5 0.0000 0.0000 0.0000 0.0000 27.1761 0.0000
# 6 0.0000 0.0000 0.0000 0.0000 0.0000 12.9687
#
#
#
# Elastic Compliance Matrix: (Units=1/GPa)
#
#
# Indices 1 2 3 4 5 6 
#
# 1 0.031272 -0.006179 -0.008968 0.000000 0.000000 0.000000
# 2 -0.006179 0.031272 -0.008968 0.000000 0.000000 0.000000
# 3 -0.008968 -0.008968 0.011709 0.000000 0.000000 0.000000
# 4 0.000000 0.000000 0.000000 0.036797 0.000000 0.000000
# 5 0.000000 0.000000 0.000000 0.000000 0.036797 0.000000
# 6 0.000000 0.000000 0.000000 0.000000 0.000000 0.077108
#
#
# Mechanical properties :
#
#
# Convention : Reuss Voigt Hill
#
# Bulk Modulus (GPa) = 38.42824 70.51699 54.47261
# Shear Modulus (GPa) = 17.73924 22.65826 20.19875
#
# Velocity S-wave (km/s) = 3.22174 3.64113 3.43784
# Velocity P-wave (km/s) = 6.02700 7.67712 6.90156
#
# Compressibility (1/GPa) = 0.02602253
#
# Stress axis : x y z
#
# Youngs Moduli (GPa) = 31.97714 31.97727 85.40503
#
# Poissons Ratio (x) = 0.19760 0.76592
# Poissons Ratio (y) = 0.19760 0.76591
# Poissons Ratio (z) = 0.28677 0.28677
#
# Static dielectric constant tensor:
#      x y z
#    x 3.022060 0.000000 0.000000 
#    y 0.000000 3.022060 0.000000 
#    z 0.000000 0.000000 3.594150 
# 
# 
# High freq. dielectric constant tensor:
#      x y z
#    x 1.624060 0.000000 0.000000 
#    y 0.000000 1.624060 0.000000 
#    z 0.000000 0.000000 1.679230 
# 
# From -- ./inp_files/5473.got.cif
#   From: 2010.03.12/outbox.cif.g09.slc.cpg/sg115_3_cif.got.tgz:5473.got - 2010.04.14 02:11:21.
