data_PCOD8309987
_publ_section_title
;
Structure prediction by ZEFSAII (Michael W. Deem and Ramdas Pophale) SiO2 
 PCOD8309987
Probable space group: P -4 M 2
;
_chemical_formula_sum "Si O2"
_cell_formula_units_Z 56
_cell_length_a 21.651388
_cell_length_b 21.651388
_cell_length_c 9.345916
_cell_angle_alpha 90.000000
_cell_angle_beta 90.000000
_cell_angle_gamma 90.000000
_cell_volume 4381.202824
_symmetry_space_group_name_H-M "P -4 M 2"
_symmetry_group_IT_number 115
_symmetry_cell_setting 'tetragonal'
loop_
_space_group_symop_operation_xyz
x,y,z
y,-x,-z
-x,-y,z
-y,x,-z
y,x,-z
-y,-x,-z
-x,y,z
x,-y,z
loop_
_atom_site_type_symbol
_atom_site_label
_atom_site_fract_x
_atom_site_fract_y
_atom_site_fract_z
Si Si1 0.573497 0.235521 0.518055
Si Si2 0.364151 0.428800 0.615235
Si Si3 0.426294 0.118378 0.019690
Si Si4 0.370282 0.570777 0.129937
Si Si5 0.573591 0.000000 0.519332
Si Si6 0.882158 0.573592 0.656048
Si Si7 0.768092 0.428246 0.161167
Si Si8 0.426525 0.000000 0.844712
O O1 0.500000 0.235707 0.525544
O O2 0.595649 0.299500 0.448137
O O3 0.598380 0.179613 0.420786
O O4 0.600779 0.229525 0.678983
O O5 0.418372 0.418372 0.500000
O O6 0.361317 0.500000 0.661258
O O7 0.380286 0.387184 0.749808
O O8 0.500000 0.119234 0.024922
O O9 0.399330 0.179861 0.942652
O O10 0.402085 0.059955 0.929222
O O11 0.400507 0.114992 0.181850
O O12 0.379750 0.500000 0.181925
O O13 0.298788 0.582160 0.088705
O O14 0.415940 0.584061 0.000000
O O15 0.598501 0.059801 0.434778
O O16 0.599237 0.000000 0.682076
O O17 0.500000 0.000000 0.522507
O O18 0.882548 0.500000 0.658343
O O19 0.783313 0.500000 0.176759
O O20 0.500000 0.000000 0.840960
#
# Coordination Sequence:
#
# PCOD8309987 Si02
#       8
#     8   8   8   8   4   8   8   4
#     4   9  17  29  42  55  69  87 110 135 167 209
#     4  11  21  33  47  59  70  86 112 147 188 234
#     4   9  16  24  37  54  73  93 111 130 154 188
#     4  11  23  35  45  57  72  88 110 145 190 238
#     4   9  15  23  35  53  75  95 113 131 149 175
#     4   9  16  24  37  55  73  91 111 133 154 184
#     4   9  17  30  42  53  69  89 110 133 167 212
#     4   9  15  23  35  53  75  97 113 127 149 179
#
# _framework density 12.781877
#
# number of rings (size 3 to 8) (size 9 to 14) (size 15 to 20)
#    0.000    2.429    1.429    2.143    2.000    6.857 
#    0.000    0.000    0.000    0.000    0.000    0.000 
#    0.000    0.000    0.000    0.000    0.000    0.000 
#
# Total GULP energy -694168.293897 kJ/mol
# GULP energy per Si atom -12395.862391 kJ/mol
# Density = 1.275279 g / cm^3
# Si number density = 12.781877 Si / 1000 Ang^3
#
#
#
# Elastic Constant Matrix: (Units=GPa)
#
#
# Indices 1 2 3 4 5 6 
#
# 1 33.7844 32.4045 25.9571 0.0000 0.0000 0.0000
# 2 32.4045 33.7867 25.9567 0.0000 0.0000 0.0000
# 3 25.9571 25.9567 95.8294 0.0000 0.0000 0.0000
# 4 0.0000 0.0000 0.0000 19.2133 0.0000 0.0000
# 5 0.0000 0.0000 0.0000 0.0000 19.2132 0.0000
# 6 0.0000 0.0000 0.0000 0.0000 0.0000 0.7559
#
#
#
# Elastic Compliance Matrix: (Units=1/GPa)
#
#
# Indices 1 2 3 4 5 6 
#
# 1 0.371646 -0.352445 -0.005202 0.000000 0.000000 0.000000
# 2 -0.352445 0.371611 -0.005190 0.000000 0.000000 0.000000
# 3 -0.005202 -0.005190 0.013250 0.000000 0.000000 0.000000
# 4 0.000000 0.000000 0.000000 0.052047 0.000000 0.000000
# 5 0.000000 0.000000 0.000000 0.000000 0.052047 0.000000
# 6 0.000000 0.000000 0.000000 0.000000 0.000000 1.322844
#
#
# Mechanical properties :
#
#
# Convention : Reuss Voigt Hill
#
# Bulk Modulus (GPa) = 32.43338 36.89301 34.66320
# Shear Modulus (GPa) = 1.71268 13.10865 7.41067
#
# Velocity S-wave (km/s) = 1.15881 3.20592 2.41047
# Velocity P-wave (km/s) = 5.21728 6.52917 5.90974
#
# Compressibility (1/GPa) = 0.03083243
#
# Stress axis : x y z
#
# Youngs Moduli (GPa) = 2.69073 2.69098 75.47104
#
# Poissons Ratio (x) = 0.94842 0.39261
# Poissons Ratio (y) = 0.94834 0.39170
# Poissons Ratio (z) = 0.01400 0.01397
#
# Static dielectric constant tensor:
#      x y z
#    x 2.637270 0.000000 0.000000 
#    y 0.000000 2.637230 0.000000 
#    z 0.000000 0.000000 3.001900 
# 
# 
# High freq. dielectric constant tensor:
#      x y z
#    x 1.441350 0.000000 0.000000 
#    y 0.000000 1.441350 0.000000 
#    z 0.000000 0.000000 1.508020 
# 
# From -- ./inp_files/2115.got.cif
#   From: 2010.03.12/outbox.cif.g09.slc.cpg/sg115_2_cif.got.tgz:2115.got - 2010.04.14 02:11:21.
