data_PCOD8309509
_publ_section_title
;
Structure prediction by ZEFSAII (Michael W. Deem and Ramdas Pophale) SiO2 
 PCOD8309509
Probable space group: P -4 M 2
;
_chemical_formula_sum "Si O2"
_cell_formula_units_Z 48
_cell_length_a 9.098744
_cell_length_b 9.098744
_cell_length_c 30.725410
_cell_angle_alpha 90.000000
_cell_angle_beta 90.000000
_cell_angle_gamma 90.000000
_cell_volume 2543.668892
_symmetry_space_group_name_H-M "P -4 M 2"
_symmetry_group_IT_number 115
_symmetry_cell_setting 'tetragonal'
loop_
_space_group_symop_operation_xyz
x,y,z
y,-x,-z
-x,-y,z
-y,x,-z
y,x,-z
-y,-x,-z
-x,y,z
x,-y,z
loop_
_atom_site_type_symbol
_atom_site_label
_atom_site_fract_x
_atom_site_fract_y
_atom_site_fract_z
Si Si1 0.324999 0.165947 0.709638
Si Si2 0.169052 0.671886 0.961696
Si Si3 0.325415 0.667338 0.794797
Si Si4 0.828866 0.170633 0.127106
Si Si5 0.165833 0.827679 0.450513
Si Si6 0.668818 0.672379 0.375358
O O1 0.500000 0.168223 0.709518
O O2 0.265351 0.257335 0.750781
O O3 0.264729 0.239527 0.665490
O O4 0.264449 0.000000 0.712542
O O5 0.194729 0.500000 0.954405
O O6 0.217076 0.755019 0.918099
O O7 0.000000 0.707221 0.973431
O O8 0.272529 0.727472 0.000000
O O9 0.500000 0.673353 0.796434
O O10 0.268401 0.500000 0.796075
O O11 0.265014 0.756030 0.835382
O O12 0.000000 0.209253 0.124424
O O13 0.801437 0.000000 0.137075
O O14 0.209786 0.790215 0.500000
O O15 0.279033 0.745918 0.419665
O O16 0.000000 0.773135 0.440925
O O17 0.177019 0.000000 0.442187
O O18 0.500000 0.712068 0.367079
O O19 0.693274 0.500000 0.380273
#
# Coordination Sequence:
#
# PCOD8309509 Si02
#       6
#     8   8   8   8   8   8
#     4   9  17  31  52  76 103 138 178 217 259 310
#     4  10  21  37  57  80 106 138 175 215 261 312
#     4  10  20  34  54  80 109 140 175 218 267 315
#     4  10  21  37  57  80 107 141 180 220 263 313
#     4   9  19  36  55  74  99 133 172 213 258 309
#     4  10  20  33  51  77 107 136 169 212 260 310
#
# _framework density 18.870381999999999
#
# number of rings (size 3 to 8) (size 9 to 14) (size 15 to 20)
#    0.000    2.333    0.000    3.000    0.000    7.667 
#    0.000    3.333    0.000    5.000    0.000    0.000 
#    0.000    0.000    0.000    0.000    0.000    0.000 
#
# Total GULP energy -595344.324954 kJ/mol
# GULP energy per Si atom -12403.006770 kJ/mol
# Density = 1.882743 g / cm^3
# Si number density = 18.870382 Si / 1000 Ang^3
#
#
#
# Elastic Constant Matrix: (Units=GPa)
#
#
# Indices 1 2 3 4 5 6 
#
# 1 76.5208 39.5113 60.6317 0.0000 0.0000 0.0000
# 2 39.5113 76.5218 60.6324 0.0000 0.0000 0.0000
# 3 60.6317 60.6324 146.7576 0.0000 0.0000 0.0000
# 4 0.0000 0.0000 0.0000 -14.5905 0.0000 0.0000
# 5 0.0000 0.0000 0.0000 0.0000 -14.5561 0.0000
# 6 0.0000 0.0000 0.0000 0.0000 0.0000 27.8502
#
#
#
# Elastic Compliance Matrix: (Units=1/GPa)
#
#
# Indices 1 2 3 4 5 6 
#
# 1 0.021093 -0.005926 -0.006266 0.000000 0.000000 0.000000
# 2 -0.005926 0.021093 -0.006266 0.000000 0.000000 0.000000
# 3 -0.006266 -0.006266 0.011992 0.000000 0.000000 0.000000
# 4 0.000000 0.000000 0.000000 -0.068538 0.000000 0.000000
# 5 0.000000 0.000000 0.000000 0.000000 -0.068700 0.000000
# 6 0.000000 0.000000 0.000000 0.000000 0.000000 0.035906
#
#
# Mechanical properties :
#
#
# Convention : Reuss Voigt Hill
#
# Bulk Modulus (GPa) = 57.93439 69.03901 63.48670
# Shear Modulus (GPa) = -1115.54458 9.00905 -553.26776
#
# Velocity S-wave (km/s) = -24.34019 2.18736 -17.14148
# Velocity P-wave (km/s) = 27.55284 6.56085 18.92239
#
# Compressibility (1/GPa) = 0.01726090
#
# Stress axis : x y z
#
# Youngs Moduli (GPa) = 47.40819 47.40856 83.39187
#
# Poissons Ratio (x) = 0.28096 0.52254
# Poissons Ratio (y) = 0.28096 0.52255
# Poissons Ratio (z) = 0.29706 0.29707
#
# Static dielectric constant tensor:
#      x y z
#    x 3.645870 0.000000 0.000000 
#    y 0.000000 3.646040 0.000000 
#    z 0.000000 0.000000 3.579500 
# 
# 
# High freq. dielectric constant tensor:
#      x y z
#    x 1.725530 0.000000 0.000000 
#    y 0.000000 1.725530 0.000000 
#    z 0.000000 0.000000 1.747370 
# 
# From -- ./inp_files/6020.got.cif
#   From: 2010.03.12/outbox.cif.g09.slc.cpg/sg115_4_cif.got.tgz:6020.got - 2010.04.14 02:11:21.
