data_PCOD8309327
_publ_section_title
;
Structure prediction by ZEFSAII (Michael W. Deem and Ramdas Pophale) SiO2 
 PCOD8309327
Probable space group: P -4 M 2
;
_chemical_formula_sum "Si O2"
_cell_formula_units_Z 56
_cell_length_a 14.267927
_cell_length_b 14.267927
_cell_length_c 15.547708
_cell_angle_alpha 90.000000
_cell_angle_beta 90.000000
_cell_angle_gamma 90.000000
_cell_volume 3165.105080
_symmetry_space_group_name_H-M "P -4 M 2"
_symmetry_group_IT_number 115
_symmetry_cell_setting 'tetragonal'
loop_
_space_group_symop_operation_xyz
x,y,z
y,-x,-z
-x,-y,z
-y,x,-z
y,x,-z
-y,-x,-z
-x,y,z
x,-y,z
loop_
_atom_site_type_symbol
_atom_site_label
_atom_site_fract_x
_atom_site_fract_y
_atom_site_fract_z
Si Si1 0.392722 0.709110 0.074968
Si Si2 0.290911 0.609825 0.421201
Si Si3 0.392743 0.105480 0.159981
Si Si4 0.391745 0.609344 0.251073
Si Si5 0.390908 0.104685 0.495302
Si Si6 0.111134 0.712303 0.673558
Si Si7 0.102344 0.111094 0.404400
O O1 0.500000 0.682073 0.053173
O O2 0.380457 0.822149 0.081154
O O3 0.362040 0.662660 0.164652
O O4 0.325792 0.674209 0.000000
O O5 0.344248 0.655753 0.500000
O O6 0.312649 0.500000 0.425911
O O7 0.328358 0.648942 0.329746
O O8 0.178699 0.630309 0.428093
O O9 0.500000 0.104877 0.191792
O O10 0.331433 0.147966 0.238007
O O11 0.362067 0.000000 0.131860
O O12 0.500000 0.628823 0.274028
O O13 0.372883 0.500000 0.235331
O O14 0.500000 0.098989 0.475555
O O15 0.344025 0.146771 0.409407
O O16 0.352883 0.000000 0.519870
O O17 0.145500 0.820532 0.664687
O O18 0.000000 0.704770 0.674967
O O19 0.138838 0.138838 0.500000
O O20 0.000000 0.155458 0.383309
O O21 0.093448 0.000000 0.402748
#
# Coordination Sequence:
#
# PCOD8309327 Si02
#       7
#     8   8   8   8   8   8   8
#     4  10  20  34  56  81 103 128 160 204 258 313
#     4  10  20  31  46  68  98 136 170 201 243 299
#     4   9  18  32  51  76 103 129 161 207 258 304
#     4   9  18  32  49  72 101 128 159 201 247 301
#     4   9  18  31  46  65  91 127 172 215 249 287
#     4   9  16  27  44  66  92 124 164 210 255 290
#     4   8  14  25  40  59  87 125 168 211 253 293
#
# _framework density 17.692934999999999
#
# number of rings (size 3 to 8) (size 9 to 14) (size 15 to 20)
#    0.000    2.857    0.000    1.714    2.000    3.714 
#    0.000    0.000    0.000    1.714    0.000    4.000 
#    0.000    0.000    0.000    0.000    0.000    0.000 
#
# Total GULP energy -694075.567561 kJ/mol
# GULP energy per Si atom -12394.206564 kJ/mol
# Density = 1.765266 g / cm^3
# Si number density = 17.692935 Si / 1000 Ang^3
#
#
#
# Elastic Constant Matrix: (Units=GPa)
#
#
# Indices 1 2 3 4 5 6 
#
# 1 63.0232 37.3483 53.3318 0.0000 0.0000 0.0000
# 2 37.3483 63.0248 53.3300 0.0000 0.0000 0.0000
# 3 53.3318 53.3300 101.1050 0.0000 0.0000 0.0000
# 4 0.0000 0.0000 0.0000 22.7645 0.0000 0.0000
# 5 0.0000 0.0000 0.0000 0.0000 22.7646 0.0000
# 6 0.0000 0.0000 0.0000 0.0000 0.0000 12.2296
#
#
#
# Elastic Compliance Matrix: (Units=1/GPa)
#
#
# Indices 1 2 3 4 5 6 
#
# 1 0.030810 -0.008138 -0.011959 0.000000 0.000000 0.000000
# 2 -0.008138 0.030807 -0.011957 0.000000 0.000000 0.000000
# 3 -0.011959 -0.011957 0.022506 0.000000 0.000000 0.000000
# 4 0.000000 0.000000 0.000000 0.043928 0.000000 0.000000
# 5 0.000000 0.000000 0.000000 0.000000 0.043928 0.000000
# 6 0.000000 0.000000 0.000000 0.000000 0.000000 0.081769
#
#
# Mechanical properties :
#
#
# Convention : Reuss Voigt Hill
#
# Bulk Modulus (GPa) = 49.96456 57.24146 53.60301
# Shear Modulus (GPa) = 15.40690 17.09459 16.25075
#
# Velocity S-wave (km/s) = 2.95412 3.11172 3.03394
# Velocity P-wave (km/s) = 6.31957 6.73300 6.52956
#
# Compressibility (1/GPa) = 0.02001419
#
# Stress axis : x y z
#
# Youngs Moduli (GPa) = 32.45653 32.45987 44.43229
#
# Poissons Ratio (x) = 0.26417 0.53138
# Poissons Ratio (y) = 0.26414 0.53128
# Poissons Ratio (z) = 0.38816 0.38812
#
# Static dielectric constant tensor:
#      x y z
#    x 3.456850 0.000000 0.000000 
#    y 0.000000 3.456860 0.000000 
#    z 0.000000 0.000000 3.032270 
# 
# 
# High freq. dielectric constant tensor:
#      x y z
#    x 1.684990 0.000000 0.000000 
#    y 0.000000 1.684990 0.000000 
#    z 0.000000 0.000000 1.639550 
# 
# From -- ./inp_files/3779.got.cif
#   From: 2010.03.12/outbox.cif.g09.slc.cpg/sg115_2_cif.got.tgz:3779.got - 2010.04.14 02:11:21.
