data_PCOD8309829
_publ_section_title
;
Structure prediction by ZEFSAII (Michael W. Deem and Ramdas Pophale) SiO2 
 PCOD8309829
Probable space group: P -4 M 2
;
_chemical_formula_sum "Si O2"
_cell_formula_units_Z 44
_cell_length_a 9.319465
_cell_length_b 9.319465
_cell_length_c 28.244393
_cell_angle_alpha 90.000000
_cell_angle_beta 90.000000
_cell_angle_gamma 90.000000
_cell_volume 2453.094106
_symmetry_space_group_name_H-M "P -4 M 2"
_symmetry_group_IT_number 115
_symmetry_cell_setting 'tetragonal'
loop_
_space_group_symop_operation_xyz
x,y,z
y,-x,-z
-x,-y,z
-y,x,-z
y,x,-z
-y,-x,-z
-x,y,z
x,-y,z
loop_
_atom_site_type_symbol
_atom_site_label
_atom_site_fract_x
_atom_site_fract_y
_atom_site_fract_z
Si Si1 0.331380 0.833988 0.040157
Si Si2 0.165719 0.332352 0.226403
Si Si3 0.166247 0.166247 0.500000
Si Si4 0.670787 0.337812 0.683099
Si Si5 0.166443 0.835353 0.866369
Si Si6 0.165960 0.332236 0.407558
O O1 0.500000 0.806144 0.042694
O O2 0.262682 0.786621 0.089817
O O3 0.295570 0.000000 0.029187
O O4 0.264352 0.735648 0.000000
O O5 0.192007 0.500000 0.218725
O O6 0.257688 0.271516 0.270199
O O7 0.218416 0.253565 0.179140
O O8 0.000000 0.298430 0.237266
O O9 0.221199 0.252953 0.454490
O O10 0.000000 0.196978 0.509769
O O11 0.500000 0.333258 0.683152
O O12 0.729305 0.500000 0.682909
O O13 0.728203 0.256622 0.636583
O O14 0.000000 0.816642 0.854543
O O15 0.204234 0.000000 0.878794
O O16 0.191686 0.500000 0.415211
O O17 0.000000 0.297541 0.397321
#
# Coordination Sequence:
#
# PCOD8309829 Si02
#       6
#     8   8   4   8   8   8
#     4  10  21  36  54  76 102 133 168 206 249 297
#     4   9  17  30  49  71  94 123 160 198 234 278
#     4   9  18  32  48  67  92 120 150 187 232 278
#     4   9  17  29  46  69  95 122 154 192 233 277
#     4   9  18  33  52  73  98 129 164 201 242 289
#     4   9  17  30  48  67  88 118 154 189 226 272
#
# _framework density 17.936530999999999
#
# number of rings (size 3 to 8) (size 9 to 14) (size 15 to 20)
#    0.000    2.818    0.000    1.091    0.000    5.455 
#    0.000    2.727    0.000    5.455    0.000    0.000 
#    0.000    0.000    0.000    0.000    0.000    0.000 
#
# Total GULP energy -545684.859612 kJ/mol
# GULP energy per Si atom -12401.928628 kJ/mol
# Density = 1.789571 g / cm^3
# Si number density = 17.936531 Si / 1000 Ang^3
#
#
#
# Elastic Constant Matrix: (Units=GPa)
#
#
# Indices 1 2 3 4 5 6 
#
# 1 70.3818 39.9913 79.1267 0.0000 0.0000 0.0000
# 2 39.9913 70.3818 79.1267 0.0000 0.0000 0.0000
# 3 79.1267 79.1267 196.2847 0.0000 0.0000 0.0000
# 4 0.0000 0.0000 0.0000 31.5794 0.0000 0.0000
# 5 0.0000 0.0000 0.0000 0.0000 31.5794 0.0000
# 6 0.0000 0.0000 0.0000 0.0000 0.0000 17.8830
#
#
#
# Elastic Compliance Matrix: (Units=1/GPa)
#
#
# Indices 1 2 3 4 5 6 
#
# 1 0.027187 -0.005718 -0.008655 0.000000 0.000000 0.000000
# 2 -0.005718 0.027187 -0.008655 0.000000 0.000000 0.000000
# 3 -0.008655 -0.008655 0.012073 0.000000 0.000000 0.000000
# 4 0.000000 0.000000 0.000000 0.031666 0.000000 0.000000
# 5 0.000000 0.000000 0.000000 0.000000 0.031666 0.000000
# 6 0.000000 0.000000 0.000000 0.000000 0.000000 0.055919
#
#
# Mechanical properties :
#
#
# Convention : Reuss Voigt Hill
#
# Bulk Modulus (GPa) = 49.03830 81.50420 65.27125
# Shear Modulus (GPa) = 20.95991 25.46194 23.21093
#
# Velocity S-wave (km/s) = 3.42213 3.77179 3.60121
# Velocity P-wave (km/s) = 6.55850 8.03166 7.33217
#
# Compressibility (1/GPa) = 0.02039222
#
# Stress axis : x y z
#
# Youngs Moduli (GPa) = 36.78195 36.78195 82.83256
#
# Poissons Ratio (x) = 0.21031 0.71690
# Poissons Ratio (y) = 0.21031 0.71690
# Poissons Ratio (z) = 0.31834 0.31834
#
# Static dielectric constant tensor:
#      x y z
#    x 3.212400 0.000000 0.000000 
#    y 0.000000 3.212400 0.000000 
#    z 0.000000 0.000000 3.497170 
# 
# 
# High freq. dielectric constant tensor:
#      x y z
#    x 1.679460 0.000000 0.000000 
#    y 0.000000 1.679460 0.000000 
#    z 0.000000 0.000000 1.706410 
# 
# From -- ./inp_files/5788.got.cif
#   From: 2010.03.12/outbox.cif.g09.slc.cpg/sg115_3_cif.got.tgz:5788.got - 2010.04.14 02:11:21.
