data_PCOD8309656
_publ_section_title
;
Structure prediction by ZEFSAII (Michael W. Deem and Ramdas Pophale) SiO2 
 PCOD8309656
Probable space group: P -4 M 2
;
_chemical_formula_sum "Si O2"
_cell_formula_units_Z 40
_cell_length_a 8.102471
_cell_length_b 8.102471
_cell_length_c 28.640255
_cell_angle_alpha 90.000000
_cell_angle_beta 90.000000
_cell_angle_gamma 90.000000
_cell_volume 1880.233781
_symmetry_space_group_name_H-M "P -4 M 2"
_symmetry_group_IT_number 115
_symmetry_cell_setting 'tetragonal'
loop_
_space_group_symop_operation_xyz
x,y,z
y,-x,-z
-x,-y,z
-y,x,-z
y,x,-z
-y,-x,-z
-x,y,z
x,-y,z
loop_
_atom_site_type_symbol
_atom_site_label
_atom_site_fract_x
_atom_site_fract_y
_atom_site_fract_z
Si Si1 0.680145 0.190753 0.767135
Si Si2 0.196243 0.000000 0.285613
Si Si3 0.313467 0.187124 0.953143
Si Si4 0.184510 0.311140 0.858926
Si Si5 0.306224 0.683675 0.446644
Si Si6 0.304347 0.000000 0.391544
O O1 0.500000 0.268220 0.753204
O O2 0.834843 0.271130 0.739110
O O3 0.703304 0.211009 0.822703
O O4 0.674438 0.000000 0.754594
O O5 0.252179 0.000000 0.338415
O O6 0.000000 0.000000 0.281070
O O7 0.500000 0.235907 0.965295
O O8 0.250142 0.300959 0.911488
O O9 0.297061 0.000000 0.935859
O O10 0.208591 0.208591 0.000000
O O11 0.187433 0.500000 0.843257
O O12 0.000000 0.238242 0.856895
O O13 0.268343 0.731658 0.500000
O O14 0.500000 0.671996 0.438480
O O15 0.230950 0.500000 0.434727
O O16 0.231171 0.831843 0.415007
O O17 0.500000 0.000000 0.397419
#
# Coordination Sequence:
#
# PCOD8309656 Si02
#       6
#     8   4   8   8   8   4
#     4  10  21  39  63  85 109 152 201 241 293 358
#     4  10  22  40  56  80 122 154 186 246 302 345
#     4  11  24  40  58  83 115 151 192 236 288 351
#     4  11  23  38  59  88 118 147 187 239 294 353
#     4   8  15  31  54  79 112 152 193 241 295 350
#     4  10  20  34  56  84 114 152 200 244 292 357
#
# _framework density 21.273952000000001
#
# number of rings (size 3 to 8) (size 9 to 14) (size 15 to 20)
#    0.000    2.000    1.000    3.000    0.000    9.600 
#    1.800    0.000    0.000    0.000    0.000    0.000 
#    0.000    0.000    0.000    0.000    0.000    0.000 
#
# Total GULP energy -495858.670189 kJ/mol
# GULP energy per Si atom -12396.466755 kJ/mol
# Density = 2.122553 g / cm^3
# Si number density = 21.273952 Si / 1000 Ang^3
#
#
#
# Elastic Constant Matrix: (Units=GPa)
#
#
# Indices 1 2 3 4 5 6 
#
# 1 93.1058 35.8251 42.5924 0.0000 0.0000 0.0000
# 2 35.8251 93.1056 42.5923 0.0000 0.0000 0.0000
# 3 42.5924 42.5923 140.5829 0.0000 0.0000 0.0000
# 4 0.0000 0.0000 0.0000 31.4927 0.0000 0.0000
# 5 0.0000 0.0000 0.0000 0.0000 31.4927 0.0000
# 6 0.0000 0.0000 0.0000 0.0000 0.0000 15.3614
#
#
#
# Elastic Compliance Matrix: (Units=1/GPa)
#
#
# Indices 1 2 3 4 5 6 
#
# 1 0.013578 -0.003880 -0.002938 0.000000 0.000000 0.000000
# 2 -0.003880 0.013578 -0.002938 0.000000 0.000000 0.000000
# 3 -0.002938 -0.002938 0.008893 0.000000 0.000000 0.000000
# 4 0.000000 0.000000 0.000000 0.031753 0.000000 0.000000
# 5 0.000000 0.000000 0.000000 0.000000 0.031753 0.000000
# 6 0.000000 0.000000 0.000000 0.000000 0.000000 0.065098
#
#
# Mechanical properties :
#
#
# Convention : Reuss Voigt Hill
#
# Bulk Modulus (GPa) = 60.47395 63.20155 61.83775
# Shear Modulus (GPa) = 26.36045 29.38832 27.87439
#
# Velocity S-wave (km/s) = 3.52390 3.72078 3.62368
# Velocity P-wave (km/s) = 6.71157 6.94492 6.82924
#
# Compressibility (1/GPa) = 0.01653605
#
# Stress axis : x y z
#
# Youngs Moduli (GPa) = 73.65093 73.65081 112.44215
#
# Poissons Ratio (x) = 0.28579 0.33035
# Poissons Ratio (y) = 0.28579 0.33035
# Poissons Ratio (z) = 0.21638 0.21638
#
# Static dielectric constant tensor:
#      x y z
#    x 4.050350 0.000000 0.000000 
#    y 0.000000 4.050350 0.000000 
#    z 0.000000 0.000000 3.696950 
# 
# 
# High freq. dielectric constant tensor:
#      x y z
#    x 1.828360 0.000000 0.000000 
#    y 0.000000 1.828360 0.000000 
#    z 0.000000 0.000000 1.823660 
# 
# From -- ./inp_files/5493.got.cif
#   From: 2010.03.12/outbox.cif.g09.slc.cpg/sg115_3_cif.got.tgz:5493.got - 2010.04.14 02:11:21.
