data_PCOD8309094
_publ_section_title
;
Structure prediction by ZEFSAII (Michael W. Deem and Ramdas Pophale) SiO2 
 PCOD8309094
Probable space group: P -4 21 C
;
_chemical_formula_sum "Si O2"
_cell_formula_units_Z 40
_cell_length_a 8.808856
_cell_length_b 8.808856
_cell_length_c 22.419173
_cell_angle_alpha 90.000000
_cell_angle_beta 90.000000
_cell_angle_gamma 90.000000
_cell_volume 1739.636893
_symmetry_space_group_name_H-M "P -4 21 C"
_symmetry_group_IT_number 114
_symmetry_cell_setting 'tetragonal'
loop_
_space_group_symop_operation_xyz
x,y,z
y,-x,-z
-x,-y,z
-y,x,-z
1/2+x,1/2-y,1/2-z
1/2-x,1/2+y,1/2-z
1/2-y,1/2-x,1/2+z
1/2+y,1/2+x,1/2+z
loop_
_atom_site_type_symbol
_atom_site_label
_atom_site_fract_x
_atom_site_fract_y
_atom_site_fract_z
Si Si1 0.767970 0.176768 0.121694
Si Si2 0.177226 0.713235 0.879862
Si Si3 0.529579 0.320930 0.192629
Si Si4 0.330040 0.678992 0.001243
Si Si5 0.024646 0.320716 0.181627
O O1 0.702928 0.279111 0.176983
O O2 0.942116 0.230975 0.127064
O O3 0.750572 0.997776 0.132636
O O4 0.702583 0.215783 0.057357
O O5 0.221393 0.542886 0.861473
O O6 0.220430 0.737544 0.948761
O O7 0.286890 0.801349 0.833693
O O8 0.500000 0.500000 0.187625
O O9 0.478593 0.256708 0.256068
O O10 0.504368 0.701699 0.981296
O O11 0.000000 0.500000 0.183485
#
# Coordination Sequence:
#
# PCOD8309094 Si02
#       5
#     8   8   8   8   8
#     4  12  26  45  70 104 143 188 243 302 369 435
#     4  12  26  45  70 104 143 188 243 302 369 435
#     4  12  24  46  74 106 144 190 241 298 363 446
#     4  11  24  44  69  96 138 186 243 294 361 440
#     4  12  26  46  72 104 146 190 241 300 369 434
#
# _framework density 22.993302
#
# number of rings (size 3 to 8) (size 9 to 14) (size 15 to 20)
#    0.000    0.200    2.000    8.400    2.800    0.000 
#    0.000    0.000    0.000    0.000    0.000    0.000 
#    0.000    0.000    0.000    0.000    0.000    0.000 
#
# Total GULP energy -496055.408053 kJ/mol
# GULP energy per Si atom -12401.385201 kJ/mol
# Density = 2.294097 g / cm^3
# Si number density = 22.993302 Si / 1000 Ang^3
#
#
#
# Elastic Constant Matrix: (Units=GPa)
#
#
# Indices 1 2 3 4 5 6 
#
# 1 109.0464 24.7982 42.0445 0.0000 0.0000 0.0000
# 2 24.7982 109.0464 42.0445 0.0000 0.0000 0.0000
# 3 42.0445 42.0445 111.7975 0.0000 0.0000 0.0000
# 4 0.0000 0.0000 0.0000 39.1465 0.0000 0.0000
# 5 0.0000 0.0000 0.0000 0.0000 39.1465 0.0000
# 6 0.0000 0.0000 0.0000 0.0000 0.0000 38.3896
#
#
#
# Elastic Compliance Matrix: (Units=1/GPa)
#
#
# Indices 1 2 3 4 5 6 
#
# 1 0.010826 -0.001043 -0.003679 0.000000 0.000000 0.000000
# 2 -0.001043 0.010826 -0.003679 0.000000 0.000000 0.000000
# 3 -0.003679 -0.003679 0.011712 0.000000 0.000000 0.000000
# 4 0.000000 0.000000 0.000000 0.025545 0.000000 0.000000
# 5 0.000000 0.000000 0.000000 0.000000 0.025545 0.000000
# 6 0.000000 0.000000 0.000000 0.000000 0.000000 0.026049
#
#
# Mechanical properties :
#
#
# Convention : Reuss Voigt Hill
#
# Bulk Modulus (GPa) = 60.38211 60.85165 60.61688
# Shear Modulus (GPa) = 37.64298 38.07007 37.85652
#
# Velocity S-wave (km/s) = 4.05053 4.07345 4.06201
# Velocity P-wave (km/s) = 6.94215 6.97469 6.95844
#
# Compressibility (1/GPa) = 0.01656120
#
# Stress axis : x y z
#
# Youngs Moduli (GPa) = 92.36825 92.36825 85.38264
#
# Poissons Ratio (x) = 0.09638 0.31413
# Poissons Ratio (y) = 0.09638 0.31413
# Poissons Ratio (z) = 0.33983 0.33983
#
# Static dielectric constant tensor:
#      x y z
#    x 4.148620 0.000000 0.000000 
#    y 0.000000 4.148620 0.000000 
#    z 0.000000 0.000000 3.907140 
# 
# 
# High freq. dielectric constant tensor:
#      x y z
#    x 1.920920 0.000000 0.000000 
#    y 0.000000 1.920920 0.000000 
#    z 0.000000 0.000000 1.911550 
# 
# From -- ./inp_files/3343.got.cif
#   From: 2010.03.12/outbox.cif.g09.slc.cpg/sg114_2_cif.got.tgz:3343.got - 2010.04.14 02:08:34.
