data_PCOD8309277
_publ_section_title
;
Structure prediction by ZEFSAII (Michael W. Deem and Ramdas Pophale) SiO2 
 PCOD8309277
Probable space group: P -4 M 2
;
_chemical_formula_sum "Si O2"
_cell_formula_units_Z 56
_cell_length_a 15.077764
_cell_length_b 15.077764
_cell_length_c 13.968868
_cell_angle_alpha 90.000000
_cell_angle_beta 90.000000
_cell_angle_gamma 90.000000
_cell_volume 3175.668025
_symmetry_space_group_name_H-M "P -4 M 2"
_symmetry_group_IT_number 115
_symmetry_cell_setting 'tetragonal'
loop_
_space_group_symop_operation_xyz
x,y,z
y,-x,-z
-x,-y,z
-y,x,-z
y,x,-z
-y,-x,-z
-x,y,z
x,-y,z
loop_
_atom_site_type_symbol
_atom_site_label
_atom_site_fract_x
_atom_site_fract_y
_atom_site_fract_z
Si Si1 0.601572 0.251078 0.892117
Si Si2 0.145918 0.899066 0.108988
Si Si3 0.750245 0.101018 0.395268
Si Si4 0.334876 0.099756 0.200050
Si Si5 0.595931 0.272770 0.117303
Si Si6 0.240412 0.100650 0.603593
Si Si7 0.098578 0.715159 0.192676
O O1 0.500000 0.249966 0.853313
O O2 0.658029 0.330894 0.843309
O O3 0.653417 0.161055 0.870046
O O4 0.603721 0.262760 0.004475
O O5 0.249926 0.897465 0.130910
O O6 0.103174 0.821519 0.173383
O O7 0.109566 0.000000 0.129614
O O8 0.127024 0.872977 0.000000
O O9 0.684254 0.128344 0.310182
O O10 0.840994 0.153349 0.388547
O O11 0.708035 0.116575 0.501926
O O12 0.777541 0.000000 0.377976
O O13 0.400677 0.174686 0.162652
O O14 0.376342 0.000000 0.196480
O O15 0.500000 0.312955 0.143893
O O16 0.302867 0.121094 0.694986
O O17 0.206807 0.000000 0.609319
O O18 0.000000 0.682882 0.167981
#
# Coordination Sequence:
#
# PCOD8309277 Si02
#       7
#     8   8   8   8   8   8   8
#     4  10  21  37  55  75 102 132 165 208 254 301
#     4  11  21  32  45  66 100 141 179 211 245 288
#     4   9  16  28  44  64  93 130 169 210 257 299
#     4  10  19  32  51  73 102 138 169 206 253 299
#     4  10  20  35  56  79 102 129 165 207 251 303
#     4   9  17  27  43  66  92 126 171 217 254 294
#     4  11  21  33  50  73 102 137 175 212 250 294
#
# _framework density 17.634084999999999
#
# number of rings (size 3 to 8) (size 9 to 14) (size 15 to 20)
#    0.000    2.000    2.857    1.286    0.000    3.857 
#    0.000    5.714    0.000    0.857    0.000    4.000 
#    0.000    0.000    0.000    6.000    0.000    0.286 
#
# Total GULP energy -693782.749546 kJ/mol
# GULP energy per Si atom -12388.977670 kJ/mol
# Density = 1.759395 g / cm^3
# Si number density = 17.634085 Si / 1000 Ang^3
#
#
#
# Elastic Constant Matrix: (Units=GPa)
#
#
# Indices 1 2 3 4 5 6 
#
# 1 87.2371 41.1640 21.3972 0.0000 0.0000 0.0000
# 2 41.1640 87.2372 21.3971 0.0000 0.0000 0.0000
# 3 21.3972 21.3971 54.8445 0.0000 0.0000 0.0000
# 4 0.0000 0.0000 0.0000 13.3963 0.0000 0.0000
# 5 0.0000 0.0000 0.0000 0.0000 13.3963 0.0000
# 6 0.0000 0.0000 0.0000 0.0000 0.0000 7.1125
#
#
#
# Elastic Compliance Matrix: (Units=1/GPa)
#
#
# Indices 1 2 3 4 5 6 
#
# 1 0.015328 -0.006376 -0.003493 0.000000 0.000000 0.000000
# 2 -0.006376 0.015328 -0.003493 0.000000 0.000000 0.000000
# 3 -0.003493 -0.003493 0.020959 0.000000 0.000000 0.000000
# 4 0.000000 0.000000 0.000000 0.074647 0.000000 0.000000
# 5 0.000000 0.000000 0.000000 0.000000 0.074647 0.000000
# 6 0.000000 0.000000 0.000000 0.000000 0.000000 0.140598
#
#
# Mechanical properties :
#
#
# Convention : Reuss Voigt Hill
#
# Bulk Modulus (GPa) = 40.17285 44.13727 42.15506
# Shear Modulus (GPa) = 13.27921 16.47173 14.87547
#
# Velocity S-wave (km/s) = 2.74714 3.05960 2.90757
# Velocity P-wave (km/s) = 5.73526 6.12906 5.93543
#
# Compressibility (1/GPa) = 0.02489243
#
# Stress axis : x y z
#
# Youngs Moduli (GPa) = 65.23849 65.23866 47.71314
#
# Poissons Ratio (x) = 0.41598 0.16664
# Poissons Ratio (y) = 0.41598 0.16664
# Poissons Ratio (z) = 0.22785 0.22785
#
# Static dielectric constant tensor:
#      x y z
#    x 3.202740 0.000000 0.000000 
#    y 0.000000 3.202740 0.000000 
#    z 0.000000 0.000000 3.650350 
# 
# 
# High freq. dielectric constant tensor:
#      x y z
#    x 1.661000 0.000000 0.000000 
#    y 0.000000 1.661000 0.000000 
#    z 0.000000 0.000000 1.684160 
# 
# From -- ./inp_files/3819.got.cif
#   From: 2010.03.12/outbox.cif.g09.slc.cpg/sg115_2_cif.got.tgz:3819.got - 2010.04.14 02:11:21.
