data_PCOD8309606
_publ_section_title
;
Structure prediction by ZEFSAII (Michael W. Deem and Ramdas Pophale) SiO2 
 PCOD8309606
Probable space group: P -4 M 2
;
_chemical_formula_sum "Si O2"
_cell_formula_units_Z 48
_cell_length_a 9.074929
_cell_length_b 9.074929
_cell_length_c 30.872788
_cell_angle_alpha 90.000000
_cell_angle_beta 90.000000
_cell_angle_gamma 90.000000
_cell_volume 2542.507967
_symmetry_space_group_name_H-M "P -4 M 2"
_symmetry_group_IT_number 115
_symmetry_cell_setting 'tetragonal'
loop_
_space_group_symop_operation_xyz
x,y,z
y,-x,-z
-x,-y,z
-y,x,-z
y,x,-z
-y,-x,-z
-x,y,z
x,-y,z
loop_
_atom_site_type_symbol
_atom_site_label
_atom_site_fract_x
_atom_site_fract_y
_atom_site_fract_z
Si Si1 0.328328 0.328328 0.000000
Si Si2 0.824750 0.165931 0.329605
Si Si3 0.169279 0.328016 0.833153
Si Si4 0.173136 0.330175 0.414095
Si Si5 0.328737 0.671264 0.500000
Si Si6 0.169529 0.326762 0.243731
Si Si7 0.830217 0.172761 0.922306
O O1 0.240073 0.274611 0.041644
O O2 0.296273 0.500000 0.992729
O O3 0.762597 0.242082 0.372982
O O4 0.768527 0.252733 0.287450
O O5 0.000000 0.170471 0.330857
O O6 0.764164 0.000000 0.327358
O O7 0.198279 0.500000 0.840009
O O8 0.273311 0.268638 0.795654
O O9 0.213302 0.245530 0.876984
O O10 0.000000 0.295364 0.820772
O O11 0.215793 0.500000 0.407173
O O12 0.246687 0.266761 0.457626
O O13 0.000000 0.307861 0.418737
O O14 0.500000 0.704935 0.493775
O O15 0.186011 0.500000 0.249234
O O16 0.000000 0.281199 0.235185
O O17 0.000000 0.206171 0.934379
O O18 0.800443 0.000000 0.918853
#
# Coordination Sequence:
#
# PCOD8309606 Si02
#       7
#     4   8   8   8   4   8   8
#     4  11  24  39  56  82 116 151 184 221 268 318
#     4   9  17  30  50  75 101 130 167 212 258 303
#     4  10  21  37  57  81 110 143 178 219 268 317
#     4   9  17  30  48  69  94 125 162 204 249 298
#     4   9  18  32  48  67  94 128 162 197 244 302
#     4  10  20  34  54  79 106 139 179 219 261 313
#     4  10  21  38  61  86 110 141 183 226 268 317
#
# _framework density 18.878997999999999
#
# number of rings (size 3 to 8) (size 9 to 14) (size 15 to 20)
#    0.000    2.333    0.000    2.500    0.000    8.000 
#    0.000    0.833    0.000    3.000    0.000    0.000 
#    0.000    0.000    0.000    0.000    0.000    0.000 
#
# Total GULP energy -595357.883510 kJ/mol
# GULP energy per Si atom -12403.289240 kJ/mol
# Density = 1.883603 g / cm^3
# Si number density = 18.878998 Si / 1000 Ang^3
#
#
#
# Elastic Constant Matrix: (Units=GPa)
#
#
# Indices 1 2 3 4 5 6 
#
# 1 77.8558 39.3945 64.7382 0.0000 0.0000 0.0000
# 2 39.3945 77.8556 64.7383 0.0000 0.0000 0.0000
# 3 64.7382 64.7383 165.9726 0.0000 0.0000 0.0000
# 4 0.0000 0.0000 0.0000 -4.2516 0.0000 0.0000
# 5 0.0000 0.0000 0.0000 0.0000 -4.2585 0.0000
# 6 0.0000 0.0000 0.0000 0.0000 0.0000 24.0432
#
#
#
# Elastic Compliance Matrix: (Units=1/GPa)
#
#
# Indices 1 2 3 4 5 6 
#
# 1 0.020491 -0.005509 -0.005844 0.000000 0.000000 0.000000
# 2 -0.005509 0.020491 -0.005844 0.000000 0.000000 0.000000
# 3 -0.005844 -0.005844 0.010584 0.000000 0.000000 0.000000
# 4 0.000000 0.000000 0.000000 -0.235206 0.000000 0.000000
# 5 0.000000 0.000000 0.000000 0.000000 -0.234824 0.000000
# 6 0.000000 0.000000 0.000000 0.000000 0.000000 0.041592
#
#
# Mechanical properties :
#
#
# Convention : Reuss Voigt Hill
#
# Bulk Modulus (GPa) = 58.23225 73.26955 65.75090
# Shear Modulus (GPa) = -14.84761 13.29416 -0.77672
#
# Velocity S-wave (km/s) = -2.80743 2.65651 -0.64212
# Velocity P-wave (km/s) = 4.51697 6.95009 5.86118
#
# Compressibility (1/GPa) = 0.01717262
#
# Stress axis : x y z
#
# Youngs Moduli (GPa) = 48.80193 48.80164 94.48387
#
# Poissons Ratio (x) = 0.26886 0.55213
# Poissons Ratio (y) = 0.26886 0.55214
# Poissons Ratio (z) = 0.28518 0.28518
#
# Static dielectric constant tensor:
#      x y z
#    x 3.397990 0.000000 0.000000 
#    y 0.000000 3.398000 0.000000 
#    z 0.000000 0.000000 3.713950 
# 
# 
# High freq. dielectric constant tensor:
#      x y z
#    x 1.723620 0.000000 0.000000 
#    y 0.000000 1.723620 0.000000 
#    z 0.000000 0.000000 1.749290 
# 
# From -- ./inp_files/6141.got.cif
#   From: 2010.03.12/outbox.cif.g09.slc.cpg/sg115_4_cif.got.tgz:6141.got - 2010.04.14 02:11:21.
