data_PCOD8309699
_publ_section_title
;
Structure prediction by ZEFSAII (Michael W. Deem and Ramdas Pophale) SiO2 
 PCOD8309699
Probable space group: P -4 M 2
;
_chemical_formula_sum "Si O2"
_cell_formula_units_Z 26
_cell_length_a 7.711166
_cell_length_b 7.711166
_cell_length_c 21.756144
_cell_angle_alpha 90.000000
_cell_angle_beta 90.000000
_cell_angle_gamma 90.000000
_cell_volume 1293.665599
_symmetry_space_group_name_H-M "P -4 M 2"
_symmetry_group_IT_number 115
_symmetry_cell_setting 'tetragonal'
loop_
_space_group_symop_operation_xyz
x,y,z
y,-x,-z
-x,-y,z
-y,x,-z
y,x,-z
-y,-x,-z
-x,y,z
x,-y,z
loop_
_atom_site_type_symbol
_atom_site_label
_atom_site_fract_x
_atom_site_fract_y
_atom_site_fract_z
Si Si1 0.206033 0.000000 0.348207
Si Si2 0.500000 0.000000 0.249533
Si Si3 0.500000 0.310428 0.155626
Si Si4 0.203229 0.196018 0.929793
Si Si5 0.692271 0.801832 0.563835
O O1 0.263556 0.830660 0.386527
O O2 0.321205 0.000000 0.287409
O O3 0.000000 0.000000 0.331876
O O4 0.500000 0.170654 0.208823
O O5 0.500000 0.500000 0.186724
O O6 0.671489 0.299576 0.114241
O O7 0.000000 0.211443 0.917582
O O8 0.266706 0.000000 0.915740
O O9 0.245520 0.245520 0.000000
O O10 0.698795 0.698795 0.500000
O O11 0.500000 0.777947 0.592214
O O12 0.733944 0.000000 0.547464
#
# Coordination Sequence:
#
# PCOD8309699 Si02
#       5
#     4   2   4   8   8
#     4  10  24  44  66  88 124 178 214 267 318 374
#     4  12  28  48  64  88 132 184 232 258 308 400
#     4  12  26  42  64  96 132 180 218 269 326 396
#     4   9  19  38  65  97 132 167 211 271 335 391
#     4  10  20  35  61  96 129 159 203 261 326 386
#
# _framework density 20.097929000000001
#
# number of rings (size 3 to 8) (size 9 to 14) (size 15 to 20)
#    0.000    1.846    3.077    0.923    4.308    3.385 
#    0.000    0.000    0.000    0.000    0.000    0.000 
#    0.000    0.000    0.000    0.000    0.000    0.000 
#
# Total GULP energy -322407.772571 kJ/mol
# GULP energy per Si atom -12400.298945 kJ/mol
# Density = 2.005219 g / cm^3
# Si number density = 20.097929 Si / 1000 Ang^3
#
#
#
# Elastic Constant Matrix: (Units=GPa)
#
#
# Indices 1 2 3 4 5 6 
#
# 1 129.3019 48.7324 69.0561 0.0000 0.0000 0.0000
# 2 48.7324 129.3019 69.0561 0.0000 0.0000 0.0000
# 3 69.0561 69.0561 116.1992 0.0000 0.0000 0.0000
# 4 0.0000 0.0000 0.0000 35.2524 0.0000 0.0000
# 5 0.0000 0.0000 0.0000 0.0000 35.2524 0.0000
# 6 0.0000 0.0000 0.0000 0.0000 0.0000 17.9523
#
#
#
# Elastic Compliance Matrix: (Units=1/GPa)
#
#
# Indices 1 2 3 4 5 6 
#
# 1 0.011417 -0.000995 -0.006193 0.000000 0.000000 0.000000
# 2 -0.000995 0.011417 -0.006193 0.000000 0.000000 0.000000
# 3 -0.006193 -0.006193 0.015967 0.000000 0.000000 0.000000
# 4 0.000000 0.000000 0.000000 0.028367 0.000000 0.000000
# 5 0.000000 0.000000 0.000000 0.000000 0.028367 0.000000
# 6 0.000000 0.000000 0.000000 0.000000 0.000000 0.055703
#
#
# Mechanical properties :
#
#
# Convention : Reuss Voigt Hill
#
# Bulk Modulus (GPa) = 83.07946 83.16580 83.12263
# Shear Modulus (GPa) = 27.47053 30.22200 28.84627
#
# Velocity S-wave (km/s) = 3.70108 3.88201 3.79263
# Velocity P-wave (km/s) = 7.72600 7.84624 7.78635
#
# Compressibility (1/GPa) = 0.01203667
#
# Stress axis : x y z
#
# Youngs Moduli (GPa) = 87.59204 87.59204 62.62816
#
# Poissons Ratio (x) = 0.08716 0.38788
# Poissons Ratio (y) = 0.08716 0.38788
# Poissons Ratio (z) = 0.54249 0.54249
#
# Static dielectric constant tensor:
#      x y z
#    x 3.759450 0.000000 0.000000 
#    y 0.000000 3.759450 0.000000 
#    z 0.000000 0.000000 3.395390 
# 
# 
# High freq. dielectric constant tensor:
#      x y z
#    x 1.793570 0.000000 0.000000 
#    y 0.000000 1.793570 0.000000 
#    z 0.000000 0.000000 1.756290 
# 
# From -- ./inp_files/4057.got.cif
#   From: 2010.03.12/outbox.cif.g09.slc.cpg/sg115_3_cif.got.tgz:4057.got - 2010.04.14 02:11:21.
