data_PCOD8309742
_publ_section_title
;
Structure prediction by ZEFSAII (Michael W. Deem and Ramdas Pophale) SiO2 
 PCOD8309742
Probable space group: P -4 M 2
;
_chemical_formula_sum "Si O2"
_cell_formula_units_Z 44
_cell_length_a 9.080537
_cell_length_b 9.080537
_cell_length_c 28.773559
_cell_angle_alpha 90.000000
_cell_angle_beta 90.000000
_cell_angle_gamma 90.000000
_cell_volume 2372.556960
_symmetry_space_group_name_H-M "P -4 M 2"
_symmetry_group_IT_number 115
_symmetry_cell_setting 'tetragonal'
loop_
_space_group_symop_operation_xyz
x,y,z
y,-x,-z
-x,-y,z
-y,x,-z
y,x,-z
-y,-x,-z
-x,y,z
x,-y,z
loop_
_atom_site_type_symbol
_atom_site_label
_atom_site_fract_x
_atom_site_fract_y
_atom_site_fract_z
Si Si1 0.671267 0.827717 0.957728
Si Si2 0.339650 0.173811 0.225759
Si Si3 0.325575 0.166112 0.591624
Si Si4 0.328550 0.328550 0.500000
Si Si5 0.324536 0.168013 0.325889
Si Si6 0.675811 0.168827 0.125061
O O1 0.500000 0.794945 0.966246
O O2 0.720833 0.751684 0.910289
O O3 0.703574 0.000000 0.954271
O O4 0.762758 0.762758 0.000000
O O5 0.500000 0.249860 0.225074
O O6 0.261394 0.218008 0.274620
O O7 0.261156 0.213490 0.176676
O O8 0.362254 0.000000 0.226962
O O9 0.500000 0.170826 0.592068
O O10 0.266692 0.243212 0.544846
O O11 0.271860 0.252844 0.636363
O O12 0.265247 0.000000 0.592881
O O13 0.297170 0.500000 0.508357
O O14 0.500000 0.186293 0.326713
O O15 0.279844 0.000000 0.336682
O O16 0.500000 0.187418 0.123232
O O17 0.717836 0.000000 0.112883
#
# Coordination Sequence:
#
# PCOD8309742 Si02
#       6
#     8   8   8   4   8   8
#     4  11  24  39  54  75 103 134 169 208 251 300
#     4   7  12  26  49  76 103 130 164 206 246 286
#     4  10  21  35  50  72 103 134 163 201 252 304
#     4   9  18  34  54  71  90 124 170 213 250 295
#     4   9  17  31  53  78 102 132 171 210 246 288
#     4   9  17  32  56  82 105 131 166 208 252 296
#
# _framework density 18.545394000000002
#
# number of rings (size 3 to 8) (size 9 to 14) (size 15 to 20)
#    0.000    2.818    0.000    3.818    0.000    6.182 
#    0.000    3.636    0.000    8.727    0.000    0.000 
#    0.000    0.000    0.000    0.000    0.000    0.000 
#
# Total GULP energy -545204.506993 kJ/mol
# GULP energy per Si atom -12391.011523 kJ/mol
# Density = 1.850318 g / cm^3
# Si number density = 18.545394 Si / 1000 Ang^3
#
#
#
# Elastic Constant Matrix: (Units=GPa)
#
#
# Indices 1 2 3 4 5 6 
#
# 1 43.1333 23.6355 37.8112 0.0000 0.0000 0.0000
# 2 23.6355 43.1333 37.8112 0.0000 0.0000 0.0000
# 3 37.8112 37.8112 168.0611 0.0000 0.0000 0.0000
# 4 0.0000 0.0000 0.0000 58.2269 0.0000 0.0000
# 5 0.0000 0.0000 0.0000 0.0000 58.2269 0.0000
# 6 0.0000 0.0000 0.0000 0.0000 0.0000 22.0294
#
#
#
# Elastic Compliance Matrix: (Units=1/GPa)
#
#
# Indices 1 2 3 4 5 6 
#
# 1 0.035693 -0.015595 -0.004522 0.000000 0.000000 0.000000
# 2 -0.015595 0.035693 -0.004522 0.000000 0.000000 0.000000
# 3 -0.004522 -0.004522 0.007985 0.000000 0.000000 0.000000
# 4 0.000000 0.000000 0.000000 0.017174 0.000000 0.000000
# 5 0.000000 0.000000 0.000000 0.000000 0.017174 0.000000
# 6 0.000000 0.000000 0.000000 0.000000 0.000000 0.045394
#
#
# Mechanical properties :
#
#
# Convention : Reuss Voigt Hill
#
# Bulk Modulus (GPa) = 33.22868 50.31598 41.77233
# Shear Modulus (GPa) = 22.89148 38.03462 30.46305
#
# Velocity S-wave (km/s) = 3.51714 4.53359 4.05732
# Velocity P-wave (km/s) = 5.86942 7.38883 6.67251
#
# Compressibility (1/GPa) = 0.03009448
#
# Stress axis : x y z
#
# Youngs Moduli (GPa) = 28.01653 28.01653 125.23604
#
# Poissons Ratio (x) = 0.43691 0.56630
# Poissons Ratio (y) = 0.43691 0.56630
# Poissons Ratio (z) = 0.12669 0.12669
#
# Static dielectric constant tensor:
#      x y z
#    x 3.090040 0.000000 0.000000 
#    y 0.000000 3.090040 0.000000 
#    z 0.000000 0.000000 3.888260 
# 
# 
# High freq. dielectric constant tensor:
#      x y z
#    x 1.692280 0.000000 0.000000 
#    y 0.000000 1.692280 0.000000 
#    z 0.000000 0.000000 1.747270 
# 
# From -- ./inp_files/5767.got.cif
#   From: 2010.03.12/outbox.cif.g09.slc.cpg/sg115_3_cif.got.tgz:5767.got - 2010.04.14 02:11:21.
