data_PCOD8309236
_publ_section_title
;
Structure prediction by ZEFSAII (Michael W. Deem and Ramdas Pophale) SiO2 
 PCOD8309236
Probable space group: P -4 M 2
;
_chemical_formula_sum "Si O2"
_cell_formula_units_Z 64
_cell_length_a 13.532132
_cell_length_b 13.532132
_cell_length_c 20.492600
_cell_angle_alpha 90.000000
_cell_angle_beta 90.000000
_cell_angle_gamma 90.000000
_cell_volume 3752.576150
_symmetry_space_group_name_H-M "P -4 M 2"
_symmetry_group_IT_number 115
_symmetry_cell_setting 'tetragonal'
loop_
_space_group_symop_operation_xyz
x,y,z
y,-x,-z
-x,-y,z
-y,x,-z
y,x,-z
-y,-x,-z
-x,y,z
x,-y,z
loop_
_atom_site_type_symbol
_atom_site_label
_atom_site_fract_x
_atom_site_fract_y
_atom_site_fract_z
Si Si1 0.616287 0.778974 0.500000
Si Si2 0.116158 0.724078 0.613825
Si Si3 0.615972 0.227710 0.125795
Si Si4 0.387995 0.885765 0.254955
Si Si5 0.227710 0.384028 0.125795
Si Si6 0.724078 0.116159 0.613826
Si Si7 0.387995 0.885765 0.745045
Si Si8 0.890037 0.382489 0.000000
O O1 0.675042 0.675042 0.500000
O O2 0.500000 0.755615 0.500000
O O3 0.643619 0.843777 0.436987
O O4 0.643619 0.843777 0.563013
O O5 0.140185 0.683336 0.685431
O O6 0.171395 0.828605 0.603805
O O7 0.000000 0.741224 0.602667
O O8 0.500000 0.244454 0.121671
O O9 0.648128 0.173358 0.191914
O O10 0.664964 0.335036 0.124148
O O11 0.655581 0.164749 0.064683
O O12 0.500000 0.856706 0.274212
O O13 0.382008 0.000000 0.236273
O O14 0.244455 0.500000 0.121671
O O15 0.173359 0.351873 0.191914
O O16 0.164749 0.344419 0.064683
O O17 0.683337 0.140185 0.685431
O O18 0.741224 0.000000 0.602667
O O19 0.500000 0.856707 0.725788
O O20 0.382007 0.000000 0.763728
O O21 0.894583 0.500000 0.000000
O O22 0.000000 0.337667 0.000000
#
# Coordination Sequence:
#
# PCOD8309236 Si02
#       8
#     8   8   8   8   8   8   8   8
#     4  10  21  36  54  76 100 126 159 198 240 288
#     4  10  20  33  50  73 100 130 164 201 241 286
#     4  10  19  30  45  66  94 125 154 186 225 273
#     4   9  17  30  49  71  93 120 157 201 244 280
#     4  10  19  30  45  66  94 125 154 186 225 273
#     4  10  20  33  50  73 100 130 164 201 241 286
#     4   9  17  30  49  71  93 120 157 201 244 280
#     4   9  17  30  47  65  85 111 147 191 233 268
#
# _framework density 17.054950000000002
#
# number of rings (size 3 to 8) (size 9 to 14) (size 15 to 20)
#    0.000    2.375    0.000    3.000    0.000    5.625 
#    0.000    0.000    0.000    4.500    0.000    3.500 
#    0.000   19.000    0.000    0.000    0.000    0.000 
#
# Total GULP energy -793654.227381 kJ/mol
# GULP energy per Si atom -12400.847303 kJ/mol
# Density = 1.701613 g / cm^3
# Si number density = 17.054950 Si / 1000 Ang^3
#
#
#
# Elastic Constant Matrix: (Units=GPa)
#
#
# Indices 1 2 3 4 5 6 
#
# 1 91.2703 53.5700 54.0841 0.0000 0.0000 0.0000
# 2 53.5700 91.2703 54.0841 0.0000 0.0000 0.0000
# 3 54.0841 54.0841 122.8499 0.0000 0.0000 0.0000
# 4 0.0000 0.0000 0.0000 22.4970 0.0000 0.0000
# 5 0.0000 0.0000 0.0000 0.0000 22.4970 0.0000
# 6 0.0000 0.0000 0.0000 0.0000 0.0000 21.7620
#
#
#
# Elastic Compliance Matrix: (Units=1/GPa)
#
#
# Indices 1 2 3 4 5 6 
#
# 1 0.018406 -0.008120 -0.004528 0.000000 0.000000 0.000000
# 2 -0.008120 0.018406 -0.004528 0.000000 0.000000 0.000000
# 3 -0.004528 -0.004528 0.012127 0.000000 0.000000 0.000000
# 4 0.000000 0.000000 0.000000 0.044450 0.000000 0.000000
# 5 0.000000 0.000000 0.000000 0.000000 0.044450 0.000000
# 6 0.000000 0.000000 0.000000 0.000000 0.000000 0.045952
#
#
# Mechanical properties :
#
#
# Convention : Reuss Voigt Hill
#
# Bulk Modulus (GPa) = 68.56019 69.87411 69.21715
# Shear Modulus (GPa) = 22.42103 22.92801 22.67452
#
# Velocity S-wave (km/s) = 3.62972 3.67053 3.65018
# Velocity P-wave (km/s) = 7.60614 7.68262 7.64448
#
# Compressibility (1/GPa) = 0.01458572
#
# Stress axis : x y z
#
# Youngs Moduli (GPa) = 54.33154 54.33154 82.45925
#
# Poissons Ratio (x) = 0.44115 0.37341
# Poissons Ratio (y) = 0.44115 0.37341
# Poissons Ratio (z) = 0.24603 0.24603
#
# Static dielectric constant tensor:
#      x y z
#    x 3.029360 0.000000 0.000000 
#    y 0.000000 3.029360 0.000000 
#    z 0.000000 0.000000 3.384490 
# 
# 
# High freq. dielectric constant tensor:
#      x y z
#    x 1.645450 0.000000 0.000000 
#    y 0.000000 1.645450 0.000000 
#    z 0.000000 0.000000 1.678320 
# 
# From -- ./inp_files/5410.got.cif
#   From: 2010.03.12/outbox.cif.g09.slc.cpg/sg115_3_cif.got.tgz:5410.got - 2010.04.14 02:11:21.
