data_PCOD8309215
_publ_section_title
;
Structure prediction by ZEFSAII (Michael W. Deem and Ramdas Pophale) SiO2 
 PCOD8309215
Probable space group: P -4 M 2
;
_chemical_formula_sum "Si O2"
_cell_formula_units_Z 56
_cell_length_a 14.744885
_cell_length_b 14.744885
_cell_length_c 20.024883
_cell_angle_alpha 90.000000
_cell_angle_beta 90.000000
_cell_angle_gamma 90.000000
_cell_volume 4353.642527
_symmetry_space_group_name_H-M "P -4 M 2"
_symmetry_group_IT_number 115
_symmetry_cell_setting 'tetragonal'
loop_
_space_group_symop_operation_xyz
x,y,z
y,-x,-z
-x,-y,z
-y,x,-z
y,x,-z
-y,-x,-z
-x,y,z
x,-y,z
loop_
_atom_site_type_symbol
_atom_site_label
_atom_site_fract_x
_atom_site_fract_y
_atom_site_fract_z
Si Si1 0.398503 0.392094 0.073967
Si Si2 0.398156 0.101576 0.460303
Si Si3 0.712192 0.263594 0.424047
Si Si4 0.285294 0.392471 0.196931
Si Si5 0.394255 0.393835 0.327111
Si Si6 0.323096 0.899610 0.604017
Si Si7 0.605532 0.098641 0.749138
O O1 0.500000 0.353512 0.087669
O O2 0.403088 0.500000 0.078856
O O3 0.327419 0.352673 0.128244
O O4 0.364103 0.364103 0.000000
O O5 0.500000 0.129508 0.442269
O O6 0.332233 0.164868 0.417001
O O7 0.388171 0.110442 0.540208
O O8 0.376127 0.000000 0.436952
O O9 0.704381 0.295620 0.500000
O O10 0.658542 0.339069 0.383300
O O11 0.816935 0.251280 0.400047
O O12 0.277742 0.500000 0.192495
O O13 0.353541 0.364930 0.255836
O O14 0.183937 0.351308 0.210286
O O15 0.500000 0.368518 0.327809
O O16 0.379008 0.500000 0.341056
O O17 0.382324 0.886381 0.670229
O O18 0.275841 0.000000 0.603786
O O19 0.500000 0.096378 0.764314
O O20 0.647767 0.000000 0.770694
#
# Coordination Sequence:
#
# PCOD8309215 Si02
#       7
#     8   8   8   8   8   8   8
#     4   8  13  21  33  48  66  92 124 151 175 207
#     4   9  17  28  41  54  68  90 123 162 197 225
#     4  10  19  28  39  53  70  93 123 159 193 229
#     4   9  15  23  34  48  70  97 123 153 183 213
#     4  10  19  27  34  48  73 103 128 149 182 225
#     4   9  16  26  39  53  69  91 120 154 192 231
#     4   9  15  22  34  51  70  94 125 156 184 218
#
# _framework density 12.862793
#
# number of rings (size 3 to 8) (size 9 to 14) (size 15 to 20)
#    0.000    2.857    1.429    1.714    0.000    6.286 
#    0.000    0.714    0.000    0.429    0.000    3.000 
#    0.000    1.143    0.000    8.286    0.000    0.571 
#
# Total GULP energy -693821.113997 kJ/mol
# GULP energy per Si atom -12389.662750 kJ/mol
# Density = 1.283352 g / cm^3
# Si number density = 12.862793 Si / 1000 Ang^3
#
#
#
# Elastic Constant Matrix: (Units=GPa)
#
#
# Indices 1 2 3 4 5 6 
#
# 1 78.4940 38.8458 32.3774 0.0000 0.0000 0.0000
# 2 38.8458 78.4939 32.3773 0.0000 0.0000 0.0000
# 3 32.3774 32.3773 70.6829 0.0000 0.0000 0.0000
# 4 0.0000 0.0000 0.0000 8.1194 0.0000 0.0000
# 5 0.0000 0.0000 0.0000 0.0000 8.1194 0.0000
# 6 0.0000 0.0000 0.0000 0.0000 0.0000 12.8137
#
#
#
# Elastic Compliance Matrix: (Units=1/GPa)
#
#
# Indices 1 2 3 4 5 6 
#
# 1 0.018314 -0.006908 -0.005224 0.000000 0.000000 0.000000
# 2 -0.006908 0.018314 -0.005224 0.000000 0.000000 0.000000
# 3 -0.005224 -0.005224 0.018934 0.000000 0.000000 0.000000
# 4 0.000000 0.000000 0.000000 0.123161 0.000000 0.000000
# 5 0.000000 0.000000 0.000000 0.000000 0.123162 0.000000
# 6 0.000000 0.000000 0.000000 0.000000 0.000000 0.078042
#
#
# Mechanical properties :
#
#
# Convention : Reuss Voigt Hill
#
# Bulk Modulus (GPa) = 47.96838 48.31910 48.14374
# Shear Modulus (GPa) = 11.85989 14.08186 12.97088
#
# Velocity S-wave (km/s) = 3.03979 3.31233 3.17898
# Velocity P-wave (km/s) = 7.04938 7.23016 7.14034
#
# Compressibility (1/GPa) = 0.02084707
#
# Stress axis : x y z
#
# Youngs Moduli (GPa) = 54.60427 54.60423 52.81527
#
# Poissons Ratio (x) = 0.37722 0.27593
# Poissons Ratio (y) = 0.37722 0.27593
# Poissons Ratio (z) = 0.28528 0.28527
#
# Static dielectric constant tensor:
#      x y z
#    x 2.654960 0.000000 0.000000 
#    y 0.000000 2.654950 0.000000 
#    z 0.000000 0.000000 2.628160 
# 
# 
# High freq. dielectric constant tensor:
#      x y z
#    x 1.466870 0.000000 0.000000 
#    y 0.000000 1.466870 0.000000 
#    z 0.000000 0.000000 1.472360 
# 
# From -- ./inp_files/4360.got.cif
#   From: 2010.03.12/outbox.cif.g09.slc.cpg/sg115_3_cif.got.tgz:4360.got - 2010.04.14 02:11:21.
