data_PCOD8309029
_publ_section_title
;
Structure prediction by ZEFSAII (Michael W. Deem and Ramdas Pophale) SiO2 
 PCOD8309029
Probable space group: P -4 21 C
;
_chemical_formula_sum "Si O2"
_cell_formula_units_Z 34
_cell_length_a 8.814097
_cell_length_b 8.814097
_cell_length_c 18.642970
_cell_angle_alpha 90.000000
_cell_angle_beta 90.000000
_cell_angle_gamma 90.000000
_cell_volume 1448.340757
_symmetry_space_group_name_H-M "P -4 21 C"
_symmetry_group_IT_number 114
_symmetry_cell_setting 'tetragonal'
loop_
_space_group_symop_operation_xyz
x,y,z
y,-x,-z
-x,-y,z
-y,x,-z
1/2+x,1/2-y,1/2-z
1/2-x,1/2+y,1/2-z
1/2-y,1/2-x,1/2+z
1/2+y,1/2+x,1/2+z
loop_
_atom_site_type_symbol
_atom_site_label
_atom_site_fract_x
_atom_site_fract_y
_atom_site_fract_z
Si Si1 0.272960 0.932707 0.913663
Si Si2 0.729411 0.741920 0.847506
Si Si3 0.766622 0.065584 0.517579
Si Si4 0.565847 0.167271 0.779597
Si Si5 0.000000 0.000000 0.000000
O O1 0.300642 0.843867 0.839208
O O2 0.277177 0.111422 0.898188
O O3 0.404388 0.883730 0.969965
O O4 0.109429 0.897705 0.949533
O O5 0.760403 0.597750 0.898302
O O6 0.568040 0.723630 0.807619
O O7 0.865025 0.747305 0.790156
O O8 0.893312 0.181804 0.487977
O O9 0.500000 0.000000 0.762819
#
# Coordination Sequence:
#
# PCOD8309029 Si02
#       5
#     8   8   8   8   2
#     4  11  24  44  71 104 145 181 241 293 359 415
#     4  11  24  47  72 103 141 192 237 298 356 423
#     4  11  24  45  72 102 144 189 235 292 360 426
#     4  10  25  47  69 104 148 190 236 299 359 432
#     4  12  24  40  76 116 136 192 238 316 348 428
#
# _framework density 23.475141000000001
#
# number of rings (size 3 to 8) (size 9 to 14) (size 15 to 20)
#    0.000    1.176    4.706    0.000    3.294    3.765 
#    4.235    0.000    0.000    0.000    0.000    0.000 
#    0.000    0.000    0.000    0.000    0.000    0.000 
#
# Total GULP energy -421588.861824 kJ/mol
# GULP energy per Si atom -12399.672407 kJ/mol
# Density = 2.342171 g / cm^3
# Si number density = 23.475141 Si / 1000 Ang^3
#
#
#
# Elastic Constant Matrix: (Units=GPa)
#
#
# Indices 1 2 3 4 5 6 
#
# 1 79.3435 19.5165 51.9303 0.0000 0.0000 0.0000
# 2 19.5165 79.3435 51.9303 0.0000 0.0000 0.0000
# 3 51.9303 51.9303 151.7830 0.0000 0.0000 0.0000
# 4 0.0000 0.0000 0.0000 34.5463 0.0000 0.0000
# 5 0.0000 0.0000 0.0000 0.0000 34.5463 0.0000
# 6 0.0000 0.0000 0.0000 0.0000 0.0000 30.3882
#
#
#
# Elastic Compliance Matrix: (Units=1/GPa)
#
#
# Indices 1 2 3 4 5 6 
#
# 1 0.016253 -0.000462 -0.005403 0.000000 0.000000 0.000000
# 2 -0.000462 0.016253 -0.005403 0.000000 0.000000 0.000000
# 3 -0.005403 -0.005403 0.010285 0.000000 0.000000 0.000000
# 4 0.000000 0.000000 0.000000 0.028947 0.000000 0.000000
# 5 0.000000 0.000000 0.000000 0.000000 0.028947 0.000000
# 6 0.000000 0.000000 0.000000 0.000000 0.000000 0.032907
#
#
# Mechanical properties :
#
#
# Convention : Reuss Voigt Hill
#
# Bulk Modulus (GPa) = 49.36579 61.91379 55.63979
# Shear Modulus (GPa) = 30.69758 32.36903 31.53330
#
# Velocity S-wave (km/s) = 3.62009 3.71733 3.66903
# Velocity P-wave (km/s) = 6.20870 6.69748 6.45772
#
# Compressibility (1/GPa) = 0.02025694
#
# Stress axis : x y z
#
# Youngs Moduli (GPa) = 61.52663 61.52663 97.22597
#
# Poissons Ratio (x) = 0.02841 0.52529
# Poissons Ratio (y) = 0.02841 0.52529
# Poissons Ratio (z) = 0.33242 0.33242
#
# Static dielectric constant tensor:
#      x y z
#    x 4.115390 0.000000 0.000000 
#    y 0.000000 4.115390 0.000000 
#    z 0.000000 0.000000 4.352870 
# 
# 
# High freq. dielectric constant tensor:
#      x y z
#    x 1.918250 0.000000 0.000000 
#    y 0.000000 1.918250 0.000000 
#    z 0.000000 0.000000 1.939560 
# 
# From -- ./inp_files/2916.got.cif
#   From: 2010.03.12/outbox.cif.g09.slc.cpg/sg114_2_cif.got.tgz:2916.got - 2010.04.14 02:08:34.
