data_PCOD8309439
_publ_section_title
;
Structure prediction by ZEFSAII (Michael W. Deem and Ramdas Pophale) SiO2 
 PCOD8309439
Probable space group: P -4 M 2
;
_chemical_formula_sum "Si O2"
_cell_formula_units_Z 44
_cell_length_a 14.744337
_cell_length_b 14.744337
_cell_length_c 10.837881
_cell_angle_alpha 90.000000
_cell_angle_beta 90.000000
_cell_angle_gamma 90.000000
_cell_volume 2356.106272
_symmetry_space_group_name_H-M "P -4 M 2"
_symmetry_group_IT_number 115
_symmetry_cell_setting 'tetragonal'
loop_
_space_group_symop_operation_xyz
x,y,z
y,-x,-z
-x,-y,z
-y,x,-z
y,x,-z
-y,-x,-z
-x,y,z
x,-y,z
loop_
_atom_site_type_symbol
_atom_site_label
_atom_site_fract_x
_atom_site_fract_y
_atom_site_fract_z
Si Si1 0.899592 0.251427 0.381590
Si Si2 0.396563 0.895385 0.163380
Si Si3 0.228070 0.099544 0.329812
Si Si4 0.746889 0.604837 0.037687
Si Si5 0.604225 0.395776 0.500000
Si Si6 0.604441 0.236926 0.680912
O O1 0.906769 0.227747 0.524001
O O2 0.846993 0.175740 0.298745
O O3 0.846210 0.345290 0.382229
O O4 0.000000 0.262033 0.324209
O O5 0.500000 0.874928 0.208271
O O6 0.326462 0.872663 0.274145
O O7 0.370801 0.834310 0.045205
O O8 0.387982 0.000000 0.122027
O O9 0.199953 0.000000 0.277094
O O10 0.721738 0.500000 0.026698
O O11 0.657939 0.657939 0.000000
O O12 0.765448 0.633397 0.177387
O O13 0.500000 0.380155 0.458821
O O14 0.630550 0.332755 0.616610
O O15 0.500000 0.216307 0.662436
#
# Coordination Sequence:
#
# PCOD8309439 Si02
#       6
#     8   8   8   8   4   8
#     4  10  20  33  50  73 103 137 169 206 256 305
#     4   9  18  34  56  78 100 130 169 214 261 306
#     4   9  18  33  53  77 102 129 169 215 254 302
#     4  10  21  35  51  73 101 133 169 208 251 300
#     4   9  18  34  56  78 102 135 170 208 256 305
#     4  10  21  35  51  75 105 135 171 209 248 304
#
# _framework density 18.674878
#
# number of rings (size 3 to 8) (size 9 to 14) (size 15 to 20)
#    0.000    2.455    0.000    2.182    0.000    3.091 
#    0.000   11.818    0.000    0.000    0.000    0.000 
#    0.000    4.364    0.000    0.000    0.000    0.000 
#
# Total GULP energy -545381.360331 kJ/mol
# GULP energy per Si atom -12395.030917 kJ/mol
# Density = 1.863237 g / cm^3
# Si number density = 18.674878 Si / 1000 Ang^3
#
#
#
# Elastic Constant Matrix: (Units=GPa)
#
#
# Indices 1 2 3 4 5 6 
#
# 1 111.7352 58.0623 40.6296 0.0000 0.0000 0.0000
# 2 58.0623 111.7375 40.6290 0.0000 0.0000 0.0000
# 3 40.6296 40.6290 54.6163 0.0000 0.0000 0.0000
# 4 0.0000 0.0000 0.0000 26.4353 0.0000 0.0000
# 5 0.0000 0.0000 0.0000 0.0000 26.4354 0.0000
# 6 0.0000 0.0000 0.0000 0.0000 0.0000 29.1755
#
#
#
# Elastic Compliance Matrix: (Units=1/GPa)
#
#
# Indices 1 2 3 4 5 6 
#
# 1 0.013888 -0.004743 -0.006803 0.000000 0.000000 0.000000
# 2 -0.004743 0.013888 -0.006803 0.000000 0.000000 0.000000
# 3 -0.006803 -0.006803 0.028431 0.000000 0.000000 0.000000
# 4 0.000000 0.000000 0.000000 0.037828 0.000000 0.000000
# 5 0.000000 0.000000 0.000000 0.000000 0.037828 0.000000
# 6 0.000000 0.000000 0.000000 0.000000 0.000000 0.034275
#
#
# Mechanical properties :
#
#
# Convention : Reuss Voigt Hill
#
# Bulk Modulus (GPa) = 51.25812 61.85897 56.55854
# Shear Modulus (GPa) = 23.88465 25.66045 24.77255
#
# Velocity S-wave (km/s) = 3.58015 3.71086 3.64609
# Velocity P-wave (km/s) = 6.67811 7.18030 6.93375
#
# Compressibility (1/GPa) = 0.01950910
#
# Stress axis : x y z
#
# Youngs Moduli (GPa) = 72.00341 72.00617 35.17277
#
# Poissons Ratio (x) = 0.34153 0.23929
# Poissons Ratio (y) = 0.34151 0.23927
# Poissons Ratio (z) = 0.48986 0.48983
#
# Static dielectric constant tensor:
#      x y z
#    x 3.651320 0.000000 0.000000 
#    y 0.000000 3.651310 0.000000 
#    z 0.000000 0.000000 2.670060 
# 
# 
# High freq. dielectric constant tensor:
#      x y z
#    x 1.731000 0.000000 0.000000 
#    y 0.000000 1.731000 0.000000 
#    z 0.000000 0.000000 1.703820 
# 
# From -- ./inp_files/2857.got.cif
#   From: 2010.03.12/outbox.cif.g09.slc.cpg/sg115_2_cif.got.tgz:2857.got - 2010.04.14 02:11:21.
