data_PCOD8309918
_publ_section_title
;
Structure prediction by ZEFSAII (Michael W. Deem and Ramdas Pophale) SiO2 
 PCOD8309918
Probable space group: P -4 M 2
;
_chemical_formula_sum "Si O2"
_cell_formula_units_Z 44
_cell_length_a 9.133210
_cell_length_b 9.133210
_cell_length_c 28.697007
_cell_angle_alpha 90.000000
_cell_angle_beta 90.000000
_cell_angle_gamma 90.000000
_cell_volume 2393.775902
_symmetry_space_group_name_H-M "P -4 M 2"
_symmetry_group_IT_number 115
_symmetry_cell_setting 'tetragonal'
loop_
_space_group_symop_operation_xyz
x,y,z
y,-x,-z
-x,-y,z
-y,x,-z
y,x,-z
-y,-x,-z
-x,y,z
x,-y,z
loop_
_atom_site_type_symbol
_atom_site_label
_atom_site_fract_x
_atom_site_fract_y
_atom_site_fract_z
Si Si1 0.325605 0.835275 0.960041
Si Si2 0.829232 0.330095 0.406481
Si Si3 0.831616 0.168385 0.500000
Si Si4 0.831880 0.672774 0.676743
Si Si5 0.826861 0.340254 0.139822
Si Si6 0.325536 0.168307 0.759174
O O1 0.500000 0.829184 0.957817
O O2 0.261536 0.781880 0.909123
O O3 0.272043 0.000000 0.971101
O O4 0.271222 0.728779 0.000000
O O5 0.787847 0.500000 0.404317
O O6 0.784761 0.268912 0.456894
O O7 0.738722 0.244743 0.368193
O O8 0.000000 0.304029 0.396634
O O9 0.000000 0.195126 0.514106
O O10 0.816929 0.500000 0.674285
O O11 0.753103 0.727008 0.723135
O O12 0.000000 0.723554 0.677605
O O13 0.752066 0.500000 0.140716
O O14 0.786766 0.262951 0.189085
O O15 0.000000 0.360857 0.138404
O O16 0.500000 0.190524 0.756797
O O17 0.286548 0.000000 0.747578
#
# Coordination Sequence:
#
# PCOD8309918 Si02
#       6
#     8   8   4   8   8   8
#     4   9  17  30  48  70  97 129 164 202 246 295
#     4  10  21  37  58  83 108 136 173 213 250 293
#     4   9  18  34  56  81 110 142 172 205 248 295
#     4  11  24  38  51  72 105 141 172 205 249 299
#     4   7  12  26  48  71  94 122 159 203 247 293
#     4   9  17  32  56  80  97 120 162 212 256 300
#
# _framework density 18.381001999999999
#
# number of rings (size 3 to 8) (size 9 to 14) (size 15 to 20)
#    0.000    2.818    0.000    3.818    0.000    6.182 
#    0.000    3.636    0.000    8.727    0.000    0.000 
#    0.000    0.000    0.000    0.000    0.000    0.000 
#
# Total GULP energy -545206.714927 kJ/mol
# GULP energy per Si atom -12391.061703 kJ/mol
# Density = 1.833917 g / cm^3
# Si number density = 18.381002 Si / 1000 Ang^3
#
#
#
# Elastic Constant Matrix: (Units=GPa)
#
#
# Indices 1 2 3 4 5 6 
#
# 1 58.4389 34.8572 56.5124 0.0000 0.0000 0.0000
# 2 34.8572 58.4396 56.5131 0.0000 0.0000 0.0000
# 3 56.5124 56.5131 163.1177 0.0000 0.0000 0.0000
# 4 0.0000 0.0000 0.0000 28.3016 0.0000 0.0000
# 5 0.0000 0.0000 0.0000 0.0000 28.3014 0.0000
# 6 0.0000 0.0000 0.0000 0.0000 0.0000 25.2378
#
#
#
# Elastic Compliance Matrix: (Units=1/GPa)
#
#
# Indices 1 2 3 4 5 6 
#
# 1 0.030438 -0.011967 -0.006399 0.000000 0.000000 0.000000
# 2 -0.011967 0.030438 -0.006399 0.000000 0.000000 0.000000
# 3 -0.006399 -0.006399 0.010565 0.000000 0.000000 0.000000
# 4 0.000000 0.000000 0.000000 0.035334 0.000000 0.000000
# 5 0.000000 0.000000 0.000000 0.000000 0.035334 0.000000
# 6 0.000000 0.000000 0.000000 0.000000 0.000000 0.039623
#
#
# Mechanical properties :
#
#
# Convention : Reuss Voigt Hill
#
# Bulk Modulus (GPa) = 45.64235 63.97352 54.80794
# Shear Modulus (GPa) = 20.95849 25.17571 23.06710
#
# Velocity S-wave (km/s) = 3.38039 3.70491 3.54636
# Velocity P-wave (km/s) = 6.33413 7.29256 6.83018
#
# Compressibility (1/GPa) = 0.02190948
#
# Stress axis : x y z
#
# Youngs Moduli (GPa) = 32.85332 32.85356 94.65439
#
# Poissons Ratio (x) = 0.39316 0.60573
# Poissons Ratio (y) = 0.39316 0.60574
# Poissons Ratio (z) = 0.21024 0.21025
#
# Static dielectric constant tensor:
#      x y z
#    x 3.162660 0.000000 0.000000 
#    y 0.000000 3.162670 0.000000 
#    z 0.000000 0.000000 3.830250 
# 
# 
# High freq. dielectric constant tensor:
#      x y z
#    x 1.686910 0.000000 0.000000 
#    y 0.000000 1.686910 0.000000 
#    z 0.000000 0.000000 1.740100 
# 
# From -- ./inp_files/5732.got.cif
#   From: 2010.03.12/outbox.cif.g09.slc.cpg/sg115_3_cif.got.tgz:5732.got - 2010.04.14 02:11:21.
