data_PCOD8309798
_publ_section_title
;
Structure prediction by ZEFSAII (Michael W. Deem and Ramdas Pophale) SiO2 
 PCOD8309798
Probable space group: P -4 M 2
;
_chemical_formula_sum "Si O2"
_cell_formula_units_Z 44
_cell_length_a 9.279222
_cell_length_b 9.279222
_cell_length_c 28.376226
_cell_angle_alpha 90.000000
_cell_angle_beta 90.000000
_cell_angle_gamma 90.000000
_cell_volume 2443.305455
_symmetry_space_group_name_H-M "P -4 M 2"
_symmetry_group_IT_number 115
_symmetry_cell_setting 'tetragonal'
loop_
_space_group_symop_operation_xyz
x,y,z
y,-x,-z
-x,-y,z
-y,x,-z
y,x,-z
-y,-x,-z
-x,y,z
x,-y,z
loop_
_atom_site_type_symbol
_atom_site_label
_atom_site_fract_x
_atom_site_fract_y
_atom_site_fract_z
Si Si1 0.166808 0.830215 0.266738
Si Si2 0.831210 0.334828 0.640939
Si Si3 0.339611 0.671731 0.551186
Si Si4 0.833065 0.833065 0.000000
Si Si5 0.669250 0.332921 0.815186
Si Si6 0.668232 0.834812 0.907947
O O1 0.237431 0.778972 0.315685
O O2 0.249374 0.751780 0.225238
O O3 0.000000 0.784557 0.266543
O O4 0.186103 0.000000 0.259747
O O5 0.784146 0.500000 0.650716
O O6 0.759730 0.271739 0.593539
O O7 0.000000 0.323013 0.633354
O O8 0.277855 0.722146 0.500000
O O9 0.500000 0.733361 0.559576
O O10 0.343327 0.500000 0.550436
O O11 0.748589 0.777137 0.954268
O O12 0.000000 0.801364 0.990989
O O13 0.500000 0.312022 0.806967
O O14 0.713728 0.500000 0.814665
O O15 0.717397 0.264704 0.864749
O O16 0.500000 0.820354 0.917757
O O17 0.711443 0.000000 0.896570
#
# Coordination Sequence:
#
# PCOD8309798 Si02
#       6
#     8   8   8   4   8   8
#     4  10  21  36  53  73  99 132 168 206 250 300
#     4   9  17  30  48  69  94 124 158 198 244 292
#     4   8  14  26  45  68  93 122 157 196 238 286
#     4   9  18  32  50  73 100 130 166 205 242 285
#     4  10  21  36  54  77 103 131 166 208 253 300
#     4   9  18  33  51  71  99 133 164 198 245 296
#
# _framework density 18.008389000000001
#
# number of rings (size 3 to 8) (size 9 to 14) (size 15 to 20)
#    0.000    2.818    0.000    1.636    0.000    4.364 
#    0.000    4.545    0.000    1.091    0.000    0.000 
#    0.000    0.000    0.000    0.000    0.000    0.000 
#
# Total GULP energy -545580.359187 kJ/mol
# GULP energy per Si atom -12399.553618 kJ/mol
# Density = 1.796740 g / cm^3
# Si number density = 18.008389 Si / 1000 Ang^3
#
#
#
# Elastic Constant Matrix: (Units=GPa)
#
#
# Indices 1 2 3 4 5 6 
#
# 1 70.4472 39.5633 77.8401 0.0000 0.0000 0.0000
# 2 39.5633 70.4471 77.8401 0.0000 0.0000 0.0000
# 3 77.8401 77.8401 202.2261 0.0000 0.0000 0.0000
# 4 0.0000 0.0000 0.0000 109.6131 0.0000 0.0000
# 5 0.0000 0.0000 0.0000 0.0000 109.6044 0.0000
# 6 0.0000 0.0000 0.0000 0.0000 0.0000 21.4148
#
#
#
# Elastic Compliance Matrix: (Units=1/GPa)
#
#
# Indices 1 2 3 4 5 6 
#
# 1 0.026172 -0.006207 -0.007685 0.000000 0.000000 0.000000
# 2 -0.006207 0.026172 -0.007685 0.000000 0.000000 0.000000
# 3 -0.007685 -0.007685 0.010861 0.000000 0.000000 0.000000
# 4 0.000000 0.000000 0.000000 0.009123 0.000000 0.000000
# 5 0.000000 0.000000 0.000000 0.000000 0.009124 0.000000
# 6 0.000000 0.000000 0.000000 0.000000 0.000000 0.046697
#
#
# Mechanical properties :
#
#
# Convention : Reuss Voigt Hill
#
# Bulk Modulus (GPa) = 49.87058 81.51196 65.69127
# Shear Modulus (GPa) = 28.09188 57.98491 43.03840
#
# Velocity S-wave (km/s) = 3.95388 5.68056 4.89397
# Velocity P-wave (km/s) = 6.97118 9.40141 8.27599
#
# Compressibility (1/GPa) = 0.02005190
#
# Stress axis : x y z
#
# Youngs Moduli (GPa) = 38.20824 38.20814 92.07137
#
# Poissons Ratio (x) = 0.23716 0.70757
# Poissons Ratio (y) = 0.23716 0.70757
# Poissons Ratio (z) = 0.29363 0.29363
#
# Static dielectric constant tensor:
#      x y z
#    x 3.256330 0.000000 0.000000 
#    y 0.000000 3.256320 0.000000 
#    z 0.000000 0.000000 3.616780 
# 
# 
# High freq. dielectric constant tensor:
#      x y z
#    x 1.682850 0.000000 0.000000 
#    y 0.000000 1.682850 0.000000 
#    z 0.000000 0.000000 1.712580 
# 
# From -- ./inp_files/5755.got.cif
#   From: 2010.03.12/outbox.cif.g09.slc.cpg/sg115_3_cif.got.tgz:5755.got - 2010.04.14 02:11:21.
