data_PCOD8309593
_publ_section_title
;
Structure prediction by ZEFSAII (Michael W. Deem and Ramdas Pophale) SiO2 
 PCOD8309593
Probable space group: P -4 M 2
;
_chemical_formula_sum "Si O2"
_cell_formula_units_Z 40
_cell_length_a 9.187870
_cell_length_b 9.187870
_cell_length_c 25.717094
_cell_angle_alpha 90.000000
_cell_angle_beta 90.000000
_cell_angle_gamma 90.000000
_cell_volume 2170.958770
_symmetry_space_group_name_H-M "P -4 M 2"
_symmetry_group_IT_number 115
_symmetry_cell_setting 'tetragonal'
loop_
_space_group_symop_operation_xyz
x,y,z
y,-x,-z
-x,-y,z
-y,x,-z
y,x,-z
-y,-x,-z
-x,y,z
x,-y,z
loop_
_atom_site_type_symbol
_atom_site_label
_atom_site_fract_x
_atom_site_fract_y
_atom_site_fract_z
Si Si1 0.829565 0.330763 0.694856
Si Si2 0.335762 0.326908 0.796881
Si Si3 0.332695 0.828838 0.604083
Si Si4 0.168915 0.168915 0.000000
Si Si5 0.667149 0.332852 0.500000
Si Si6 0.670758 0.832025 0.102491
O O1 0.793844 0.500000 0.685623
O O2 0.750946 0.270805 0.746546
O O3 0.771707 0.240838 0.646438
O O4 0.000000 0.303834 0.701642
O O5 0.500000 0.266606 0.794551
O O6 0.332844 0.500000 0.797938
O O7 0.258540 0.267036 0.848792
O O8 0.500000 0.787662 0.616601
O O9 0.286614 0.766712 0.548221
O O10 0.308190 0.000000 0.603436
O O11 0.227411 0.253355 0.949545
O O12 0.000000 0.201206 0.009103
O O13 0.500000 0.306035 0.484105
O O14 0.500000 0.809022 0.095626
O O15 0.710305 0.000000 0.112403
#
# Coordination Sequence:
#
# PCOD8309593 Si02
#       6
#     8   8   8   4   4   8
#     4  10  20  34  54  78 103 135 175 214 253 303
#     4   9  17  30  50  75 100 127 163 208 254 298
#     4  10  21  36  54  78 108 138 169 210 258 304
#     4   9  18  32  48  67  94 128 162 195 238 294
#     4   9  18  34  56  79 104 138 178 215 252 299
#     4   9  17  30  48  69  94 124 159 200 244 291
#
# _framework density 18.425039999999999
#
# number of rings (size 3 to 8) (size 9 to 14) (size 15 to 20)
#    0.000    2.600    0.000    1.800    0.000    6.400 
#    0.000    3.000    0.000    3.600    0.000    0.000 
#    0.000    0.000    0.000    0.000    0.000    0.000 
#
# Total GULP energy -496097.463740 kJ/mol
# GULP energy per Si atom -12402.436593 kJ/mol
# Density = 1.838310 g / cm^3
# Si number density = 18.425040 Si / 1000 Ang^3
#
#
#
# Elastic Constant Matrix: (Units=GPa)
#
#
# Indices 1 2 3 4 5 6 
#
# 1 73.9541 41.5819 71.0681 0.0000 0.0000 0.0000
# 2 41.5819 73.9543 71.0678 0.0000 0.0000 0.0000
# 3 71.0681 71.0678 173.3986 0.0000 0.0000 0.0000
# 4 0.0000 0.0000 0.0000 9.9567 0.0000 0.0000
# 5 0.0000 0.0000 0.0000 0.0000 9.9573 0.0000
# 6 0.0000 0.0000 0.0000 0.0000 0.0000 20.5815
#
#
#
# Elastic Compliance Matrix: (Units=1/GPa)
#
#
# Indices 1 2 3 4 5 6 
#
# 1 0.024174 -0.006716 -0.007155 0.000000 0.000000 0.000000
# 2 -0.006716 0.024174 -0.007155 0.000000 0.000000 0.000000
# 3 -0.007155 -0.007155 0.011632 0.000000 0.000000 0.000000
# 4 0.000000 0.000000 0.000000 0.100435 0.000000 0.000000
# 5 0.000000 0.000000 0.000000 0.000000 0.100429 0.000000
# 6 0.000000 0.000000 0.000000 0.000000 0.000000 0.048587
#
#
# Mechanical properties :
#
#
# Convention : Reuss Voigt Hill
#
# Bulk Modulus (GPa) = 55.78127 76.52696 66.15412
# Shear Modulus (GPa) = 13.98755 17.27171 15.62963
#
# Velocity S-wave (km/s) = 2.75827 3.06503 2.91569
# Velocity P-wave (km/s) = 6.36275 7.35868 6.87876
#
# Compressibility (1/GPa) = 0.01792716
#
# Stress axis : x y z
#
# Youngs Moduli (GPa) = 41.36631 41.36669 85.96879
#
# Poissons Ratio (x) = 0.27784 0.61512
# Poissons Ratio (y) = 0.27783 0.61511
# Poissons Ratio (z) = 0.29598 0.29598
#
# Static dielectric constant tensor:
#      x y z
#    x 3.284990 0.000000 0.000000 
#    y 0.000000 3.284980 0.000000 
#    z 0.000000 0.000000 3.575270 
# 
# 
# High freq. dielectric constant tensor:
#      x y z
#    x 1.700240 0.000000 0.000000 
#    y 0.000000 1.700240 0.000000 
#    z 0.000000 0.000000 1.728820 
# 
# From -- ./inp_files/5510.got.cif
#   From: 2010.03.12/outbox.cif.g09.slc.cpg/sg115_3_cif.got.tgz:5510.got - 2010.04.14 02:11:21.
