data_PCOD8309952
_publ_section_title
;
Structure prediction by ZEFSAII (Michael W. Deem and Ramdas Pophale) SiO2 
 PCOD8309952
Probable space group: P -4 M 2
;
_chemical_formula_sum "Si O2"
_cell_formula_units_Z 48
_cell_length_a 8.954433
_cell_length_b 8.954433
_cell_length_c 30.468847
_cell_angle_alpha 90.000000
_cell_angle_beta 90.000000
_cell_angle_gamma 90.000000
_cell_volume 2443.049140
_symmetry_space_group_name_H-M "P -4 M 2"
_symmetry_group_IT_number 115
_symmetry_cell_setting 'tetragonal'
loop_
_space_group_symop_operation_xyz
x,y,z
y,-x,-z
-x,-y,z
-y,x,-z
y,x,-z
-y,-x,-z
-x,y,z
x,-y,z
loop_
_atom_site_type_symbol
_atom_site_label
_atom_site_fract_x
_atom_site_fract_y
_atom_site_fract_z
Si Si1 0.674100 0.825659 0.623046
Si Si2 0.672733 0.671521 0.206876
Si Si3 0.168521 0.175928 0.872262
Si Si4 0.674080 0.670120 0.050204
Si Si5 0.827533 0.324156 0.541189
Si Si6 0.174539 0.326672 0.703338
O O1 0.500000 0.787870 0.620311
O O2 0.758746 0.734849 0.585913
O O3 0.735710 0.775893 0.669877
O O4 0.704593 0.000000 0.616142
O O5 0.500000 0.693475 0.195309
O O6 0.709722 0.500000 0.217874
O O7 0.765199 0.721814 0.165023
O O8 0.718899 0.771887 0.248302
O O9 0.218531 0.233683 0.919613
O O10 0.000000 0.231208 0.863002
O O11 0.178007 0.000000 0.872670
O O12 0.500000 0.691014 0.060021
O O13 0.721589 0.500000 0.060257
O O14 0.710694 0.710694 0.000000
O O15 0.746281 0.253720 0.500000
O O16 0.805260 0.500000 0.539188
O O17 0.000000 0.278697 0.539604
O O18 0.210158 0.500000 0.693661
O O19 0.000000 0.292632 0.698977
#
# Coordination Sequence:
#
# PCOD8309952 Si02
#       6
#     8   8   8   8   8   8
#     4  11  24  40  59  86 119 155 195 236 281 336
#     4  10  21  38  61  86 111 144 188 235 282 334
#     4  11  24  38  53  79 115 151 186 227 277 332
#     4   9  19  37  60  84 109 140 182 230 278 331
#     4  11  24  41  62  89 119 152 193 239 287 340
#     4  10  21  38  61  88 116 148 188 233 283 339
#
# _framework density 19.647577999999999
#
# number of rings (size 3 to 8) (size 9 to 14) (size 15 to 20)
#    0.000    1.667    0.000    4.500    0.000   13.667 
#    0.000    2.500    0.000    0.000    0.000    0.000 
#    0.000    0.000    0.000    0.000    0.000    0.000 
#
# Total GULP energy -595482.280416 kJ/mol
# GULP energy per Si atom -12405.880842 kJ/mol
# Density = 1.960286 g / cm^3
# Si number density = 19.647578 Si / 1000 Ang^3
#
#
#
# Elastic Constant Matrix: (Units=GPa)
#
#
# Indices 1 2 3 4 5 6 
#
# 1 150.3132 -7.0517 47.1255 0.0000 0.0000 0.0000
# 2 -7.0517 150.3260 47.1239 0.0000 0.0000 0.0000
# 3 47.1255 47.1239 112.3059 0.0000 0.0000 0.0000
# 4 0.0000 0.0000 0.0000 25.1659 0.0000 0.0000
# 5 0.0000 0.0000 0.0000 0.0000 25.1680 0.0000
# 6 0.0000 0.0000 0.0000 0.0000 0.0000 32.6229
#
#
#
# Elastic Compliance Matrix: (Units=1/GPa)
#
#
# Indices 1 2 3 4 5 6 
#
# 1 0.007998 0.001643 -0.004046 0.000000 0.000000 0.000000
# 2 0.001643 0.007997 -0.004045 0.000000 0.000000 0.000000
# 3 -0.004046 -0.004045 0.012299 0.000000 0.000000 0.000000
# 4 0.000000 0.000000 0.000000 0.039736 0.000000 0.000000
# 5 0.000000 0.000000 0.000000 0.000000 0.039733 0.000000
# 6 0.000000 0.000000 0.000000 0.000000 0.000000 0.030653
#
#
# Mechanical properties :
#
#
# Convention : Reuss Voigt Hill
#
# Bulk Modulus (GPa) = 64.93643 65.26005 65.09824
# Shear Modulus (GPa) = 31.95980 38.30784 35.13382
#
# Velocity S-wave (km/s) = 4.03755 4.42039 4.23330
# Velocity P-wave (km/s) = 7.40663 7.70328 7.55641
#
# Compressibility (1/GPa) = 0.01539968
#
# Stress axis : x y z
#
# Youngs Moduli (GPa) = 125.02639 125.03996 81.30469
#
# Poissons Ratio (x) = -0.20550 0.32895
# Poissons Ratio (y) = -0.20548 0.32891
# Poissons Ratio (z) = 0.50584 0.50583
#
# Static dielectric constant tensor:
#      x y z
#    x 3.668560 0.000000 0.000000 
#    y 0.000000 3.668560 0.000000 
#    z 0.000000 0.000000 3.253600 
# 
# 
# High freq. dielectric constant tensor:
#      x y z
#    x 1.771730 0.000000 0.000000 
#    y 0.000000 1.771730 0.000000 
#    z 0.000000 0.000000 1.780750 
# 
# From -- ./inp_files/6030.got.cif
#   From: 2010.03.12/outbox.cif.g09.slc.cpg/sg115_4_cif.got.tgz:6030.got - 2010.04.14 02:11:21.
