data_PCOD8309657
_publ_section_title
;
Structure prediction by ZEFSAII (Michael W. Deem and Ramdas Pophale) SiO2 
 PCOD8309657
Probable space group: P -4 M 2
;
_chemical_formula_sum "Si O2"
_cell_formula_units_Z 56
_cell_length_a 14.182108
_cell_length_b 14.182108
_cell_length_c 12.510808
_cell_angle_alpha 90.000000
_cell_angle_beta 90.000000
_cell_angle_gamma 90.000000
_cell_volume 2516.326178
_symmetry_space_group_name_H-M "P -4 M 2"
_symmetry_group_IT_number 115
_symmetry_cell_setting 'tetragonal'
loop_
_space_group_symop_operation_xyz
x,y,z
y,-x,-z
-x,-y,z
-y,x,-z
y,x,-z
-y,-x,-z
-x,y,z
x,-y,z
loop_
_atom_site_type_symbol
_atom_site_label
_atom_site_fract_x
_atom_site_fract_y
_atom_site_fract_z
Si Si1 0.604229 0.338552 0.108552
Si Si2 0.605497 0.866427 0.194722
Si Si3 0.608059 0.603936 0.329890
Si Si4 0.296740 0.793314 0.620771
Si Si5 0.606633 0.110509 0.817472
Si Si6 0.708666 0.107484 0.406679
Si Si7 0.738135 0.896304 0.007035
O O1 0.500000 0.361089 0.064808
O O2 0.609844 0.243808 0.176305
O O3 0.634272 0.409909 0.202733
O O4 0.666685 0.333316 0.000000
O O5 0.500000 0.905287 0.167272
O O6 0.626430 0.890740 0.317918
O O7 0.688392 0.909663 0.121956
O O8 0.500000 0.643730 0.340963
O O9 0.614191 0.500000 0.381825
O O10 0.684243 0.669127 0.390649
O O11 0.335706 0.837896 0.726921
O O12 0.331843 0.856302 0.520880
O O13 0.181788 0.791489 0.626140
O O14 0.500000 0.148207 0.821253
O O15 0.609260 0.000000 0.795758
O O16 0.655627 0.138950 0.928202
O O17 0.747484 0.000000 0.417678
O O18 0.776144 0.000000 0.973231
O O19 0.825349 0.825349 0.000000
#
# Coordination Sequence:
#
# PCOD8309657 Si02
#       7
#     8   8   8   8   8   8   8
#     4  10  20  34  56  89 132 180 227 265 308 377
#     4  11  23  39  62  94 133 171 214 264 325 398
#     4  10  21  38  61  93 134 178 223 268 323 399
#     4  11  23  43  70  96 130 170 221 278 340 405
#     4  10  22  41  67 102 138 172 216 270 333 404
#     4  11  25  44  67  92 124 169 220 277 334 396
#     4  11  24  42  65  93 129 173 223 280 342 400
#
# _framework density 22.254667000000001
#
# number of rings (size 3 to 8) (size 9 to 14) (size 15 to 20)
#    0.000    1.429    1.429    3.429    2.000    3.714 
#    0.000    4.286    0.000   11.571    0.000    0.000 
#    0.000    0.000    0.000    0.000    0.000    0.000 
#
# Total GULP energy -693930.480071 kJ/mol
# GULP energy per Si atom -12391.615716 kJ/mol
# Density = 2.220401 g / cm^3
# Si number density = 22.254667 Si / 1000 Ang^3
#
#
#
# Elastic Constant Matrix: (Units=GPa)
#
#
# Indices 1 2 3 4 5 6 
#
# 1 118.1860 58.3998 48.3907 0.0000 0.0000 0.0000
# 2 58.3998 118.1862 48.3909 0.0000 0.0000 0.0000
# 3 48.3907 48.3909 106.7608 0.0000 0.0000 0.0000
# 4 0.0000 0.0000 0.0000 28.1273 0.0000 0.0000
# 5 0.0000 0.0000 0.0000 0.0000 28.1273 0.0000
# 6 0.0000 0.0000 0.0000 0.0000 0.0000 21.6952
#
#
#
# Elastic Compliance Matrix: (Units=1/GPa)
#
#
# Indices 1 2 3 4 5 6 
#
# 1 0.012130 -0.004596 -0.003415 0.000000 0.000000 0.000000
# 2 -0.004596 0.012131 -0.003415 0.000000 0.000000 0.000000
# 3 -0.003415 -0.003415 0.012463 0.000000 0.000000 0.000000
# 4 0.000000 0.000000 0.000000 0.035553 0.000000 0.000000
# 5 0.000000 0.000000 0.000000 0.000000 0.035553 0.000000
# 6 0.000000 0.000000 0.000000 0.000000 0.000000 0.046093
#
#
# Mechanical properties :
#
#
# Convention : Reuss Voigt Hill
#
# Bulk Modulus (GPa) = 72.09120 72.61065 72.35092
# Shear Modulus (GPa) = 27.56365 28.12007 27.84186
#
# Velocity S-wave (km/s) = 3.52313 3.55851 3.54087
# Velocity P-wave (km/s) = 7.00100 7.04145 7.02125
#
# Compressibility (1/GPa) = 0.01387132
#
# Stress axis : x y z
#
# Youngs Moduli (GPa) = 82.43685 82.43679 80.23918
#
# Poissons Ratio (x) = 0.37886 0.27403
# Poissons Ratio (y) = 0.37886 0.27404
# Poissons Ratio (z) = 0.28154 0.28154
#
# Static dielectric constant tensor:
#      x y z
#    x 4.098960 0.000000 0.000000 
#    y 0.000000 4.098960 0.000000 
#    z 0.000000 0.000000 4.040200 
# 
# 
# High freq. dielectric constant tensor:
#      x y z
#    x 1.868620 0.000000 0.000000 
#    y 0.000000 1.868620 0.000000 
#    z 0.000000 0.000000 1.885780 
# 
# From -- ./inp_files/3074.got.cif
#   From: 2010.03.12/outbox.cif.g09.slc.cpg/sg115_2_cif.got.tgz:3074.got - 2010.04.14 02:11:21.
