data_PCOD8309787
_publ_section_title
;
Structure prediction by ZEFSAII (Michael W. Deem and Ramdas Pophale) SiO2 
 PCOD8309787
Probable space group: P -4 M 2
;
_chemical_formula_sum "Si O2"
_cell_formula_units_Z 40
_cell_length_a 9.136968
_cell_length_b 9.136968
_cell_length_c 25.946287
_cell_angle_alpha 90.000000
_cell_angle_beta 90.000000
_cell_angle_gamma 90.000000
_cell_volume 2166.104604
_symmetry_space_group_name_H-M "P -4 M 2"
_symmetry_group_IT_number 115
_symmetry_cell_setting 'tetragonal'
loop_
_space_group_symop_operation_xyz
x,y,z
y,-x,-z
-x,-y,z
-y,x,-z
y,x,-z
-y,-x,-z
-x,y,z
x,-y,z
loop_
_atom_site_type_symbol
_atom_site_label
_atom_site_fract_x
_atom_site_fract_y
_atom_site_fract_z
Si Si1 0.674318 0.331699 0.388806
Si Si2 0.330128 0.669873 0.500000
Si Si3 0.170063 0.829846 0.702275
Si Si4 0.669075 0.330926 0.000000
Si Si5 0.827913 0.331287 0.194996
Si Si6 0.168141 0.671994 0.897070
O O1 0.500000 0.322589 0.385820
O O2 0.724698 0.500000 0.380198
O O3 0.729863 0.269111 0.445089
O O4 0.742770 0.227362 0.346597
O O5 0.500000 0.702196 0.502699
O O6 0.254202 0.773423 0.752810
O O7 0.000000 0.796341 0.710323
O O8 0.200894 0.000000 0.692758
O O9 0.719863 0.233999 0.048148
O O10 0.500000 0.302996 0.985965
O O11 0.781444 0.500000 0.197726
O O12 0.751143 0.257045 0.147096
O O13 0.000000 0.311279 0.187950
O O14 0.185959 0.500000 0.888891
O O15 0.000000 0.721621 0.894971
#
# Coordination Sequence:
#
# PCOD8309787 Si02
#       6
#     8   4   8   4   8   8
#     4   9  17  31  53  78 101 129 168 212 256 303
#     4   7  12  26  48  73 100 128 162 207 254 299
#     4  10  21  36  52  72 102 138 172 209 256 308
#     4   9  18  34  54  75 104 142 178 211 248 293
#     4  10  21  37  57  78 100 132 175 218 259 306
#     4  10  21  36  55  81 111 140 171 210 256 304
#
# _framework density 18.466329999999999
#
# number of rings (size 3 to 8) (size 9 to 14) (size 15 to 20)
#    0.000    2.600    0.000    3.000    0.000    5.600 
#    0.000    3.000    0.000    4.800    0.000    0.000 
#    0.000    0.000    0.000    0.000    0.000    0.000 
#
# Total GULP energy -495857.698086 kJ/mol
# GULP energy per Si atom -12396.442452 kJ/mol
# Density = 1.842430 g / cm^3
# Si number density = 18.466330 Si / 1000 Ang^3
#
#
#
# Elastic Constant Matrix: (Units=GPa)
#
#
# Indices 1 2 3 4 5 6 
#
# 1 73.8343 39.2791 70.5446 0.0000 0.0000 0.0000
# 2 39.2791 73.8346 70.5444 0.0000 0.0000 0.0000
# 3 70.5446 70.5444 184.8198 0.0000 0.0000 0.0000
# 4 0.0000 0.0000 0.0000 513.3899 0.0000 0.0000
# 5 0.0000 0.0000 0.0000 0.0000 513.4613 0.0000
# 6 0.0000 0.0000 0.0000 0.0000 0.0000 27.8531
#
#
#
# Elastic Compliance Matrix: (Units=1/GPa)
#
#
# Indices 1 2 3 4 5 6 
#
# 1 0.022907 -0.006032 -0.006441 0.000000 0.000000 0.000000
# 2 -0.006032 0.022907 -0.006441 0.000000 0.000000 0.000000
# 3 -0.006441 -0.006441 0.010328 0.000000 0.000000 0.000000
# 4 0.000000 0.000000 0.000000 0.001948 0.000000 0.000000
# 5 0.000000 0.000000 0.000000 0.000000 0.001948 0.000000
# 6 0.000000 0.000000 0.000000 0.000000 0.000000 0.035903
#
#
# Mechanical properties :
#
#
# Convention : Reuss Voigt Hill
#
# Bulk Modulus (GPa) = 54.60582 77.02498 65.81540
# Shear Modulus (GPa) = 35.74706 221.08226 128.41466
#
# Velocity S-wave (km/s) = 4.40454 10.95362 8.34810
# Velocity P-wave (km/s) = 7.44992 14.20483 11.34193
#
# Compressibility (1/GPa) = 0.01831307
#
# Stress axis : x y z
#
# Youngs Moduli (GPa) = 43.65492 43.65541 96.82817
#
# Poissons Ratio (x) = 0.26334 0.62367
# Poissons Ratio (y) = 0.26334 0.62365
# Poissons Ratio (z) = 0.28118 0.28118
#
# Static dielectric constant tensor:
#      x y z
#    x 2.822840 0.000000 0.000000 
#    y 0.000000 2.822930 0.000000 
#    z 0.000000 0.000000 3.710310 
# 
# 
# High freq. dielectric constant tensor:
#      x y z
#    x 1.702490 0.000000 0.000000 
#    y 0.000000 1.702490 0.000000 
#    z 0.000000 0.000000 1.738600 
# 
# From -- ./inp_files/5532.got.cif
#   From: 2010.03.12/outbox.cif.g09.slc.cpg/sg115_3_cif.got.tgz:5532.got - 2010.04.14 02:11:21.
