data_PCOD8309274
_publ_section_title
;
Structure prediction by ZEFSAII (Michael W. Deem and Ramdas Pophale) SiO2 
 PCOD8309274
Probable space group: P -4 M 2
;
_chemical_formula_sum "Si O2"
_cell_formula_units_Z 64
_cell_length_a 19.717510
_cell_length_b 19.717510
_cell_length_c 8.849344
_cell_angle_alpha 90.000000
_cell_angle_beta 90.000000
_cell_angle_gamma 90.000000
_cell_volume 3440.449735
_symmetry_space_group_name_H-M "P -4 M 2"
_symmetry_group_IT_number 115
_symmetry_cell_setting 'tetragonal'
loop_
_space_group_symop_operation_xyz
x,y,z
y,-x,-z
-x,-y,z
-y,x,-z
y,x,-z
-y,-x,-z
-x,y,z
x,-y,z
loop_
_atom_site_type_symbol
_atom_site_label
_atom_site_fract_x
_atom_site_fract_y
_atom_site_fract_z
Si Si1 0.311351 0.709551 0.675610
Si Si2 0.075976 0.233996 0.161883
Si Si3 0.575887 0.744359 0.246570
Si Si4 0.813400 0.798306 0.676773
Si Si5 0.124086 0.424143 0.927788
Si Si6 0.798259 0.424215 0.422912
Si Si7 0.923468 0.284017 0.830591
Si Si8 0.077102 0.615524 0.254009
O O1 0.301493 0.698508 0.500000
O O2 0.311837 0.636366 0.762646
O O3 0.251649 0.757308 0.739211
O O4 0.381540 0.750172 0.691535
O O5 0.130191 0.181984 0.233695
O O6 0.077709 0.303427 0.255747
O O7 0.000000 0.202340 0.170459
O O8 0.096115 0.250576 0.990296
O O9 0.500000 0.711055 0.248424
O O10 0.582921 0.795522 0.105998
O O11 0.589640 0.786567 0.400083
O O12 0.811596 0.811596 0.500000
O O13 0.878304 0.751280 0.703875
O O14 0.100077 0.500000 0.876967
O O15 0.084728 0.365641 0.836192
O O16 0.110914 0.415831 0.104755
O O17 0.779612 0.500000 0.379432
O O18 0.877663 0.408699 0.394978
O O19 0.000000 0.267924 0.785869
O O20 0.000000 0.588557 0.270235
#
# Coordination Sequence:
#
# PCOD8309274 Si02
#       8
#     8   8   8   8   8   8   8   8
#     4   9  17  31  50  72  99 130 166 208 256 297
#     4   9  19  35  53  75 103 137 173 208 252 304
#     4   9  18  33  52  72  97 131 171 211 252 299
#     4  11  20  33  55  78 103 134 172 216 259 300
#     4  10  19  32  50  72 102 138 172 204 244 294
#     4  10  19  32  51  73  99 132 170 210 251 301
#     4  10  21  35  52  76 105 138 174 210 253 308
#     4  10  20  33  49  70 101 138 170 204 245 292
#
# _framework density 18.602219000000002
#
# number of rings (size 3 to 8) (size 9 to 14) (size 15 to 20)
#    0.000    2.250    2.500    1.875    0.000    2.250 
#    0.000    3.125    0.000    5.250    0.000    5.250 
#    0.000    0.000    0.000    3.125    0.000    4.000 
#
# Total GULP energy -793286.956937 kJ/mol
# GULP energy per Si atom -12395.108702 kJ/mol
# Density = 1.855988 g / cm^3
# Si number density = 18.602219 Si / 1000 Ang^3
#
#
#
# Elastic Constant Matrix: (Units=GPa)
#
#
# Indices 1 2 3 4 5 6 
#
# 1 86.3128 38.1255 21.1939 0.0000 0.0000 0.0000
# 2 38.1255 86.3128 21.1939 0.0000 0.0000 0.0000
# 3 21.1939 21.1939 34.6563 0.0000 0.0000 0.0000
# 4 0.0000 0.0000 0.0000 22.8915 0.0000 0.0000
# 5 0.0000 0.0000 0.0000 0.0000 22.8914 0.0000
# 6 0.0000 0.0000 0.0000 0.0000 0.0000 23.7815
#
#
#
# Elastic Compliance Matrix: (Units=1/GPa)
#
#
# Indices 1 2 3 4 5 6 
#
# 1 0.015451 -0.005301 -0.006208 0.000000 0.000000 0.000000
# 2 -0.005301 0.015451 -0.006208 0.000000 0.000000 0.000000
# 3 -0.006208 -0.006208 0.036447 0.000000 0.000000 0.000000
# 4 0.000000 0.000000 0.000000 0.043684 0.000000 0.000000
# 5 0.000000 0.000000 0.000000 0.000000 0.043685 0.000000
# 6 0.000000 0.000000 0.000000 0.000000 0.000000 0.042050
#
#
# Mechanical properties :
#
#
# Convention : Reuss Voigt Hill
#
# Bulk Modulus (GPa) = 31.33008 40.92314 36.12661
# Shear Modulus (GPa) = 20.58969 22.36411 21.47690
#
# Velocity S-wave (km/s) = 3.33053 3.47108 3.40153
# Velocity P-wave (km/s) = 5.62749 6.17344 5.90677
#
# Compressibility (1/GPa) = 0.03191820
#
# Stress axis : x y z
#
# Youngs Moduli (GPa) = 64.71872 64.71871 27.43692
#
# Poissons Ratio (x) = 0.34306 0.17032
# Poissons Ratio (y) = 0.34306 0.17032
# Poissons Ratio (z) = 0.40175 0.40175
#
# Static dielectric constant tensor:
#      x y z
#    x 3.519660 0.000000 0.000000 
#    y 0.000000 3.519650 0.000000 
#    z 0.000000 0.000000 3.200660 
# 
# 
# High freq. dielectric constant tensor:
#      x y z
#    x 1.709340 0.000000 0.000000 
#    y 0.000000 1.709340 0.000000 
#    z 0.000000 0.000000 1.704920 
# 
# From -- ./inp_files/2160.got.cif
#   From: 2010.03.12/outbox.cif.g09.slc.cpg/sg115_2_cif.got.tgz:2160.got - 2010.04.14 02:11:21.
