data_PCOD8309822
_publ_section_title
;
Structure prediction by ZEFSAII (Michael W. Deem and Ramdas Pophale) SiO2 
 PCOD8309822
Probable space group: P -4 M 2
;
_chemical_formula_sum "Si O2"
_cell_formula_units_Z 48
_cell_length_a 9.406008
_cell_length_b 9.406008
_cell_length_c 30.689537
_cell_angle_alpha 90.000000
_cell_angle_beta 90.000000
_cell_angle_gamma 90.000000
_cell_volume 2715.194993
_symmetry_space_group_name_H-M "P -4 M 2"
_symmetry_group_IT_number 115
_symmetry_cell_setting 'tetragonal'
loop_
_space_group_symop_operation_xyz
x,y,z
y,-x,-z
-x,-y,z
-y,x,-z
y,x,-z
-y,-x,-z
-x,y,z
x,-y,z
loop_
_atom_site_type_symbol
_atom_site_label
_atom_site_fract_x
_atom_site_fract_y
_atom_site_fract_z
Si Si1 0.664171 0.832982 0.035904
Si Si2 0.840328 0.669221 0.205399
Si Si3 0.167490 0.160106 0.548985
Si Si4 0.663540 0.335786 0.877706
Si Si5 0.331771 0.660217 0.381656
Si Si6 0.341774 0.669243 0.285096
O O1 0.500000 0.801908 0.023843
O O2 0.703863 0.761595 0.081641
O O3 0.694483 0.000000 0.039096
O O4 0.765394 0.765394 0.000000
O O5 0.840432 0.500000 0.207373
O O6 0.756650 0.720148 0.162625
O O7 0.764080 0.731480 0.248538
O O8 0.000000 0.729887 0.203613
O O9 0.207952 0.207952 0.500000
O O10 0.238765 0.265104 0.582697
O O11 0.000000 0.168256 0.555320
O O12 0.221497 0.000000 0.557591
O O13 0.500000 0.299460 0.889428
O O14 0.678905 0.500000 0.864461
O O15 0.500000 0.666040 0.386311
O O16 0.276522 0.500000 0.389253
O O17 0.287719 0.713982 0.333237
O O18 0.500000 0.730022 0.276308
O O19 0.347974 0.500000 0.282750
#
# Coordination Sequence:
#
# PCOD8309822 Si02
#       6
#     8   8   8   8   8   8
#     4  10  21  36  54  76 101 130 165 204 245 290
#     4   9  16  25  41  68  97 123 156 198 238 277
#     4   9  19  35  51  67  91 125 163 200 239 287
#     4   9  17  30  49  71  95 125 159 195 238 286
#     4   9  18  31  48  73 101 126 156 198 245 290
#     4   8  14  26  43  64  94 127 154 186 234 287
#
# _framework density 17.678290000000001
#
# number of rings (size 3 to 8) (size 9 to 14) (size 15 to 20)
#    0.000    3.000    0.000    2.500    0.000    5.667 
#    0.000    5.833    0.000    1.000    0.000    2.333 
#    0.000    0.000    0.000    0.000    0.000    0.000 
#
# Total GULP energy -595094.470904 kJ/mol
# GULP energy per Si atom -12397.801477 kJ/mol
# Density = 1.763805 g / cm^3
# Si number density = 17.678290 Si / 1000 Ang^3
#
#
#
# Elastic Constant Matrix: (Units=GPa)
#
#
# Indices 1 2 3 4 5 6 
#
# 1 63.3960 32.6378 66.7544 0.0000 0.0000 0.0000
# 2 32.6378 63.3960 66.7544 0.0000 0.0000 0.0000
# 3 66.7544 66.7544 163.4967 0.0000 0.0000 0.0000
# 4 0.0000 0.0000 0.0000 -2.0605 0.0000 0.0000
# 5 0.0000 0.0000 0.0000 0.0000 -2.0605 0.0000
# 6 0.0000 0.0000 0.0000 0.0000 0.0000 20.7907
#
#
#
# Elastic Compliance Matrix: (Units=1/GPa)
#
#
# Indices 1 2 3 4 5 6 
#
# 1 0.028297 -0.004214 -0.009833 0.000000 0.000000 0.000000
# 2 -0.004214 0.028297 -0.009833 0.000000 0.000000 0.000000
# 3 -0.009833 -0.009833 0.014146 0.000000 0.000000 0.000000
# 4 0.000000 0.000000 0.000000 -0.485328 0.000000 0.000000
# 5 0.000000 0.000000 0.000000 0.000000 -0.485328 0.000000
# 6 0.000000 0.000000 0.000000 0.000000 0.000000 0.048099
#
#
# Mechanical properties :
#
#
# Convention : Reuss Voigt Hill
#
# Bulk Modulus (GPa) = 43.51595 69.17579 56.34587
# Shear Modulus (GPa) = -6.27828 11.61007 2.66590
#
# Velocity S-wave (km/s) = -1.88656 2.56548 1.22934
# Velocity P-wave (km/s) = 4.46357 6.92755 5.82728
#
# Compressibility (1/GPa) = 0.02298008
#
# Stress axis : x y z
#
# Youngs Moduli (GPa) = 35.33901 35.33901 70.69283
#
# Poissons Ratio (x) = 0.14893 0.69511
# Poissons Ratio (y) = 0.14893 0.69511
# Poissons Ratio (z) = 0.34748 0.34748
#
# Static dielectric constant tensor:
#      x y z
#    x 3.142470 0.000000 0.000000 
#    y 0.000000 3.142470 0.000000 
#    z 0.000000 0.000000 3.462970 
# 
# 
# High freq. dielectric constant tensor:
#      x y z
#    x 1.661000 0.000000 0.000000 
#    y 0.000000 1.661000 0.000000 
#    z 0.000000 0.000000 1.697250 
# 
# From -- ./inp_files/6036.got.cif
#   From: 2010.03.12/outbox.cif.g09.slc.cpg/sg115_4_cif.got.tgz:6036.got - 2010.04.14 02:11:21.
