data_PCOD8309506
_publ_section_title
;
Structure prediction by ZEFSAII (Michael W. Deem and Ramdas Pophale) SiO2 
 PCOD8309506
Probable space group: P -4 M 2
;
_chemical_formula_sum "Si O2"
_cell_formula_units_Z 44
_cell_length_a 9.138381
_cell_length_b 9.138381
_cell_length_c 28.642902
_cell_angle_alpha 90.000000
_cell_angle_beta 90.000000
_cell_angle_gamma 90.000000
_cell_volume 2391.968955
_symmetry_space_group_name_H-M "P -4 M 2"
_symmetry_group_IT_number 115
_symmetry_cell_setting 'tetragonal'
loop_
_space_group_symop_operation_xyz
x,y,z
y,-x,-z
-x,-y,z
-y,x,-z
y,x,-z
-y,-x,-z
-x,y,z
x,-y,z
loop_
_atom_site_type_symbol
_atom_site_label
_atom_site_fract_x
_atom_site_fract_y
_atom_site_fract_z
Si Si1 0.325677 0.668021 0.399320
Si Si2 0.325917 0.336940 0.051070
Si Si3 0.169765 0.169948 0.317034
Si Si4 0.830094 0.329060 0.223328
Si Si5 0.833934 0.673831 0.859430
Si Si6 0.669854 0.669854 0.500000
O O1 0.500000 0.675891 0.396879
O O2 0.274400 0.500000 0.391490
O O3 0.258868 0.772655 0.360873
O O4 0.270151 0.730996 0.450263
O O5 0.500000 0.344843 0.051364
O O6 0.262276 0.500000 0.060330
O O7 0.267932 0.228628 0.091168
O O8 0.276769 0.276769 0.000000
O O9 0.223411 0.254245 0.271023
O O10 0.000000 0.200424 0.326515
O O11 0.203417 0.000000 0.309586
O O12 0.797297 0.500000 0.227272
O O13 0.737880 0.263880 0.181386
O O14 0.000000 0.295892 0.214190
O O15 0.824897 0.500000 0.856782
O O16 0.000000 0.729563 0.854467
O O17 0.702179 0.500000 0.497412
#
# Coordination Sequence:
#
# PCOD8309506 Si02
#       6
#     8   8   8   8   8   4
#     4   9  17  31  53  78 101 128 165 207 248 291
#     4   8  14  27  48  71  96 130 170 208 244 283
#     4  10  21  36  52  71  99 134 167 202 249 301
#     4  10  21  37  56  75  95 126 170 213 252 298
#     4  10  20  33  51  77 107 136 165 201 249 300
#     4   7  12  26  48  73 100 128 160 201 246 289
#
# _framework density 18.394886
#
# number of rings (size 3 to 8) (size 9 to 14) (size 15 to 20)
#    0.000    2.818    0.000    3.273    0.000    4.364 
#    0.000    1.818    0.000    7.636    0.000    0.000 
#    0.000    0.000    0.000    0.000    0.000    0.000 
#
# Total GULP energy -545339.551778 kJ/mol
# GULP energy per Si atom -12394.080722 kJ/mol
# Density = 1.835302 g / cm^3
# Si number density = 18.394886 Si / 1000 Ang^3
#
#
#
# Elastic Constant Matrix: (Units=GPa)
#
#
# Indices 1 2 3 4 5 6 
#
# 1 58.8116 26.2108 50.6090 0.0000 0.0000 0.0000
# 2 26.2108 58.8116 50.6090 0.0000 0.0000 0.0000
# 3 50.6090 50.6090 173.7614 0.0000 0.0000 0.0000
# 4 0.0000 0.0000 0.0000 -14.4153 0.0000 0.0000
# 5 0.0000 0.0000 0.0000 0.0000 -14.4153 0.0000
# 6 0.0000 0.0000 0.0000 0.0000 0.0000 24.0010
#
#
#
# Elastic Compliance Matrix: (Units=1/GPa)
#
#
# Indices 1 2 3 4 5 6 
#
# 1 0.024339 -0.006335 -0.005244 0.000000 0.000000 0.000000
# 2 -0.006335 0.024339 -0.005244 0.000000 0.000000 0.000000
# 3 -0.005244 -0.005244 0.008810 0.000000 0.000000 0.000000
# 4 0.000000 0.000000 0.000000 -0.069371 0.000000 0.000000
# 5 0.000000 0.000000 0.000000 0.000000 -0.069371 0.000000
# 6 0.000000 0.000000 0.000000 0.000000 0.000000 0.041665
#
#
# Mechanical properties :
#
#
# Convention : Reuss Voigt Hill
#
# Bulk Modulus (GPa) = 41.94128 60.69358 51.31743
# Shear Modulus (GPa) = 2494.80458 9.96448 1252.38453
#
# Velocity S-wave (km/s) = 36.86724 2.32997 26.12108
# Velocity P-wave (km/s) = 42.83816 6.34860 30.62199
#
# Compressibility (1/GPa) = 0.02384286
#
# Stress axis : x y z
#
# Youngs Moduli (GPa) = 41.08599 41.08599 113.51214
#
# Poissons Ratio (x) = 0.26027 0.59524
# Poissons Ratio (y) = 0.26027 0.59524
# Poissons Ratio (z) = 0.21545 0.21545
#
# Static dielectric constant tensor:
#      x y z
#    x 3.225890 0.000000 0.000000 
#    y 0.000000 3.225890 0.000000 
#    z 0.000000 0.000000 3.825990 
# 
# 
# High freq. dielectric constant tensor:
#      x y z
#    x 1.689740 0.000000 0.000000 
#    y 0.000000 1.689740 0.000000 
#    z 0.000000 0.000000 1.737220 
# 
# From -- ./inp_files/5827.got.cif
#   From: 2010.03.12/outbox.cif.g09.slc.cpg/sg115_3_cif.got.tgz:5827.got - 2010.04.14 02:11:21.
