data_PCOD8309488
_publ_section_title
;
Structure prediction by ZEFSAII (Michael W. Deem and Ramdas Pophale) SiO2 
 PCOD8309488
Probable space group: P -4 M 2
;
_chemical_formula_sum "Si O2"
_cell_formula_units_Z 48
_cell_length_a 9.129802
_cell_length_b 9.129802
_cell_length_c 30.579801
_cell_angle_alpha 90.000000
_cell_angle_beta 90.000000
_cell_angle_gamma 90.000000
_cell_volume 2548.926855
_symmetry_space_group_name_H-M "P -4 M 2"
_symmetry_group_IT_number 115
_symmetry_cell_setting 'tetragonal'
loop_
_space_group_symop_operation_xyz
x,y,z
y,-x,-z
-x,-y,z
-y,x,-z
y,x,-z
-y,-x,-z
-x,y,z
x,-y,z
loop_
_atom_site_type_symbol
_atom_site_label
_atom_site_fract_x
_atom_site_fract_y
_atom_site_fract_z
Si Si1 0.168208 0.168689 0.050590
Si Si2 0.834005 0.673883 0.461333
Si Si3 0.661845 0.326247 0.378128
Si Si4 0.327675 0.331464 0.280505
Si Si5 0.669822 0.671734 0.124769
Si Si6 0.171123 0.829221 0.203724
O O1 0.274161 0.271917 0.078120
O O2 0.000000 0.205176 0.061943
O O3 0.201192 0.000000 0.061987
O O4 0.200390 0.200390 0.000000
O O5 0.738893 0.738893 0.500000
O O6 0.822082 0.500000 0.463919
O O7 0.772905 0.732839 0.414889
O O8 0.000000 0.728360 0.465700
O O9 0.500000 0.261514 0.387760
O O10 0.652764 0.500000 0.379541
O O11 0.714162 0.280090 0.329672
O O12 0.500000 0.312293 0.272179
O O13 0.282341 0.500000 0.272454
O O14 0.238295 0.227795 0.248692
O O15 0.500000 0.711001 0.129763
O O16 0.697713 0.500000 0.127875
O O17 0.757762 0.748532 0.163064
O O18 0.000000 0.795274 0.203672
O O19 0.204684 0.000000 0.199346
#
# Coordination Sequence:
#
# PCOD8309488 Si02
#       6
#     8   8   8   8   8   8
#     4   9  19  37  60  85 113 145 181 220 263 315
#     4  10  20  33  51  76 104 136 176 218 261 312
#     4   8  15  30  53  79 105 134 170 214 261 309
#     4   9  18  34  57  84 110 135 169 214 263 316
#     4  11  24  39  56  81 111 142 180 226 271 315
#     4  11  24  39  55  78 108 142 181 221 262 314
#
# _framework density 18.831454000000001
#
# number of rings (size 3 to 8) (size 9 to 14) (size 15 to 20)
#    0.000    2.333    0.000    4.000    0.000    9.667 
#    0.000    5.000    0.000    1.000    0.000    0.000 
#    0.000    0.000    0.000    0.000    0.000    0.000 
#
# Total GULP energy -595246.206801 kJ/mol
# GULP energy per Si atom -12400.962642 kJ/mol
# Density = 1.878859 g / cm^3
# Si number density = 18.831454 Si / 1000 Ang^3
#
#
#
# Elastic Constant Matrix: (Units=GPa)
#
#
# Indices 1 2 3 4 5 6 
#
# 1 69.9890 53.1752 55.4476 0.0000 0.0000 0.0000
# 2 53.1752 69.9890 55.4476 0.0000 0.0000 0.0000
# 3 55.4476 55.4476 134.1042 0.0000 0.0000 0.0000
# 4 0.0000 0.0000 0.0000 -128.7289 0.0000 0.0000
# 5 0.0000 0.0000 0.0000 0.0000 -128.7289 0.0000
# 6 0.0000 0.0000 0.0000 0.0000 0.0000 28.9468
#
#
#
# Elastic Compliance Matrix: (Units=1/GPa)
#
#
# Indices 1 2 3 4 5 6 
#
# 1 0.036205 -0.023270 -0.005348 0.000000 0.000000 0.000000
# 2 -0.023270 0.036205 -0.005348 0.000000 0.000000 0.000000
# 3 -0.005348 -0.005348 0.011879 0.000000 0.000000 0.000000
# 4 0.000000 0.000000 0.000000 -0.007768 0.000000 0.000000
# 5 0.000000 0.000000 0.000000 0.000000 -0.007768 0.000000
# 6 0.000000 0.000000 0.000000 0.000000 0.000000 0.034546
#
#
# Mechanical properties :
#
#
# Convention : Reuss Voigt Hill
#
# Bulk Modulus (GPa) = 61.13826 66.91366 64.02596
# Shear Modulus (GPa) = 28.29931 -38.36806 -5.03437
#
# Velocity S-wave (km/s) = 3.88076 -4.51870 -1.63682
# Velocity P-wave (km/s) = 7.25375 2.89571 5.52277
#
# Compressibility (1/GPa) = 0.01635637
#
# Stress axis : x y z
#
# Youngs Moduli (GPa) = 27.62073 27.62073 84.18005
#
# Poissons Ratio (x) = 0.64274 0.45019
# Poissons Ratio (y) = 0.64274 0.45019
# Poissons Ratio (z) = 0.14771 0.14771
#
# Static dielectric constant tensor:
#      x y z
#    x 3.574000 0.000000 0.000000 
#    y 0.000000 3.574000 0.000000 
#    z 0.000000 0.000000 3.679110 
# 
# 
# High freq. dielectric constant tensor:
#      x y z
#    x 1.721890 0.000000 0.000000 
#    y 0.000000 1.721890 0.000000 
#    z 0.000000 0.000000 1.749220 
# 
# From -- ./inp_files/5940.got.cif
#   From: 2010.03.12/outbox.cif.g09.slc.cpg/sg115_3_cif.got.tgz:5940.got - 2010.04.14 02:11:21.
