data_PCOD8309431
_publ_section_title
;
Structure prediction by ZEFSAII (Michael W. Deem and Ramdas Pophale) SiO2 
 PCOD8309431
Probable space group: P -4 M 2
;
_chemical_formula_sum "Si O2"
_cell_formula_units_Z 48
_cell_length_a 9.328872
_cell_length_b 9.328872
_cell_length_c 30.915166
_cell_angle_alpha 90.000000
_cell_angle_beta 90.000000
_cell_angle_gamma 90.000000
_cell_volume 2690.480516
_symmetry_space_group_name_H-M "P -4 M 2"
_symmetry_group_IT_number 115
_symmetry_cell_setting 'tetragonal'
loop_
_space_group_symop_operation_xyz
x,y,z
y,-x,-z
-x,-y,z
-y,x,-z
y,x,-z
-y,-x,-z
-x,y,z
x,-y,z
loop_
_atom_site_type_symbol
_atom_site_label
_atom_site_fract_x
_atom_site_fract_y
_atom_site_fract_z
Si Si1 0.670156 0.659575 0.047346
Si Si2 0.160959 0.169394 0.381264
Si Si3 0.330714 0.834015 0.129506
Si Si4 0.661099 0.669191 0.548390
Si Si5 0.170130 0.159042 0.285895
Si Si6 0.830785 0.665884 0.203917
O O1 0.500000 0.649777 0.047203
O O2 0.733410 0.500000 0.056468
O O3 0.723872 0.768818 0.083996
O O4 0.718222 0.718222 0.000000
O O5 0.261992 0.233978 0.417311
O O6 0.221202 0.210722 0.333471
O O7 0.000000 0.229211 0.387521
O O8 0.161790 0.000000 0.386309
O O9 0.500000 0.812376 0.135401
O O10 0.250428 0.751108 0.167043
O O11 0.287301 0.000000 0.130740
O O12 0.711497 0.711497 0.500000
O O13 0.500000 0.725014 0.556678
O O14 0.667033 0.500000 0.553770
O O15 0.222392 0.271510 0.249905
O O16 0.000000 0.149643 0.286988
O O17 0.231617 0.000000 0.275094
O O18 0.787154 0.500000 0.201929
O O19 0.000000 0.687690 0.197772
#
# Coordination Sequence:
#
# PCOD8309431 Si02
#       6
#     8   8   8   8   8   8
#     4   8  14  27  48  70  92 123 162 201 241 284
#     4   9  18  32  51  76 101 124 156 199 244 291
#     4  10  20  33  50  73 101 133 166 199 240 290
#     4   9  19  35  51  68  95 131 167 201 239 285
#     4   8  15  30  50  70  96 129 160 194 241 293
#     4  10  20  33  51  75  99 126 164 206 245 287
#
# _framework density 17.840679000000002
#
# number of rings (size 3 to 8) (size 9 to 14) (size 15 to 20)
#    0.000    3.000    0.000    3.000    0.000    4.000 
#    0.000    5.833    0.000    4.000    0.000    0.000 
#    0.000    0.000    0.000    0.000    0.000    0.000 
#
# Total GULP energy -594996.718290 kJ/mol
# GULP energy per Si atom -12395.764964 kJ/mol
# Density = 1.780007 g / cm^3
# Si number density = 17.840679 Si / 1000 Ang^3
#
#
#
# Elastic Constant Matrix: (Units=GPa)
#
#
# Indices 1 2 3 4 5 6 
#
# 1 63.9304 33.7887 65.1904 0.0000 0.0000 0.0000
# 2 33.7887 63.9304 65.1904 0.0000 0.0000 0.0000
# 3 65.1904 65.1904 177.5831 0.0000 0.0000 0.0000
# 4 0.0000 0.0000 0.0000 31.0144 0.0000 0.0000
# 5 0.0000 0.0000 0.0000 0.0000 31.0144 0.0000
# 6 0.0000 0.0000 0.0000 0.0000 0.0000 25.2193
#
#
#
# Elastic Compliance Matrix: (Units=1/GPa)
#
#
# Indices 1 2 3 4 5 6 
#
# 1 0.026617 -0.006560 -0.007363 0.000000 0.000000 0.000000
# 2 -0.006560 0.026617 -0.007363 0.000000 0.000000 0.000000
# 3 -0.007363 -0.007363 0.011037 0.000000 0.000000 0.000000
# 4 0.000000 0.000000 0.000000 0.032243 0.000000 0.000000
# 5 0.000000 0.000000 0.000000 0.000000 0.032243 0.000000
# 6 0.000000 0.000000 0.000000 0.000000 0.000000 0.039652
#
#
# Mechanical properties :
#
#
# Convention : Reuss Voigt Hill
#
# Bulk Modulus (GPa) = 46.08325 70.42035 58.25180
# Shear Modulus (GPa) = 22.91327 26.86792 24.89059
#
# Velocity S-wave (km/s) = 3.58764 3.88492 3.73924
# Velocity P-wave (km/s) = 6.56110 7.72535 7.16690
#
# Compressibility (1/GPa) = 0.02169986
#
# Stress axis : x y z
#
# Youngs Moduli (GPa) = 37.56989 37.56989 90.60336
#
# Poissons Ratio (x) = 0.24644 0.66712
# Poissons Ratio (y) = 0.24644 0.66712
# Poissons Ratio (z) = 0.27663 0.27663
#
# Static dielectric constant tensor:
#      x y z
#    x 3.062900 0.000000 0.000000 
#    y 0.000000 3.062900 0.000000 
#    z 0.000000 0.000000 3.709990 
# 
# 
# High freq. dielectric constant tensor:
#      x y z
#    x 1.669260 0.000000 0.000000 
#    y 0.000000 1.669260 0.000000 
#    z 0.000000 0.000000 1.707590 
# 
# From -- ./inp_files/6090.got.cif
#   From: 2010.03.12/outbox.cif.g09.slc.cpg/sg115_4_cif.got.tgz:6090.got - 2010.04.14 02:11:21.
