data_PCOD8309623
_publ_section_title
;
Structure prediction by ZEFSAII (Michael W. Deem and Ramdas Pophale) SiO2 
 PCOD8309623
Probable space group: P -4 M 2
;
_chemical_formula_sum "Si O2"
_cell_formula_units_Z 44
_cell_length_a 8.996788
_cell_length_b 8.996788
_cell_length_c 28.285120
_cell_angle_alpha 90.000000
_cell_angle_beta 90.000000
_cell_angle_gamma 90.000000
_cell_volume 2289.459679
_symmetry_space_group_name_H-M "P -4 M 2"
_symmetry_group_IT_number 115
_symmetry_cell_setting 'tetragonal'
loop_
_space_group_symop_operation_xyz
x,y,z
y,-x,-z
-x,-y,z
-y,x,-z
y,x,-z
-y,-x,-z
-x,y,z
x,-y,z
loop_
_atom_site_type_symbol
_atom_site_label
_atom_site_fract_x
_atom_site_fract_y
_atom_site_fract_z
Si Si1 0.828001 0.674175 0.855519
Si Si2 0.834690 0.823402 0.051294
Si Si3 0.826403 0.671294 0.683128
Si Si4 0.172557 0.172557 0.500000
Si Si5 0.825565 0.329261 0.230940
Si Si6 0.329220 0.325396 0.414110
O O1 0.805372 0.500000 0.851486
O O2 0.770101 0.726571 0.906897
O O3 0.727880 0.751400 0.816637
O O4 0.000000 0.719005 0.847649
O O5 0.000000 0.758356 0.060716
O O6 0.843129 0.000000 0.049484
O O7 0.770904 0.770904 0.000000
O O8 0.791873 0.500000 0.695175
O O9 0.766819 0.771555 0.725105
O O10 0.746522 0.720617 0.635103
O O11 0.000000 0.699933 0.676748
O O12 0.224316 0.263008 0.454569
O O13 0.000000 0.204767 0.508923
O O14 0.780495 0.500000 0.239178
O O15 0.000000 0.308706 0.225640
O O16 0.500000 0.285190 0.426021
O O17 0.305517 0.500000 0.410166
#
# Coordination Sequence:
#
# PCOD8309623 Si02
#       6
#     8   8   8   4   8   8
#     4  10  20  34  54  80 108 140 179 221 268 322
#     4   8  14  27  49  75 103 138 179 221 265 314
#     4  10  21  38  61  87 113 143 180 222 271 327
#     4  11  24  39  56  82 116 153 192 233 276 320
#     4  11  24  39  55  78 108 143 183 225 271 322
#     4  10  21  38  61  87 114 147 186 226 272 326
#
# _framework density 19.218506999999999
#
# number of rings (size 3 to 8) (size 9 to 14) (size 15 to 20)
#    0.000    2.091    0.000    3.818    0.000    9.455 
#    0.000    0.909    0.000    3.273    0.000    0.000 
#    0.000    0.000    0.000    0.000    0.000    0.000 
#
# Total GULP energy -545708.783771 kJ/mol
# GULP energy per Si atom -12402.472358 kJ/mol
# Density = 1.917477 g / cm^3
# Si number density = 19.218507 Si / 1000 Ang^3
#
#
#
# Elastic Constant Matrix: (Units=GPa)
#
#
# Indices 1 2 3 4 5 6 
#
# 1 67.8278 35.1737 47.4154 0.0000 0.0000 0.0000
# 2 35.1737 67.8278 47.4154 0.0000 0.0000 0.0000
# 3 47.4154 47.4154 144.3677 0.0000 0.0000 0.0000
# 4 0.0000 0.0000 0.0000 40.4450 0.0000 0.0000
# 5 0.0000 0.0000 0.0000 0.0000 40.4450 0.0000
# 6 0.0000 0.0000 0.0000 0.0000 0.0000 27.3085
#
#
#
# Elastic Compliance Matrix: (Units=1/GPa)
#
#
# Indices 1 2 3 4 5 6 
#
# 1 0.022270 -0.008354 -0.004571 0.000000 0.000000 0.000000
# 2 -0.008354 0.022270 -0.004571 0.000000 0.000000 0.000000
# 3 -0.004571 -0.004571 0.009929 0.000000 0.000000 0.000000
# 4 0.000000 0.000000 0.000000 0.024725 0.000000 0.000000
# 5 0.000000 0.000000 0.000000 0.000000 0.024725 0.000000
# 6 0.000000 0.000000 0.000000 0.000000 0.000000 0.036619
#
#
# Mechanical properties :
#
#
# Convention : Reuss Voigt Hill
#
# Bulk Modulus (GPa) = 51.33558 60.00358 55.66958
# Shear Modulus (GPa) = 27.46921 31.64095 29.55508
#
# Velocity S-wave (km/s) = 3.78472 4.06196 3.92579
# Velocity P-wave (km/s) = 6.77262 7.29993 7.04121
#
# Compressibility (1/GPa) = 0.01947967
#
# Stress axis : x y z
#
# Youngs Moduli (GPa) = 44.90265 44.90265 100.71364
#
# Poissons Ratio (x) = 0.37510 0.46034
# Poissons Ratio (y) = 0.37510 0.46034
# Poissons Ratio (z) = 0.20524 0.20524
#
# Static dielectric constant tensor:
#      x y z
#    x 3.484460 0.000000 0.000000 
#    y 0.000000 3.484460 0.000000 
#    z 0.000000 0.000000 3.968240 
# 
# 
# High freq. dielectric constant tensor:
#      x y z
#    x 1.740420 0.000000 0.000000 
#    y 0.000000 1.740420 0.000000 
#    z 0.000000 0.000000 1.766140 
# 
# From -- ./inp_files/5797.got.cif
#   From: 2010.03.12/outbox.cif.g09.slc.cpg/sg115_3_cif.got.tgz:5797.got - 2010.04.14 02:11:21.
