data_PCOD8309671
_publ_section_title
;
Structure prediction by ZEFSAII (Michael W. Deem and Ramdas Pophale) SiO2 
 PCOD8309671
Probable space group: P -4 M 2
;
_chemical_formula_sum "Si O2"
_cell_formula_units_Z 48
_cell_length_a 13.970634
_cell_length_b 13.970634
_cell_length_c 12.375175
_cell_angle_alpha 90.000000
_cell_angle_beta 90.000000
_cell_angle_gamma 90.000000
_cell_volume 2415.369509
_symmetry_space_group_name_H-M "P -4 M 2"
_symmetry_group_IT_number 115
_symmetry_cell_setting 'tetragonal'
loop_
_space_group_symop_operation_xyz
x,y,z
y,-x,-z
-x,-y,z
-y,x,-z
y,x,-z
-y,-x,-z
-x,y,z
x,-y,z
loop_
_atom_site_type_symbol
_atom_site_label
_atom_site_fract_x
_atom_site_fract_y
_atom_site_fract_z
Si Si1 0.114655 0.747488 0.045360
Si Si2 0.888429 0.395860 0.454086
Si Si3 0.280234 0.891320 0.344085
Si Si4 0.387421 0.610250 0.626094
Si Si5 0.602807 0.109198 0.132851
Si Si6 0.291812 0.792703 0.728664
O O1 0.172676 0.708009 0.148340
O O2 0.000000 0.750324 0.064947
O O3 0.148603 0.851398 0.000000
O O4 0.152641 0.677386 0.951211
O O5 0.839102 0.500000 0.467276
O O6 0.850319 0.324239 0.545141
O O7 0.866942 0.357032 0.335547
O O8 0.000000 0.407221 0.470638
O O9 0.362796 0.883160 0.255337
O O10 0.195880 0.818459 0.311997
O O11 0.240029 0.000000 0.353101
O O12 0.365257 0.634743 0.500000
O O13 0.500000 0.623575 0.648268
O O14 0.357858 0.500000 0.651810
O O15 0.329497 0.683678 0.705381
O O16 0.500000 0.161619 0.123285
O O17 0.590600 0.000000 0.099199
#
# Coordination Sequence:
#
# PCOD8309671 Si02
#       6
#     8   8   8   8   8   8
#     4  11  24  43  61  84 114 151 199 252 308 365
#     4  10  21  36  56  87 123 156 191 236 295 356
#     4  10  20  35  56  83 119 152 189 240 292 346
#     4   9  19  36  58  88 128 169 206 242 285 349
#     4   9  18  35  59  83 108 142 188 242 295 343
#     4  12  22  35  59  88 118 156 196 248 295 357
#
# _framework density 19.872736
#
# number of rings (size 3 to 8) (size 9 to 14) (size 15 to 20)
#    0.000    1.833    1.667    3.500    0.000    6.167 
#    0.000    1.667    0.000    1.500    0.000    5.833 
#    0.000    0.000    0.000    0.000    0.000    0.000 
#
# Total GULP energy -594758.036098 kJ/mol
# GULP energy per Si atom -12390.792419 kJ/mol
# Density = 1.982750 g / cm^3
# Si number density = 19.872736 Si / 1000 Ang^3
#
#
#
# Elastic Constant Matrix: (Units=GPa)
#
#
# Indices 1 2 3 4 5 6 
#
# 1 57.5659 18.0186 18.5394 0.0000 0.0000 0.0000
# 2 18.0186 57.5653 18.5393 0.0000 0.0000 0.0000
# 3 18.5394 18.5393 95.4246 0.0000 0.0000 0.0000
# 4 0.0000 0.0000 0.0000 25.1041 0.0000 0.0000
# 5 0.0000 0.0000 0.0000 0.0000 25.1043 0.0000
# 6 0.0000 0.0000 0.0000 0.0000 0.0000 26.6544
#
#
#
# Elastic Compliance Matrix: (Units=1/GPa)
#
#
# Indices 1 2 3 4 5 6 
#
# 1 0.019955 -0.005331 -0.002841 0.000000 0.000000 0.000000
# 2 -0.005331 0.019955 -0.002841 0.000000 0.000000 0.000000
# 3 -0.002841 -0.002841 0.011583 0.000000 0.000000 0.000000
# 4 0.000000 0.000000 0.000000 0.039834 0.000000 0.000000
# 5 0.000000 0.000000 0.000000 0.000000 0.039834 0.000000
# 6 0.000000 0.000000 0.000000 0.000000 0.000000 0.037517
#
#
# Mechanical properties :
#
#
# Convention : Reuss Voigt Hill
#
# Bulk Modulus (GPa) = 33.93651 35.63892 34.78771
# Shear Modulus (GPa) = 24.93411 25.73645 25.33528
#
# Velocity S-wave (km/s) = 3.54600 3.60260 3.57441
# Velocity P-wave (km/s) = 5.82061 5.93949 5.88035
#
# Compressibility (1/GPa) = 0.02946679
#
# Stress axis : x y z
#
# Youngs Moduli (GPa) = 50.11250 50.11193 86.32996
#
# Poissons Ratio (x) = 0.26715 0.24528
# Poissons Ratio (y) = 0.26716 0.24528
# Poissons Ratio (z) = 0.14238 0.14238
#
# Static dielectric constant tensor:
#      x y z
#    x 3.842640 0.000000 0.000000 
#    y 0.000000 3.842640 0.000000 
#    z 0.000000 0.000000 3.542790 
# 
# 
# High freq. dielectric constant tensor:
#      x y z
#    x 1.770500 0.000000 0.000000 
#    y 0.000000 1.770500 0.000000 
#    z 0.000000 0.000000 1.770870 
# 
# From -- ./inp_files/2940.got.cif
#   From: 2010.03.12/outbox.cif.g09.slc.cpg/sg115_2_cif.got.tgz:2940.got - 2010.04.14 02:11:21.
