data_PCOD8309352
_publ_section_title
;
Structure prediction by ZEFSAII (Michael W. Deem and Ramdas Pophale) SiO2 
 PCOD8309352
Probable space group: P -4 M 2
;
_chemical_formula_sum "Si O2"
_cell_formula_units_Z 48
_cell_length_a 9.409037
_cell_length_b 9.409037
_cell_length_c 30.597220
_cell_angle_alpha 90.000000
_cell_angle_beta 90.000000
_cell_angle_gamma 90.000000
_cell_volume 2708.771191
_symmetry_space_group_name_H-M "P -4 M 2"
_symmetry_group_IT_number 115
_symmetry_cell_setting 'tetragonal'
loop_
_space_group_symop_operation_xyz
x,y,z
y,-x,-z
-x,-y,z
-y,x,-z
y,x,-z
-y,-x,-z
-x,y,z
x,-y,z
loop_
_atom_site_type_symbol
_atom_site_label
_atom_site_fract_x
_atom_site_fract_y
_atom_site_fract_z
Si Si1 0.662719 0.336584 0.050620
Si Si2 0.658356 0.668985 0.452110
Si Si3 0.343054 0.168573 0.200563
Si Si4 0.665890 0.164887 0.298514
Si Si5 0.831728 0.837384 0.880138
Si Si6 0.331912 0.836224 0.629693
O O1 0.500000 0.299494 0.061910
O O2 0.694951 0.500000 0.062005
O O3 0.764879 0.236029 0.077859
O O4 0.693490 0.306511 0.000000
O O5 0.716248 0.716248 0.500000
O O6 0.500000 0.730841 0.443250
O O7 0.650926 0.500000 0.451741
O O8 0.764239 0.725631 0.414871
O O9 0.500000 0.230407 0.190308
O O10 0.295044 0.213517 0.249190
O O11 0.234422 0.227308 0.164331
O O12 0.349865 0.000000 0.198889
O O13 0.500000 0.192621 0.307912
O O14 0.761322 0.260092 0.329456
O O15 0.703116 0.000000 0.305944
O O16 0.000000 0.820541 0.883923
O O17 0.783983 0.000000 0.878824
O O18 0.500000 0.817193 0.634223
O O19 0.286783 0.000000 0.628597
#
# Coordination Sequence:
#
# PCOD8309352 Si02
#       6
#     8   8   8   8   8   8
#     4   9  19  36  55  73  95 127 167 206 243 286
#     4   8  14  27  48  69  88 118 162 205 241 280
#     4   8  15  30  51  72  95 126 165 205 242 284
#     4   9  18  33  53  75  96 123 165 210 245 283
#     4  10  20  32  49  76 105 130 159 197 242 292
#     4  10  20  32  47  71 103 134 161 193 240 295
#
# _framework density 17.720213999999999
#
# number of rings (size 3 to 8) (size 9 to 14) (size 15 to 20)
#    0.000    3.000    0.000    3.000    0.000    4.000 
#    0.000    5.833    0.000    4.000    0.000    0.000 
#    0.000    0.000    0.000    0.000    0.000    0.000 
#
# Total GULP energy -595063.385805 kJ/mol
# GULP energy per Si atom -12397.153871 kJ/mol
# Density = 1.767988 g / cm^3
# Si number density = 17.720214 Si / 1000 Ang^3
#
#
#
# Elastic Constant Matrix: (Units=GPa)
#
#
# Indices 1 2 3 4 5 6 
#
# 1 72.7451 42.6672 64.3996 0.0000 0.0000 0.0000
# 2 42.6672 72.7452 64.3997 0.0000 0.0000 0.0000
# 3 64.3996 64.3997 143.0947 0.0000 0.0000 0.0000
# 4 0.0000 0.0000 0.0000 13.6689 0.0000 0.0000
# 5 0.0000 0.0000 0.0000 0.0000 13.6690 0.0000
# 6 0.0000 0.0000 0.0000 0.0000 0.0000 25.3379
#
#
#
# Elastic Compliance Matrix: (Units=1/GPa)
#
#
# Indices 1 2 3 4 5 6 
#
# 1 0.025327 -0.007920 -0.007834 0.000000 0.000000 0.000000
# 2 -0.007920 0.025327 -0.007834 0.000000 0.000000 0.000000
# 3 -0.007834 -0.007834 0.014040 0.000000 0.000000 0.000000
# 4 0.000000 0.000000 0.000000 0.073159 0.000000 0.000000
# 5 0.000000 0.000000 0.000000 0.000000 0.073158 0.000000
# 6 0.000000 0.000000 0.000000 0.000000 0.000000 0.039467
#
#
# Mechanical properties :
#
#
# Convention : Reuss Voigt Hill
#
# Bulk Modulus (GPa) = 57.08392 70.16867 63.62630
# Shear Modulus (GPa) = 16.47479 18.34306 17.40892
#
# Velocity S-wave (km/s) = 3.05243 3.22086 3.13778
# Velocity P-wave (km/s) = 6.68634 7.31546 7.00796
#
# Compressibility (1/GPa) = 0.01751807
#
# Stress axis : x y z
#
# Youngs Moduli (GPa) = 39.48321 39.48319 71.22515
#
# Poissons Ratio (x) = 0.31269 0.55800
# Poissons Ratio (y) = 0.31269 0.55800
# Poissons Ratio (z) = 0.30932 0.30932
#
# Static dielectric constant tensor:
#      x y z
#    x 3.235420 0.000000 0.000000 
#    y 0.000000 3.235430 0.000000 
#    z 0.000000 0.000000 3.535380 
# 
# 
# High freq. dielectric constant tensor:
#      x y z
#    x 1.664710 0.000000 0.000000 
#    y 0.000000 1.664710 0.000000 
#    z 0.000000 0.000000 1.700170 
# 
# From -- ./inp_files/6029.got.cif
#   From: 2010.03.12/outbox.cif.g09.slc.cpg/sg115_4_cif.got.tgz:6029.got - 2010.04.14 02:11:21.
