data_PCOD8309505
_publ_section_title
;
Structure prediction by ZEFSAII (Michael W. Deem and Ramdas Pophale) SiO2 
 PCOD8309505
Probable space group: P -4 M 2
;
_chemical_formula_sum "Si O2"
_cell_formula_units_Z 44
_cell_length_a 9.248893
_cell_length_b 9.248893
_cell_length_c 28.243426
_cell_angle_alpha 90.000000
_cell_angle_beta 90.000000
_cell_angle_gamma 90.000000
_cell_volume 2415.999760
_symmetry_space_group_name_H-M "P -4 M 2"
_symmetry_group_IT_number 115
_symmetry_cell_setting 'tetragonal'
loop_
_space_group_symop_operation_xyz
x,y,z
y,-x,-z
-x,-y,z
-y,x,-z
y,x,-z
-y,-x,-z
-x,y,z
x,-y,z
loop_
_atom_site_type_symbol
_atom_site_label
_atom_site_fract_x
_atom_site_fract_y
_atom_site_fract_z
Si Si1 0.166059 0.829461 0.367029
Si Si2 0.168551 0.168529 0.183772
Si Si3 0.831412 0.168589 0.000000
Si Si4 0.667900 0.335747 0.554538
Si Si5 0.827999 0.663333 0.724133
Si Si6 0.663183 0.828106 0.908125
O O1 0.225386 0.759803 0.414725
O O2 0.254419 0.768299 0.322069
O O3 0.000000 0.785315 0.360109
O O4 0.184784 0.000000 0.371615
O O5 0.255244 0.227726 0.229072
O O6 0.228479 0.254875 0.138468
O O7 0.000000 0.198121 0.193045
O O8 0.197580 0.000000 0.174480
O O9 0.745437 0.228700 0.954638
O O10 0.000000 0.198099 0.990953
O O11 0.699980 0.300021 0.500000
O O12 0.500000 0.314270 0.565989
O O13 0.714840 0.500000 0.566116
O O14 0.768043 0.500000 0.723946
O O15 0.000000 0.665908 0.723603
O O16 0.500000 0.768056 0.908164
O O17 0.666036 0.000000 0.908160
#
# Coordination Sequence:
#
# PCOD8309505 Si02
#       6
#     8   8   4   8   8   8
#     4  10  20  33  51  77 106 133 164 205 251 297
#     4   9  16  28  48  71  93 119 154 196 239 282
#     4   9  16  28  48  71  92 118 156 195 228 270
#     4   9  19  36  55  74  99 133 171 208 247 294
#     4   9  17  30  49  72  97 127 164 203 242 286
#     4   9  17  29  46  69  95 121 151 190 235 280
#
# _framework density 18.211925000000001
#
# number of rings (size 3 to 8) (size 9 to 14) (size 15 to 20)
#    0.000    2.818    0.000    2.182    0.000    6.545 
#    0.000    4.545    0.000    9.545    0.000    0.000 
#    0.000    0.000    0.000    0.000    0.000    0.000 
#
# Total GULP energy -545629.222983 kJ/mol
# GULP energy per Si atom -12400.664159 kJ/mol
# Density = 1.817047 g / cm^3
# Si number density = 18.211925 Si / 1000 Ang^3
#
#
#
# Elastic Constant Matrix: (Units=GPa)
#
#
# Indices 1 2 3 4 5 6 
#
# 1 77.3361 40.4843 66.9264 0.0000 0.0000 0.0000
# 2 40.4843 77.3357 66.9263 0.0000 0.0000 0.0000
# 3 66.9264 66.9263 161.7738 0.0000 0.0000 0.0000
# 4 0.0000 0.0000 0.0000 11.7478 0.0000 0.0000
# 5 0.0000 0.0000 0.0000 0.0000 11.7477 0.0000
# 6 0.0000 0.0000 0.0000 0.0000 0.0000 17.9058
#
#
#
# Elastic Compliance Matrix: (Units=1/GPa)
#
#
# Indices 1 2 3 4 5 6 
#
# 1 0.021575 -0.005561 -0.006625 0.000000 0.000000 0.000000
# 2 -0.005561 0.021575 -0.006625 0.000000 0.000000 0.000000
# 3 -0.006625 -0.006625 0.011663 0.000000 0.000000 0.000000
# 4 0.000000 0.000000 0.000000 0.085122 0.000000 0.000000
# 5 0.000000 0.000000 0.000000 0.000000 0.085123 0.000000
# 6 0.000000 0.000000 0.000000 0.000000 0.000000 0.055848
#
#
# Mechanical properties :
#
#
# Convention : Reuss Voigt Hill
#
# Bulk Modulus (GPa) = 58.17004 73.90217 66.03610
# Shear Modulus (GPa) = 15.41979 17.75417 16.58698
#
# Velocity S-wave (km/s) = 2.91294 3.12567 3.02118
# Velocity P-wave (km/s) = 6.58207 7.32759 6.96481
#
# Compressibility (1/GPa) = 0.01719098
#
# Stress axis : x y z
#
# Youngs Moduli (GPa) = 46.35014 46.34977 85.74039
#
# Poissons Ratio (x) = 0.25775 0.56804
# Poissons Ratio (y) = 0.25775 0.56804
# Poissons Ratio (z) = 0.30707 0.30707
#
# Static dielectric constant tensor:
#      x y z
#    x 3.178520 0.000000 0.000000 
#    y 0.000000 3.178530 0.000000 
#    z 0.000000 0.000000 3.520030 
# 
# 
# High freq. dielectric constant tensor:
#      x y z
#    x 1.683200 0.000000 0.000000 
#    y 0.000000 1.683200 0.000000 
#    z 0.000000 0.000000 1.721010 
# 
# From -- ./inp_files/5715.got.cif
#   From: 2010.03.12/outbox.cif.g09.slc.cpg/sg115_3_cif.got.tgz:5715.got - 2010.04.14 02:11:21.
