data_PCOD8309366
_publ_section_title
;
Structure prediction by ZEFSAII (Michael W. Deem and Ramdas Pophale) SiO2 
 PCOD8309366
Probable space group: P -4 M 2
;
_chemical_formula_sum "Si O2"
_cell_formula_units_Z 48
_cell_length_a 9.363615
_cell_length_b 9.363615
_cell_length_c 30.810364
_cell_angle_alpha 90.000000
_cell_angle_beta 90.000000
_cell_angle_gamma 90.000000
_cell_volume 2701.369092
_symmetry_space_group_name_H-M "P -4 M 2"
_symmetry_group_IT_number 115
_symmetry_cell_setting 'tetragonal'
loop_
_space_group_symop_operation_xyz
x,y,z
y,-x,-z
-x,-y,z
-y,x,-z
y,x,-z
-y,-x,-z
-x,y,z
x,-y,z
loop_
_atom_site_type_symbol
_atom_site_label
_atom_site_fract_x
_atom_site_fract_y
_atom_site_fract_z
Si Si1 0.330964 0.663847 0.212421
Si Si2 0.665996 0.168038 0.536980
Si Si3 0.830859 0.842508 0.381437
Si Si4 0.831086 0.661157 0.964754
Si Si5 0.330252 0.158532 0.131232
Si Si6 0.164982 0.833180 0.284464
O O1 0.500000 0.681612 0.216300
O O2 0.283642 0.500000 0.212057
O O3 0.272729 0.734007 0.167883
O O4 0.261448 0.740590 0.253112
O O5 0.747207 0.252794 0.500000
O O6 0.500000 0.206806 0.535701
O O7 0.727811 0.221355 0.583212
O O8 0.692722 0.000000 0.530164
O O9 0.781555 0.796698 0.333279
O O10 0.000000 0.852331 0.381016
O O11 0.769083 0.000000 0.393166
O O12 0.775094 0.500000 0.971830
O O13 0.788224 0.717478 0.916591
O O14 0.000000 0.666568 0.969862
O O15 0.762746 0.762746 0.000000
O O16 0.500000 0.151354 0.131684
O O17 0.268700 0.000000 0.140845
O O18 0.000000 0.790458 0.278116
O O19 0.187476 0.000000 0.274632
#
# Coordination Sequence:
#
# PCOD8309366 Si02
#       6
#     8   8   8   8   8   8
#     4  10  20  32  48  73 102 130 163 202 243 289
#     4  10  20  33  51  75 100 128 163 200 241 290
#     4   8  15  30  52  75  97 124 162 206 245 283
#     4   9  18  32  50  73  98 124 158 199 242 290
#     4   8  15  30  50  68  90 125 166 203 238 280
#     4   9  18  33  53  76 100 127 162 202 244 292
#
# _framework density 17.768765999999999
#
# number of rings (size 3 to 8) (size 9 to 14) (size 15 to 20)
#    0.000    3.000    0.000    3.000    0.000    4.000 
#    0.000    5.000    0.000    2.000    0.000    0.000 
#    0.000    0.000    0.000    0.000    0.000    0.000 
#
# Total GULP energy -595019.097656 kJ/mol
# GULP energy per Si atom -12396.231201 kJ/mol
# Density = 1.772832 g / cm^3
# Si number density = 17.768766 Si / 1000 Ang^3
#
#
#
# Elastic Constant Matrix: (Units=GPa)
#
#
# Indices 1 2 3 4 5 6 
#
# 1 59.6011 37.0025 63.1815 0.0000 0.0000 0.0000
# 2 37.0025 59.6035 63.1822 0.0000 0.0000 0.0000
# 3 63.1815 63.1822 167.1768 0.0000 0.0000 0.0000
# 4 0.0000 0.0000 0.0000 68.9095 0.0000 0.0000
# 5 0.0000 0.0000 0.0000 0.0000 68.9177 0.0000
# 6 0.0000 0.0000 0.0000 0.0000 0.0000 25.0232
#
#
#
# Elastic Compliance Matrix: (Units=1/GPa)
#
#
# Indices 1 2 3 4 5 6 
#
# 1 0.032361 -0.011888 -0.007737 0.000000 0.000000 0.000000
# 2 -0.011888 0.032359 -0.007737 0.000000 0.000000 0.000000
# 3 -0.007737 -0.007737 0.011830 0.000000 0.000000 0.000000
# 4 0.000000 0.000000 0.000000 0.014512 0.000000 0.000000
# 5 0.000000 0.000000 0.000000 0.000000 0.014510 0.000000
# 6 0.000000 0.000000 0.000000 0.000000 0.000000 0.039963
#
#
# Mechanical properties :
#
#
# Convention : Reuss Voigt Hill
#
# Bulk Modulus (GPa) = 45.81800 68.12376 56.97088
# Shear Modulus (GPa) = 24.09240 40.77109 32.43175
#
# Velocity S-wave (km/s) = 3.68623 4.79533 4.27688
# Velocity P-wave (km/s) = 6.63019 8.31159 7.51804
#
# Compressibility (1/GPa) = 0.02182549
#
# Stress axis : x y z
#
# Youngs Moduli (GPa) = 30.90152 30.90314 84.53187
#
# Poissons Ratio (x) = 0.36738 0.65404
# Poissons Ratio (y) = 0.36736 0.65400
# Poissons Ratio (z) = 0.23909 0.23909
#
# Static dielectric constant tensor:
#      x y z
#    x 2.649020 0.000000 0.000000 
#    y 0.000000 2.649110 0.000000 
#    z 0.000000 0.000000 3.619220 
# 
# 
# High freq. dielectric constant tensor:
#      x y z
#    x 1.665680 0.000000 0.000000 
#    y 0.000000 1.665680 0.000000 
#    z 0.000000 0.000000 1.703750 
# 
# From -- ./inp_files/6127.got.cif
#   From: 2010.03.12/outbox.cif.g09.slc.cpg/sg115_4_cif.got.tgz:6127.got - 2010.04.14 02:11:21.
