data_PCOD8309577
_publ_section_title
;
Structure prediction by ZEFSAII (Michael W. Deem and Ramdas Pophale) SiO2 
 PCOD8309577
Probable space group: P -4 M 2
;
_chemical_formula_sum "Si O2"
_cell_formula_units_Z 48
_cell_length_a 8.941456
_cell_length_b 8.941456
_cell_length_c 31.105281
_cell_angle_alpha 90.000000
_cell_angle_beta 90.000000
_cell_angle_gamma 90.000000
_cell_volume 2486.855875
_symmetry_space_group_name_H-M "P -4 M 2"
_symmetry_group_IT_number 115
_symmetry_cell_setting 'tetragonal'
loop_
_space_group_symop_operation_xyz
x,y,z
y,-x,-z
-x,-y,z
-y,x,-z
y,x,-z
-y,-x,-z
-x,y,z
x,-y,z
loop_
_atom_site_type_symbol
_atom_site_label
_atom_site_fract_x
_atom_site_fract_y
_atom_site_fract_z
Si Si1 0.172774 0.675877 0.619813
Si Si2 0.326851 0.824074 0.699227
Si Si3 0.321513 0.666806 0.953193
Si Si4 0.326629 0.825046 0.539924
Si Si5 0.321450 0.167521 0.869783
Si Si6 0.322526 0.667218 0.785964
O O1 0.198586 0.500000 0.621613
O O2 0.222588 0.745321 0.664657
O O3 0.275049 0.742238 0.582594
O O4 0.000000 0.715713 0.610885
O O5 0.500000 0.781605 0.690772
O O6 0.272361 0.767274 0.745669
O O7 0.302429 0.000000 0.696774
O O8 0.500000 0.663152 0.952795
O O9 0.258722 0.500000 0.945838
O O10 0.258178 0.768499 0.914728
O O11 0.269944 0.730056 0.000000
O O12 0.230784 0.769217 0.500000
O O13 0.500000 0.789364 0.531251
O O14 0.299039 0.000000 0.546303
O O15 0.500000 0.172310 0.869910
O O16 0.257388 0.262485 0.829814
O O17 0.261651 0.000000 0.864640
O O18 0.500000 0.663674 0.788833
O O19 0.258135 0.500000 0.780571
#
# Coordination Sequence:
#
# PCOD8309577 Si02
#       6
#     8   8   8   8   8   8
#     4  11  24  40  58  82 111 144 184 226 267 315
#     4  10  20  34  53  78 107 139 177 220 266 317
#     4   8  13  21  33  50  75 109 147 185 229 286
#     4  11  24  41  62  89 118 148 184 224 267 317
#     4   9  15  22  34  56  87 119 151 193 245 296
#     4   9  16  26  42  65  95 131 167 204 251 306
#
# _framework density 19.301480999999999
#
# number of rings (size 3 to 8) (size 9 to 14) (size 15 to 20)
#    0.000    2.333    0.000    4.000    0.000   11.667 
#    0.000    0.000    0.000    0.000    0.000    1.167 
#    0.000    7.000    0.000    0.000    0.000    0.000 
#
# Total GULP energy -595190.593852 kJ/mol
# GULP energy per Si atom -12399.804039 kJ/mol
# Density = 1.925755 g / cm^3
# Si number density = 19.301481 Si / 1000 Ang^3
#
#
#
# Elastic Constant Matrix: (Units=GPa)
#
#
# Indices 1 2 3 4 5 6 
#
# 1 78.9293 21.2468 36.2378 0.0000 0.0000 0.0000
# 2 21.2468 78.9276 36.2417 0.0000 0.0000 0.0000
# 3 36.2378 36.2417 142.7112 0.0000 0.0000 0.0000
# 4 0.0000 0.0000 0.0000 -76.1931 0.0000 0.0000
# 5 0.0000 0.0000 0.0000 0.0000 -76.1814 0.0000
# 6 0.0000 0.0000 0.0000 0.0000 0.0000 18.2377
#
#
#
# Elastic Compliance Matrix: (Units=1/GPa)
#
#
# Indices 1 2 3 4 5 6 
#
# 1 0.014783 -0.002554 -0.003105 0.000000 0.000000 0.000000
# 2 -0.002554 0.014783 -0.003106 0.000000 0.000000 0.000000
# 3 -0.003105 -0.003106 0.008584 0.000000 0.000000 0.000000
# 4 0.000000 0.000000 0.000000 -0.013125 0.000000 0.000000
# 5 0.000000 0.000000 0.000000 0.000000 -0.013127 0.000000
# 6 0.000000 0.000000 0.000000 0.000000 0.000000 0.054831
#
#
# Mechanical properties :
#
#
# Convention : Reuss Voigt Hill
#
# Bulk Modulus (GPa) = 48.49383 54.22452 51.35917
# Shear Modulus (GPa) = 54.86455 -13.03789 20.91333
#
# Velocity S-wave (km/s) = 5.33730 -2.60183 3.29524
# Velocity P-wave (km/s) = 7.94741 4.37360 6.41442
#
# Compressibility (1/GPa) = 0.02062118
#
# Stress axis : x y z
#
# Youngs Moduli (GPa) = 67.64713 67.64355 116.49075
#
# Poissons Ratio (x) = 0.17273 0.36172
# Poissons Ratio (y) = 0.17274 0.36180
# Poissons Ratio (z) = 0.21006 0.21009
#
# Static dielectric constant tensor:
#      x y z
#    x 3.374780 0.000000 0.000000 
#    y 0.000000 3.374790 0.000000 
#    z 0.000000 0.000000 2.291210 
# 
# 
# High freq. dielectric constant tensor:
#      x y z
#    x 1.726770 0.000000 0.000000 
#    y 0.000000 1.726770 0.000000 
#    z 0.000000 0.000000 1.773090 
# 
# From -- ./inp_files/5947.got.cif
#   From: 2010.03.12/outbox.cif.g09.slc.cpg/sg115_3_cif.got.tgz:5947.got - 2010.04.14 02:11:21.
