data_PCOD8309534
_publ_section_title
;
Structure prediction by ZEFSAII (Michael W. Deem and Ramdas Pophale) SiO2 
 PCOD8309534
Probable space group: P -4 M 2
;
_chemical_formula_sum "Si O2"
_cell_formula_units_Z 40
_cell_length_a 9.188323
_cell_length_b 9.188323
_cell_length_c 25.697998
_cell_angle_alpha 90.000000
_cell_angle_beta 90.000000
_cell_angle_gamma 90.000000
_cell_volume 2169.560665
_symmetry_space_group_name_H-M "P -4 M 2"
_symmetry_group_IT_number 115
_symmetry_cell_setting 'tetragonal'
loop_
_space_group_symop_operation_xyz
x,y,z
y,-x,-z
-x,-y,z
-y,x,-z
y,x,-z
-y,-x,-z
-x,y,z
x,-y,z
loop_
_atom_site_type_symbol
_atom_site_label
_atom_site_fract_x
_atom_site_fract_y
_atom_site_fract_z
Si Si1 0.167696 0.670596 0.545095
Si Si2 0.831698 0.830286 0.650591
Si Si3 0.327200 0.838640 0.158032
Si Si4 0.667934 0.671087 0.258548
Si Si5 0.172458 0.336978 0.956026
O O1 0.270090 0.729911 0.500000
O O2 0.194695 0.500000 0.552136
O O3 0.214528 0.749462 0.597987
O O4 0.000000 0.705175 0.531322
O O5 0.736170 0.767211 0.696724
O O6 0.000000 0.801092 0.663604
O O7 0.798116 0.000000 0.643619
O O8 0.500000 0.847322 0.156428
O O9 0.273899 0.730762 0.203257
O O10 0.276123 0.781198 0.101187
O O11 0.263708 0.000000 0.169405
O O12 0.500000 0.716393 0.267920
O O13 0.687590 0.500000 0.258168
O O14 0.233464 0.500000 0.964644
O O15 0.000000 0.337570 0.959397
O O16 0.233076 0.233076 0.000000
#
# Coordination Sequence:
#
# PCOD8309534 Si02
#       5
#     8   8   8   8   8
#     4  10  21  37  58  83 109 139 175 214 257 303
#     4  10  21  37  57  79 104 138 178 215 253 302
#     4   8  15  30  51  72  97 132 172 212 253 301
#     4  10  20  33  52  79 107 134 168 212 260 308
#     4   9  18  32  50  74 102 132 169 211 255 305
#
# _framework density 18.436913000000001
#
# number of rings (size 3 to 8) (size 9 to 14) (size 15 to 20)
#    0.000    2.600    0.000    3.000    0.000    5.600 
#    0.000    3.000    0.000    1.200    0.000    0.000 
#    0.000    0.000    0.000    0.000    0.000    0.000 
#
# Total GULP energy -495978.736488 kJ/mol
# GULP energy per Si atom -12399.468412 kJ/mol
# Density = 1.839495 g / cm^3
# Si number density = 18.436913 Si / 1000 Ang^3
#
#
#
# Elastic Constant Matrix: (Units=GPa)
#
#
# Indices 1 2 3 4 5 6 
#
# 1 69.2435 39.4097 65.7605 0.0000 0.0000 0.0000
# 2 39.4097 69.2441 65.7618 0.0000 0.0000 0.0000
# 3 65.7605 65.7618 168.6724 0.0000 0.0000 0.0000
# 4 0.0000 0.0000 0.0000 33.3934 0.0000 0.0000
# 5 0.0000 0.0000 0.0000 0.0000 33.3933 0.0000
# 6 0.0000 0.0000 0.0000 0.0000 0.0000 27.0982
#
#
#
# Elastic Compliance Matrix: (Units=1/GPa)
#
#
# Indices 1 2 3 4 5 6 
#
# 1 0.025474 -0.008045 -0.006795 0.000000 0.000000 0.000000
# 2 -0.008045 0.025474 -0.006795 0.000000 0.000000 0.000000
# 3 -0.006795 -0.006795 0.011227 0.000000 0.000000 0.000000
# 4 0.000000 0.000000 0.000000 0.029946 0.000000 0.000000
# 5 0.000000 0.000000 0.000000 0.000000 0.029946 0.000000
# 6 0.000000 0.000000 0.000000 0.000000 0.000000 0.036903
#
#
# Mechanical properties :
#
#
# Convention : Reuss Voigt Hill
#
# Bulk Modulus (GPa) = 52.89744 72.11379 62.50561
# Shear Modulus (GPa) = 23.97606 27.85884 25.91745
#
# Velocity S-wave (km/s) = 3.61007 3.89142 3.75338
# Velocity P-wave (km/s) = 6.79192 7.70646 7.26360
#
# Compressibility (1/GPa) = 0.01890451
#
# Stress axis : x y z
#
# Youngs Moduli (GPa) = 39.25623 39.25588 89.07014
#
# Poissons Ratio (x) = 0.31581 0.60522
# Poissons Ratio (y) = 0.31581 0.60525
# Poissons Ratio (z) = 0.26674 0.26675
#
# Static dielectric constant tensor:
#      x y z
#    x 3.224160 0.000000 0.000000 
#    y 0.000000 3.224160 0.000000 
#    z 0.000000 0.000000 3.677170 
# 
# 
# High freq. dielectric constant tensor:
#      x y z
#    x 1.700930 0.000000 0.000000 
#    y 0.000000 1.700930 0.000000 
#    z 0.000000 0.000000 1.731020 
# 
# From -- ./inp_files/5092.got.cif
#   From: 2010.03.12/outbox.cif.g09.slc.cpg/sg115_3_cif.got.tgz:5092.got - 2010.04.14 02:11:21.
