data_PCOD8309401
_publ_section_title
;
Structure prediction by ZEFSAII (Michael W. Deem and Ramdas Pophale) SiO2 
 PCOD8309401
Probable space group: P -4 M 2
;
_chemical_formula_sum "Si O2"
_cell_formula_units_Z 48
_cell_length_a 8.961878
_cell_length_b 8.961878
_cell_length_c 31.113434
_cell_angle_alpha 90.000000
_cell_angle_beta 90.000000
_cell_angle_gamma 90.000000
_cell_volume 2498.883457
_symmetry_space_group_name_H-M "P -4 M 2"
_symmetry_group_IT_number 115
_symmetry_cell_setting 'tetragonal'
loop_
_space_group_symop_operation_xyz
x,y,z
y,-x,-z
-x,-y,z
-y,x,-z
y,x,-z
-y,-x,-z
-x,y,z
x,-y,z
loop_
_atom_site_type_symbol
_atom_site_label
_atom_site_fract_x
_atom_site_fract_y
_atom_site_fract_z
Si Si1 0.173430 0.325873 0.460160
Si Si2 0.677558 0.332054 0.125363
Si Si3 0.328789 0.175248 0.039162
Si Si4 0.823992 0.328023 0.619024
Si Si5 0.168317 0.678165 0.790177
Si Si6 0.667585 0.677279 0.705836
O O1 0.268244 0.268244 0.500000
O O2 0.205036 0.500000 0.453869
O O3 0.223687 0.240587 0.417743
O O4 0.000000 0.293670 0.469021
O O5 0.500000 0.329967 0.126848
O O6 0.739726 0.500000 0.125224
O O7 0.734014 0.250186 0.082494
O O8 0.741412 0.248511 0.167255
O O9 0.500000 0.222357 0.030612
O O10 0.313078 0.000000 0.044929
O O11 0.228613 0.228613 0.000000
O O12 0.779260 0.500000 0.610026
O O13 0.757312 0.270164 0.663933
O O14 0.000000 0.309236 0.620962
O O15 0.170602 0.500000 0.790112
O O16 0.252735 0.741696 0.748303
O O17 0.000000 0.738598 0.789512
O O18 0.500000 0.741206 0.703574
O O19 0.665698 0.500000 0.708219
#
# Coordination Sequence:
#
# PCOD8309401 Si02
#       6
#     8   8   8   8   8   8
#     4  11  24  40  58  81 107 136 172 213 258 310
#     4   9  16  26  42  65  94 128 165 206 254 307
#     4  10  20  33  49  70  96 127 164 206 253 305
#     4  10  20  34  53  78 107 139 176 217 262 312
#     4   9  15  23  37  61  96 134 170 211 259 309
#     4   9  16  26  42  66  98 136 176 217 262 310
#
# _framework density 19.208580000000001
#
# number of rings (size 3 to 8) (size 9 to 14) (size 15 to 20)
#    0.000    2.333    0.000    3.500    0.000   11.333 
#    0.000    0.000    0.000    0.000    0.000    1.167 
#    0.000    9.333    0.000    0.000    0.000    0.000 
#
# Total GULP energy -595291.087771 kJ/mol
# GULP energy per Si atom -12401.897662 kJ/mol
# Density = 1.916486 g / cm^3
# Si number density = 19.208580 Si / 1000 Ang^3
#
#
#
# Elastic Constant Matrix: (Units=GPa)
#
#
# Indices 1 2 3 4 5 6 
#
# 1 78.8887 26.7348 46.4858 0.0000 0.0000 0.0000
# 2 26.7348 78.8887 46.4858 0.0000 0.0000 0.0000
# 3 46.4858 46.4858 167.8783 0.0000 0.0000 0.0000
# 4 0.0000 0.0000 0.0000 -4.4111 0.0000 0.0000
# 5 0.0000 0.0000 0.0000 0.0000 -4.4111 0.0000
# 6 0.0000 0.0000 0.0000 0.0000 0.0000 17.3881
#
#
#
# Elastic Compliance Matrix: (Units=1/GPa)
#
#
# Indices 1 2 3 4 5 6 
#
# 1 0.015846 -0.003328 -0.003466 0.000000 0.000000 0.000000
# 2 -0.003328 0.015846 -0.003466 0.000000 0.000000 0.000000
# 3 -0.003466 -0.003466 0.007876 0.000000 0.000000 0.000000
# 4 0.000000 0.000000 0.000000 -0.226701 0.000000 0.000000
# 5 0.000000 0.000000 0.000000 0.000000 -0.226701 0.000000
# 6 0.000000 0.000000 0.000000 0.000000 0.000000 0.057511
#
#
# Mechanical properties :
#
#
# Convention : Reuss Voigt Hill
#
# Bulk Modulus (GPa) = 52.49838 62.78535 57.64187
# Shear Modulus (GPa) = -15.17676 15.44314 0.13319
#
# Velocity S-wave (km/s) = -2.81393 2.83851 0.26360
# Velocity P-wave (km/s) = 4.10274 6.59545 5.49238
#
# Compressibility (1/GPa) = 0.01904821
#
# Stress axis : x y z
#
# Youngs Moduli (GPa) = 63.10565 63.10565 126.96068
#
# Poissons Ratio (x) = 0.20999 0.44011
# Poissons Ratio (y) = 0.20999 0.44011
# Poissons Ratio (z) = 0.21876 0.21876
#
# Static dielectric constant tensor:
#      x y z
#    x 3.323240 0.000000 0.000000 
#    y 0.000000 3.323240 0.000000 
#    z 0.000000 0.000000 3.817740 
# 
# 
# High freq. dielectric constant tensor:
#      x y z
#    x 1.723650 0.000000 0.000000 
#    y 0.000000 1.723650 0.000000 
#    z 0.000000 0.000000 1.767600 
# 
# From -- ./inp_files/5958.got.cif
#   From: 2010.03.12/outbox.cif.g09.slc.cpg/sg115_3_cif.got.tgz:5958.got - 2010.04.14 02:11:21.
