data_PCOD8309985
_publ_section_title
;
Structure prediction by ZEFSAII (Michael W. Deem and Ramdas Pophale) SiO2 
 PCOD8309985
Probable space group: P -4 M 2
;
_chemical_formula_sum "Si O2"
_cell_formula_units_Z 40
_cell_length_a 16.349506
_cell_length_b 16.349506
_cell_length_c 9.164940
_cell_angle_alpha 90.000000
_cell_angle_beta 90.000000
_cell_angle_gamma 90.000000
_cell_volume 2449.846627
_symmetry_space_group_name_H-M "P -4 M 2"
_symmetry_group_IT_number 115
_symmetry_cell_setting 'tetragonal'
loop_
_space_group_symop_operation_xyz
x,y,z
y,-x,-z
-x,-y,z
-y,x,-z
y,x,-z
-y,-x,-z
-x,y,z
x,-y,z
loop_
_atom_site_type_symbol
_atom_site_label
_atom_site_fract_x
_atom_site_fract_y
_atom_site_fract_z
Si Si1 0.906370 0.723487 0.473889
Si Si2 0.904596 0.904596 0.000000
Si Si3 0.827297 0.195079 0.740679
Si Si4 0.776512 0.593630 0.473887
Si Si5 0.595404 0.404597 0.000000
Si Si6 0.695078 0.672703 0.740680
O O1 0.872006 0.769400 0.332627
O O2 0.891962 0.774843 0.620665
O O3 0.863835 0.636165 0.490660
O O4 0.000000 0.706847 0.446956
O O5 0.846583 0.879471 0.132983
O O6 0.000000 0.889699 0.037906
O O7 0.771059 0.271060 0.797396
O O8 0.793152 0.500000 0.446959
O O9 0.725154 0.608040 0.620660
O O10 0.730601 0.627992 0.332621
O O11 0.653419 0.379474 0.867018
O O12 0.500000 0.389701 0.962090
#
# Coordination Sequence:
#
# PCOD8309985 Si02
#       6
#     8   4   8   8   4   8
#     4   9  17  30  48  68  89 115 146 180 218 259
#     4  11  21  30  44  68  93 115 144 186 226 255
#     4   9  18  32  48  64  87 120 151 177 212 263
#     4   9  17  30  48  68  89 115 146 180 218 259
#     4  11  21  30  44  68  93 115 144 186 226 255
#     4   9  18  32  48  64  87 120 151 177 212 263
#
# _framework density 16.327553000000002
#
# number of rings (size 3 to 8) (size 9 to 14) (size 15 to 20)
#    0.000    2.600    0.000    5.400    0.000    0.400 
#    0.000    0.000    0.000    9.600    0.000    0.000 
#    0.000   28.800    0.000    0.000    0.000    0.000 
#
# Total GULP energy -495872.023850 kJ/mol
# GULP energy per Si atom -12396.800596 kJ/mol
# Density = 1.629039 g / cm^3
# Si number density = 16.327553 Si / 1000 Ang^3
#
#
#
# Elastic Constant Matrix: (Units=GPa)
#
#
# Indices 1 2 3 4 5 6 
#
# 1 69.6587 15.2473 1.0791 0.0000 0.0000 0.0000
# 2 15.2473 69.6563 1.0775 0.0000 0.0000 0.0000
# 3 1.0791 1.0775 33.9765 0.0000 0.0000 0.0000
# 4 0.0000 0.0000 0.0000 17.7098 0.0000 0.0000
# 5 0.0000 0.0000 0.0000 0.0000 17.7103 0.0000
# 6 0.0000 0.0000 0.0000 0.0000 0.0000 20.3081
#
#
#
# Elastic Compliance Matrix: (Units=1/GPa)
#
#
# Indices 1 2 3 4 5 6 
#
# 1 0.015083 -0.003296 -0.000374 0.000000 0.000000 0.000000
# 2 -0.003296 0.015083 -0.000374 0.000000 0.000000 0.000000
# 3 -0.000374 -0.000374 0.029456 0.000000 0.000000 0.000000
# 4 0.000000 0.000000 0.000000 0.056466 0.000000 0.000000
# 5 0.000000 0.000000 0.000000 0.000000 0.056464 0.000000
# 6 0.000000 0.000000 0.000000 0.000000 0.000000 0.049241
#
#
# Mechanical properties :
#
#
# Convention : Reuss Voigt Hill
#
# Bulk Modulus (GPa) = 19.40456 23.12215 21.26335
# Shear Modulus (GPa) = 20.23801 21.53814 20.88808
#
# Velocity S-wave (km/s) = 3.52447 3.63592 3.58063
# Velocity P-wave (km/s) = 5.33600 5.64081 5.49052
#
# Compressibility (1/GPa) = 0.05153428
#
# Stress axis : x y z
#
# Youngs Moduli (GPa) = 66.30023 66.29799 33.94912
#
# Poissons Ratio (x) = 0.21850 0.01271
# Poissons Ratio (y) = 0.21851 0.01269
# Poissons Ratio (z) = 0.02483 0.02477
#
# Static dielectric constant tensor:
#      x y z
#    x 3.023940 0.000000 0.000000 
#    y 0.000000 3.023930 0.000000 
#    z 0.000000 0.000000 2.968090 
# 
# 
# High freq. dielectric constant tensor:
#      x y z
#    x 1.628500 0.000000 0.000000 
#    y 0.000000 1.628500 0.000000 
#    z 0.000000 0.000000 1.623360 
# 
# From -- ./inp_files/1656.got.cif
#   From: 2010.03.12/outbox.cif.g09.slc.cpg/sg115_1_cif.got.tgz:1656.got - 2010.04.14 02:11:21.
