data_PCOD8309371
_publ_section_title
;
Structure prediction by ZEFSAII (Michael W. Deem and Ramdas Pophale) SiO2 
 PCOD8309371
Probable space group: P -4 M 2
;
_chemical_formula_sum "Si O2"
_cell_formula_units_Z 40
_cell_length_a 9.021564
_cell_length_b 9.021564
_cell_length_c 26.058219
_cell_angle_alpha 90.000000
_cell_angle_beta 90.000000
_cell_angle_gamma 90.000000
_cell_volume 2120.842406
_symmetry_space_group_name_H-M "P -4 M 2"
_symmetry_group_IT_number 115
_symmetry_cell_setting 'tetragonal'
loop_
_space_group_symop_operation_xyz
x,y,z
y,-x,-z
-x,-y,z
-y,x,-z
y,x,-z
-y,-x,-z
-x,y,z
x,-y,z
loop_
_atom_site_type_symbol
_atom_site_label
_atom_site_fract_x
_atom_site_fract_y
_atom_site_fract_z
Si Si1 0.677168 0.332267 0.390150
Si Si2 0.327673 0.672327 0.500000
Si Si3 0.167065 0.676034 0.709689
Si Si4 0.672346 0.327654 0.000000
Si Si5 0.828750 0.327654 0.198059
Si Si6 0.174347 0.829396 0.906890
O O1 0.500000 0.334741 0.390856
O O2 0.736057 0.500000 0.381674
O O3 0.733012 0.263017 0.445428
O O4 0.737804 0.230168 0.344266
O O5 0.500000 0.704900 0.504800
O O6 0.171742 0.500000 0.710219
O O7 0.269026 0.732875 0.755182
O O8 0.000000 0.735476 0.716436
O O9 0.725547 0.238713 0.049368
O O10 0.500000 0.295298 0.991012
O O11 0.796170 0.500000 0.190114
O O12 0.778330 0.243848 0.146785
O O13 0.000000 0.295932 0.210093
O O14 0.000000 0.805692 0.903701
O O15 0.215021 0.000000 0.919177
#
# Coordination Sequence:
#
# PCOD8309371 Si02
#       6
#     8   4   8   4   8   8
#     4   8  13  23  41  65  92 123 162 209 257 302
#     4   7  10  18  36  62  88 117 158 206 254 301
#     4  10  20  32  48  73 104 137 172 209 253 307
#     4  11  24  39  56  82 114 145 176 211 252 296
#     4  10  21  37  57  79 103 134 173 216 261 308
#     4  10  21  38  60  83 106 136 174 213 256 307
#
# _framework density 18.860431999999999
#
# number of rings (size 3 to 8) (size 9 to 14) (size 15 to 20)
#    0.000    2.600    0.000    3.600    0.000    6.400 
#    0.000    0.000    0.000    1.200    0.000    5.600 
#    0.000    0.000    0.000    0.000    0.000    0.000 
#
# Total GULP energy -495805.416826 kJ/mol
# GULP energy per Si atom -12395.135421 kJ/mol
# Density = 1.881750 g / cm^3
# Si number density = 18.860432 Si / 1000 Ang^3
#
#
#
# Elastic Constant Matrix: (Units=GPa)
#
#
# Indices 1 2 3 4 5 6 
#
# 1 56.1784 26.4586 45.2196 0.0000 0.0000 0.0000
# 2 26.4586 56.1782 45.2192 0.0000 0.0000 0.0000
# 3 45.2196 45.2192 162.9195 0.0000 0.0000 0.0000
# 4 0.0000 0.0000 0.0000 -75.8986 0.0000 0.0000
# 5 0.0000 0.0000 0.0000 0.0000 -75.8791 0.0000
# 6 0.0000 0.0000 0.0000 0.0000 0.0000 22.3672
#
#
#
# Elastic Compliance Matrix: (Units=1/GPa)
#
#
# Indices 1 2 3 4 5 6 
#
# 1 0.025514 -0.008133 -0.004824 0.000000 0.000000 0.000000
# 2 -0.008133 0.025514 -0.004824 0.000000 0.000000 0.000000
# 3 -0.004824 -0.004824 0.008816 0.000000 0.000000 0.000000
# 4 0.000000 0.000000 0.000000 -0.013175 0.000000 0.000000
# 5 0.000000 0.000000 0.000000 0.000000 -0.013179 0.000000
# 6 0.000000 0.000000 0.000000 0.000000 0.000000 0.044708
#
#
# Mechanical properties :
#
#
# Convention : Reuss Voigt Hill
#
# Bulk Modulus (GPa) = 41.18469 56.56342 48.87406
# Shear Modulus (GPa) = 41.03217 -15.32354 12.85432
#
# Velocity S-wave (km/s) = 4.66936 -2.85348 2.61348
# Velocity P-wave (km/s) = 7.13824 4.38169 5.92257
#
# Compressibility (1/GPa) = 0.02428087
#
# Stress axis : x y z
#
# Youngs Moduli (GPa) = 39.19381 39.19385 113.43079
#
# Poissons Ratio (x) = 0.31878 0.54721
# Poissons Ratio (y) = 0.31878 0.54720
# Poissons Ratio (z) = 0.18908 0.18908
#
# Static dielectric constant tensor:
#      x y z
#    x 3.410440 0.000000 0.000000 
#    y 0.000000 3.410450 0.000000 
#    z 0.000000 0.000000 3.921960 
# 
# 
# High freq. dielectric constant tensor:
#      x y z
#    x 1.708400 0.000000 0.000000 
#    y 0.000000 1.708400 0.000000 
#    z 0.000000 0.000000 1.758230 
# 
# From -- ./inp_files/5531.got.cif
#   From: 2010.03.12/outbox.cif.g09.slc.cpg/sg115_3_cif.got.tgz:5531.got - 2010.04.14 02:11:21.
