data_PCOD8309384
_publ_section_title
;
Structure prediction by ZEFSAII (Michael W. Deem and Ramdas Pophale) SiO2 
 PCOD8309384
Probable space group: P -4 M 2
;
_chemical_formula_sum "Si O2"
_cell_formula_units_Z 48
_cell_length_a 9.556651
_cell_length_b 9.556651
_cell_length_c 30.197037
_cell_angle_alpha 90.000000
_cell_angle_beta 90.000000
_cell_angle_gamma 90.000000
_cell_volume 2757.882656
_symmetry_space_group_name_H-M "P -4 M 2"
_symmetry_group_IT_number 115
_symmetry_cell_setting 'tetragonal'
loop_
_space_group_symop_operation_xyz
x,y,z
y,-x,-z
-x,-y,z
-y,x,-z
y,x,-z
-y,-x,-z
-x,y,z
x,-y,z
loop_
_atom_site_type_symbol
_atom_site_label
_atom_site_fract_x
_atom_site_fract_y
_atom_site_fract_z
Si Si1 0.165390 0.162042 0.285831
Si Si2 0.661594 0.339046 0.217942
Si Si3 0.835227 0.841544 0.950359
Si Si4 0.166034 0.654941 0.367127
Si Si5 0.840156 0.335696 0.465804
Si Si6 0.342326 0.337925 0.884268
O O1 0.240304 0.235244 0.244899
O O2 0.219966 0.233542 0.331187
O O3 0.000000 0.181762 0.279920
O O4 0.207844 0.000000 0.287450
O O5 0.500000 0.310828 0.229868
O O6 0.700183 0.500000 0.228636
O O7 0.690222 0.305548 0.166741
O O8 0.763244 0.744814 0.914688
O O9 0.000000 0.829094 0.944002
O O10 0.785536 0.000000 0.942312
O O11 0.793679 0.793679 0.000000
O O12 0.225476 0.500000 0.355460
O O13 0.214359 0.700806 0.416244
O O14 0.000000 0.647344 0.367137
O O15 0.744301 0.255699 0.500000
O O16 0.826784 0.500000 0.474462
O O17 0.000000 0.286410 0.472017
O O18 0.500000 0.288097 0.894249
O O19 0.325800 0.500000 0.895521
#
# Coordination Sequence:
#
# PCOD8309384 Si02
#       6
#     8   8   8   8   8   8
#     4  10  20  32  49  76 104 127 158 202 247 291
#     4   9  19  36  54  71  96 131 167 201 241 291
#     4   9  19  35  52  72 101 134 165 199 241 289
#     4   8  15  30  50  69  93 128 166 201 238 283
#     4   9  18  32  50  73  99 127 162 202 242 287
#     4   9  19  35  53  74  99 127 163 206 246 286
#
# _framework density 17.404657
#
# number of rings (size 3 to 8) (size 9 to 14) (size 15 to 20)
#    0.000    3.000    0.000    3.000    0.000    5.000 
#    0.000   10.000    0.000    1.000    0.000    0.000 
#    0.000    0.000    0.000    0.000    0.000    0.000 
#
# Total GULP energy -595090.903412 kJ/mol
# GULP energy per Si atom -12397.727154 kJ/mol
# Density = 1.736504 g / cm^3
# Si number density = 17.404657 Si / 1000 Ang^3
#
#
#
# Elastic Constant Matrix: (Units=GPa)
#
#
# Indices 1 2 3 4 5 6 
#
# 1 66.4832 41.3519 60.0610 0.0000 0.0000 0.0000
# 2 41.3519 66.4832 60.0610 0.0000 0.0000 0.0000
# 3 60.0610 60.0610 117.1348 0.0000 0.0000 0.0000
# 4 0.0000 0.0000 0.0000 39.9904 0.0000 0.0000
# 5 0.0000 0.0000 0.0000 0.0000 39.9904 0.0000
# 6 0.0000 0.0000 0.0000 0.0000 0.0000 32.4013
#
#
#
# Elastic Compliance Matrix: (Units=1/GPa)
#
#
# Indices 1 2 3 4 5 6 
#
# 1 0.030708 -0.009083 -0.011088 0.000000 0.000000 0.000000
# 2 -0.009083 0.030708 -0.011088 0.000000 0.000000 0.000000
# 3 -0.011088 -0.011088 0.019908 0.000000 0.000000 0.000000
# 4 0.000000 0.000000 0.000000 0.025006 0.000000 0.000000
# 5 0.000000 0.000000 0.000000 0.000000 0.025006 0.000000
# 6 0.000000 0.000000 0.000000 0.000000 0.000000 0.030863
#
#
# Mechanical properties :
#
#
# Convention : Reuss Voigt Hill
#
# Bulk Modulus (GPa) = 53.17646 63.67211 58.42428
# Shear Modulus (GPa) = 21.64621 28.38488 25.01554
#
# Velocity S-wave (km/s) = 3.53044 4.04279 3.79527
# Velocity P-wave (km/s) = 6.87299 7.64559 7.26956
#
# Compressibility (1/GPa) = 0.01880531
#
# Stress axis : x y z
#
# Youngs Moduli (GPa) = 32.56466 32.56466 50.23022
#
# Poissons Ratio (x) = 0.29578 0.55697
# Poissons Ratio (y) = 0.29578 0.55697
# Poissons Ratio (z) = 0.36109 0.36109
#
# Static dielectric constant tensor:
#      x y z
#    x 3.081490 0.000000 0.000000 
#    y 0.000000 3.081490 0.000000 
#    z 0.000000 0.000000 3.346400 
# 
# 
# High freq. dielectric constant tensor:
#      x y z
#    x 1.661830 0.000000 0.000000 
#    y 0.000000 1.661830 0.000000 
#    z 0.000000 0.000000 1.681960 
# 
# From -- ./inp_files/5985.got.cif
#   From: 2010.03.12/outbox.cif.g09.slc.cpg/sg115_3_cif.got.tgz:5985.got - 2010.04.14 02:11:21.
