data_PCOD8309137
_publ_section_title
;
Structure prediction by ZEFSAII (Michael W. Deem and Ramdas Pophale) SiO2 
 PCOD8309137
Probable space group: P -4 21 C
;
_chemical_formula_sum "Si O2"
_cell_formula_units_Z 18
_cell_length_a 8.791758
_cell_length_b 8.791758
_cell_length_c 9.890956
_cell_angle_alpha 90.000000
_cell_angle_beta 90.000000
_cell_angle_gamma 90.000000
_cell_volume 764.521530
_symmetry_space_group_name_H-M "P -4 21 C"
_symmetry_group_IT_number 114
_symmetry_cell_setting 'tetragonal'
loop_
_space_group_symop_operation_xyz
x,y,z
y,-x,-z
-x,-y,z
-y,x,-z
1/2+x,1/2-y,1/2-z
1/2-x,1/2+y,1/2-z
1/2-y,1/2-x,1/2+z
1/2+y,1/2+x,1/2+z
loop_
_atom_site_type_symbol
_atom_site_label
_atom_site_fract_x
_atom_site_fract_y
_atom_site_fract_z
Si Si1 0.500000 0.500000 0.500000
Si Si2 0.245423 0.287774 0.402544
Si Si3 0.039963 0.336467 0.648246
O O1 0.412938 0.367156 0.415595
O O2 0.160993 0.264835 0.545103
O O3 0.150643 0.389105 0.297461
O O4 0.247650 0.118701 0.341564
O O5 0.000000 0.500000 0.589398
#
# Coordination Sequence:
#
# PCOD8309137 Si02
#       3
#     2   8   8
#     4  12  24  48  76 110 148 200 248 310 372 444
#     4  12  28  48  78 111 149 198 251 307 375 444
#     4  12  28  49  77 111 151 195 251 309 373 446
#
# _framework density 23.544136000000002
#
# number of rings (size 3 to 8) (size 9 to 14) (size 15 to 20)
#    0.000    0.000    4.444    4.000    6.222    0.889 
#    0.000    0.000    0.000    0.000    0.000    0.000 
#    0.000    0.000    0.000    0.000    0.000    0.000 
#
# Total GULP energy -223209.841905 kJ/mol
# GULP energy per Si atom -12400.546772 kJ/mol
# Density = 2.349055 g / cm^3
# Si number density = 23.544136 Si / 1000 Ang^3
#
#
#
# Elastic Constant Matrix: (Units=GPa)
#
#
# Indices 1 2 3 4 5 6 
#
# 1 118.5066 20.9947 25.7222 0.0000 0.0000 0.0000
# 2 20.9947 118.5066 25.7222 0.0000 0.0000 0.0000
# 3 25.7222 25.7222 106.4866 0.0000 0.0000 0.0000
# 4 0.0000 0.0000 0.0000 33.1468 0.0000 0.0000
# 5 0.0000 0.0000 0.0000 0.0000 33.1468 0.0000
# 6 0.0000 0.0000 0.0000 0.0000 0.0000 30.1783
#
#
#
# Elastic Compliance Matrix: (Units=1/GPa)
#
#
# Indices 1 2 3 4 5 6 
#
# 1 0.009062 -0.001193 -0.001901 0.000000 0.000000 0.000000
# 2 -0.001193 0.009062 -0.001901 0.000000 0.000000 0.000000
# 3 -0.001901 -0.001901 0.010309 0.000000 0.000000 0.000000
# 4 0.000000 0.000000 0.000000 0.030169 0.000000 0.000000
# 5 0.000000 0.000000 0.000000 0.000000 0.030169 0.000000
# 6 0.000000 0.000000 0.000000 0.000000 0.000000 0.033136
#
#
# Mechanical properties :
#
#
# Convention : Reuss Voigt Hill
#
# Bulk Modulus (GPa) = 54.21685 54.26420 54.24052
# Shear Modulus (GPa) = 36.22004 37.36511 36.79258
#
# Velocity S-wave (km/s) = 3.92649 3.98807 3.95740
# Velocity P-wave (km/s) = 6.60561 6.65614 6.63092
#
# Compressibility (1/GPa) = 0.01844445
#
# Stress axis : x y z
#
# Youngs Moduli (GPa) = 110.34762 110.34762 97.00093
#
# Poissons Ratio (x) = 0.13163 0.18439
# Poissons Ratio (y) = 0.13163 0.18439
# Poissons Ratio (z) = 0.20976 0.20976
#
# Static dielectric constant tensor:
#      x y z
#    x 4.338530 0.000000 0.000000 
#    y 0.000000 4.338530 0.000000 
#    z 0.000000 0.000000 3.884390 
# 
# 
# High freq. dielectric constant tensor:
#      x y z
#    x 1.939580 0.000000 0.000000 
#    y 0.000000 1.939580 0.000000 
#    z 0.000000 0.000000 1.928240 
# 
# From -- ./inp_files/338.got.cif
#   From: 2010.03.12/outbox.cif.g09.slc.cpg/sg114_1_cif.got.tgz:338.got - 2010.04.14 02:08:34.
