data_PCOD8309956
_publ_section_title
;
Structure prediction by ZEFSAII (Michael W. Deem and Ramdas Pophale) SiO2 
 PCOD8309956
Probable space group: P -4 M 2
;
_chemical_formula_sum "Si O2"
_cell_formula_units_Z 48
_cell_length_a 8.165369
_cell_length_b 8.165369
_cell_length_c 33.725412
_cell_angle_alpha 90.000000
_cell_angle_beta 90.000000
_cell_angle_gamma 90.000000
_cell_volume 2248.582856
_symmetry_space_group_name_H-M "P -4 M 2"
_symmetry_group_IT_number 115
_symmetry_cell_setting 'tetragonal'
loop_
_space_group_symop_operation_xyz
x,y,z
y,-x,-z
-x,-y,z
-y,x,-z
y,x,-z
-y,-x,-z
-x,y,z
x,-y,z
loop_
_atom_site_type_symbol
_atom_site_label
_atom_site_fract_x
_atom_site_fract_y
_atom_site_fract_z
Si Si1 0.813417 0.814079 0.876836
Si Si2 0.680623 0.190908 0.377916
Si Si3 0.812610 0.692282 0.457886
Si Si4 0.693958 0.000000 0.757066
Si Si5 0.804519 0.000000 0.667435
Si Si6 0.310968 0.320983 0.800042
Si Si7 0.317075 0.694192 0.043382
O O1 0.708060 0.701579 0.847398
O O2 0.762437 0.798453 0.922483
O O3 0.000000 0.761050 0.871782
O O4 0.783691 0.000000 0.863888
O O5 0.500000 0.262801 0.365393
O O6 0.704127 0.221659 0.424473
O O7 0.834738 0.267269 0.353574
O O8 0.678150 0.000000 0.369484
O O9 0.752127 0.752127 0.500000
O O10 0.788724 0.500000 0.454359
O O11 0.000000 0.745172 0.451728
O O12 0.770335 0.166316 0.776779
O O13 0.500000 0.000000 0.763543
O O14 0.739742 0.000000 0.711568
O O15 0.000000 0.000000 0.665866
O O16 0.500000 0.326318 0.789120
O O17 0.234550 0.500000 0.788114
O O18 0.500000 0.762860 0.050451
O O19 0.318971 0.500000 0.044429
O O20 0.250207 0.749794 0.000000
#
# Coordination Sequence:
#
# PCOD8309956 Si02
#       7
#     8   8   8   4   4   8   8
#     4  11  23  36  53  81 116 151 188 235 293 352
#     4  10  21  39  62  87 117 158 207 250 298 364
#     4  11  23  37  56  85 120 159 204 254 310 365
#     4  10  22  40  62  90 122 152 192 244 294 358
#     4  10  22  40  62  88 122 160 198 246 302 362
#     4  10  21  39  63  88 115 151 194 239 292 357
#     4   9  19  36  56  78 106 144 192 240 286 344
#
# _framework density 21.346776999999999
#
# number of rings (size 3 to 8) (size 9 to 14) (size 15 to 20)
#    0.000    1.833    1.667    2.500    0.000    9.667 
#    0.000    2.500    0.000    0.000    0.000    0.000 
#    0.000    0.000    0.000    0.000    0.000    0.000 
#
# Total GULP energy -595012.135621 kJ/mol
# GULP energy per Si atom -12396.086159 kJ/mol
# Density = 2.129819 g / cm^3
# Si number density = 21.346777 Si / 1000 Ang^3
#
#
#
# Elastic Constant Matrix: (Units=GPa)
#
#
# Indices 1 2 3 4 5 6 
#
# 1 76.4219 44.6657 40.2032 0.0000 0.0000 0.0000
# 2 44.6657 76.4216 40.2034 0.0000 0.0000 0.0000
# 3 40.2032 40.2034 132.9745 0.0000 0.0000 0.0000
# 4 0.0000 0.0000 0.0000 32.0025 0.0000 0.0000
# 5 0.0000 0.0000 0.0000 0.0000 32.0027 0.0000
# 6 0.0000 0.0000 0.0000 0.0000 0.0000 18.9796
#
#
#
# Elastic Compliance Matrix: (Units=1/GPa)
#
#
# Indices 1 2 3 4 5 6 
#
# 1 0.020911 -0.010579 -0.003124 0.000000 0.000000 0.000000
# 2 -0.010579 0.020912 -0.003124 0.000000 0.000000 0.000000
# 3 -0.003124 -0.003124 0.009409 0.000000 0.000000 0.000000
# 4 0.000000 0.000000 0.000000 0.031248 0.000000 0.000000
# 5 0.000000 0.000000 0.000000 0.000000 0.031247 0.000000
# 6 0.000000 0.000000 0.000000 0.000000 0.000000 0.052688
#
#
# Mechanical properties :
#
#
# Convention : Reuss Voigt Hill
#
# Bulk Modulus (GPa) = 56.88597 59.55139 58.21868
# Shear Modulus (GPa) = 24.28029 27.31334 25.79682
#
# Velocity S-wave (km/s) = 3.37623 3.58090 3.48007
# Velocity P-wave (km/s) = 6.47340 6.71229 6.59393
#
# Compressibility (1/GPa) = 0.01757903
#
# Stress axis : x y z
#
# Youngs Moduli (GPa) = 47.82069 47.82032 106.27802
#
# Poissons Ratio (x) = 0.50587 0.33201
# Poissons Ratio (y) = 0.50587 0.33202
# Poissons Ratio (z) = 0.14939 0.14940
#
# Static dielectric constant tensor:
#      x y z
#    x 4.386650 0.000000 0.000000 
#    y 0.000000 4.386690 0.000000 
#    z 0.000000 0.000000 3.982790 
# 
# 
# High freq. dielectric constant tensor:
#      x y z
#    x 1.832160 0.000000 0.000000 
#    y 0.000000 1.832160 0.000000 
#    z 0.000000 0.000000 1.834500 
# 
# From -- ./inp_files/6175.got.cif
#   From: 2010.03.12/outbox.cif.g09.slc.cpg/sg115_4_cif.got.tgz:6175.got - 2010.04.14 02:11:21.
