data_PCOD8309088
_publ_section_title
;
Structure prediction by ZEFSAII (Michael W. Deem and Ramdas Pophale) SiO2 
 PCOD8309088
Probable space group: P -4 21 C
;
_chemical_formula_sum "Si O2"
_cell_formula_units_Z 40
_cell_length_a 9.392683
_cell_length_b 9.392683
_cell_length_c 22.881598
_cell_angle_alpha 90.000000
_cell_angle_beta 90.000000
_cell_angle_gamma 90.000000
_cell_volume 2018.671641
_symmetry_space_group_name_H-M "P -4 21 C"
_symmetry_group_IT_number 114
_symmetry_cell_setting 'tetragonal'
loop_
_space_group_symop_operation_xyz
x,y,z
y,-x,-z
-x,-y,z
-y,x,-z
1/2+x,1/2-y,1/2-z
1/2-x,1/2+y,1/2-z
1/2-y,1/2-x,1/2+z
1/2+y,1/2+x,1/2+z
loop_
_atom_site_type_symbol
_atom_site_label
_atom_site_fract_x
_atom_site_fract_y
_atom_site_fract_z
Si Si1 0.000000 0.000000 0.000000
Si Si2 0.566241 0.254520 0.576146
Si Si3 0.000000 0.500000 0.506737
Si Si4 0.916449 0.148407 0.703688
Si Si5 0.243601 0.110504 0.424912
Si Si6 0.500000 0.500000 0.000000
Si Si7 0.347715 0.926643 0.204730
O O1 0.873759 0.969115 0.045744
O O2 0.729900 0.301330 0.572038
O O3 0.532030 0.227619 0.643805
O O4 0.529965 0.122088 0.537903
O O5 0.011480 0.635785 0.548369
O O6 0.942168 0.213229 0.640128
O O7 0.744908 0.136358 0.715209
O O8 0.995973 0.254635 0.746820
O O9 0.000000 0.000000 0.709554
O O10 0.096989 0.101437 0.460541
O O11 0.500000 0.000000 0.206045
#
# Coordination Sequence:
#
# PCOD8309088 Si02
#       7
#     2   8   4   8   8   2   8
#     4  12  24  44  62 100 136 172 220 258 336 400
#     4  11  24  42  67  97 135 170 215 272 331 395
#     4  12  22  42  64  98 132 168 214 264 334 388
#     4  11  25  47  68  99 131 177 228 278 338 401
#     4  11  24  40  67  99 131 170 218 272 325 395
#     4  12  20  40  66  96 128 164 208 274 324 384
#     4  11  25  47  70  97 133 175 227 281 338 399
#
# _framework density 19.815011999999999
#
# number of rings (size 3 to 8) (size 9 to 14) (size 15 to 20)
#    0.000    0.800    6.000    1.200    2.800    0.000 
#   10.800    0.000    0.000    0.000    0.000    0.000 
#    0.000    0.000    0.000    0.000    0.000    0.000 
#
# Total GULP energy -495794.495256 kJ/mol
# GULP energy per Si atom -12394.862381 kJ/mol
# Density = 1.976991 g / cm^3
# Si number density = 19.815012 Si / 1000 Ang^3
#
#
#
# Elastic Constant Matrix: (Units=GPa)
#
#
# Indices 1 2 3 4 5 6 
#
# 1 107.6790 11.6262 58.1668 0.0000 0.0000 0.0000
# 2 11.6262 107.6790 58.1668 0.0000 0.0000 0.0000
# 3 58.1668 58.1668 160.4398 0.0000 0.0000 0.0000
# 4 0.0000 0.0000 0.0000 41.7005 0.0000 0.0000
# 5 0.0000 0.0000 0.0000 0.0000 41.7005 0.0000
# 6 0.0000 0.0000 0.0000 0.0000 0.0000 34.6728
#
#
#
# Elastic Compliance Matrix: (Units=1/GPa)
#
#
# Indices 1 2 3 4 5 6 
#
# 1 0.011688 0.001277 -0.004701 0.000000 0.000000 0.000000
# 2 0.001277 0.011688 -0.004701 0.000000 0.000000 0.000000
# 3 -0.004701 -0.004701 0.009641 0.000000 0.000000 0.000000
# 4 0.000000 0.000000 0.000000 0.023981 0.000000 0.000000
# 5 0.000000 0.000000 0.000000 0.000000 0.023981 0.000000
# 6 0.000000 0.000000 0.000000 0.000000 0.000000 0.028841
#
#
# Mechanical properties :
#
#
# Convention : Reuss Voigt Hill
#
# Bulk Modulus (GPa) = 59.63135 70.19082 64.91108
# Shear Modulus (GPa) = 37.97746 40.13732 39.05739
#
# Velocity S-wave (km/s) = 4.38265 4.50555 4.44452
# Velocity P-wave (km/s) = 7.46790 7.90991 7.69208
#
# Compressibility (1/GPa) = 0.01676970
#
# Stress axis : x y z
#
# Youngs Moduli (GPa) = 85.55702 85.55702 103.72192
#
# Poissons Ratio (x) = -0.10927 0.48755
# Poissons Ratio (y) = -0.10927 0.48755
# Poissons Ratio (z) = 0.40216 0.40216
#
# Static dielectric constant tensor:
#      x y z
#    x 3.568080 0.000000 0.000000 
#    y 0.000000 3.568080 0.000000 
#    z 0.000000 0.000000 3.754340 
# 
# 
# High freq. dielectric constant tensor:
#      x y z
#    x 1.780840 0.000000 0.000000 
#    y 0.000000 1.780840 0.000000 
#    z 0.000000 0.000000 1.791390 
# 
# From -- ./inp_files/3457.got.cif
#   From: 2010.03.12/outbox.cif.g09.slc.cpg/sg114_2_cif.got.tgz:3457.got - 2010.04.14 02:08:34.
