data_PCOD8309018
_publ_section_title
;
Structure prediction by ZEFSAII (Michael W. Deem and Ramdas Pophale) SiO2 
 PCOD8309018
Probable space group: P -4 21 C
;
_chemical_formula_sum "Si O2"
_cell_formula_units_Z 34
_cell_length_a 10.888195
_cell_length_b 10.888195
_cell_length_c 12.227412
_cell_angle_alpha 90.000000
_cell_angle_beta 90.000000
_cell_angle_gamma 90.000000
_cell_volume 1449.593811
_symmetry_space_group_name_H-M "P -4 21 C"
_symmetry_group_IT_number 114
_symmetry_cell_setting 'tetragonal'
loop_
_space_group_symop_operation_xyz
x,y,z
y,-x,-z
-x,-y,z
-y,x,-z
1/2+x,1/2-y,1/2-z
1/2-x,1/2+y,1/2-z
1/2-y,1/2-x,1/2+z
1/2+y,1/2+x,1/2+z
loop_
_atom_site_type_symbol
_atom_site_label
_atom_site_fract_x
_atom_site_fract_y
_atom_site_fract_z
Si Si1 0.000000 0.000000 0.000000
Si Si2 0.759946 0.831221 0.755149
Si Si3 0.237331 0.012926 0.145645
Si Si4 0.933238 0.383316 0.059502
Si Si5 0.318086 0.551434 0.967737
O O1 0.031416 0.888769 0.918994
O O2 0.636455 0.754579 0.720707
O O3 0.728620 0.923750 0.854896
O O4 0.801759 0.917767 0.658043
O O5 0.883314 0.753654 0.787678
O O6 0.343711 0.002679 0.053809
O O7 0.000000 0.500000 0.113533
O O8 0.799074 0.432185 0.040020
O O9 0.412029 0.641072 0.027993
#
# Coordination Sequence:
#
# PCOD8309018 Si02
#       5
#     2   8   8   8   8
#     4  12  24  48  76 108 158 200 264 336 384 472
#     4  11  25  48  78 110 152 210 252 320 396 465
#     4  11  26  49  76 114 155 203 261 323 390 477
#     4  11  26  47  73 111 153 195 250 320 377 465
#     4  10  24  48  73 107 147 190 252 311 371 458
#
# _framework density 23.454847000000001
#
# number of rings (size 3 to 8) (size 9 to 14) (size 15 to 20)
#    0.000    1.176    2.353    1.412    3.294    9.412 
#    8.471    0.000    0.000    0.000    0.000    0.000 
#    0.000    0.000    0.000    0.000    0.000    0.000 
#
# Total GULP energy -421427.563022 kJ/mol
# GULP energy per Si atom -12394.928324 kJ/mol
# Density = 2.340146 g / cm^3
# Si number density = 23.454847 Si / 1000 Ang^3
#
#
#
# Elastic Constant Matrix: (Units=GPa)
#
#
# Indices 1 2 3 4 5 6 
#
# 1 150.9291 55.6970 73.5675 0.0000 0.0000 0.0000
# 2 55.6970 150.9291 73.5675 0.0000 0.0000 0.0000
# 3 73.5675 73.5675 37.8097 0.0000 0.0000 0.0000
# 4 0.0000 0.0000 0.0000 35.7717 0.0000 0.0000
# 5 0.0000 0.0000 0.0000 0.0000 35.7717 0.0000
# 6 0.0000 0.0000 0.0000 0.0000 0.0000 36.3780
#
#
#
# Elastic Compliance Matrix: (Units=1/GPa)
#
#
# Indices 1 2 3 4 5 6 
#
# 1 -0.001026 -0.011527 0.024426 0.000000 0.000000 0.000000
# 2 -0.011527 -0.001026 0.024426 0.000000 0.000000 0.000000
# 3 0.024426 0.024426 -0.068604 0.000000 0.000000 0.000000
# 4 0.000000 0.000000 0.000000 0.027955 0.000000 0.000000
# 5 0.000000 0.000000 0.000000 0.000000 0.027955 0.000000
# 6 0.000000 0.000000 0.000000 0.000000 0.000000 0.027489
#
#
# Mechanical properties :
#
#
# Convention : Reuss Voigt Hill
#
# Bulk Modulus (GPa) = 250.47812 82.81469 166.64640
# Shear Modulus (GPa) = -82.54187 30.70670 -25.91758
#
# Velocity S-wave (km/s) = -5.93870 3.62219 -3.32776
# Velocity P-wave (km/s) = 7.74591 7.27176 7.51258
#
# Compressibility (1/GPa) = 0.00399236
#
# Stress axis : x y z
#
# Youngs Moduli (GPa) = -974.25145 -974.25145 -14.57649
#
# Poissons Ratio (x) = -11.23028 0.35604
# Poissons Ratio (y) = -11.23028 0.35604
# Poissons Ratio (z) = 23.79682 23.79682
#
# Static dielectric constant tensor:
#      x y z
#    x 4.389520 0.000000 0.000000 
#    y 0.000000 4.389520 0.000000 
#    z 0.000000 0.000000 4.416210 
# 
# 
# High freq. dielectric constant tensor:
#      x y z
#    x 1.932770 0.000000 0.000000 
#    y 0.000000 1.932770 0.000000 
#    z 0.000000 0.000000 1.943670 
# 
# From -- ./inp_files/1480.got.cif
#   From: 2010.03.12/outbox.cif.g09.slc.cpg/sg114_1_cif.got.tgz:1480.got - 2010.04.14 02:08:34.
