data_PCOD8309837
_publ_section_title
;
Structure prediction by ZEFSAII (Michael W. Deem and Ramdas Pophale) SiO2 
 PCOD8309837
Probable space group: P -4 M 2
;
_chemical_formula_sum "Si O2"
_cell_formula_units_Z 48
_cell_length_a 9.443715
_cell_length_b 9.443715
_cell_length_c 30.745415
_cell_angle_alpha 90.000000
_cell_angle_beta 90.000000
_cell_angle_gamma 90.000000
_cell_volume 2741.991497
_symmetry_space_group_name_H-M "P -4 M 2"
_symmetry_group_IT_number 115
_symmetry_cell_setting 'tetragonal'
loop_
_space_group_symop_operation_xyz
x,y,z
y,-x,-z
-x,-y,z
-y,x,-z
y,x,-z
-y,-x,-z
-x,y,z
x,-y,z
loop_
_atom_site_type_symbol
_atom_site_label
_atom_site_fract_x
_atom_site_fract_y
_atom_site_fract_z
Si Si1 0.663877 0.337907 0.121085
Si Si2 0.835436 0.164096 0.711732
Si Si3 0.835391 0.335546 0.628387
Si Si4 0.663739 0.835966 0.795145
Si Si5 0.166620 0.335972 0.964294
Si Si6 0.657677 0.331278 0.547429
O O1 0.500000 0.323955 0.133109
O O2 0.702796 0.500000 0.108750
O O3 0.751438 0.285003 0.162582
O O4 0.705293 0.236460 0.081479
O O5 0.779813 0.251475 0.670367
O O6 0.751779 0.218764 0.753876
O O7 0.000000 0.193118 0.720290
O O8 0.803901 0.000000 0.702634
O O9 0.800887 0.500000 0.635850
O O10 0.757514 0.274129 0.585794
O O11 0.000000 0.308023 0.620829
O O12 0.500000 0.806199 0.785232
O O13 0.694052 0.000000 0.804257
O O14 0.197908 0.500000 0.975740
O O15 0.000000 0.305747 0.961790
O O16 0.235939 0.235939 0.000000
O O17 0.717113 0.282888 0.500000
O O18 0.500000 0.270772 0.555434
O O19 0.653823 0.500000 0.547339
#
# Coordination Sequence:
#
# PCOD8309837 Si02
#       6
#     8   8   8   8   8   8
#     4   9  18  33  52  73  98 128 160 195 238 286
#     4   9  18  32  47  63  88 122 153 181 222 275
#     4   9  17  29  45  65  88 114 146 184 223 263
#     4   9  18  32  49  69  93 121 154 192 232 274
#     4  10  21  36  54  77 104 134 168 205 245 289
#     4   8  14  26  44  64  86 113 144 178 219 267
#
# _framework density 17.505524000000001
#
# number of rings (size 3 to 8) (size 9 to 14) (size 15 to 20)
#    0.000    3.000    0.000    1.000    0.000    3.667 
#    0.000    2.500    0.000    1.000    0.000    0.000 
#    0.000    0.000    0.000    0.000    0.000    0.000 
#
# Total GULP energy -595196.049345 kJ/mol
# GULP energy per Si atom -12399.917695 kJ/mol
# Density = 1.746568 g / cm^3
# Si number density = 17.505524 Si / 1000 Ang^3
#
#
#
# Elastic Constant Matrix: (Units=GPa)
#
#
# Indices 1 2 3 4 5 6 
#
# 1 64.3380 40.1239 78.3952 0.0000 0.0000 0.0000
# 2 40.1239 64.3382 78.3952 0.0000 0.0000 0.0000
# 3 78.3952 78.3952 191.7086 0.0000 0.0000 0.0000
# 4 0.0000 0.0000 0.0000 14.9834 0.0000 0.0000
# 5 0.0000 0.0000 0.0000 0.0000 14.9836 0.0000
# 6 0.0000 0.0000 0.0000 0.0000 0.0000 19.1290
#
#
#
# Elastic Compliance Matrix: (Units=1/GPa)
#
#
# Indices 1 2 3 4 5 6 
#
# 1 0.033042 -0.008256 -0.010136 0.000000 0.000000 0.000000
# 2 -0.008256 0.033042 -0.010136 0.000000 0.000000 0.000000
# 3 -0.010136 -0.010136 0.013506 0.000000 0.000000 0.000000
# 4 0.000000 0.000000 0.000000 0.066740 0.000000 0.000000
# 5 0.000000 0.000000 0.000000 0.000000 0.066740 0.000000
# 6 0.000000 0.000000 0.000000 0.000000 0.000000 0.052277
#
#
# Mechanical properties :
#
#
# Convention : Reuss Voigt Hill
#
# Bulk Modulus (GPa) = 44.37587 79.35707 61.86647
# Shear Modulus (GPa) = 15.15554 18.05057 16.60306
#
# Velocity S-wave (km/s) = 2.94557 3.21461 3.08303
# Velocity P-wave (km/s) = 6.08056 7.69476 6.93479
#
# Compressibility (1/GPa) = 0.02253477
#
# Stress axis : x y z
#
# Youngs Moduli (GPa) = 30.26457 30.26467 74.04262
#
# Poissons Ratio (x) = 0.24987 0.75047
# Poissons Ratio (y) = 0.24987 0.75047
# Poissons Ratio (z) = 0.30675 0.30675
#
# Static dielectric constant tensor:
#      x y z
#    x 3.170110 0.000000 0.000000 
#    y 0.000000 3.170110 0.000000 
#    z 0.000000 0.000000 3.479110 
# 
# 
# High freq. dielectric constant tensor:
#      x y z
#    x 1.662610 0.000000 0.000000 
#    y 0.000000 1.662610 0.000000 
#    z 0.000000 0.000000 1.686690 
# 
# From -- ./inp_files/6103.got.cif
#   From: 2010.03.12/outbox.cif.g09.slc.cpg/sg115_4_cif.got.tgz:6103.got - 2010.04.14 02:11:21.
