data_PCOD8309075
_publ_section_title
;
Structure prediction by ZEFSAII (Michael W. Deem and Ramdas Pophale) SiO2 
 PCOD8309075
Probable space group: P -4 21 C
;
_chemical_formula_sum "Si O2"
_cell_formula_units_Z 32
_cell_length_a 8.892744
_cell_length_b 8.892744
_cell_length_c 18.160559
_cell_angle_alpha 90.000000
_cell_angle_beta 90.000000
_cell_angle_gamma 90.000000
_cell_volume 1436.153275
_symmetry_space_group_name_H-M "P -4 21 C"
_symmetry_group_IT_number 114
_symmetry_cell_setting 'tetragonal'
loop_
_space_group_symop_operation_xyz
x,y,z
y,-x,-z
-x,-y,z
-y,x,-z
1/2+x,1/2-y,1/2-z
1/2-x,1/2+y,1/2-z
1/2-y,1/2-x,1/2+z
1/2+y,1/2+x,1/2+z
loop_
_atom_site_type_symbol
_atom_site_label
_atom_site_fract_x
_atom_site_fract_y
_atom_site_fract_z
Si Si1 0.930735 0.778523 0.974039
Si Si2 0.927294 0.657997 0.817856
Si Si3 0.953545 0.787630 0.531233
Si Si4 0.340662 0.574337 0.189856
O O1 0.953322 0.768122 0.886753
O O2 0.868737 0.623432 0.008671
O O3 0.088310 0.811616 0.012805
O O4 0.751766 0.641672 0.800609
O O5 0.000000 0.500000 0.838557
O O6 0.013413 0.721655 0.747795
O O7 0.077954 0.829024 0.468748
O O8 0.033210 0.775635 0.609776
O O9 0.500000 0.500000 0.205495
#
# Coordination Sequence:
#
# PCOD8309075 Si02
#       4
#     8   8   8   8
#     4  11  28  46  71 109 148 192 244 311 365 440
#     4  12  29  48  74 108 148 199 245 310 382 455
#     4  11  22  45  75 109 142 197 246 297 366 444
#     4  12  26  46  76 108 149 192 249 310 375 456
#
# _framework density 22.281745000000001
#
# number of rings (size 3 to 8) (size 9 to 14) (size 15 to 20)
#    0.000    0.500    5.000    1.500   14.000    2.000 
#    0.000    0.000    0.000    0.000    0.000    0.000 
#    0.000    0.000    0.000    0.000    0.000    0.000 
#
# Total GULP energy -397019.327866 kJ/mol
# GULP energy per Si atom -12406.853996 kJ/mol
# Density = 2.223103 g / cm^3
# Si number density = 22.281745 Si / 1000 Ang^3
#
#
#
# Elastic Constant Matrix: (Units=GPa)
#
#
# Indices 1 2 3 4 5 6 
#
# 1 108.3649 40.0376 56.2057 0.0000 0.0000 0.0000
# 2 40.0376 108.3649 56.2057 0.0000 0.0000 0.0000
# 3 56.2057 56.2057 125.3532 0.0000 0.0000 0.0000
# 4 0.0000 0.0000 0.0000 46.3755 0.0000 0.0000
# 5 0.0000 0.0000 0.0000 0.0000 46.3755 0.0000
# 6 0.0000 0.0000 0.0000 0.0000 0.0000 56.9713
#
#
#
# Elastic Compliance Matrix: (Units=1/GPa)
#
#
# Indices 1 2 3 4 5 6 
#
# 1 0.012420 -0.002216 -0.004575 0.000000 0.000000 0.000000
# 2 -0.002216 0.012420 -0.004575 0.000000 0.000000 0.000000
# 3 -0.004575 -0.004575 0.012080 0.000000 0.000000 0.000000
# 4 0.000000 0.000000 0.000000 0.021563 0.000000 0.000000
# 5 0.000000 0.000000 0.000000 0.000000 0.021563 0.000000
# 6 0.000000 0.000000 0.000000 0.000000 0.000000 0.017553
#
#
# Mechanical properties :
#
#
# Convention : Reuss Voigt Hill
#
# Bulk Modulus (GPa) = 70.48508 71.88680 71.18594
# Shear Modulus (GPa) = 39.98063 42.58672 41.28367
#
# Velocity S-wave (km/s) = 4.24054 4.37657 4.30909
# Velocity P-wave (km/s) = 7.46180 7.60735 7.53493
#
# Compressibility (1/GPa) = 0.01418740
#
# Stress axis : x y z
#
# Youngs Moduli (GPa) = 80.51673 80.51673 82.77873
#
# Poissons Ratio (x) = 0.17840 0.37874
# Poissons Ratio (y) = 0.17840 0.37874
# Poissons Ratio (z) = 0.36839 0.36839
#
# Static dielectric constant tensor:
#      x y z
#    x 4.116260 0.000000 0.000000 
#    y 0.000000 4.116260 0.000000 
#    z 0.000000 0.000000 4.014330 
# 
# 
# High freq. dielectric constant tensor:
#      x y z
#    x 1.888980 0.000000 0.000000 
#    y 0.000000 1.888980 0.000000 
#    z 0.000000 0.000000 1.879520 
# 
# From -- ./inp_files/2842.got.cif
#   From: 2010.03.12/outbox.cif.g09.slc.cpg/sg114_2_cif.got.tgz:2842.got - 2010.04.14 02:08:34.
