data_PCOD8309304
_publ_section_title
;
Structure prediction by ZEFSAII (Michael W. Deem and Ramdas Pophale) SiO2 
 PCOD8309304
Probable space group: P -4 M 2
;
_chemical_formula_sum "Si O2"
_cell_formula_units_Z 48
_cell_length_a 14.585968
_cell_length_b 14.585968
_cell_length_c 12.106782
_cell_angle_alpha 90.000000
_cell_angle_beta 90.000000
_cell_angle_gamma 90.000000
_cell_volume 2575.723470
_symmetry_space_group_name_H-M "P -4 M 2"
_symmetry_group_IT_number 115
_symmetry_cell_setting 'tetragonal'
loop_
_space_group_symop_operation_xyz
x,y,z
y,-x,-z
-x,-y,z
-y,x,-z
y,x,-z
-y,-x,-z
-x,y,z
x,-y,z
loop_
_atom_site_type_symbol
_atom_site_label
_atom_site_fract_x
_atom_site_fract_y
_atom_site_fract_z
Si Si1 0.259468 0.893961 0.124537
Si Si2 0.603169 0.212684 0.272800
Si Si3 0.103783 0.242855 0.133089
Si Si4 0.153389 0.397453 0.299983
Si Si5 0.601023 0.360119 0.628172
Si Si6 0.099810 0.606082 0.528589
O O1 0.338040 0.826776 0.171795
O O2 0.161822 0.849173 0.157985
O O3 0.264439 0.000000 0.167105
O O4 0.271850 0.891231 0.993859
O O5 0.500000 0.175821 0.254594
O O6 0.598521 0.322833 0.288134
O O7 0.649051 0.171993 0.385295
O O8 0.143481 0.330288 0.197256
O O9 0.000000 0.221319 0.169299
O O10 0.118306 0.500000 0.266325
O O11 0.254788 0.403629 0.344809
O O12 0.099529 0.353002 0.404571
O O13 0.625378 0.374622 0.500000
O O14 0.500000 0.403966 0.651327
O O15 0.125833 0.500000 0.513053
O O16 0.000000 0.620671 0.581793
#
# Coordination Sequence:
#
# PCOD8309304 Si02
#       6
#     8   8   8   8   8   8
#     4  10  22  39  58  82 111 143 184 234 287 342
#     4  11  21  35  55  81 113 148 187 230 277 333
#     4  10  21  38  60  83 109 143 185 233 285 342
#     4  10  19  33  55  82 112 146 185 232 283 334
#     4  11  21  35  55  82 118 156 192 230 276 328
#     4   9  17  29  48  77 110 141 174 218 272 326
#
# _framework density 18.635542000000001
#
# number of rings (size 3 to 8) (size 9 to 14) (size 15 to 20)
#    0.000    1.833    3.333    1.500    0.000    4.167 
#    0.000    3.333    0.000    0.000    0.000    0.000 
#    0.000    5.333    0.000    0.000    0.000    0.000 
#
# Total GULP energy -594732.355673 kJ/mol
# GULP energy per Si atom -12390.257410 kJ/mol
# Density = 1.859313 g / cm^3
# Si number density = 18.635542 Si / 1000 Ang^3
#
#
#
# Elastic Constant Matrix: (Units=GPa)
#
#
# Indices 1 2 3 4 5 6 
#
# 1 114.8887 36.5822 40.9304 0.0000 0.0000 0.0000
# 2 36.5822 114.8887 40.9304 0.0000 0.0000 0.0000
# 3 40.9304 40.9304 59.4076 0.0000 0.0000 0.0000
# 4 0.0000 0.0000 0.0000 21.1239 0.0000 0.0000
# 5 0.0000 0.0000 0.0000 0.0000 21.1239 0.0000
# 6 0.0000 0.0000 0.0000 0.0000 0.0000 18.6819
#
#
#
# Elastic Compliance Matrix: (Units=1/GPa)
#
#
# Indices 1 2 3 4 5 6 
#
# 1 0.011644 -0.001126 -0.007247 0.000000 0.000000 0.000000
# 2 -0.001126 0.011644 -0.007247 0.000000 0.000000 0.000000
# 3 -0.007247 -0.007247 0.026819 0.000000 0.000000 0.000000
# 4 0.000000 0.000000 0.000000 0.047340 0.000000 0.000000
# 5 0.000000 0.000000 0.000000 0.000000 0.047340 0.000000
# 6 0.000000 0.000000 0.000000 0.000000 0.000000 0.053528
#
#
# Mechanical properties :
#
#
# Convention : Reuss Voigt Hill
#
# Bulk Modulus (GPa) = 53.00007 58.45231 55.72619
# Shear Modulus (GPa) = 21.20049 23.56876 22.38462
#
# Velocity S-wave (km/s) = 3.37655 3.56015 3.46956
# Velocity P-wave (km/s) = 6.61086 6.95224 6.78370
#
# Compressibility (1/GPa) = 0.01886790
#
# Stress axis : x y z
#
# Youngs Moduli (GPa) = 85.87818 85.87818 37.28728
#
# Poissons Ratio (x) = 0.09669 0.27022
# Poissons Ratio (y) = 0.09669 0.27022
# Poissons Ratio (z) = 0.62236 0.62236
#
# Static dielectric constant tensor:
#      x y z
#    x 3.581120 0.000000 0.000000 
#    y 0.000000 3.581120 0.000000 
#    z 0.000000 0.000000 3.386790 
# 
# 
# High freq. dielectric constant tensor:
#      x y z
#    x 1.721750 0.000000 0.000000 
#    y 0.000000 1.721750 0.000000 
#    z 0.000000 0.000000 1.708820 
# 
# From -- ./inp_files/2936.got.cif
#   From: 2010.03.12/outbox.cif.g09.slc.cpg/sg115_2_cif.got.tgz:2936.got - 2010.04.14 02:11:21.
