data_PCOD8309233
_publ_section_title
;
Structure prediction by ZEFSAII (Michael W. Deem and Ramdas Pophale) SiO2 
 PCOD8309233
Probable space group: P -4 M 2
;
_chemical_formula_sum "Si O2"
_cell_formula_units_Z 64
_cell_length_a 13.695755
_cell_length_b 13.695755
_cell_length_c 20.650262
_cell_angle_alpha 90.000000
_cell_angle_beta 90.000000
_cell_angle_gamma 90.000000
_cell_volume 3873.446153
_symmetry_space_group_name_H-M "P -4 M 2"
_symmetry_group_IT_number 115
_symmetry_cell_setting 'tetragonal'
loop_
_space_group_symop_operation_xyz
x,y,z
y,-x,-z
-x,-y,z
-y,x,-z
y,x,-z
-y,-x,-z
-x,y,z
x,-y,z
loop_
_atom_site_type_symbol
_atom_site_label
_atom_site_fract_x
_atom_site_fract_y
_atom_site_fract_z
Si Si1 0.113401 0.611515 0.626122
Si Si2 0.114113 0.272862 0.246125
Si Si3 0.234786 0.609847 1.000000
Si Si4 0.886599 0.611515 0.373877
Si Si5 0.229999 0.614389 0.500000
Si Si6 0.224025 0.614506 0.859145
Si Si7 0.614506 0.224024 0.859146
Si Si8 0.727138 0.885887 0.246125
O O1 0.140082 0.500000 0.643541
O O2 0.170632 0.647914 0.563114
O O3 0.144029 0.678675 0.686030
O O4 0.000000 0.621714 0.609935
O O5 0.144029 0.321325 0.313969
O O6 0.141164 0.348740 0.189617
O O7 0.171565 0.171565 0.237667
O O8 0.000000 0.249261 0.242360
O O9 0.268855 0.500000 1.000000
O O10 0.179211 0.632766 0.067911
O O11 0.336320 0.663681 0.000000
O O12 0.179211 0.632766 0.932088
O O13 0.859919 0.500000 0.356458
O O14 0.829368 0.647914 0.436885
O O15 0.000000 0.621715 0.390064
O O16 0.334739 0.665262 0.500000
O O17 0.248918 0.500000 0.500000
O O18 0.245909 0.500000 0.846939
O O19 0.324303 0.675698 0.848618
O O20 0.141165 0.651259 0.810382
O O21 0.500000 0.245907 0.846939
O O22 0.750738 0.000000 0.242360
#
# Coordination Sequence:
#
# PCOD8309233 Si02
#       8
#     8   8   8   8   8   8   8   8
#     4   9  17  30  49  71  91 112 143 184 228 271
#     4  10  20  33  49  68  90 118 152 191 234 277
#     4   8  14  25  41  63  92 122 150 182 219 262
#     4   9  17  30  49  71  91 112 143 184 228 271
#     4  10  19  30  45  65  92 124 153 181 212 251
#     4   9  17  29  46  69  96 124 153 184 221 267
#     4   9  17  29  46  69  96 124 153 184 221 267
#     4  10  20  33  49  68  90 118 152 191 234 277
#
# _framework density 16.522755
#
# number of rings (size 3 to 8) (size 9 to 14) (size 15 to 20)
#    0.000    2.750    0.000    1.875    0.000    3.750 
#    0.000    3.125    0.000    2.250    0.000    3.500 
#    0.000   14.000    0.000    0.000    0.000    0.000 
#
# Total GULP energy -793185.228555 kJ/mol
# GULP energy per Si atom -12393.519196 kJ/mol
# Density = 1.648515 g / cm^3
# Si number density = 16.522755 Si / 1000 Ang^3
#
#
#
# Elastic Constant Matrix: (Units=GPa)
#
#
# Indices 1 2 3 4 5 6 
#
# 1 69.9724 37.6612 53.0503 0.0000 0.0000 0.0000
# 2 37.6612 69.9746 53.0507 0.0000 0.0000 0.0000
# 3 53.0503 53.0507 142.8320 0.0000 0.0000 0.0000
# 4 0.0000 0.0000 0.0000 23.7268 0.0000 0.0000
# 5 0.0000 0.0000 0.0000 0.0000 23.7262 0.0000
# 6 0.0000 0.0000 0.0000 0.0000 0.0000 19.0279
#
#
#
# Elastic Compliance Matrix: (Units=1/GPa)
#
#
# Indices 1 2 3 4 5 6 
#
# 1 0.022803 -0.008145 -0.005444 0.000000 0.000000 0.000000
# 2 -0.008145 0.022802 -0.005444 0.000000 0.000000 0.000000
# 3 -0.005444 -0.005444 0.011045 0.000000 0.000000 0.000000
# 4 0.000000 0.000000 0.000000 0.042146 0.000000 0.000000
# 5 0.000000 0.000000 0.000000 0.000000 0.042148 0.000000
# 6 0.000000 0.000000 0.000000 0.000000 0.000000 0.052554
#
#
# Mechanical properties :
#
#
# Convention : Reuss Voigt Hill
#
# Bulk Modulus (GPa) = 53.81083 63.36704 58.58893
# Shear Modulus (GPa) = 21.02966 22.56398 21.79682
#
# Velocity S-wave (km/s) = 3.57146 3.69945 3.63602
# Velocity P-wave (km/s) = 7.04596 7.52878 7.29137
#
# Compressibility (1/GPa) = 0.01858362
#
# Stress axis : x y z
#
# Youngs Moduli (GPa) = 43.85403 43.85568 90.53744
#
# Poissons Ratio (x) = 0.35723 0.49289
# Poissons Ratio (y) = 0.35721 0.49287
# Poissons Ratio (z) = 0.23874 0.23874
#
# Static dielectric constant tensor:
#      x y z
#    x 2.906980 0.000000 0.000000 
#    y 0.000000 2.906970 0.000000 
#    z 0.000000 0.000000 3.509570 
# 
# 
# High freq. dielectric constant tensor:
#      x y z
#    x 1.619790 0.000000 0.000000 
#    y 0.000000 1.619790 0.000000 
#    z 0.000000 0.000000 1.658550 
# 
# From -- ./inp_files/4458.got.cif
#   From: 2010.03.12/outbox.cif.g09.slc.cpg/sg115_3_cif.got.tgz:4458.got - 2010.04.14 02:11:21.
