data_PCOD8309564
_publ_section_title
;
Structure prediction by ZEFSAII (Michael W. Deem and Ramdas Pophale) SiO2 
 PCOD8309564
Probable space group: P -4 M 2
;
_chemical_formula_sum "Si O2"
_cell_formula_units_Z 40
_cell_length_a 9.081314
_cell_length_b 9.081314
_cell_length_c 25.937586
_cell_angle_alpha 90.000000
_cell_angle_beta 90.000000
_cell_angle_gamma 90.000000
_cell_volume 2139.079564
_symmetry_space_group_name_H-M "P -4 M 2"
_symmetry_group_IT_number 115
_symmetry_cell_setting 'tetragonal'
loop_
_space_group_symop_operation_xyz
x,y,z
y,-x,-z
-x,-y,z
-y,x,-z
y,x,-z
-y,-x,-z
-x,y,z
x,-y,z
loop_
_atom_site_type_symbol
_atom_site_label
_atom_site_fract_x
_atom_site_fract_y
_atom_site_fract_z
Si Si1 0.326863 0.829776 0.546330
Si Si2 0.826863 0.670224 0.046330
Si Si3 0.824999 0.165918 0.351315
Si Si4 0.171735 0.328265 0.250000
Si Si5 0.675001 0.665918 0.851315
O O1 0.267633 0.732367 0.500000
O O2 0.500000 0.808572 0.551736
O O3 0.253262 0.769088 0.598615
O O4 0.284866 0.000000 0.536416
O O5 0.784866 0.500000 0.036416
O O6 0.753262 0.730912 0.098615
O O7 0.000000 0.691428 0.051736
O O8 0.767633 0.767633 0.000000
O O9 0.764857 0.244011 0.299835
O O10 0.000000 0.168884 0.350057
O O11 0.763696 0.000000 0.353696
O O12 0.202638 0.500000 0.258617
O O13 0.255989 0.264857 0.200165
O O14 0.000000 0.297361 0.241383
O O15 0.500000 0.668884 0.850057
O O16 0.736304 0.500000 0.853696
#
# Coordination Sequence:
#
# PCOD8309564 Si02
#       5
#     8   8   8   8   8
#     4  10  20  34  53  77 104 135 172 213 257 305
#     4  10  20  34  53  77 104 135 172 213 257 305
#     4   9  17  30  50  75 101 131 168 208 251 301
#     4   9  16  28  48  73 100 130 166 207 248 294
#     4   9  17  30  50  75 101 131 168 208 251 301
#
# _framework density 18.699629999999999
#
# number of rings (size 3 to 8) (size 9 to 14) (size 15 to 20)
#    0.000    2.600    0.000    2.400    0.000    7.200 
#    0.000    2.000    0.000    7.800    0.000    0.000 
#    0.000    0.000    0.000    0.000    0.000    0.000 
#
# Total GULP energy -496053.835580 kJ/mol
# GULP energy per Si atom -12401.345890 kJ/mol
# Density = 1.865707 g / cm^3
# Si number density = 18.699630 Si / 1000 Ang^3
#
#
#
# Elastic Constant Matrix: (Units=GPa)
#
#
# Indices 1 2 3 4 5 6 
#
# 1 74.0645 34.4956 62.3286 0.0000 0.0000 0.0000
# 2 34.4956 74.0645 62.3286 0.0000 0.0000 0.0000
# 3 62.3286 62.3286 194.2733 0.0000 0.0000 0.0000
# 4 0.0000 0.0000 0.0000 33.0948 0.0000 0.0000
# 5 0.0000 0.0000 0.0000 0.0000 33.0948 0.0000
# 6 0.0000 0.0000 0.0000 0.0000 0.0000 17.7390
#
#
#
# Elastic Compliance Matrix: (Units=1/GPa)
#
#
# Indices 1 2 3 4 5 6 
#
# 1 0.019928 -0.005344 -0.004679 0.000000 0.000000 0.000000
# 2 -0.005344 0.019928 -0.004679 0.000000 0.000000 0.000000
# 3 -0.004679 -0.004679 0.008150 0.000000 0.000000 0.000000
# 4 0.000000 0.000000 0.000000 0.030216 0.000000 0.000000
# 5 0.000000 0.000000 0.000000 0.000000 0.030216 0.000000
# 6 0.000000 0.000000 0.000000 0.000000 0.000000 0.056373
#
#
# Mechanical properties :
#
#
# Convention : Reuss Voigt Hill
#
# Bulk Modulus (GPa) = 53.75721 73.41197 63.58459
# Shear Modulus (GPa) = 24.94797 29.00236 26.97517
#
# Velocity S-wave (km/s) = 3.65655 3.94249 3.80221
# Velocity P-wave (km/s) = 6.82915 7.75036 7.30429
#
# Compressibility (1/GPa) = 0.01860216
#
# Stress axis : x y z
#
# Youngs Moduli (GPa) = 50.17963 50.17963 122.70281
#
# Poissons Ratio (x) = 0.26816 0.57414
# Poissons Ratio (y) = 0.26816 0.57414
# Poissons Ratio (z) = 0.23480 0.23480
#
# Static dielectric constant tensor:
#      x y z
#    x 3.256990 0.000000 0.000000 
#    y 0.000000 3.256990 0.000000 
#    z 0.000000 0.000000 3.690610 
# 
# 
# High freq. dielectric constant tensor:
#      x y z
#    x 1.703160 0.000000 0.000000 
#    y 0.000000 1.703160 0.000000 
#    z 0.000000 0.000000 1.745170 
# 
# From -- ./inp_files/5061.got.cif
#   From: 2010.03.12/outbox.cif.g09.slc.cpg/sg115_3_cif.got.tgz:5061.got - 2010.04.14 02:11:21.
