data_PCOD8309482
_publ_section_title
;
Structure prediction by ZEFSAII (Michael W. Deem and Ramdas Pophale) SiO2 
 PCOD8309482
Probable space group: P -4 M 2
;
_chemical_formula_sum "Si O2"
_cell_formula_units_Z 44
_cell_length_a 9.277243
_cell_length_b 9.277243
_cell_length_c 28.339751
_cell_angle_alpha 90.000000
_cell_angle_beta 90.000000
_cell_angle_gamma 90.000000
_cell_volume 2439.124085
_symmetry_space_group_name_H-M "P -4 M 2"
_symmetry_group_IT_number 115
_symmetry_cell_setting 'tetragonal'
loop_
_space_group_symop_operation_xyz
x,y,z
y,-x,-z
-x,-y,z
-y,x,-z
y,x,-z
-y,-x,-z
-x,y,z
x,-y,z
loop_
_atom_site_type_symbol
_atom_site_label
_atom_site_fract_x
_atom_site_fract_y
_atom_site_fract_z
Si Si1 0.671256 0.339434 0.948302
Si Si2 0.165312 0.167952 0.316223
Si Si3 0.332523 0.332523 0.500000
Si Si4 0.165228 0.328967 0.141310
Si Si5 0.831803 0.668207 0.776990
Si Si6 0.332828 0.167304 0.591563
O O1 0.500000 0.348479 0.948016
O O2 0.734482 0.500000 0.938544
O O3 0.726974 0.230248 0.908322
O O4 0.719254 0.280747 0.000000
O O5 0.263503 0.216341 0.272592
O O6 0.222989 0.250336 0.362219
O O7 0.000000 0.210027 0.304814
O O8 0.181012 0.000000 0.326647
O O9 0.300040 0.500000 0.507567
O O10 0.272971 0.250984 0.546012
O O11 0.178857 0.500000 0.145813
O O12 0.255778 0.258593 0.182679
O O13 0.000000 0.278227 0.144268
O O14 0.794288 0.500000 0.776218
O O15 0.000000 0.696350 0.786383
O O16 0.500000 0.201024 0.599540
O O17 0.302438 0.000000 0.582920
#
# Coordination Sequence:
#
# PCOD8309482 Si02
#       6
#     8   8   4   8   8   8
#     4   8  14  27  48  71  96 129 167 206 247 289
#     4   9  18  33  51  70  95 127 160 197 244 294
#     4   9  18  32  48  67  94 126 156 189 234 284
#     4  10  20  33  51  76 104 134 168 205 247 296
#     4  10  21  36  53  74 100 131 168 208 251 299
#     4   9  18  32  49  70  96 125 158 196 237 283
#
# _framework density 18.039263999999999
#
# number of rings (size 3 to 8) (size 9 to 14) (size 15 to 20)
#    0.000    2.818    0.000    1.636    0.000    4.364 
#    0.000    2.727    0.000    3.273    0.000    0.000 
#    0.000    0.000    0.000    0.000    0.000    0.000 
#
# Total GULP energy -545605.019208 kJ/mol
# GULP energy per Si atom -12400.114073 kJ/mol
# Density = 1.799821 g / cm^3
# Si number density = 18.039264 Si / 1000 Ang^3
#
#
#
# Elastic Constant Matrix: (Units=GPa)
#
#
# Indices 1 2 3 4 5 6 
#
# 1 67.3457 35.6528 70.7048 0.0000 0.0000 0.0000
# 2 35.6528 67.3458 70.7048 0.0000 0.0000 0.0000
# 3 70.7048 70.7048 188.7249 0.0000 0.0000 0.0000
# 4 0.0000 0.0000 0.0000 -27.0804 0.0000 0.0000
# 5 0.0000 0.0000 0.0000 0.0000 -27.0751 0.0000
# 6 0.0000 0.0000 0.0000 0.0000 0.0000 21.7841
#
#
#
# Elastic Compliance Matrix: (Units=1/GPa)
#
#
# Indices 1 2 3 4 5 6 
#
# 1 0.025772 -0.005780 -0.007490 0.000000 0.000000 0.000000
# 2 -0.005780 0.025772 -0.007490 0.000000 0.000000 0.000000
# 3 -0.007490 -0.007490 0.010911 0.000000 0.000000 0.000000
# 4 0.000000 0.000000 0.000000 -0.036927 0.000000 0.000000
# 5 0.000000 0.000000 0.000000 0.000000 -0.036934 0.000000
# 6 0.000000 0.000000 0.000000 0.000000 0.000000 0.045905
#
#
# Mechanical properties :
#
#
# Convention : Reuss Voigt Hill
#
# Bulk Modulus (GPa) = 47.76655 75.28235 61.52445
# Shear Modulus (GPa) = 60.24263 3.28267 31.76265
#
# Velocity S-wave (km/s) = 5.78513 1.35044 4.20068
# Velocity P-wave (km/s) = 8.43566 6.65242 7.59655
#
# Compressibility (1/GPa) = 0.02093515
#
# Stress axis : x y z
#
# Youngs Moduli (GPa) = 38.80125 38.80135 91.65241
#
# Poissons Ratio (x) = 0.22429 0.68646
# Poissons Ratio (y) = 0.22429 0.68646
# Poissons Ratio (z) = 0.29062 0.29062
#
# Static dielectric constant tensor:
#      x y z
#    x 3.523290 0.000000 0.000000 
#    y 0.000000 3.523310 0.000000 
#    z 0.000000 0.000000 3.649100 
# 
# 
# High freq. dielectric constant tensor:
#      x y z
#    x 1.684200 0.000000 0.000000 
#    y 0.000000 1.684200 0.000000 
#    z 0.000000 0.000000 1.713140 
# 
# From -- ./inp_files/5690.got.cif
#   From: 2010.03.12/outbox.cif.g09.slc.cpg/sg115_3_cif.got.tgz:5690.got - 2010.04.14 02:11:21.
