data_PCOD8309493
_publ_section_title
;
Structure prediction by ZEFSAII (Michael W. Deem and Ramdas Pophale) SiO2 
 PCOD8309493
Probable space group: P -4 M 2
;
_chemical_formula_sum "Si O2"
_cell_formula_units_Z 40
_cell_length_a 9.197212
_cell_length_b 9.197212
_cell_length_c 25.693949
_cell_angle_alpha 90.000000
_cell_angle_beta 90.000000
_cell_angle_gamma 90.000000
_cell_volume 2173.417964
_symmetry_space_group_name_H-M "P -4 M 2"
_symmetry_group_IT_number 115
_symmetry_cell_setting 'tetragonal'
loop_
_space_group_symop_operation_xyz
x,y,z
y,-x,-z
-x,-y,z
-y,x,-z
y,x,-z
-y,-x,-z
-x,y,z
x,-y,z
loop_
_atom_site_type_symbol
_atom_site_label
_atom_site_fract_x
_atom_site_fract_y
_atom_site_fract_z
Si Si1 0.662006 0.672970 0.943052
Si Si2 0.168795 0.330154 0.247425
Si Si3 0.834565 0.672680 0.843798
Si Si4 0.832431 0.167954 0.648946
Si Si5 0.670795 0.167299 0.454814
O O1 0.500000 0.736180 0.932717
O O2 0.654351 0.500000 0.942693
O O3 0.769404 0.730886 0.898369
O O4 0.721716 0.721716 0.000000
O O5 0.202573 0.500000 0.248338
O O6 0.262261 0.257541 0.202725
O O7 0.218181 0.263758 0.302392
O O8 0.000000 0.296816 0.237047
O O9 0.823930 0.500000 0.840516
O O10 0.000000 0.726871 0.839848
O O11 0.781498 0.261393 0.599702
O O12 0.000000 0.198095 0.663049
O O13 0.805467 0.000000 0.635169
O O14 0.733726 0.266274 0.500000
O O15 0.500000 0.190961 0.451707
O O16 0.712092 0.000000 0.466078
#
# Coordination Sequence:
#
# PCOD8309493 Si02
#       5
#     8   8   8   8   8
#     4   8  14  27  48  71  96 130 171 212 253 299
#     4  10  21  36  54  77 104 135 172 213 258 307
#     4  10  20  33  51  76 105 137 172 210 254 305
#     4   9  18  34  55  76 101 136 175 213 254 303
#     4  10  21  36  55  80 109 140 174 212 254 302
#
# _framework density 18.40419
#
# number of rings (size 3 to 8) (size 9 to 14) (size 15 to 20)
#    0.000    2.600    0.000    2.400    0.000    5.200 
#    0.000    5.000    0.000    3.600    0.000    0.000 
#    0.000    0.000    0.000    0.000    0.000    0.000 
#
# Total GULP energy -496042.249148 kJ/mol
# GULP energy per Si atom -12401.056229 kJ/mol
# Density = 1.836230 g / cm^3
# Si number density = 18.404190 Si / 1000 Ang^3
#
#
#
# Elastic Constant Matrix: (Units=GPa)
#
#
# Indices 1 2 3 4 5 6 
#
# 1 70.1335 34.9135 65.9356 0.0000 0.0000 0.0000
# 2 34.9135 70.1335 65.9356 0.0000 0.0000 0.0000
# 3 65.9356 65.9356 168.4224 0.0000 0.0000 0.0000
# 4 0.0000 0.0000 0.0000 36.8640 0.0000 0.0000
# 5 0.0000 0.0000 0.0000 0.0000 36.8640 0.0000
# 6 0.0000 0.0000 0.0000 0.0000 0.0000 23.7881
#
#
#
# Elastic Compliance Matrix: (Units=1/GPa)
#
#
# Indices 1 2 3 4 5 6 
#
# 1 0.023556 -0.004837 -0.007328 0.000000 0.000000 0.000000
# 2 -0.004837 0.023556 -0.007328 0.000000 0.000000 0.000000
# 3 -0.007328 -0.007328 0.011675 0.000000 0.000000 0.000000
# 4 0.000000 0.000000 0.000000 0.027127 0.000000 0.000000
# 5 0.000000 0.000000 0.000000 0.000000 0.027127 0.000000
# 6 0.000000 0.000000 0.000000 0.000000 0.000000 0.042038
#
#
# Mechanical properties :
#
#
# Convention : Reuss Voigt Hill
#
# Bulk Modulus (GPa) = 50.50402 71.36211 60.93306
# Shear Modulus (GPa) = 24.91696 28.96352 26.94024
#
# Velocity S-wave (km/s) = 3.68350 3.97135 3.83013
# Velocity P-wave (km/s) = 6.75219 7.73873 7.26223
#
# Compressibility (1/GPa) = 0.01980040
#
# Stress axis : x y z
#
# Youngs Moduli (GPa) = 42.45181 42.45181 85.64974
#
# Poissons Ratio (x) = 0.20533 0.62768
# Poissons Ratio (y) = 0.20533 0.62768
# Poissons Ratio (z) = 0.31110 0.31110
#
# Static dielectric constant tensor:
#      x y z
#    x 3.144240 0.000000 0.000000 
#    y 0.000000 3.144240 0.000000 
#    z 0.000000 0.000000 3.634250 
# 
# 
# High freq. dielectric constant tensor:
#      x y z
#    x 1.700400 0.000000 0.000000 
#    y 0.000000 1.700400 0.000000 
#    z 0.000000 0.000000 1.728860 
# 
# From -- ./inp_files/5091.got.cif
#   From: 2010.03.12/outbox.cif.g09.slc.cpg/sg115_3_cif.got.tgz:5091.got - 2010.04.14 02:11:21.
