data_PCOD8309636
_publ_section_title
;
Structure prediction by ZEFSAII (Michael W. Deem and Ramdas Pophale) SiO2 
 PCOD8309636
Probable space group: P -4 M 2
;
_chemical_formula_sum "Si O2"
_cell_formula_units_Z 40
_cell_length_a 9.216640
_cell_length_b 9.216640
_cell_length_c 25.516572
_cell_angle_alpha 90.000000
_cell_angle_beta 90.000000
_cell_angle_gamma 90.000000
_cell_volume 2167.542281
_symmetry_space_group_name_H-M "P -4 M 2"
_symmetry_group_IT_number 115
_symmetry_cell_setting 'tetragonal'
loop_
_space_group_symop_operation_xyz
x,y,z
y,-x,-z
-x,-y,z
-y,x,-z
y,x,-z
-y,-x,-z
-x,y,z
x,-y,z
loop_
_atom_site_type_symbol
_atom_site_label
_atom_site_fract_x
_atom_site_fract_y
_atom_site_fract_z
Si Si1 0.167210 0.171411 0.240571
Si Si2 0.328195 0.837434 0.456050
Si Si3 0.338903 0.172392 0.340807
Si Si4 0.669562 0.669466 0.147790
Si Si5 0.833240 0.833537 0.060863
O O1 0.229452 0.227637 0.296145
O O2 0.251996 0.249220 0.194649
O O3 0.000000 0.215981 0.237751
O O4 0.188962 0.000000 0.234181
O O5 0.266334 0.733667 0.500000
O O6 0.500000 0.837494 0.460129
O O7 0.282944 0.777720 0.398290
O O8 0.267567 0.000000 0.464666
O O9 0.500000 0.235313 0.329212
O O10 0.347461 0.000000 0.341325
O O11 0.500000 0.703058 0.151065
O O12 0.703212 0.500000 0.151744
O O13 0.729063 0.727794 0.092740
O O14 0.000000 0.799892 0.075220
O O15 0.797560 0.000000 0.075079
O O16 0.804099 0.804099 0.000000
#
# Coordination Sequence:
#
# PCOD8309636 Si02
#       5
#     8   8   8   8   8
#     4  10  20  34  55  81 104 129 168 216 262 310
#     4   9  18  32  50  74 103 134 170 210 252 303
#     4   8  15  30  51  73  99 132 169 210 255 303
#     4  11  24  38  52  75 108 143 177 212 252 302
#     4   9  19  37  60  84 108 135 171 214 257 303
#
# _framework density 18.454079
#
# number of rings (size 3 to 8) (size 9 to 14) (size 15 to 20)
#    0.000    2.600    0.000    3.600    0.000    7.600 
#    0.000    6.000    0.000    1.200    0.000    0.000 
#    0.000    0.000    0.000    0.000    0.000    0.000 
#
# Total GULP energy -495961.852789 kJ/mol
# GULP energy per Si atom -12399.046320 kJ/mol
# Density = 1.841208 g / cm^3
# Si number density = 18.454079 Si / 1000 Ang^3
#
#
#
# Elastic Constant Matrix: (Units=GPa)
#
#
# Indices 1 2 3 4 5 6 
#
# 1 70.4586 45.5245 57.5559 0.0000 0.0000 0.0000
# 2 45.5245 70.4607 57.5565 0.0000 0.0000 0.0000
# 3 57.5559 57.5565 137.4885 0.0000 0.0000 0.0000
# 4 0.0000 0.0000 0.0000 -39.5273 0.0000 0.0000
# 5 0.0000 0.0000 0.0000 0.0000 -39.5324 0.0000
# 6 0.0000 0.0000 0.0000 0.0000 0.0000 28.2880
#
#
#
# Elastic Compliance Matrix: (Units=1/GPa)
#
#
# Indices 1 2 3 4 5 6 
#
# 1 0.027428 -0.012677 -0.006175 0.000000 0.000000 0.000000
# 2 -0.012677 0.027427 -0.006175 0.000000 0.000000 0.000000
# 3 -0.006175 -0.006175 0.012443 0.000000 0.000000 0.000000
# 4 0.000000 0.000000 0.000000 -0.025299 0.000000 0.000000
# 5 0.000000 0.000000 0.000000 0.000000 -0.025296 0.000000
# 6 0.000000 0.000000 0.000000 0.000000 0.000000 0.035351
#
#
# Mechanical properties :
#
#
# Convention : Reuss Voigt Hill
#
# Bulk Modulus (GPa) = 57.98974 66.63131 62.31052
# Shear Modulus (GPa) = 46.35859 -2.30294 22.02783
#
# Velocity S-wave (km/s) = 5.01753 -1.11832 3.45868
# Velocity P-wave (km/s) = 8.06595 5.87515 7.05609
#
# Compressibility (1/GPa) = 0.01724443
#
# Stress axis : x y z
#
# Youngs Moduli (GPa) = 36.45956 36.46082 80.36490
#
# Poissons Ratio (x) = 0.46221 0.49625
# Poissons Ratio (y) = 0.46219 0.49623
# Poissons Ratio (z) = 0.22514 0.22514
#
# Static dielectric constant tensor:
#      x y z
#    x 3.470770 0.000000 0.000000 
#    y 0.000000 3.470760 0.000000 
#    z 0.000000 0.000000 3.669510 
# 
# 
# High freq. dielectric constant tensor:
#      x y z
#    x 1.701640 0.000000 0.000000 
#    y 0.000000 1.701640 0.000000 
#    z 0.000000 0.000000 1.733460 
# 
# From -- ./inp_files/5136.got.cif
#   From: 2010.03.12/outbox.cif.g09.slc.cpg/sg115_3_cif.got.tgz:5136.got - 2010.04.14 02:11:21.
