data_PCOD8309360
_publ_section_title
;
Structure prediction by ZEFSAII (Michael W. Deem and Ramdas Pophale) SiO2 
 PCOD8309360
Probable space group: P -4 M 2
;
_chemical_formula_sum "Si O2"
_cell_formula_units_Z 48
_cell_length_a 9.214947
_cell_length_b 9.214947
_cell_length_c 31.308999
_cell_angle_alpha 90.000000
_cell_angle_beta 90.000000
_cell_angle_gamma 90.000000
_cell_volume 2658.611421
_symmetry_space_group_name_H-M "P -4 M 2"
_symmetry_group_IT_number 115
_symmetry_cell_setting 'tetragonal'
loop_
_space_group_symop_operation_xyz
x,y,z
y,-x,-z
-x,-y,z
-y,x,-z
y,x,-z
-y,-x,-z
-x,y,z
x,-y,z
loop_
_atom_site_type_symbol
_atom_site_label
_atom_site_fract_x
_atom_site_fract_y
_atom_site_fract_z
Si Si1 0.668745 0.331256 0.000000
Si Si2 0.672600 0.163740 0.582949
Si Si3 0.331439 0.332331 0.334241
Si Si4 0.331730 0.170341 0.825762
Si Si5 0.673099 0.663806 0.908675
Si Si6 0.330810 0.669191 0.500000
Si Si7 0.332260 0.829868 0.248776
O O1 0.731515 0.270953 0.045423
O O2 0.500000 0.299243 0.003963
O O3 0.500000 0.168769 0.582824
O O4 0.729687 0.242726 0.625500
O O5 0.730745 0.246550 0.541158
O O6 0.731969 0.000000 0.582455
O O7 0.500000 0.312044 0.344943
O O8 0.294135 0.500000 0.324889
O O9 0.283521 0.239829 0.293427
O O10 0.500000 0.211363 0.818653
O O11 0.271990 0.235361 0.870276
O O12 0.238202 0.235398 0.787905
O O13 0.307644 0.000000 0.827210
O O14 0.500000 0.660546 0.910414
O O15 0.731616 0.500000 0.901147
O O16 0.500000 0.699503 0.492441
O O17 0.500000 0.793905 0.239248
O O18 0.303022 0.000000 0.251129
#
# Coordination Sequence:
#
# PCOD8309360 Si02
#       7
#     4   8   8   8   8   4   8
#     4   7  10  18  36  64  92 117 150 194 242 285
#     4   9  17  29  47  72  98 123 155 195 234 273
#     4   9  17  31  52  75  97 122 154 194 240 288
#     4  10  20  32  48  72 100 130 164 200 240 288
#     4   8  13  23  42  67  93 121 156 199 243 284
#     4   9  16  28  48  71  94 122 156 191 228 272
#     4  10  21  36  53  73  97 126 162 203 246 293
#
# _framework density 18.054538999999998
#
# number of rings (size 3 to 8) (size 9 to 14) (size 15 to 20)
#    0.000    3.000    0.000    2.500    0.000    4.667 
#    0.000    2.500    0.000    6.250    0.000    4.667 
#    0.000    0.000    0.000    0.000    0.000    0.000 
#
# Total GULP energy -594932.154807 kJ/mol
# GULP energy per Si atom -12394.419892 kJ/mol
# Density = 1.801345 g / cm^3
# Si number density = 18.054539 Si / 1000 Ang^3
#
#
#
# Elastic Constant Matrix: (Units=GPa)
#
#
# Indices 1 2 3 4 5 6 
#
# 1 62.0720 34.2003 68.1304 0.0000 0.0000 0.0000
# 2 34.2003 62.0718 68.1304 0.0000 0.0000 0.0000
# 3 68.1304 68.1304 203.3612 0.0000 0.0000 0.0000
# 4 0.0000 0.0000 0.0000 0.3687 0.0000 0.0000
# 5 0.0000 0.0000 0.0000 0.0000 0.3686 0.0000
# 6 0.0000 0.0000 0.0000 0.0000 0.0000 14.4870
#
#
#
# Elastic Compliance Matrix: (Units=1/GPa)
#
#
# Indices 1 2 3 4 5 6 
#
# 1 0.027816 -0.008062 -0.006618 0.000000 0.000000 0.000000
# 2 -0.008062 0.027817 -0.006618 0.000000 0.000000 0.000000
# 3 -0.006618 -0.006618 0.009352 0.000000 0.000000 0.000000
# 4 0.000000 0.000000 0.000000 2.712503 0.000000 0.000000
# 5 0.000000 0.000000 0.000000 0.000000 2.713157 0.000000
# 6 0.000000 0.000000 0.000000 0.000000 0.000000 0.069028
#
#
# Mechanical properties :
#
#
# Convention : Reuss Voigt Hill
#
# Bulk Modulus (GPa) = 44.66693 74.26967 59.46830
# Shear Modulus (GPa) = 0.89131 13.51443 7.20287
#
# Velocity S-wave (km/s) = 0.70338 2.73890 1.99954
# Velocity P-wave (km/s) = 5.04513 7.15735 6.19197
#
# Compressibility (1/GPa) = 0.02238793
#
# Stress axis : x y z
#
# Youngs Moduli (GPa) = 35.94990 35.94975 106.93144
#
# Poissons Ratio (x) = 0.28984 0.70768
# Poissons Ratio (y) = 0.28984 0.70769
# Poissons Ratio (z) = 0.23792 0.23792
#
# Static dielectric constant tensor:
#      x y z
#    x 3.073130 0.000000 0.000000 
#    y 0.000000 3.073130 0.000000 
#    z 0.000000 0.000000 3.753780 
# 
# 
# High freq. dielectric constant tensor:
#      x y z
#    x 1.664830 0.000000 0.000000 
#    y 0.000000 1.664830 0.000000 
#    z 0.000000 0.000000 1.723960 
# 
# From -- ./inp_files/6271.got.cif
#   From: 2010.03.12/outbox.cif.g09.slc.cpg/sg115_4_cif.got.tgz:6271.got - 2010.04.14 02:11:21.
