data_PCOD8309629
_publ_section_title
;
Structure prediction by ZEFSAII (Michael W. Deem and Ramdas Pophale) SiO2 
 PCOD8309629
Probable space group: P -4 M 2
;
_chemical_formula_sum "Si O2"
_cell_formula_units_Z 32
_cell_length_a 8.873656
_cell_length_b 8.873656
_cell_length_c 20.588921
_cell_angle_alpha 90.000000
_cell_angle_beta 90.000000
_cell_angle_gamma 90.000000
_cell_volume 1621.208099
_symmetry_space_group_name_H-M "P -4 M 2"
_symmetry_group_IT_number 115
_symmetry_cell_setting 'tetragonal'
loop_
_space_group_symop_operation_xyz
x,y,z
y,-x,-z
-x,-y,z
-y,x,-z
y,x,-z
-y,-x,-z
-x,y,z
x,-y,z
loop_
_atom_site_type_symbol
_atom_site_label
_atom_site_fract_x
_atom_site_fract_y
_atom_site_fract_z
Si Si1 0.829240 0.678718 0.801392
Si Si2 0.667828 0.320700 0.929277
Si Si3 0.672829 0.176804 0.681253
Si Si4 0.826085 0.324656 0.560403
O O1 0.815775 0.500000 0.796168
O O2 0.777882 0.736548 0.872428
O O3 0.719233 0.749983 0.748893
O O4 0.000000 0.732585 0.789339
O O5 0.500000 0.255163 0.916744
O O6 0.659645 0.500000 0.929989
O O7 0.731319 0.268682 0.000000
O O8 0.500000 0.218924 0.665850
O O9 0.778734 0.237263 0.624607
O O10 0.696007 0.000000 0.686661
O O11 0.727095 0.272906 0.500000
O O12 0.798157 0.500000 0.572719
O O13 0.000000 0.289978 0.545011
#
# Coordination Sequence:
#
# PCOD8309629 Si02
#       4
#     8   8   8   8
#     4  10  20  34  54  81 111 144 183 226 275 331
#     4   8  14  27  49  75 103 139 183 228 273 322
#     4  11  24  40  58  82 111 145 187 231 275 325
#     4  11  24  41  62  89 118 148 184 224 268 321
#
# _framework density 19.738368000000001
#
# number of rings (size 3 to 8) (size 9 to 14) (size 15 to 20)
#    0.000    2.000    0.000    4.500    0.000   11.500 
#    0.000    1.250    0.000    4.500    0.000    0.000 
#    0.000    0.000    0.000    0.000    0.000    0.000 
#
# Total GULP energy -396851.900935 kJ/mol
# GULP energy per Si atom -12401.621904 kJ/mol
# Density = 1.969344 g / cm^3
# Si number density = 19.738368 Si / 1000 Ang^3
#
#
#
# Elastic Constant Matrix: (Units=GPa)
#
#
# Indices 1 2 3 4 5 6 
#
# 1 7.5095 67.2605 20.4052 0.0000 0.0000 0.0000
# 2 67.2605 7.5046 20.4081 0.0000 0.0000 0.0000
# 3 20.4052 20.4081 123.7529 0.0000 0.0000 0.0000
# 4 0.0000 0.0000 0.0000 -454.1952 0.0000 0.0000
# 5 0.0000 0.0000 0.0000 0.0000 -454.7684 0.0000
# 6 0.0000 0.0000 0.0000 0.0000 0.0000 24.8776
#
#
#
# Elastic Compliance Matrix: (Units=1/GPa)
#
#
# Indices 1 2 3 4 5 6 
#
# 1 -0.001018 0.015717 -0.002424 0.000000 0.000000 0.000000
# 2 0.015717 -0.001020 -0.002423 0.000000 0.000000 0.000000
# 3 -0.002424 -0.002423 0.008880 0.000000 0.000000 0.000000
# 4 0.000000 0.000000 0.000000 -0.002202 0.000000 0.000000
# 5 0.000000 0.000000 0.000000 0.000000 -0.002199 0.000000
# 6 0.000000 0.000000 0.000000 0.000000 0.000000 0.040197
#
#
# Mechanical properties :
#
#
# Convention : Reuss Voigt Hill
#
# Bulk Modulus (GPa) = 34.98839 39.43497 37.21168
# Shear Modulus (GPa) = 164.32871 -174.77100 -5.22115
#
# Velocity S-wave (km/s) = 9.13423 -9.41998 -1.62816
# Velocity P-wave (km/s) = 11.35826 9.91426 3.91903
#
# Compressibility (1/GPa) = 0.02858091
#
# Stress axis : x y z
#
# Youngs Moduli (GPa) = -982.21941 -980.82606 112.61350
#
# Poissons Ratio (x) = 15.41525 0.27297
# Poissons Ratio (y) = 15.43715 0.27290
# Poissons Ratio (z) = -2.38086 -2.37686
#
# Static dielectric constant tensor:
#      x y z
#    x 3.546850 0.000000 0.000000 
#    y 0.000000 3.546850 0.000000 
#    z 0.000000 0.000000 4.789230 
# 
# 
# High freq. dielectric constant tensor:
#      x y z
#    x 1.758720 0.000000 0.000000 
#    y 0.000000 1.758720 0.000000 
#    z 0.000000 0.000000 1.788700 
# 
# From -- ./inp_files/4585.got.cif
#   From: 2010.03.12/outbox.cif.g09.slc.cpg/sg115_3_cif.got.tgz:4585.got - 2010.04.14 02:11:21.
