data_PCOD8309897
_publ_section_title
;
Structure prediction by ZEFSAII (Michael W. Deem and Ramdas Pophale) SiO2 
 PCOD8309897
Probable space group: P -4 M 2
;
_chemical_formula_sum "Si O2"
_cell_formula_units_Z 48
_cell_length_a 9.058027
_cell_length_b 9.058027
_cell_length_c 30.953442
_cell_angle_alpha 90.000000
_cell_angle_beta 90.000000
_cell_angle_gamma 90.000000
_cell_volume 2539.663463
_symmetry_space_group_name_H-M "P -4 M 2"
_symmetry_group_IT_number 115
_symmetry_cell_setting 'tetragonal'
loop_
_space_group_symop_operation_xyz
x,y,z
y,-x,-z
-x,-y,z
-y,x,-z
y,x,-z
-y,-x,-z
-x,y,z
x,-y,z
loop_
_atom_site_type_symbol
_atom_site_label
_atom_site_fract_x
_atom_site_fract_y
_atom_site_fract_z
Si Si1 0.824897 0.669010 0.616371
Si Si2 0.173255 0.671559 0.118257
Si Si3 0.827760 0.326890 0.960223
Si Si4 0.667310 0.673069 0.204717
Si Si5 0.324672 0.836990 0.288072
Si Si6 0.829091 0.672925 0.460654
O O1 0.777001 0.500000 0.607212
O O2 0.775761 0.719935 0.664624
O O3 0.744261 0.777673 0.583923
O O4 0.000000 0.683917 0.611125
O O5 0.211470 0.500000 0.109649
O O6 0.253519 0.772001 0.083488
O O7 0.231378 0.723354 0.164916
O O8 0.000000 0.700192 0.115714
O O9 0.795961 0.500000 0.958008
O O10 0.000000 0.292955 0.966453
O O11 0.739759 0.260242 0.000000
O O12 0.500000 0.729772 0.196590
O O13 0.669636 0.500000 0.210217
O O14 0.735931 0.737293 0.248999
O O15 0.500000 0.843360 0.286537
O O16 0.258153 0.000000 0.281541
O O17 0.737415 0.737415 0.500000
O O18 0.799789 0.500000 0.458332
O O19 0.000000 0.709939 0.468145
#
# Coordination Sequence:
#
# PCOD8309897 Si02
#       6
#     8   8   8   8   8   8
#     4   9  18  34  56  81 108 139 176 217 262 313
#     4  10  21  37  56  79 109 145 183 222 266 315
#     4  11  24  40  59  84 111 140 176 218 265 317
#     4   9  17  30  50  76 105 139 180 222 263 309
#     4   8  15  29  50  76 105 136 172 216 262 308
#     4  11  24  39  55  78 106 136 173 216 262 314
#
# _framework density 18.900141999999999
#
# number of rings (size 3 to 8) (size 9 to 14) (size 15 to 20)
#    0.000    2.333    0.000    3.500    0.000    9.333 
#    0.000    4.167    0.000    3.000    0.000    0.000 
#    0.000    0.000    0.000    0.000    0.000    0.000 
#
# Total GULP energy -595192.332493 kJ/mol
# GULP energy per Si atom -12399.840260 kJ/mol
# Density = 1.885712 g / cm^3
# Si number density = 18.900142 Si / 1000 Ang^3
#
#
#
# Elastic Constant Matrix: (Units=GPa)
#
#
# Indices 1 2 3 4 5 6 
#
# 1 60.3237 38.7838 48.5668 0.0000 0.0000 0.0000
# 2 38.7838 60.3208 48.5645 0.0000 0.0000 0.0000
# 3 48.5668 48.5645 152.7253 0.0000 0.0000 0.0000
# 4 0.0000 0.0000 0.0000 78.5561 0.0000 0.0000
# 5 0.0000 0.0000 0.0000 0.0000 78.5517 0.0000
# 6 0.0000 0.0000 0.0000 0.0000 0.0000 25.6558
#
#
#
# Elastic Compliance Matrix: (Units=1/GPa)
#
#
# Indices 1 2 3 4 5 6 
#
# 1 0.030543 -0.015885 -0.004662 0.000000 0.000000 0.000000
# 2 -0.015885 0.030544 -0.004661 0.000000 0.000000 0.000000
# 3 -0.004662 -0.004661 0.009512 0.000000 0.000000 0.000000
# 4 0.000000 0.000000 0.000000 0.012730 0.000000 0.000000
# 5 0.000000 0.000000 0.000000 0.000000 0.012730 0.000000
# 6 0.000000 0.000000 0.000000 0.000000 0.000000 0.038978
#
#
# Mechanical properties :
#
#
# Convention : Reuss Voigt Hill
#
# Bulk Modulus (GPa) = 49.54374 60.57779 55.06077
# Shear Modulus (GPa) = 26.01718 45.71635 35.86676
#
# Velocity S-wave (km/s) = 3.71423 4.92350 4.36098
# Velocity P-wave (km/s) = 6.68314 8.02759 7.38602
#
# Compressibility (1/GPa) = 0.02018418
#
# Stress axis : x y z
#
# Youngs Moduli (GPa) = 32.74063 32.73952 105.12727
#
# Poissons Ratio (x) = 0.52006 0.49006
# Poissons Ratio (y) = 0.52008 0.49002
# Poissons Ratio (z) = 0.15262 0.15261
#
# Static dielectric constant tensor:
#      x y z
#    x 3.414090 0.000000 0.000000 
#    y 0.000000 3.414090 0.000000 
#    z 0.000000 0.000000 3.827910 
# 
# 
# High freq. dielectric constant tensor:
#      x y z
#    x 1.723900 0.000000 0.000000 
#    y 0.000000 1.723900 0.000000 
#    z 0.000000 0.000000 1.754060 
# 
# From -- ./inp_files/6039.got.cif
#   From: 2010.03.12/outbox.cif.g09.slc.cpg/sg115_4_cif.got.tgz:6039.got - 2010.04.14 02:11:21.
