data_PCOD8309341
_publ_section_title
;
Structure prediction by ZEFSAII (Michael W. Deem and Ramdas Pophale) SiO2 
 PCOD8309341
Probable space group: P -4 M 2
;
_chemical_formula_sum "Si O2"
_cell_formula_units_Z 48
_cell_length_a 9.269622
_cell_length_b 9.269622
_cell_length_c 30.994821
_cell_angle_alpha 90.000000
_cell_angle_beta 90.000000
_cell_angle_gamma 90.000000
_cell_volume 2663.257643
_symmetry_space_group_name_H-M "P -4 M 2"
_symmetry_group_IT_number 115
_symmetry_cell_setting 'tetragonal'
loop_
_space_group_symop_operation_xyz
x,y,z
y,-x,-z
-x,-y,z
-y,x,-z
y,x,-z
-y,-x,-z
-x,y,z
x,-y,z
loop_
_atom_site_type_symbol
_atom_site_label
_atom_site_fract_x
_atom_site_fract_y
_atom_site_fract_z
Si Si1 0.828028 0.160989 0.047348
Si Si2 0.167343 0.830941 0.788389
Si Si3 0.670429 0.166203 0.537508
Si Si4 0.329872 0.664622 0.284675
Si Si5 0.337794 0.171830 0.872012
Si Si6 0.670923 0.340704 0.619132
O O1 0.765937 0.265438 0.084390
O O2 0.000000 0.155574 0.048850
O O3 0.766880 0.000000 0.055502
O O4 0.780676 0.219325 0.000000
O O5 0.228452 0.751276 0.746920
O O6 0.248845 0.772763 0.830806
O O7 0.000000 0.793748 0.793876
O O8 0.193498 0.000000 0.782112
O O9 0.748056 0.251945 0.500000
O O10 0.500000 0.187922 0.532201
O O11 0.726138 0.228331 0.583318
O O12 0.715211 0.000000 0.535374
O O13 0.500000 0.676397 0.277291
O O14 0.278292 0.500000 0.276764
O O15 0.289384 0.717057 0.333085
O O16 0.500000 0.232279 0.868867
O O17 0.336792 0.000000 0.873398
O O18 0.500000 0.351422 0.618332
O O19 0.735209 0.500000 0.609060
#
# Coordination Sequence:
#
# PCOD8309341 Si02
#       6
#     8   8   8   8   8   8
#     4   8  13  22  38  60  85 114 149 189 233 281
#     4  10  20  32  47  70 100 132 166 203 242 286
#     4  10  20  33  51  76 103 132 167 204 243 288
#     4   9  18  33  53  76 100 126 159 200 246 295
#     4   9  16  26  42  65  92 122 157 197 239 282
#     4   8  15  30  52  75  97 124 161 203 243 285
#
# _framework density 18.023039000000001
#
# number of rings (size 3 to 8) (size 9 to 14) (size 15 to 20)
#    0.000    3.000    0.000    3.000    0.000    5.000 
#    0.000    2.500    0.000    2.000    0.000    2.333 
#    0.000    0.000    0.000    0.000    0.000    0.000 
#
# Total GULP energy -595037.318260 kJ/mol
# GULP energy per Si atom -12396.610797 kJ/mol
# Density = 1.798202 g / cm^3
# Si number density = 18.023039 Si / 1000 Ang^3
#
#
#
# Elastic Constant Matrix: (Units=GPa)
#
#
# Indices 1 2 3 4 5 6 
#
# 1 64.0535 31.9068 58.9089 0.0000 0.0000 0.0000
# 2 31.9068 64.0492 58.9070 0.0000 0.0000 0.0000
# 3 58.9089 58.9070 172.4320 0.0000 0.0000 0.0000
# 4 0.0000 0.0000 0.0000 24.2799 0.0000 0.0000
# 5 0.0000 0.0000 0.0000 0.0000 24.2796 0.0000
# 6 0.0000 0.0000 0.0000 0.0000 0.0000 18.8117
#
#
#
# Elastic Compliance Matrix: (Units=1/GPa)
#
#
# Indices 1 2 3 4 5 6 
#
# 1 0.024529 -0.006579 -0.006132 0.000000 0.000000 0.000000
# 2 -0.006579 0.024531 -0.006133 0.000000 0.000000 0.000000
# 3 -0.006132 -0.006133 0.009989 0.000000 0.000000 0.000000
# 4 0.000000 0.000000 0.000000 0.041186 0.000000 0.000000
# 5 0.000000 0.000000 0.000000 0.000000 0.041187 0.000000
# 6 0.000000 0.000000 0.000000 0.000000 0.000000 0.053158
#
#
# Mechanical properties :
#
#
# Convention : Reuss Voigt Hill
#
# Bulk Modulus (GPa) = 46.81492 66.66446 56.73969
# Shear Modulus (GPa) = 20.88644 23.52839 22.20741
#
# Velocity S-wave (km/s) = 3.40792 3.61704 3.51403
# Velocity P-wave (km/s) = 6.44334 7.38327 6.92926
#
# Compressibility (1/GPa) = 0.02136071
#
# Stress axis : x y z
#
# Youngs Moduli (GPa) = 40.76783 40.76503 100.10578
#
# Poissons Ratio (x) = 0.26821 0.61388
# Poissons Ratio (y) = 0.26823 0.61390
# Poissons Ratio (z) = 0.25000 0.24999
#
# Static dielectric constant tensor:
#      x y z
#    x 3.287850 0.000000 0.000000 
#    y 0.000000 3.287820 0.000000 
#    z 0.000000 0.000000 3.682140 
# 
# 
# High freq. dielectric constant tensor:
#      x y z
#    x 1.667330 0.000000 0.000000 
#    y 0.000000 1.667330 0.000000 
#    z 0.000000 0.000000 1.716820 
# 
# From -- ./inp_files/6114.got.cif
#   From: 2010.03.12/outbox.cif.g09.slc.cpg/sg115_4_cif.got.tgz:6114.got - 2010.04.14 02:11:21.
