data_PCOD8309240
_publ_section_title
;
Structure prediction by ZEFSAII (Michael W. Deem and Ramdas Pophale) SiO2 
 PCOD8309240
Probable space group: P -4 M 2
;
_chemical_formula_sum "Si O2"
_cell_formula_units_Z 48
_cell_length_a 14.346461
_cell_length_b 14.346461
_cell_length_c 12.624102
_cell_angle_alpha 90.000000
_cell_angle_beta 90.000000
_cell_angle_gamma 90.000000
_cell_volume 2598.304581
_symmetry_space_group_name_H-M "P -4 M 2"
_symmetry_group_IT_number 115
_symmetry_cell_setting 'tetragonal'
loop_
_space_group_symop_operation_xyz
x,y,z
y,-x,-z
-x,-y,z
-y,x,-z
y,x,-z
-y,-x,-z
-x,y,z
x,-y,z
loop_
_atom_site_type_symbol
_atom_site_label
_atom_site_fract_x
_atom_site_fract_y
_atom_site_fract_z
Si Si1 0.610485 0.602325 0.382704
Si Si2 0.266018 0.107109 0.117039
Si Si3 0.610620 0.785203 0.277570
Si Si4 0.244373 0.893802 0.874903
Si Si5 0.603608 0.888784 0.710866
Si Si6 0.103068 0.389679 0.520881
O O1 0.639012 0.639012 0.500000
O O2 0.500000 0.593850 0.383922
O O3 0.654493 0.500000 0.357169
O O4 0.640821 0.676628 0.292391
O O5 0.343888 0.169048 0.174575
O O6 0.164082 0.149446 0.140217
O O7 0.268788 0.000000 0.156307
O O8 0.286885 0.113821 0.992373
O O9 0.500000 0.795625 0.265134
O O10 0.649190 0.835932 0.382855
O O11 0.322972 0.852342 0.797011
O O12 0.218575 0.000000 0.847126
O O13 0.500000 0.852282 0.740409
O O14 0.634741 0.851708 0.594162
O O15 0.602004 0.000000 0.706932
O O16 0.095671 0.500000 0.529108
O O17 0.000000 0.345236 0.530912
#
# Coordination Sequence:
#
# PCOD8309240 Si02
#       6
#     8   8   8   8   8   8
#     4   8  15  29  47  68  99 138 176 210 240 278
#     4  10  21  35  51  72  96 124 162 206 252 304
#     4  10  19  30  48  76 107 135 162 196 245 300
#     4   9  19  36  54  71  94 124 162 208 251 294
#     4   8  14  27  49  75 101 129 161 198 241 290
#     4   8  14  25  42  68 102 133 159 190 232 285
#
# _framework density 18.473585
#
# number of rings (size 3 to 8) (size 9 to 14) (size 15 to 20)
#    0.000    3.167    0.000    2.000    0.000    3.333 
#    0.000    5.833    0.000    1.000    0.000    0.000 
#    0.000    4.000    0.000    0.667    0.000    0.000 
#
# Total GULP energy -594865.546149 kJ/mol
# GULP energy per Si atom -12393.032211 kJ/mol
# Density = 1.843154 g / cm^3
# Si number density = 18.473585 Si / 1000 Ang^3
#
#
#
# Elastic Constant Matrix: (Units=GPa)
#
#
# Indices 1 2 3 4 5 6 
#
# 1 76.8373 31.0773 39.7380 0.0000 0.0000 0.0000
# 2 31.0773 76.8373 39.7380 0.0000 0.0000 0.0000
# 3 39.7380 39.7380 80.1142 0.0000 0.0000 0.0000
# 4 0.0000 0.0000 0.0000 27.9800 0.0000 0.0000
# 5 0.0000 0.0000 0.0000 0.0000 27.9800 0.0000
# 6 0.0000 0.0000 0.0000 0.0000 0.0000 19.5615
#
#
#
# Elastic Compliance Matrix: (Units=1/GPa)
#
#
# Indices 1 2 3 4 5 6 
#
# 1 0.018227 -0.003627 -0.007242 0.000000 0.000000 0.000000
# 2 -0.003627 0.018227 -0.007242 0.000000 0.000000 0.000000
# 3 -0.007242 -0.007242 0.019666 0.000000 0.000000 0.000000
# 4 0.000000 0.000000 0.000000 0.035740 0.000000 0.000000
# 5 0.000000 0.000000 0.000000 0.000000 0.035740 0.000000
# 6 0.000000 0.000000 0.000000 0.000000 0.000000 0.051121
#
#
# Mechanical properties :
#
#
# Convention : Reuss Voigt Hill
#
# Bulk Modulus (GPa) = 50.25390 50.54393 50.39891
# Shear Modulus (GPa) = 22.56592 23.32004 22.94298
#
# Velocity S-wave (km/s) = 3.49882 3.55680 3.52793
# Velocity P-wave (km/s) = 6.60186 6.65487 6.62842
#
# Compressibility (1/GPa) = 0.01989895
#
# Stress axis : x y z
#
# Youngs Moduli (GPa) = 54.86504 54.86504 50.84840
#
# Poissons Ratio (x) = 0.19897 0.36824
# Poissons Ratio (y) = 0.19897 0.36824
# Poissons Ratio (z) = 0.39732 0.39732
#
# Static dielectric constant tensor:
#      x y z
#    x 3.411860 0.000000 0.000000 
#    y 0.000000 3.411860 0.000000 
#    z 0.000000 0.000000 3.479940 
# 
# 
# High freq. dielectric constant tensor:
#      x y z
#    x 1.703330 0.000000 0.000000 
#    y 0.000000 1.703330 0.000000 
#    z 0.000000 0.000000 1.705890 
# 
# From -- ./inp_files/2960.got.cif
#   From: 2010.03.12/outbox.cif.g09.slc.cpg/sg115_2_cif.got.tgz:2960.got - 2010.04.14 02:11:21.
