data_PCOD8309543
_publ_section_title
;
Structure prediction by ZEFSAII (Michael W. Deem and Ramdas Pophale) SiO2 
 PCOD8309543
Probable space group: P -4 M 2
;
_chemical_formula_sum "Si O2"
_cell_formula_units_Z 40
_cell_length_a 14.359666
_cell_length_b 14.359666
_cell_length_c 9.526221
_cell_angle_alpha 90.000000
_cell_angle_beta 90.000000
_cell_angle_gamma 90.000000
_cell_volume 1964.306843
_symmetry_space_group_name_H-M "P -4 M 2"
_symmetry_group_IT_number 115
_symmetry_cell_setting 'tetragonal'
loop_
_space_group_symop_operation_xyz
x,y,z
y,-x,-z
-x,-y,z
-y,x,-z
y,x,-z
-y,-x,-z
-x,y,z
x,-y,z
loop_
_atom_site_type_symbol
_atom_site_label
_atom_site_fract_x
_atom_site_fract_y
_atom_site_fract_z
Si Si1 0.281142 0.890419 0.319834
Si Si2 0.103572 0.110512 0.157894
Si Si3 0.743108 0.395495 0.180461
Si Si4 0.761983 0.605231 0.854886
Si Si5 0.607101 0.892144 0.588776
O O1 0.177895 0.852073 0.274515
O O2 0.355769 0.857610 0.205991
O O3 0.318036 0.857661 0.472151
O O4 0.279967 0.000000 0.313089
O O5 0.000000 0.151747 0.191292
O O6 0.097288 0.000000 0.164536
O O7 0.137726 0.137726 0.000000
O O8 0.707036 0.500000 0.211216
O O9 0.659870 0.324932 0.213779
O O10 0.833217 0.371108 0.272527
O O11 0.772333 0.384007 0.020304
O O12 0.747049 0.500000 0.807844
O O13 0.500000 0.876091 0.537477
O O14 0.622700 0.000000 0.626179
#
# Coordination Sequence:
#
# PCOD8309543 Si02
#       5
#     8   8   8   8   8
#     4  10  20  33  55  85 115 150 188 231 283 336
#     4   8  15  29  50  79 114 151 191 233 277 327
#     4   9  20  38  58  81 111 148 187 229 283 345
#     4  10  21  36  57  85 113 142 183 236 285 336
#     4   9  18  35  58  84 116 152 189 232 285 339
#
# _framework density 20.363416999999998
#
# number of rings (size 3 to 8) (size 9 to 14) (size 15 to 20)
#    0.000    2.800    0.000    1.200    2.800    3.200 
#    0.000    5.000    0.000    1.200    0.000    2.800 
#    0.000    6.400    0.000    0.000    0.000    0.000 
#
# Total GULP energy -495782.717617 kJ/mol
# GULP energy per Si atom -12394.567940 kJ/mol
# Density = 2.031707 g / cm^3
# Si number density = 20.363417 Si / 1000 Ang^3
#
#
#
# Elastic Constant Matrix: (Units=GPa)
#
#
# Indices 1 2 3 4 5 6 
#
# 1 80.1629 47.0928 62.1068 0.0000 0.0000 0.0000
# 2 47.0928 80.1629 62.1068 0.0000 0.0000 0.0000
# 3 62.1068 62.1068 81.4797 0.0000 0.0000 0.0000
# 4 0.0000 0.0000 0.0000 32.6161 0.0000 0.0000
# 5 0.0000 0.0000 0.0000 0.0000 32.6161 0.0000
# 6 0.0000 0.0000 0.0000 0.0000 0.0000 30.0754
#
#
#
# Elastic Compliance Matrix: (Units=1/GPa)
#
#
# Indices 1 2 3 4 5 6 
#
# 1 0.030468 0.000230 -0.023399 0.000000 0.000000 0.000000
# 2 0.000230 0.030468 -0.023399 0.000000 0.000000 0.000000
# 3 -0.023399 -0.023399 0.047944 0.000000 0.000000 0.000000
# 4 0.000000 0.000000 0.000000 0.030660 0.000000 0.000000
# 5 0.000000 0.000000 0.000000 0.000000 0.030660 0.000000
# 6 0.000000 0.000000 0.000000 0.000000 0.000000 0.033250
#
#
# Mechanical properties :
#
#
# Convention : Reuss Voigt Hill
#
# Bulk Modulus (GPa) = 63.51710 64.93535 64.22623
# Shear Modulus (GPa) = 16.56534 23.76147 20.16340
#
# Velocity S-wave (km/s) = 2.85526 3.41965 3.15012
# Velocity P-wave (km/s) = 6.49072 6.89562 6.69623
#
# Compressibility (1/GPa) = 0.01574379
#
# Stress axis : x y z
#
# Youngs Moduli (GPa) = 32.82099 32.82099 20.85757
#
# Poissons Ratio (x) = -0.00753 0.48805
# Poissons Ratio (y) = -0.00753 0.48805
# Poissons Ratio (z) = 0.76798 0.76798
#
# Static dielectric constant tensor:
#      x y z
#    x 3.894820 0.000000 0.000000 
#    y 0.000000 3.894820 0.000000 
#    z 0.000000 0.000000 3.690450 
# 
# 
# High freq. dielectric constant tensor:
#      x y z
#    x 1.793330 0.000000 0.000000 
#    y 0.000000 1.793330 0.000000 
#    z 0.000000 0.000000 1.785690 
# 
# From -- ./inp_files/1612.got.cif
#   From: 2010.03.12/outbox.cif.g09.slc.cpg/sg115_1_cif.got.tgz:1612.got - 2010.04.14 02:11:21.
