data_PCOD8309106
_publ_section_title
;
Structure prediction by ZEFSAII (Michael W. Deem and Ramdas Pophale) SiO2 
 PCOD8309106
Probable space group: P -4 21 C
;
_chemical_formula_sum "Si O2"
_cell_formula_units_Z 34
_cell_length_a 8.548543
_cell_length_b 8.548543
_cell_length_c 19.653188
_cell_angle_alpha 90.000000
_cell_angle_beta 90.000000
_cell_angle_gamma 90.000000
_cell_volume 1436.207564
_symmetry_space_group_name_H-M "P -4 21 C"
_symmetry_group_IT_number 114
_symmetry_cell_setting 'tetragonal'
loop_
_space_group_symop_operation_xyz
x,y,z
y,-x,-z
-x,-y,z
-y,x,-z
1/2+x,1/2-y,1/2-z
1/2-x,1/2+y,1/2-z
1/2-y,1/2-x,1/2+z
1/2+y,1/2+x,1/2+z
loop_
_atom_site_type_symbol
_atom_site_label
_atom_site_fract_x
_atom_site_fract_y
_atom_site_fract_z
Si Si1 0.199382 0.387674 0.321397
Si Si2 0.277295 0.136186 0.709082
Si Si3 0.282035 0.248649 0.454973
Si Si4 0.172911 0.932669 0.419251
Si Si5 0.000000 0.000000 0.000000
O O1 0.238035 0.570366 0.310717
O O2 0.332799 0.286264 0.284798
O O3 0.183017 0.353801 0.401963
O O4 0.040739 0.332132 0.287056
O O5 0.139735 0.171972 0.655663
O O6 0.197436 0.227607 0.527065
O O7 0.448905 0.340276 0.460695
O O8 0.298430 0.075311 0.422071
O O9 0.000000 0.000000 0.437065
#
# Coordination Sequence:
#
# PCOD8309106 Si02
#       5
#     8   8   8   8   2
#     4  11  25  44  71 104 153 196 252 320 378 464
#     4  11  25  44  71 109 146 199 253 313 389 452
#     4  12  24  47  72 109 145 195 251 317 386 457
#     4  12  22  46  81 108 140 200 262 314 379 464
#     4  12  32  44  64 112 156 192 236 326 388 468
#
# _framework density 23.673456000000002
#
# number of rings (size 3 to 8) (size 9 to 14) (size 15 to 20)
#    0.000    0.471    4.706    2.824    0.000    6.588 
#    0.000    0.000    0.000    0.000    0.000    0.000 
#    0.000    0.000    0.000    0.000    0.000    0.000 
#
# Total GULP energy -421426.919755 kJ/mol
# GULP energy per Si atom -12394.909405 kJ/mol
# Density = 2.361957 g / cm^3
# Si number density = 23.673456 Si / 1000 Ang^3
#
#
#
# Elastic Constant Matrix: (Units=GPa)
#
#
# Indices 1 2 3 4 5 6 
#
# 1 102.3773 43.1958 24.5988 0.0000 0.0000 0.0000
# 2 43.1958 102.3773 24.5988 0.0000 0.0000 0.0000
# 3 24.5988 24.5988 92.8426 0.0000 0.0000 0.0000
# 4 0.0000 0.0000 0.0000 34.6044 0.0000 0.0000
# 5 0.0000 0.0000 0.0000 0.0000 34.6044 0.0000
# 6 0.0000 0.0000 0.0000 0.0000 0.0000 51.5957
#
#
#
# Elastic Compliance Matrix: (Units=1/GPa)
#
#
# Indices 1 2 3 4 5 6 
#
# 1 0.012221 -0.004676 -0.001999 0.000000 0.000000 0.000000
# 2 -0.004676 0.012221 -0.001999 0.000000 0.000000 0.000000
# 3 -0.001999 -0.001999 0.011830 0.000000 0.000000 0.000000
# 4 0.000000 0.000000 0.000000 0.028898 0.000000 0.000000
# 5 0.000000 0.000000 0.000000 0.000000 0.028898 0.000000
# 6 0.000000 0.000000 0.000000 0.000000 0.000000 0.019381
#
#
# Mechanical properties :
#
#
# Convention : Reuss Voigt Hill
#
# Bulk Modulus (GPa) = 52.84300 53.59823 53.22061
# Shear Modulus (GPa) = 36.46803 37.84116 37.15460
#
# Velocity S-wave (km/s) = 3.92913 4.00242 3.96594
# Velocity P-wave (km/s) = 6.55394 6.63694 6.59557
#
# Compressibility (1/GPa) = 0.01892398
#
# Stress axis : x y z
#
# Youngs Moduli (GPa) = 81.82578 81.82578 84.52922
#
# Poissons Ratio (x) = 0.38262 0.16898
# Poissons Ratio (y) = 0.38262 0.16898
# Poissons Ratio (z) = 0.16357 0.16357
#
# Static dielectric constant tensor:
#      x y z
#    x 4.395440 0.000000 0.000000 
#    y 0.000000 4.395440 0.000000 
#    z 0.000000 0.000000 4.096090 
# 
# 
# High freq. dielectric constant tensor:
#      x y z
#    x 1.935220 0.000000 0.000000 
#    y 0.000000 1.935220 0.000000 
#    z 0.000000 0.000000 1.939370 
# 
# From -- ./inp_files/2921.got.cif
#   From: 2010.03.12/outbox.cif.g09.slc.cpg/sg114_2_cif.got.tgz:2921.got - 2010.04.14 02:08:34.
