data_PCOD8309062
_publ_section_title
;
Structure prediction by ZEFSAII (Michael W. Deem and Ramdas Pophale) SiO2 
 PCOD8309062
Probable space group: P -4 21 C
;
_chemical_formula_sum "Si O2"
_cell_formula_units_Z 46
_cell_length_a 11.564708
_cell_length_b 11.564708
_cell_length_c 17.199200
_cell_angle_alpha 90.000000
_cell_angle_beta 90.000000
_cell_angle_gamma 90.000000
_cell_volume 2300.263509
_symmetry_space_group_name_H-M "P -4 21 C"
_symmetry_group_IT_number 114
_symmetry_cell_setting 'tetragonal'
loop_
_space_group_symop_operation_xyz
x,y,z
y,-x,-z
-x,-y,z
-y,x,-z
1/2+x,1/2-y,1/2-z
1/2-x,1/2+y,1/2-z
1/2-y,1/2-x,1/2+z
1/2+y,1/2+x,1/2+z
loop_
_atom_site_type_symbol
_atom_site_label
_atom_site_fract_x
_atom_site_fract_y
_atom_site_fract_z
Si Si1 0.220489 0.519800 0.822991
Si Si2 0.000000 0.500000 0.235753
Si Si3 0.174102 0.162754 0.554439
Si Si4 0.593956 0.592816 0.295442
Si Si5 0.500000 0.500000 0.000000
Si Si6 0.249746 0.766194 0.612155
Si Si7 0.996137 0.731986 0.667569
O O1 0.098938 0.554561 0.787806
O O2 0.230938 0.628763 0.882044
O O3 0.316839 0.520492 0.755693
O O4 0.211403 0.393343 0.861547
O O5 0.896052 0.550595 0.184545
O O6 0.232126 0.225710 0.480846
O O7 0.070150 0.239372 0.588069
O O8 0.116780 0.033604 0.545138
O O9 0.500000 0.500000 0.329569
O O10 0.668557 0.654460 0.364664
O O11 0.681638 0.529773 0.237567
O O12 0.132581 0.731035 0.654648
#
# Coordination Sequence:
#
# PCOD8309062 Si02
#       7
#     8   4   8   8   2   8   8
#     4  11  22  38  64  97 130 168 217 274 318 377
#     4  12  24  40  62  96 128 172 226 260 316 388
#     4  11  22  37  63 103 130 169 214 272 330 377
#     4  11  23  37  65 101 134 168 216 268 326 397
#     4  12  16  32  68  96 136 148 216 274 312 372
#     4  12  20  39  64  94 133 169 211 267 330 376
#     4  11  22  38  64  97 130 168 217 274 318 377
#
# _framework density 19.997709
#
# number of rings (size 3 to 8) (size 9 to 14) (size 15 to 20)
#    0.000    0.696    8.696    0.000    2.435    0.000 
#    0.000    3.478    0.000    0.000    9.043    0.000 
#    0.000    0.000    0.000    0.000    0.000    0.000 
#
# Total GULP energy -570087.930868 kJ/mol
# GULP energy per Si atom -12393.215888 kJ/mol
# Density = 1.995219 g / cm^3
# Si number density = 19.997709 Si / 1000 Ang^3
#
#
#
# Elastic Constant Matrix: (Units=GPa)
#
#
# Indices 1 2 3 4 5 6 
#
# 1 98.3701 46.9918 43.3959 0.0000 0.0000 0.0000
# 2 46.9918 98.3701 43.3959 0.0000 0.0000 0.0000
# 3 43.3959 43.3959 93.1843 0.0000 0.0000 0.0000
# 4 0.0000 0.0000 0.0000 22.9957 0.0000 0.0000
# 5 0.0000 0.0000 0.0000 0.0000 22.9957 0.0000
# 6 0.0000 0.0000 0.0000 0.0000 0.0000 35.2851
#
#
#
# Elastic Compliance Matrix: (Units=1/GPa)
#
#
# Indices 1 2 3 4 5 6 
#
# 1 0.014496 -0.004967 -0.004438 0.000000 0.000000 0.000000
# 2 -0.004967 0.014496 -0.004438 0.000000 0.000000 0.000000
# 3 -0.004438 -0.004438 0.014865 0.000000 0.000000 0.000000
# 4 0.000000 0.000000 0.000000 0.043486 0.000000 0.000000
# 5 0.000000 0.000000 0.000000 0.000000 0.043486 0.000000
# 6 0.000000 0.000000 0.000000 0.000000 0.000000 0.028341
#
#
# Mechanical properties :
#
#
# Convention : Reuss Voigt Hill
#
# Bulk Modulus (GPa) = 61.83516 61.94352 61.88934
# Shear Modulus (GPa) = 26.00831 26.66468 26.33649
#
# Velocity S-wave (km/s) = 3.61025 3.65552 3.63295
# Velocity P-wave (km/s) = 6.95462 6.98997 6.97232
#
# Compressibility (1/GPa) = 0.01617203
#
# Stress axis : x y z
#
# Youngs Moduli (GPa) = 68.98345 68.98345 67.27370
#
# Poissons Ratio (x) = 0.34266 0.29854
# Poissons Ratio (y) = 0.34266 0.29854
# Poissons Ratio (z) = 0.30612 0.30612
#
# Static dielectric constant tensor:
#      x y z
#    x 3.700440 0.000000 0.000000 
#    y 0.000000 3.700440 0.000000 
#    z 0.000000 0.000000 3.567820 
# 
# 
# High freq. dielectric constant tensor:
#      x y z
#    x 1.780880 0.000000 0.000000 
#    y 0.000000 1.780880 0.000000 
#    z 0.000000 0.000000 1.765010 
# 
# From -- ./inp_files/2683.got.cif
#   From: 2010.03.12/outbox.cif.g09.slc.cpg/sg114_2_cif.got.tgz:2683.got - 2010.04.14 02:08:34.
