data_PCOD8309336
_publ_section_title
;
Structure prediction by ZEFSAII (Michael W. Deem and Ramdas Pophale) SiO2 
 PCOD8309336
Probable space group: P -4 M 2
;
_chemical_formula_sum "Si O2"
_cell_formula_units_Z 40
_cell_length_a 9.394964
_cell_length_b 9.394964
_cell_length_c 26.010281
_cell_angle_alpha 90.000000
_cell_angle_beta 90.000000
_cell_angle_gamma 90.000000
_cell_volume 2295.806519
_symmetry_space_group_name_H-M "P -4 M 2"
_symmetry_group_IT_number 115
_symmetry_cell_setting 'tetragonal'
loop_
_space_group_symop_operation_xyz
x,y,z
y,-x,-z
-x,-y,z
-y,x,-z
y,x,-z
-y,-x,-z
-x,y,z
x,-y,z
loop_
_atom_site_type_symbol
_atom_site_label
_atom_site_fract_x
_atom_site_fract_y
_atom_site_fract_z
Si Si1 0.659019 0.668822 0.359374
Si Si2 0.329900 0.159877 0.848736
Si Si3 0.339927 0.669175 0.245858
Si Si4 0.330417 0.341314 0.943584
Si Si5 0.166197 0.667387 0.456399
O O1 0.500000 0.725859 0.372542
O O2 0.655109 0.500000 0.358409
O O3 0.706601 0.723749 0.302723
O O4 0.771014 0.721463 0.401912
O O5 0.500000 0.163228 0.848670
O O6 0.268197 0.235778 0.797622
O O7 0.269809 0.238511 0.899381
O O8 0.271299 0.000000 0.849225
O O9 0.500000 0.720838 0.233816
O O10 0.333953 0.500000 0.244440
O O11 0.500000 0.346705 0.941955
O O12 0.269820 0.500000 0.933792
O O13 0.283682 0.283682 0.000000
O O14 0.245600 0.754401 0.500000
O O15 0.194665 0.500000 0.464803
O O16 0.000000 0.703370 0.457400
#
# Coordination Sequence:
#
# PCOD8309336 Si02
#       5
#     8   8   8   8   8
#     4   8  14  25  41  60  82 111 147 183 217 257
#     4   9  15  20  28  46  73 102 130 165 210 253
#     4   8  13  21  33  50  75 108 141 169 203 253
#     4   8  13  21  32  44  61  92 133 168 197 240
#     4  10  20  32  47  67  90 118 152 189 229 272
#
# _framework density 17.423072000000001
#
# number of rings (size 3 to 8) (size 9 to 14) (size 15 to 20)
#    0.000    3.400    0.000    3.000    0.000    4.400 
#    0.000    4.000    0.000    0.000    0.000    0.000 
#    0.000    2.000    0.000   12.400    0.000   13.000 
#
# Total GULP energy -495672.978020 kJ/mol
# GULP energy per Si atom -12391.824450 kJ/mol
# Density = 1.738342 g / cm^3
# Si number density = 17.423072 Si / 1000 Ang^3
#
#
#
# Elastic Constant Matrix: (Units=GPa)
#
#
# Indices 1 2 3 4 5 6 
#
# 1 63.2122 29.2427 65.7073 0.0000 0.0000 0.0000
# 2 29.2427 63.2140 65.7075 0.0000 0.0000 0.0000
# 3 65.7073 65.7075 193.0057 0.0000 0.0000 0.0000
# 4 0.0000 0.0000 0.0000 2.3423 0.0000 0.0000
# 5 0.0000 0.0000 0.0000 0.0000 2.3428 0.0000
# 6 0.0000 0.0000 0.0000 0.0000 0.0000 8.2281
#
#
#
# Elastic Compliance Matrix: (Units=1/GPa)
#
#
# Indices 1 2 3 4 5 6 
#
# 1 0.025198 -0.004240 -0.007135 0.000000 0.000000 0.000000
# 2 -0.004240 0.025197 -0.007135 0.000000 0.000000 0.000000
# 3 -0.007135 -0.007135 0.010039 0.000000 0.000000 0.000000
# 4 0.000000 0.000000 0.000000 0.426924 0.000000 0.000000
# 5 0.000000 0.000000 0.000000 0.000000 0.426844 0.000000
# 6 0.000000 0.000000 0.000000 0.000000 0.000000 0.121535
#
#
# Mechanical properties :
#
#
# Convention : Reuss Voigt Hill
#
# Bulk Modulus (GPa) = 42.70855 71.19411 56.95133
# Shear Modulus (GPa) = 4.62723 13.16760 8.89741
#
# Velocity S-wave (km/s) = 1.63143 2.75208 2.26225
# Velocity P-wave (km/s) = 5.30232 7.14488 6.29142
#
# Compressibility (1/GPa) = 0.02341451
#
# Stress axis : x y z
#
# Youngs Moduli (GPa) = 39.68606 39.68764 99.61053
#
# Poissons Ratio (x) = 0.16828 0.71071
# Poissons Ratio (y) = 0.16828 0.71067
# Poissons Ratio (z) = 0.28315 0.28315
#
# Static dielectric constant tensor:
#      x y z
#    x 2.893770 0.000000 0.000000 
#    y 0.000000 2.893780 0.000000 
#    z 0.000000 0.000000 3.793440 
# 
# 
# High freq. dielectric constant tensor:
#      x y z
#    x 1.622470 0.000000 0.000000 
#    y 0.000000 1.622470 0.000000 
#    z 0.000000 0.000000 1.696380 
# 
# From -- ./inp_files/5437.got.cif
#   From: 2010.03.12/outbox.cif.g09.slc.cpg/sg115_3_cif.got.tgz:5437.got - 2010.04.14 02:11:21.
