data_PCOD8309145
_publ_section_title
;
Structure prediction by ZEFSAII (Michael W. Deem and Ramdas Pophale) SiO2 
 PCOD8309145
Probable space group: P -4 21 C
;
_chemical_formula_sum "Si O2"
_cell_formula_units_Z 34
_cell_length_a 8.868679
_cell_length_b 8.868679
_cell_length_c 18.287016
_cell_angle_alpha 90.000000
_cell_angle_beta 90.000000
_cell_angle_gamma 90.000000
_cell_volume 1438.337213
_symmetry_space_group_name_H-M "P -4 21 C"
_symmetry_group_IT_number 114
_symmetry_cell_setting 'tetragonal'
loop_
_space_group_symop_operation_xyz
x,y,z
y,-x,-z
-x,-y,z
-y,x,-z
1/2+x,1/2-y,1/2-z
1/2-x,1/2+y,1/2-z
1/2-y,1/2-x,1/2+z
1/2+y,1/2+x,1/2+z
loop_
_atom_site_type_symbol
_atom_site_label
_atom_site_fract_x
_atom_site_fract_y
_atom_site_fract_z
Si Si1 0.500000 0.500000 0.000000
Si Si2 0.917297 0.648641 0.173936
Si Si3 0.793324 0.738102 0.531479
Si Si4 0.483708 0.828630 0.595187
Si Si5 0.366885 0.399999 0.270324
O O1 0.617473 0.599724 0.046787
O O2 0.890535 0.654379 0.087441
O O3 0.754009 0.665469 0.213064
O O4 0.000000 0.500000 0.199185
O O5 0.041782 0.768715 0.192737
O O6 0.620418 0.784443 0.542233
O O7 0.810204 0.672664 0.449456
O O8 0.490345 0.720537 0.665733
O O9 0.500000 0.000000 0.623011
O O10 0.500000 0.500000 0.232371
#
# Coordination Sequence:
#
# PCOD8309145 Si02
#       5
#     2   8   8   8   8
#     4  12  28  44  72 112 144 188 236 314 368 424
#     4  12  28  46  75 107 148 193 248 303 366 438
#     4  12  27  47  74 107 146 191 245 302 371 443
#     4  12  26  47  75 105 150 191 246 304 373 447
#     4  12  27  49  73 109 145 201 245 304 372 440
#
# _framework density 23.638406
#
# number of rings (size 3 to 8) (size 9 to 14) (size 15 to 20)
#    0.000    0.000    4.706    4.235    8.235    0.000 
#    0.000    0.000    0.000    0.000    0.000    0.000 
#    0.000    0.000    0.000    0.000    0.000    0.000 
#
# Total GULP energy -421590.223676 kJ/mol
# GULP energy per Si atom -12399.712461 kJ/mol
# Density = 2.358460 g / cm^3
# Si number density = 23.638406 Si / 1000 Ang^3
#
#
#
# Elastic Constant Matrix: (Units=GPa)
#
#
# Indices 1 2 3 4 5 6 
#
# 1 123.7219 42.2710 12.4006 0.0000 0.0000 0.0000
# 2 42.2710 123.7219 12.4006 0.0000 0.0000 0.0000
# 3 12.4006 12.4006 60.2214 0.0000 0.0000 0.0000
# 4 0.0000 0.0000 0.0000 20.5086 0.0000 0.0000
# 5 0.0000 0.0000 0.0000 0.0000 20.5086 0.0000
# 6 0.0000 0.0000 0.0000 0.0000 0.0000 59.9242
#
#
#
# Elastic Compliance Matrix: (Units=1/GPa)
#
#
# Indices 1 2 3 4 5 6 
#
# 1 0.009246 -0.003031 -0.001280 0.000000 0.000000 0.000000
# 2 -0.003031 0.009246 -0.001280 0.000000 0.000000 0.000000
# 3 -0.001280 -0.001280 0.017133 0.000000 0.000000 0.000000
# 4 0.000000 0.000000 0.000000 0.048760 0.000000 0.000000
# 5 0.000000 0.000000 0.000000 0.000000 0.048760 0.000000
# 6 0.000000 0.000000 0.000000 0.000000 0.000000 0.016688
#
#
# Mechanical properties :
#
#
# Convention : Reuss Voigt Hill
#
# Bulk Modulus (GPa) = 40.90968 49.08997 44.99983
# Shear Modulus (GPa) = 29.55736 36.22781 32.89259
#
# Velocity S-wave (km/s) = 3.53993 3.91907 3.73431
# Velocity P-wave (km/s) = 5.83542 6.42580 6.13771
#
# Compressibility (1/GPa) = 0.02444409
#
# Stress axis : x y z
#
# Youngs Moduli (GPa) = 108.14956 108.14956 58.36856
#
# Poissons Ratio (x) = 0.32779 0.07471
# Poissons Ratio (y) = 0.32779 0.07471
# Poissons Ratio (z) = 0.13842 0.13842
#
# Static dielectric constant tensor:
#      x y z
#    x 4.249690 0.000000 0.000000 
#    y 0.000000 4.249690 0.000000 
#    z 0.000000 0.000000 3.937690 
# 
# 
# High freq. dielectric constant tensor:
#      x y z
#    x 1.957070 0.000000 0.000000 
#    y 0.000000 1.957070 0.000000 
#    z 0.000000 0.000000 1.916900 
# 
# From -- ./inp_files/2945.got.cif
#   From: 2010.03.12/outbox.cif.g09.slc.cpg/sg114_2_cif.got.tgz:2945.got - 2010.04.14 02:08:34.
