data_PCOD8309338
_publ_section_title
;
Structure prediction by ZEFSAII (Michael W. Deem and Ramdas Pophale) SiO2 
 PCOD8309338
Probable space group: P -4 M 2
;
_chemical_formula_sum "Si O2"
_cell_formula_units_Z 64
_cell_length_a 14.139554
_cell_length_b 14.139554
_cell_length_c 18.253890
_cell_angle_alpha 90.000000
_cell_angle_beta 90.000000
_cell_angle_gamma 90.000000
_cell_volume 3649.445235
_symmetry_space_group_name_H-M "P -4 M 2"
_symmetry_group_IT_number 115
_symmetry_cell_setting 'tetragonal'
loop_
_space_group_symop_operation_xyz
x,y,z
y,-x,-z
-x,-y,z
-y,x,-z
y,x,-z
-y,-x,-z
-x,y,z
x,-y,z
loop_
_atom_site_type_symbol
_atom_site_label
_atom_site_fract_x
_atom_site_fract_y
_atom_site_fract_z
Si Si1 0.390001 0.786373 0.935772
Si Si2 0.735166 0.889102 0.504222
Si Si3 0.612874 0.892381 0.076457
Si Si4 0.394485 0.887312 0.636073
Si Si5 0.208269 0.390120 0.779670
Si Si6 0.109383 0.390866 0.636022
Si Si7 0.606696 0.606177 0.857502
Si Si8 0.895110 0.612619 0.203746
O O1 0.500000 0.812294 0.938080
O O2 0.373454 0.673501 0.927508
O O3 0.345626 0.831204 0.861585
O O4 0.344025 0.830272 0.009114
O O5 0.833825 0.833825 0.500000
O O6 0.677914 0.851166 0.574746
O O7 0.670689 0.866343 0.434476
O O8 0.758858 0.000000 0.509913
O O9 0.500000 0.886443 0.076708
O O10 0.654485 0.848179 0.151249
O O11 0.647746 0.000000 0.067952
O O12 0.500000 0.846726 0.620385
O O13 0.356807 0.854630 0.716431
O O14 0.400316 0.000000 0.634729
O O15 0.182572 0.500000 0.776941
O O16 0.172044 0.347879 0.702812
O O17 0.320871 0.373579 0.790823
O O18 0.134488 0.500000 0.618264
O O19 0.000000 0.381438 0.658578
O O20 0.500000 0.621752 0.826949
O O21 0.622001 0.500000 0.887783
O O22 0.897688 0.500000 0.202206
O O23 0.000000 0.653763 0.191799
#
# Coordination Sequence:
#
# PCOD8309338 Si02
#       8
#     8   8   8   8   8   8   8   8
#     4   9  16  25  38  57  82 115 152 184 217 257
#     4  10  20  32  47  68  93 120 148 178 218 271
#     4   9  16  26  41  61  84 108 139 185 237 281
#     4   8  14  26  44  65  88 112 141 182 229 271
#     4   9  17  29  45  65  88 116 151 190 233 274
#     4   9  17  31  52  74  93 114 146 192 241 283
#     4   9  18  31  43  57  84 123 164 197 219 252
#     4   8  13  22  38  60  84 108 135 171 217 267
#
# _framework density 17.536909999999999
#
# number of rings (size 3 to 8) (size 9 to 14) (size 15 to 20)
#    0.000    3.125    0.000    1.875    0.000    6.125 
#    0.000    1.875    0.000    6.000    0.000    0.000 
#    0.000    2.250    0.000    0.750    0.000    7.625 
#
# Total GULP energy -793103.517102 kJ/mol
# GULP energy per Si atom -12392.242455 kJ/mol
# Density = 1.749700 g / cm^3
# Si number density = 17.536910 Si / 1000 Ang^3
#
#
#
# Elastic Constant Matrix: (Units=GPa)
#
#
# Indices 1 2 3 4 5 6 
#
# 1 64.6633 22.7583 38.1545 0.0000 0.0000 0.0000
# 2 22.7583 64.6633 38.1545 0.0000 0.0000 0.0000
# 3 38.1545 38.1545 133.6665 0.0000 0.0000 0.0000
# 4 0.0000 0.0000 0.0000 13.2931 0.0000 0.0000
# 5 0.0000 0.0000 0.0000 0.0000 13.2931 0.0000
# 6 0.0000 0.0000 0.0000 0.0000 0.0000 13.0539
#
#
#
# Elastic Compliance Matrix: (Units=1/GPa)
#
#
# Indices 1 2 3 4 5 6 
#
# 1 0.019549 -0.004314 -0.004349 0.000000 0.000000 0.000000
# 2 -0.004314 0.019549 -0.004349 0.000000 0.000000 0.000000
# 3 -0.004349 -0.004349 0.009964 0.000000 0.000000 0.000000
# 4 0.000000 0.000000 0.000000 0.075227 0.000000 0.000000
# 5 0.000000 0.000000 0.000000 0.000000 0.075227 0.000000
# 6 0.000000 0.000000 0.000000 0.000000 0.000000 0.076606
#
#
# Mechanical properties :
#
#
# Convention : Reuss Voigt Hill
#
# Bulk Modulus (GPa) = 43.40535 51.23642 47.32088
# Shear Modulus (GPa) = 16.13814 18.85639 17.49727
#
# Velocity S-wave (km/s) = 3.03683 3.28264 3.16213
# Velocity P-wave (km/s) = 6.09106 6.60662 6.35407
#
# Compressibility (1/GPa) = 0.02303864
#
# Stress axis : x y z
#
# Youngs Moduli (GPa) = 51.15320 51.15320 100.36207
#
# Poissons Ratio (x) = 0.22070 0.43644
# Poissons Ratio (y) = 0.22070 0.43644
# Poissons Ratio (z) = 0.22245 0.22245
#
# Static dielectric constant tensor:
#      x y z
#    x 3.028550 0.000000 0.000000 
#    y 0.000000 3.028550 0.000000 
#    z 0.000000 0.000000 3.558950 
# 
# 
# High freq. dielectric constant tensor:
#      x y z
#    x 1.643370 0.000000 0.000000 
#    y 0.000000 1.643370 0.000000 
#    z 0.000000 0.000000 1.686580 
# 
# From -- ./inp_files/4463.got.cif
#   From: 2010.03.12/outbox.cif.g09.slc.cpg/sg115_3_cif.got.tgz:4463.got - 2010.04.14 02:11:21.
