data_PCOD8309480
_publ_section_title
;
Structure prediction by ZEFSAII (Michael W. Deem and Ramdas Pophale) SiO2 
 PCOD8309480
Probable space group: P -4 M 2
;
_chemical_formula_sum "Si O2"
_cell_formula_units_Z 48
_cell_length_a 9.305461
_cell_length_b 9.305461
_cell_length_c 31.039712
_cell_angle_alpha 90.000000
_cell_angle_beta 90.000000
_cell_angle_gamma 90.000000
_cell_volume 2687.778463
_symmetry_space_group_name_H-M "P -4 M 2"
_symmetry_group_IT_number 115
_symmetry_cell_setting 'tetragonal'
loop_
_space_group_symop_operation_xyz
x,y,z
y,-x,-z
-x,-y,z
-y,x,-z
y,x,-z
-y,-x,-z
-x,y,z
x,-y,z
loop_
_atom_site_type_symbol
_atom_site_label
_atom_site_fract_x
_atom_site_fract_y
_atom_site_fract_z
Si Si1 0.335017 0.332728 0.211843
Si Si2 0.833551 0.667167 0.871865
Si Si3 0.839874 0.171451 0.046851
Si Si4 0.665000 0.829493 0.371129
Si Si5 0.160077 0.170671 0.452771
Si Si6 0.167715 0.332318 0.297007
O O1 0.500000 0.290955 0.222340
O O2 0.320123 0.500000 0.201777
O O3 0.276497 0.248733 0.170245
O O4 0.236595 0.286124 0.251707
O O5 0.806641 0.500000 0.878361
O O6 0.769125 0.742307 0.914429
O O7 0.000000 0.705118 0.865512
O O8 0.000000 0.232030 0.054258
O O9 0.841804 0.000000 0.046613
O O10 0.778646 0.221355 0.000000
O O11 0.500000 0.779341 0.368574
O O12 0.730227 0.774147 0.416441
O O13 0.755355 0.758444 0.333500
O O14 0.678813 0.000000 0.366745
O O15 0.218366 0.218366 0.500000
O O16 0.000000 0.233857 0.443759
O O17 0.150641 0.000000 0.452471
O O18 0.194294 0.500000 0.306056
O O19 0.000000 0.293924 0.296186
#
# Coordination Sequence:
#
# PCOD8309480 Si02
#       6
#     8   8   8   8   8   8
#     4   9  18  33  50  66  90 125 157 187 233 290
#     4   9  17  29  46  68  92 117 149 190 231 272
#     4   8  14  26  44  64  87 117 150 182 221 271
#     4  10  20  33  51  76 104 133 165 201 242 289
#     4   8  14  27  48  71  96 129 166 202 241 283
#     4  10  21  36  53  73  97 127 164 204 246 292
#
# _framework density 17.858612999999998
#
# number of rings (size 3 to 8) (size 9 to 14) (size 15 to 20)
#    0.000    3.000    0.000    2.000    0.000    3.333 
#    0.000    3.333    0.000    4.000    0.000    0.000 
#    0.000    0.000    0.000    0.000    0.000    0.000 
#
# Total GULP energy -595067.840404 kJ/mol
# GULP energy per Si atom -12397.246675 kJ/mol
# Density = 1.781797 g / cm^3
# Si number density = 17.858613 Si / 1000 Ang^3
#
#
#
# Elastic Constant Matrix: (Units=GPa)
#
#
# Indices 1 2 3 4 5 6 
#
# 1 63.5183 32.8589 68.1519 0.0000 0.0000 0.0000
# 2 32.8589 63.5182 68.1519 0.0000 0.0000 0.0000
# 3 68.1519 68.1519 190.5917 0.0000 0.0000 0.0000
# 4 0.0000 0.0000 0.0000 0.7280 0.0000 0.0000
# 5 0.0000 0.0000 0.0000 0.0000 0.7276 0.0000
# 6 0.0000 0.0000 0.0000 0.0000 0.0000 19.1804
#
#
#
# Elastic Compliance Matrix: (Units=1/GPa)
#
#
# Indices 1 2 3 4 5 6 
#
# 1 0.026804 -0.005812 -0.007506 0.000000 0.000000 0.000000
# 2 -0.005812 0.026804 -0.007506 0.000000 0.000000 0.000000
# 3 -0.007506 -0.007506 0.010615 0.000000 0.000000 0.000000
# 4 0.000000 0.000000 0.000000 1.373670 0.000000 0.000000
# 5 0.000000 0.000000 0.000000 0.000000 1.374328 0.000000
# 6 0.000000 0.000000 0.000000 0.000000 0.000000 0.052136
#
#
# Mechanical properties :
#
#
# Convention : Reuss Voigt Hill
#
# Bulk Modulus (GPa) = 44.29954 72.88373 58.59163
# Shear Modulus (GPa) = 1.71613 14.02490 7.87052
#
# Velocity S-wave (km/s) = 0.98135 2.80541 2.10159
# Velocity P-wave (km/s) = 5.11308 7.16896 6.22646
#
# Compressibility (1/GPa) = 0.02257360
#
# Stress axis : x y z
#
# Youngs Moduli (GPa) = 37.30766 37.30755 94.20623
#
# Poissons Ratio (x) = 0.21684 0.70714
# Poissons Ratio (y) = 0.21685 0.70714
# Poissons Ratio (z) = 0.28004 0.28004
#
# Static dielectric constant tensor:
#      x y z
#    x 3.221680 0.000000 0.000000 
#    y 0.000000 3.221680 0.000000 
#    z 0.000000 0.000000 3.717260 
# 
# 
# High freq. dielectric constant tensor:
#      x y z
#    x 1.669010 0.000000 0.000000 
#    y 0.000000 1.669010 0.000000 
#    z 0.000000 0.000000 1.708260 
# 
# From -- ./inp_files/6116.got.cif
#   From: 2010.03.12/outbox.cif.g09.slc.cpg/sg115_4_cif.got.tgz:6116.got - 2010.04.14 02:11:21.
