data_PCOD8309934
_publ_section_title
;
Structure prediction by ZEFSAII (Michael W. Deem and Ramdas Pophale) SiO2 
 PCOD8309934
Probable space group: P -4 M 2
;
_chemical_formula_sum "Si O2"
_cell_formula_units_Z 40
_cell_length_a 8.998831
_cell_length_b 8.998831
_cell_length_c 25.345481
_cell_angle_alpha 90.000000
_cell_angle_beta 90.000000
_cell_angle_gamma 90.000000
_cell_volume 2052.450676
_symmetry_space_group_name_H-M "P -4 M 2"
_symmetry_group_IT_number 115
_symmetry_cell_setting 'tetragonal'
loop_
_space_group_symop_operation_xyz
x,y,z
y,-x,-z
-x,-y,z
-y,x,-z
y,x,-z
-y,-x,-z
-x,y,z
x,-y,z
loop_
_atom_site_type_symbol
_atom_site_label
_atom_site_fract_x
_atom_site_fract_y
_atom_site_fract_z
Si Si1 0.329295 0.325402 0.347315
Si Si2 0.829352 0.828285 0.439191
Si Si3 0.674288 0.671015 0.154996
Si Si4 0.670246 0.825930 0.952599
Si Si5 0.829435 0.174592 0.250992
O O1 0.500000 0.279862 0.338132
O O2 0.307627 0.500000 0.342159
O O3 0.278847 0.274030 0.405105
O O4 0.227077 0.247365 0.304437
O O5 0.794321 0.794321 0.500000
O O6 0.000000 0.789416 0.426150
O O7 0.798069 0.000000 0.426074
O O8 0.500000 0.694897 0.149792
O O9 0.715124 0.500000 0.166760
O O10 0.748038 0.725404 0.100778
O O11 0.733740 0.770736 0.201983
O O12 0.500000 0.782405 0.964868
O O13 0.690385 0.000000 0.944955
O O14 0.772514 0.772514 0.000000
O O15 0.000000 0.220169 0.241994
O O16 0.809881 0.000000 0.256644
#
# Coordination Sequence:
#
# PCOD8309934 Si02
#       5
#     8   8   8   8   8
#     4  11  24  39  56  82 115 149 187 231 278 330
#     4   9  19  37  60  85 113 146 186 231 278 330
#     4  10  21  38  61  87 114 146 186 231 279 333
#     4  10  21  37  58  84 114 150 190 231 278 330
#     4  11  24  40  59  84 113 146 186 231 279 333
#
# _framework density 19.488897000000001
#
# number of rings (size 3 to 8) (size 9 to 14) (size 15 to 20)
#    0.000    1.800    0.000    4.200    0.000   12.400 
#    0.000    3.000    0.000    0.000    0.000    0.000 
#    0.000    0.000    0.000    0.000    0.000    0.000 
#
# Total GULP energy -496241.611275 kJ/mol
# GULP energy per Si atom -12406.040282 kJ/mol
# Density = 1.944454 g / cm^3
# Si number density = 19.488897 Si / 1000 Ang^3
#
#
#
# Elastic Constant Matrix: (Units=GPa)
#
#
# Indices 1 2 3 4 5 6 
#
# 1 73.8303 44.0744 44.5987 0.0000 0.0000 0.0000
# 2 44.0744 73.8303 44.5987 0.0000 0.0000 0.0000
# 3 44.5987 44.5987 117.7850 0.0000 0.0000 0.0000
# 4 0.0000 0.0000 0.0000 40.2341 0.0000 0.0000
# 5 0.0000 0.0000 0.0000 0.0000 40.2341 0.0000
# 6 0.0000 0.0000 0.0000 0.0000 0.0000 33.6873
#
#
#
# Elastic Compliance Matrix: (Units=1/GPa)
#
#
# Indices 1 2 3 4 5 6 
#
# 1 0.022747 -0.010860 -0.004501 0.000000 0.000000 0.000000
# 2 -0.010860 0.022747 -0.004501 0.000000 0.000000 0.000000
# 3 -0.004501 -0.004501 0.011898 0.000000 0.000000 0.000000
# 4 0.000000 0.000000 0.000000 0.024855 0.000000 0.000000
# 5 0.000000 0.000000 0.000000 0.000000 0.024855 0.000000
# 6 0.000000 0.000000 0.000000 0.000000 0.000000 0.029685
#
#
# Mechanical properties :
#
#
# Convention : Reuss Voigt Hill
#
# Bulk Modulus (GPa) = 56.59885 59.10993 57.85439
# Shear Modulus (GPa) = 27.41258 31.64268 29.52763
#
# Velocity S-wave (km/s) = 3.75450 4.03380 3.89665
# Velocity P-wave (km/s) = 6.92096 7.21743 7.07075
#
# Compressibility (1/GPa) = 0.01766820
#
# Stress axis : x y z
#
# Youngs Moduli (GPa) = 43.96271 43.96271 84.04514
#
# Poissons Ratio (x) = 0.47745 0.37826
# Poissons Ratio (y) = 0.47745 0.37826
# Poissons Ratio (z) = 0.19786 0.19786
#
# Static dielectric constant tensor:
#      x y z
#    x 3.555140 0.000000 0.000000 
#    y 0.000000 3.555140 0.000000 
#    z 0.000000 0.000000 3.673140 
# 
# 
# High freq. dielectric constant tensor:
#      x y z
#    x 1.762910 0.000000 0.000000 
#    y 0.000000 1.762910 0.000000 
#    z 0.000000 0.000000 1.773020 
# 
# From -- ./inp_files/5074.got.cif
#   From: 2010.03.12/outbox.cif.g09.slc.cpg/sg115_3_cif.got.tgz:5074.got - 2010.04.14 02:11:21.
