data_PCOD8309637
_publ_section_title
;
Structure prediction by ZEFSAII (Michael W. Deem and Ramdas Pophale) SiO2 
 PCOD8309637
Probable space group: P -4 M 2
;
_chemical_formula_sum "Si O2"
_cell_formula_units_Z 44
_cell_length_a 9.278817
_cell_length_b 9.278817
_cell_length_c 28.249809
_cell_angle_alpha 90.000000
_cell_angle_beta 90.000000
_cell_angle_gamma 90.000000
_cell_volume 2432.208125
_symmetry_space_group_name_H-M "P -4 M 2"
_symmetry_group_IT_number 115
_symmetry_cell_setting 'tetragonal'
loop_
_space_group_symop_operation_xyz
x,y,z
y,-x,-z
-x,-y,z
-y,x,-z
y,x,-z
-y,-x,-z
-x,y,z
x,-y,z
loop_
_atom_site_type_symbol
_atom_site_label
_atom_site_fract_x
_atom_site_fract_y
_atom_site_fract_z
Si Si1 0.169758 0.169758 0.500000
Si Si2 0.338288 0.170374 0.144073
Si Si3 0.329330 0.840381 0.673765
Si Si4 0.331859 0.330500 0.417042
Si Si5 0.329558 0.838820 0.038754
Si Si6 0.338453 0.170258 0.777902
O O1 0.243065 0.238655 0.454354
O O2 0.000000 0.201963 0.498799
O O3 0.500000 0.227867 0.152827
O O4 0.285142 0.214211 0.091384
O O5 0.233630 0.236608 0.182438
O O6 0.334538 0.000000 0.149028
O O7 0.500000 0.852424 0.676071
O O8 0.281614 0.724698 0.634524
O O9 0.276492 0.788476 0.725693
O O10 0.266839 0.000000 0.661404
O O11 0.500000 0.292851 0.420906
O O12 0.304818 0.500000 0.426210
O O13 0.500000 0.837668 0.034490
O O14 0.270545 0.000000 0.029729
O O15 0.266922 0.733079 0.000000
O O16 0.500000 0.231629 0.784593
O O17 0.339240 0.000000 0.783230
#
# Coordination Sequence:
#
# PCOD8309637 Si02
#       6
#     4   8   8   8   8   8
#     4  11  24  39  54  74 102 137 174 209 248 296
#     4   9  19  35  51  69  98 134 168 203 247 298
#     4   8  15  30  51  74 103 137 168 202 247 294
#     4  10  20  34  55  82 106 130 166 209 251 298
#     4   9  19  35  52  71  97 128 163 205 251 299
#     4   9  18  32  51  77 105 132 167 208 247 292
#
# _framework density 18.090555999999999
#
# number of rings (size 3 to 8) (size 9 to 14) (size 15 to 20)
#    0.000    2.818    0.000    3.273    0.000    6.182 
#    0.000    8.182    0.000    1.091    0.000    0.000 
#    0.000    0.000    0.000    0.000    0.000    0.000 
#
# Total GULP energy -545439.880573 kJ/mol
# GULP energy per Si atom -12396.360922 kJ/mol
# Density = 1.804938 g / cm^3
# Si number density = 18.090556 Si / 1000 Ang^3
#
#
#
# Elastic Constant Matrix: (Units=GPa)
#
#
# Indices 1 2 3 4 5 6 
#
# 1 59.6231 37.8132 61.9073 0.0000 0.0000 0.0000
# 2 37.8132 59.6246 61.9082 0.0000 0.0000 0.0000
# 3 61.9073 61.9082 165.0801 0.0000 0.0000 0.0000
# 4 0.0000 0.0000 0.0000 39.5231 0.0000 0.0000
# 5 0.0000 0.0000 0.0000 0.0000 39.5238 0.0000
# 6 0.0000 0.0000 0.0000 0.0000 0.0000 28.4638
#
#
#
# Elastic Compliance Matrix: (Units=1/GPa)
#
#
# Indices 1 2 3 4 5 6 
#
# 1 0.032728 -0.013121 -0.007353 0.000000 0.000000 0.000000
# 2 -0.013121 0.032727 -0.007353 0.000000 0.000000 0.000000
# 3 -0.007353 -0.007353 0.011572 0.000000 0.000000 0.000000
# 4 0.000000 0.000000 0.000000 0.025302 0.000000 0.000000
# 5 0.000000 0.000000 0.000000 0.000000 0.025301 0.000000
# 6 0.000000 0.000000 0.000000 0.000000 0.000000 0.035132
#
#
# Mechanical properties :
#
#
# Convention : Reuss Voigt Hill
#
# Bulk Modulus (GPa) = 46.78531 67.50947 57.14739
# Shear Modulus (GPa) = 22.16887 29.68207 25.92547
#
# Velocity S-wave (km/s) = 3.50442 4.05501 3.78973
# Velocity P-wave (km/s) = 6.50327 7.70212 7.12795
#
# Compressibility (1/GPa) = 0.02137423
#
# Stress axis : x y z
#
# Youngs Moduli (GPa) = 30.55479 30.55548 86.41248
#
# Poissons Ratio (x) = 0.40093 0.63536
# Poissons Ratio (y) = 0.40092 0.63536
# Poissons Ratio (z) = 0.22466 0.22466
#
# Static dielectric constant tensor:
#      x y z
#    x 3.196900 0.000000 0.000000 
#    y 0.000000 3.196910 0.000000 
#    z 0.000000 0.000000 3.661250 
# 
# 
# High freq. dielectric constant tensor:
#      x y z
#    x 1.686010 0.000000 0.000000 
#    y 0.000000 1.686010 0.000000 
#    z 0.000000 0.000000 1.717080 
# 
# From -- ./inp_files/5765.got.cif
#   From: 2010.03.12/outbox.cif.g09.slc.cpg/sg115_3_cif.got.tgz:5765.got - 2010.04.14 02:11:21.
