data_PCOD8309456
_publ_section_title
;
Structure prediction by ZEFSAII (Michael W. Deem and Ramdas Pophale) SiO2 
 PCOD8309456
Probable space group: P -4 M 2
;
_chemical_formula_sum "Si O2"
_cell_formula_units_Z 64
_cell_length_a 14.690480
_cell_length_b 14.690480
_cell_length_c 16.707397
_cell_angle_alpha 90.000000
_cell_angle_beta 90.000000
_cell_angle_gamma 90.000000
_cell_volume 3605.626732
_symmetry_space_group_name_H-M "P -4 M 2"
_symmetry_group_IT_number 115
_symmetry_cell_setting 'tetragonal'
loop_
_space_group_symop_operation_xyz
x,y,z
y,-x,-z
-x,-y,z
-y,x,-z
y,x,-z
-y,-x,-z
-x,y,z
x,-y,z
loop_
_atom_site_type_symbol
_atom_site_label
_atom_site_fract_x
_atom_site_fract_y
_atom_site_fract_z
Si Si1 0.600012 0.799448 0.889713
Si Si2 0.237475 0.102516 0.614645
Si Si3 0.898153 0.753681 0.196862
Si Si4 0.398533 0.107013 0.501740
Si Si5 0.262562 0.893866 0.367747
Si Si6 0.401409 0.369909 0.092366
Si Si7 0.165368 0.398431 0.930527
Si Si8 0.897842 0.751960 0.813971
O O1 0.500000 0.840849 0.882677
O O2 0.659151 0.853544 0.827084
O O3 0.593593 0.691294 0.867463
O O4 0.638087 0.820019 0.978944
O O5 0.249578 0.098753 0.708704
O O6 0.331662 0.136982 0.574124
O O7 0.157530 0.174360 0.595816
O O8 0.212498 0.000000 0.583282
O O9 0.836582 0.834784 0.161054
O O10 0.000000 0.764393 0.161516
O O11 0.500000 0.152072 0.509163
O O12 0.351847 0.136072 0.417611
O O13 0.411443 0.000000 0.504305
O O14 0.282495 0.869681 0.274877
O O15 0.241759 0.000000 0.379589
O O16 0.500000 0.408653 0.124654
O O17 0.402565 0.263333 0.109895
O O18 0.396179 0.396179 0.000000
O O19 0.121094 0.500000 0.929588
O O20 0.105599 0.329151 0.878610
O O21 0.000000 0.789857 0.812221
#
# Coordination Sequence:
#
# PCOD8309456 Si02
#       8
#     8   8   8   8   8   8   8   8
#     4  10  20  33  51  74  98 127 164 204 251 304
#     4   9  18  32  51  73  98 129 162 199 244 291
#     4  10  21  36  51  69  97 130 167 213 253 287
#     4   9  17  30  48  71 100 130 158 188 225 276
#     4   9  18  31  49  75 102 127 159 199 243 291
#     4   9  16  28  48  73  99 124 153 194 247 306
#     4   9  18  32  50  72  99 130 162 199 248 305
#     4  10  20  34  52  72  97 130 166 205 250 298
#
# _framework density 17.750036000000001
#
# number of rings (size 3 to 8) (size 9 to 14) (size 15 to 20)
#    0.000    2.625    1.250    1.500    0.000    3.375 
#    0.000    6.250    0.000    2.250    0.000    1.750 
#    0.000    4.000    0.000    0.000    0.000    0.000 
#
# Total GULP energy -792935.213382 kJ/mol
# GULP energy per Si atom -12389.612709 kJ/mol
# Density = 1.770964 g / cm^3
# Si number density = 17.750036 Si / 1000 Ang^3
#
#
#
# Elastic Constant Matrix: (Units=GPa)
#
#
# Indices 1 2 3 4 5 6 
#
# 1 94.3963 40.0619 20.7522 0.0000 0.0000 0.0000
# 2 40.0619 94.3963 20.7522 0.0000 0.0000 0.0000
# 3 20.7522 20.7522 17.2558 0.0000 0.0000 0.0000
# 4 0.0000 0.0000 0.0000 21.5512 0.0000 0.0000
# 5 0.0000 0.0000 0.0000 0.0000 21.5512 0.0000
# 6 0.0000 0.0000 0.0000 0.0000 0.0000 2.6177
#
#
#
# Elastic Compliance Matrix: (Units=1/GPa)
#
#
# Indices 1 2 3 4 5 6 
#
# 1 0.015116 -0.003288 -0.014225 0.000000 0.000000 0.000000
# 2 -0.003288 0.015116 -0.014225 0.000000 0.000000 0.000000
# 3 -0.014225 -0.014225 0.092166 0.000000 0.000000 0.000000
# 4 0.000000 0.000000 0.000000 0.046401 0.000000 0.000000
# 5 0.000000 0.000000 0.000000 0.000000 0.046401 0.000000
# 6 0.000000 0.000000 0.000000 0.000000 0.000000 0.382016
#
#
# Mechanical properties :
#
#
# Convention : Reuss Voigt Hill
#
# Bulk Modulus (GPa) = 16.97138 41.02012 28.99575
# Shear Modulus (GPa) = 7.34934 17.44283 12.39609
#
# Velocity S-wave (km/s) = 2.03702 3.13819 2.64554
# Velocity P-wave (km/s) = 3.88776 6.02421 5.06980
#
# Compressibility (1/GPa) = 0.05892274
#
# Stress axis : x y z
#
# Youngs Moduli (GPa) = 66.15352 66.15352 10.85003
#
# Poissons Ratio (x) = 0.21753 0.15434
# Poissons Ratio (y) = 0.21753 0.15434
# Poissons Ratio (z) = 0.94102 0.94102
#
# Static dielectric constant tensor:
#      x y z
#    x 3.455090 0.000000 0.000000 
#    y 0.000000 3.455090 0.000000 
#    z 0.000000 0.000000 3.126510 
# 
# 
# High freq. dielectric constant tensor:
#      x y z
#    x 1.680910 0.000000 0.000000 
#    y 0.000000 1.680910 0.000000 
#    z 0.000000 0.000000 1.663530 
# 
# From -- ./inp_files/4418.got.cif
#   From: 2010.03.12/outbox.cif.g09.slc.cpg/sg115_3_cif.got.tgz:4418.got - 2010.04.14 02:11:21.
