data_PCOD8309198
_publ_section_title
;
Structure prediction by ZEFSAII (Michael W. Deem and Ramdas Pophale) SiO2 
 PCOD8309198
Probable space group: P -4 M 2
;
_chemical_formula_sum "Si O2"
_cell_formula_units_Z 56
_cell_length_a 21.251669
_cell_length_b 21.251669
_cell_length_c 9.858100
_cell_angle_alpha 90.000000
_cell_angle_beta 90.000000
_cell_angle_gamma 90.000000
_cell_volume 4452.247568
_symmetry_space_group_name_H-M "P -4 M 2"
_symmetry_group_IT_number 115
_symmetry_cell_setting 'tetragonal'
loop_
_space_group_symop_operation_xyz
x,y,z
y,-x,-z
-x,-y,z
-y,x,-z
y,x,-z
-y,-x,-z
-x,y,z
x,-y,z
loop_
_atom_site_type_symbol
_atom_site_label
_atom_site_fract_x
_atom_site_fract_y
_atom_site_fract_z
Si Si1 0.685529 0.425945 0.774029
Si Si2 0.660239 0.428284 0.280154
Si Si3 0.246155 0.428492 0.033230
Si Si4 0.752788 0.426041 0.505031
Si Si5 0.425097 0.000000 0.080209
Si Si6 0.000000 0.574966 0.609131
Si Si7 0.575087 0.888572 0.888002
Si Si8 0.575036 0.112082 0.581312
O O1 0.674001 0.500000 0.784950
O O2 0.616312 0.398290 0.750651
O O3 0.735526 0.408305 0.658057
O O4 0.716712 0.396096 0.908920
O O5 0.635122 0.500000 0.297519
O O6 0.711607 0.424735 0.164235
O O7 0.695347 0.401699 0.412857
O O8 0.233072 0.500000 0.989007
O O9 0.178761 0.396665 0.064704
O O10 0.757728 0.500000 0.481223
O O11 0.820219 0.396693 0.464070
O O12 0.400272 0.060438 0.996540
O O13 0.500000 0.000000 0.083725
O O14 0.398991 0.000000 0.235326
O O15 0.939191 0.600099 0.526783
O O16 0.000000 0.500000 0.613459
O O17 0.500000 0.886370 0.885685
O O18 0.598250 0.904133 0.734455
O O19 0.500000 0.112901 0.577552
#
# Coordination Sequence:
#
# PCOD8309198 Si02
#       8
#     8   8   8   8   4   4   8   8
#     4  10  20  29  40  57  71  85 109 149 195 231
#     4  10  18  31  44  53  67  87 115 147 185 235
#     4   9  17  28  41  54  68  88 112 137 169 214
#     4   9  17  28  41  54  68  88 112 137 169 214
#     4   9  17  23  33  55  77  91 105 129 153 179
#     4   9  17  23  33  55  77  91 105 129 153 179
#     4   9  15  25  38  51  69  93 114 128 150 191
#     4   9  15  25  38  51  69  93 114 128 150 191
#
# _framework density 12.577916999999999
#
# number of rings (size 3 to 8) (size 9 to 14) (size 15 to 20)
#    0.000    2.714    1.429    1.286    2.000    2.000 
#    0.000    0.000    0.000    5.143    0.000    0.000 
#    0.000    0.000    0.000    0.000    0.000    0.000 
#
# Total GULP energy -694009.346387 kJ/mol
# GULP energy per Si atom -12393.024043 kJ/mol
# Density = 1.254929 g / cm^3
# Si number density = 12.577917 Si / 1000 Ang^3
#
#
#
# Elastic Constant Matrix: (Units=GPa)
#
#
# Indices 1 2 3 4 5 6 
#
# 1 43.5106 18.7943 21.6167 0.0000 0.0000 0.0000
# 2 18.7943 43.5106 21.6167 0.0000 0.0000 0.0000
# 3 21.6167 21.6167 58.9195 0.0000 0.0000 0.0000
# 4 0.0000 0.0000 0.0000 12.8718 0.0000 0.0000
# 5 0.0000 0.0000 0.0000 0.0000 12.8718 0.0000
# 6 0.0000 0.0000 0.0000 0.0000 0.0000 0.5460
#
#
#
# Elastic Compliance Matrix: (Units=1/GPa)
#
#
# Indices 1 2 3 4 5 6 
#
# 1 0.030995 -0.009464 -0.007900 0.000000 0.000000 0.000000
# 2 -0.009464 0.030995 -0.007900 0.000000 0.000000 0.000000
# 3 -0.007900 -0.007900 0.022769 0.000000 0.000000 0.000000
# 4 0.000000 0.000000 0.000000 0.077689 0.000000 0.000000
# 5 0.000000 0.000000 0.000000 0.000000 0.077689 0.000000
# 6 0.000000 0.000000 0.000000 0.000000 0.000000 1.831647
#
#
# Mechanical properties :
#
#
# Convention : Reuss Voigt Hill
#
# Bulk Modulus (GPa) = 29.21108 29.99955 29.60531
# Shear Modulus (GPa) = 2.34332 10.85213 6.59773
#
# Velocity S-wave (km/s) = 1.36642 2.94052 2.29279
# Velocity P-wave (km/s) = 5.07582 5.95245 5.53153
#
# Compressibility (1/GPa) = 0.03423359
#
# Stress axis : x y z
#
# Youngs Moduli (GPa) = 32.26279 32.26279 43.91970
#
# Poissons Ratio (x) = 0.30533 0.34695
# Poissons Ratio (y) = 0.30533 0.34695
# Poissons Ratio (z) = 0.25486 0.25486
#
# Static dielectric constant tensor:
#      x y z
#    x 2.370690 0.000000 0.000000 
#    y 0.000000 2.370690 0.000000 
#    z 0.000000 0.000000 2.847980 
# 
# 
# High freq. dielectric constant tensor:
#      x y z
#    x 1.433020 0.000000 0.000000 
#    y 0.000000 1.433020 0.000000 
#    z 0.000000 0.000000 1.503150 
# 
# From -- ./inp_files/2112.got.cif
#   From: 2010.03.12/outbox.cif.g09.slc.cpg/sg115_2_cif.got.tgz:2112.got - 2010.04.14 02:11:21.
