data_PCOD8309990
_publ_section_title
;
Structure prediction by ZEFSAII (Michael W. Deem and Ramdas Pophale) SiO2 
 PCOD8309990
Probable space group: P -4 M 2
;
_chemical_formula_sum "Si O2"
_cell_formula_units_Z 25
_cell_length_a 9.698119
_cell_length_b 9.698119
_cell_length_c 14.842666
_cell_angle_alpha 90.000000
_cell_angle_beta 90.000000
_cell_angle_gamma 90.000000
_cell_volume 1396.004867
_symmetry_space_group_name_H-M "P -4 M 2"
_symmetry_group_IT_number 115
_symmetry_cell_setting 'tetragonal'
loop_
_space_group_symop_operation_xyz
x,y,z
y,-x,-z
-x,-y,z
-y,x,-z
y,x,-z
-y,-x,-z
-x,y,z
x,-y,z
loop_
_atom_site_type_symbol
_atom_site_label
_atom_site_fract_x
_atom_site_fract_y
_atom_site_fract_z
Si Si1 0.000000 0.000000 0.000000
Si Si2 0.000000 0.500000 0.576758
Si Si3 0.653586 0.205668 0.730663
Si Si4 0.290932 0.000000 0.578877
Si Si5 0.500000 0.500000 0.500000
Si Si6 0.500000 0.711275 0.340126
Si Si7 0.000000 0.000000 0.500000
Si Si8 0.845700 0.000000 0.828064
O O1 0.862954 0.000000 0.936867
O O2 0.000000 0.637634 0.517624
O O3 0.872270 0.500000 0.643037
O O4 0.500000 0.177971 0.768731
O O5 0.665916 0.137011 0.632232
O O6 0.674456 0.368339 0.720507
O O7 0.764100 0.137300 0.798063
O O8 0.128272 0.000000 0.566925
O O9 0.500000 0.633492 0.436015
O O10 0.000000 0.000000 0.784102
#
# Coordination Sequence:
#
# PCOD8309990 Si02
#       8
#     1   2   8   4   1   4   1   4
#     4   8  20  42  68 104 116 138 180 244 304 378
#     4  12  22  34  48  78 114 154 210 270 300 322
#     4  11  21  39  59  83 114 161 198 235 291 370
#     4  11  21  36  47  74 105 156 205 253 294 347
#     4  12  20  40  52  84 120 186 196 280 288 348
#     4  12  24  34  58  82 121 158 218 252 301 328
#     4  12  24  30  48  64 108 142 204 264 312 298
#     4   9  21  38  71  86 123 139 185 233 302 367
#
# _framework density 17.908248
#
# number of rings (size 3 to 8) (size 9 to 14) (size 15 to 20)
#    0.480    0.640    3.200    5.280    6.720    0.000 
#    0.000    0.000    7.040    0.000    0.000    0.000 
#    0.000    0.000    0.000    0.000    0.000    0.000 
#
# Total GULP energy -309988.441213 kJ/mol
# GULP energy per Si atom -12399.537649 kJ/mol
# Density = 1.786749 g / cm^3
# Si number density = 17.908248 Si / 1000 Ang^3
#
#
#
# Elastic Constant Matrix: (Units=GPa)
#
#
# Indices 1 2 3 4 5 6 
#
# 1 162.2254 45.1433 43.7907 0.0000 0.0000 0.0000
# 2 45.1433 162.2254 43.7907 0.0000 0.0000 0.0000
# 3 43.7907 43.7907 75.3772 0.0000 0.0000 0.0000
# 4 0.0000 0.0000 0.0000 15.6480 0.0000 0.0000
# 5 0.0000 0.0000 0.0000 0.0000 15.6480 0.0000
# 6 0.0000 0.0000 0.0000 0.0000 0.0000 68.8216
#
#
#
# Elastic Compliance Matrix: (Units=1/GPa)
#
#
# Indices 1 2 3 4 5 6 
#
# 1 0.007466 -0.001075 -0.003712 0.000000 0.000000 0.000000
# 2 -0.001075 0.007466 -0.003712 0.000000 0.000000 0.000000
# 3 -0.003712 -0.003712 0.017580 0.000000 0.000000 0.000000
# 4 0.000000 0.000000 0.000000 0.063906 0.000000 0.000000
# 5 0.000000 0.000000 0.000000 0.000000 0.063906 0.000000
# 6 0.000000 0.000000 0.000000 0.000000 0.000000 0.014530
#
#
# Mechanical properties :
#
#
# Convention : Reuss Voigt Hill
#
# Bulk Modulus (GPa) = 64.47092 73.91970 69.19531
# Shear Modulus (GPa) = 25.37755 37.83039 31.60397
#
# Velocity S-wave (km/s) = 3.76851 4.60113 4.20548
# Velocity P-wave (km/s) = 7.41717 8.34229 7.89329
#
# Compressibility (1/GPa) = 0.01551087
#
# Stress axis : x y z
#
# Youngs Moduli (GPa) = 133.94691 133.94691 56.88234
#
# Poissons Ratio (x) = 0.14404 0.21117
# Poissons Ratio (y) = 0.14404 0.21117
# Poissons Ratio (z) = 0.49727 0.49727
#
# Static dielectric constant tensor:
#      x y z
#    x 3.487040 0.000000 0.000000 
#    y 0.000000 3.487040 0.000000 
#    z 0.000000 0.000000 2.829790 
# 
# 
# High freq. dielectric constant tensor:
#      x y z
#    x 1.710140 0.000000 0.000000 
#    y 0.000000 1.710140 0.000000 
#    z 0.000000 0.000000 1.637250 
# 
# From -- ./inp_files/4008.got.cif
#   From: 2010.03.12/outbox.cif.g09.slc.cpg/sg115_3_cif.got.tgz:4008.got - 2010.04.14 02:11:21.
