data_PCOD8309317
_publ_section_title
;
Structure prediction by ZEFSAII (Michael W. Deem and Ramdas Pophale) SiO2 
 PCOD8309317
Probable space group: P -4 M 2
;
_chemical_formula_sum "Si O2"
_cell_formula_units_Z 36
_cell_length_a 11.873109
_cell_length_b 11.873109
_cell_length_c 14.452479
_cell_angle_alpha 90.000000
_cell_angle_beta 90.000000
_cell_angle_gamma 90.000000
_cell_volume 2037.376332
_symmetry_space_group_name_H-M "P -4 M 2"
_symmetry_group_IT_number 115
_symmetry_cell_setting 'tetragonal'
loop_
_space_group_symop_operation_xyz
x,y,z
y,-x,-z
-x,-y,z
-y,x,-z
y,x,-z
-y,-x,-z
-x,y,z
x,-y,z
loop_
_atom_site_type_symbol
_atom_site_label
_atom_site_fract_x
_atom_site_fract_y
_atom_site_fract_z
Si Si1 0.744739 0.715374 0.897455
Si Si2 0.262548 0.129539 0.575436
Si Si3 0.127031 0.128403 0.760404
Si Si4 0.762492 0.500000 0.135089
Si Si5 0.500000 0.870302 0.059493
Si Si6 0.500000 0.867983 0.662424
O O1 0.788873 0.807920 0.827498
O O2 0.612771 0.688127 0.877490
O O3 0.815345 0.603200 0.886462
O O4 0.763403 0.763403 0.000000
O O5 0.217697 0.217697 0.500000
O O6 0.173944 0.138888 0.657788
O O7 0.387978 0.168570 0.606309
O O8 0.265439 0.000000 0.538665
O O9 0.000000 0.177569 0.763707
O O10 0.127053 0.000000 0.793581
O O11 0.817177 0.500000 0.235509
O O12 0.853898 0.500000 0.051601
O O13 0.500000 0.000000 0.082424
O O14 0.500000 0.000000 0.677985
#
# Coordination Sequence:
#
# PCOD8309317 Si02
#       6
#     8   8   8   4   4   4
#     4  10  21  35  54  80 111 151 193 236 282 330
#     4  10  20  35  57  83 112 143 182 233 287 346
#     4  10  20  33  52  80 113 148 184 227 285 350
#     4  10  19  35  58  81 109 148 196 244 277 325
#     4  10  21  35  54  81 117 155 191 234 283 332
#     4  10  19  34  60  86 106 141 193 238 278 331
#
# _framework density 17.669784
#
# number of rings (size 3 to 8) (size 9 to 14) (size 15 to 20)
#    0.000    2.000    2.222    1.667    0.000    6.000 
#    0.000    4.444    0.000    1.667    0.000    0.000 
#    0.000    0.000    0.000    0.000    0.000    0.000 
#
# Total GULP energy -446297.150296 kJ/mol
# GULP energy per Si atom -12397.143064 kJ/mol
# Density = 1.762957 g / cm^3
# Si number density = 17.669784 Si / 1000 Ang^3
#
#
#
# Elastic Constant Matrix: (Units=GPa)
#
#
# Indices 1 2 3 4 5 6 
#
# 1 117.0129 51.6392 41.8207 0.0000 0.0000 0.0000
# 2 51.6392 117.0129 41.8207 0.0000 0.0000 0.0000
# 3 41.8207 41.8207 81.3253 0.0000 0.0000 0.0000
# 4 0.0000 0.0000 0.0000 22.8372 0.0000 0.0000
# 5 0.0000 0.0000 0.0000 0.0000 22.8372 0.0000
# 6 0.0000 0.0000 0.0000 0.0000 0.0000 28.2188
#
#
#
# Elastic Compliance Matrix: (Units=1/GPa)
#
#
# Indices 1 2 3 4 5 6 
#
# 1 0.011628 -0.003669 -0.004093 0.000000 0.000000 0.000000
# 2 -0.003669 0.011628 -0.004093 0.000000 0.000000 0.000000
# 3 -0.004093 -0.004093 0.016506 0.000000 0.000000 0.000000
# 4 0.000000 0.000000 0.000000 0.043788 0.000000 0.000000
# 5 0.000000 0.000000 0.000000 0.000000 0.043788 0.000000
# 6 0.000000 0.000000 0.000000 0.000000 0.000000 0.035437
#
#
# Mechanical properties :
#
#
# Convention : Reuss Voigt Hill
#
# Bulk Modulus (GPa) = 62.29575 65.10138 63.69856
# Shear Modulus (GPa) = 26.06400 26.78335 26.42367
#
# Velocity S-wave (km/s) = 3.84482 3.89751 3.87126
# Velocity P-wave (km/s) = 7.41904 7.56158 7.49065
#
# Compressibility (1/GPa) = 0.01605246
#
# Stress axis : x y z
#
# Youngs Moduli (GPa) = 85.99972 85.99972 60.58474
#
# Poissons Ratio (x) = 0.31551 0.24797
# Poissons Ratio (y) = 0.31551 0.24797
# Poissons Ratio (z) = 0.35199 0.35199
#
# Static dielectric constant tensor:
#      x y z
#    x 3.436840 0.000000 0.000000 
#    y 0.000000 3.436840 0.000000 
#    z 0.000000 0.000000 3.168970 
# 
# 
# High freq. dielectric constant tensor:
#      x y z
#    x 1.682860 0.000000 0.000000 
#    y 0.000000 1.682860 0.000000 
#    z 0.000000 0.000000 1.676870 
# 
# From -- ./inp_files/2664.got.cif
#   From: 2010.03.12/outbox.cif.g09.slc.cpg/sg115_2_cif.got.tgz:2664.got - 2010.04.14 02:11:21.
