data_PCOD8309793
_publ_section_title
;
Structure prediction by ZEFSAII (Michael W. Deem and Ramdas Pophale) SiO2 
 PCOD8309793
Probable space group: P -4 M 2
;
_chemical_formula_sum "Si O2"
_cell_formula_units_Z 40
_cell_length_a 9.503001
_cell_length_b 9.503001
_cell_length_c 25.922399
_cell_angle_alpha 90.000000
_cell_angle_beta 90.000000
_cell_angle_gamma 90.000000
_cell_volume 2340.974812
_symmetry_space_group_name_H-M "P -4 M 2"
_symmetry_group_IT_number 115
_symmetry_cell_setting 'tetragonal'
loop_
_space_group_symop_operation_xyz
x,y,z
y,-x,-z
-x,-y,z
-y,x,-z
y,x,-z
-y,-x,-z
-x,y,z
x,-y,z
loop_
_atom_site_type_symbol
_atom_site_label
_atom_site_fract_x
_atom_site_fract_y
_atom_site_fract_z
Si Si1 0.661324 0.663073 0.357009
Si Si2 0.158131 0.332617 0.851508
Si Si3 0.332859 0.842275 0.261809
Si Si4 0.343401 0.331813 0.943689
Si Si5 0.165923 0.336802 0.458255
O O1 0.500000 0.707770 0.369906
O O2 0.668517 0.500000 0.343575
O O3 0.723900 0.742827 0.307181
O O4 0.761662 0.702192 0.404316
O O5 0.163949 0.500000 0.854465
O O6 0.212039 0.282690 0.794796
O O7 0.250925 0.266710 0.897419
O O8 0.000000 0.278783 0.859709
O O9 0.500000 0.842001 0.262813
O O10 0.276264 0.000000 0.271427
O O11 0.500000 0.272808 0.935347
O O12 0.344612 0.500000 0.942384
O O13 0.284410 0.284410 0.000000
O O14 0.235549 0.235549 0.500000
O O15 0.195011 0.500000 0.472564
O O16 0.000000 0.306198 0.454721
#
# Coordination Sequence:
#
# PCOD8309793 Si02
#       5
#     8   8   8   8   8
#     4   9  17  29  46  68  92 117 146 180 218 262
#     4   8  13  21  33  51  77 107 136 168 208 252
#     4   8  14  24  38  58  84 112 142 176 214 256
#     4   8  13  20  30  47  73 103 132 164 206 253
#     4  10  21  36  53  73  97 125 156 190 228 269
#
# _framework density 17.0869
#
# number of rings (size 3 to 8) (size 9 to 14) (size 15 to 20)
#    0.000    3.400    0.000    2.400    0.000    2.800 
#    0.000    6.000    0.000    0.000    0.000    1.400 
#    0.000    8.400    0.000    0.000    0.000    0.000 
#
# Total GULP energy -495660.381149 kJ/mol
# GULP energy per Si atom -12391.509529 kJ/mol
# Density = 1.704801 g / cm^3
# Si number density = 17.086900 Si / 1000 Ang^3
#
#
#
# Elastic Constant Matrix: (Units=GPa)
#
#
# Indices 1 2 3 4 5 6 
#
# 1 56.7209 30.8570 68.9057 0.0000 0.0000 0.0000
# 2 30.8570 56.7209 68.9057 0.0000 0.0000 0.0000
# 3 68.9057 68.9057 190.0116 0.0000 0.0000 0.0000
# 4 0.0000 0.0000 0.0000 3.4368 0.0000 0.0000
# 5 0.0000 0.0000 0.0000 0.0000 3.4368 0.0000
# 6 0.0000 0.0000 0.0000 0.0000 0.0000 10.7659
#
#
#
# Elastic Compliance Matrix: (Units=1/GPa)
#
#
# Indices 1 2 3 4 5 6 
#
# 1 0.032629 -0.006035 -0.009644 0.000000 0.000000 0.000000
# 2 -0.006035 0.032629 -0.009644 0.000000 0.000000 0.000000
# 3 -0.009644 -0.009644 0.012258 0.000000 0.000000 0.000000
# 4 0.000000 0.000000 0.000000 0.290969 0.000000 0.000000
# 5 0.000000 0.000000 0.000000 0.000000 0.290969 0.000000
# 6 0.000000 0.000000 0.000000 0.000000 0.000000 0.092886
#
#
# Mechanical properties :
#
#
# Convention : Reuss Voigt Hill
#
# Bulk Modulus (GPa) = 37.21686 71.19889 54.20788
# Shear Modulus (GPa) = 6.15808 12.51358 9.33583
#
# Velocity S-wave (km/s) = 1.90047 2.70913 2.34000
# Velocity P-wave (km/s) = 5.16178 7.17949 6.25256
#
# Compressibility (1/GPa) = 0.02686954
#
# Stress axis : x y z
#
# Youngs Moduli (GPa) = 30.64755 30.64755 81.58257
#
# Poissons Ratio (x) = 0.18495 0.78679
# Poissons Ratio (y) = 0.18495 0.78679
# Poissons Ratio (z) = 0.29557 0.29557
#
# Static dielectric constant tensor:
#      x y z
#    x 2.964060 0.000000 0.000000 
#    y 0.000000 2.964060 0.000000 
#    z 0.000000 0.000000 3.650330 
# 
# 
# High freq. dielectric constant tensor:
#      x y z
#    x 1.620590 0.000000 0.000000 
#    y 0.000000 1.620590 0.000000 
#    z 0.000000 0.000000 1.678240 
# 
# From -- ./inp_files/5438.got.cif
#   From: 2010.03.12/outbox.cif.g09.slc.cpg/sg115_3_cif.got.tgz:5438.got - 2010.04.14 02:11:21.
