data_PCOD8309789
_publ_section_title
;
Structure prediction by ZEFSAII (Michael W. Deem and Ramdas Pophale) SiO2 
 PCOD8309789
Probable space group: P -4 M 2
;
_chemical_formula_sum "Si O2"
_cell_formula_units_Z 44
_cell_length_a 9.152006
_cell_length_b 9.152006
_cell_length_c 28.709649
_cell_angle_alpha 90.000000
_cell_angle_beta 90.000000
_cell_angle_gamma 90.000000
_cell_volume 2404.697629
_symmetry_space_group_name_H-M "P -4 M 2"
_symmetry_group_IT_number 115
_symmetry_cell_setting 'tetragonal'
loop_
_space_group_symop_operation_xyz
x,y,z
y,-x,-z
-x,-y,z
-y,x,-z
y,x,-z
-y,-x,-z
-x,y,z
x,-y,z
loop_
_atom_site_type_symbol
_atom_site_label
_atom_site_fract_x
_atom_site_fract_y
_atom_site_fract_z
Si Si1 0.328614 0.669750 0.950915
Si Si2 0.832319 0.328016 0.406807
Si Si3 0.831511 0.168490 0.500000
Si Si4 0.831258 0.671182 0.674912
Si Si5 0.668054 0.326275 0.149828
Si Si6 0.169665 0.169657 0.768219
O O1 0.500000 0.696017 0.953290
O O2 0.292395 0.500000 0.949641
O O3 0.271493 0.730539 0.901054
O O4 0.262740 0.737260 0.000000
O O5 0.811875 0.500000 0.408589
O O6 0.780758 0.263395 0.456080
O O7 0.729603 0.264292 0.367235
O O8 0.000000 0.283338 0.396654
O O9 0.000000 0.197406 0.512424
O O10 0.805296 0.500000 0.680485
O O11 0.776451 0.747613 0.722068
O O12 0.000000 0.709339 0.665104
O O13 0.500000 0.276129 0.157269
O O14 0.677778 0.500000 0.153055
O O15 0.771498 0.257397 0.188031
O O16 0.000000 0.199940 0.777264
O O17 0.204232 0.000000 0.761414
#
# Coordination Sequence:
#
# PCOD8309789 Si02
#       6
#     8   8   4   8   8   8
#     4   7  10  19  38  65  95 124 155 194 240 289
#     4  10  21  36  55  81 111 140 170 206 249 296
#     4   9  18  34  56  79 106 144 184 215 242 281
#     4  10  21  37  57  78  99 128 168 212 256 301
#     4   9  17  29  48  75 102 127 159 202 251 299
#     4  10  21  36  53  72  96 130 170 208 248 298
#
# _framework density 18.297518
#
# number of rings (size 3 to 8) (size 9 to 14) (size 15 to 20)
#    0.000    2.818    0.000    3.273    0.000    5.091 
#    0.000    1.818    0.000    1.091    0.000    6.364 
#    0.000    0.000    0.000    0.000    0.000    0.000 
#
# Total GULP energy -545258.825259 kJ/mol
# GULP energy per Si atom -12392.246029 kJ/mol
# Density = 1.825587 g / cm^3
# Si number density = 18.297518 Si / 1000 Ang^3
#
#
#
# Elastic Constant Matrix: (Units=GPa)
#
#
# Indices 1 2 3 4 5 6 
#
# 1 58.0830 31.9993 60.4515 0.0000 0.0000 0.0000
# 2 31.9993 58.0827 60.4517 0.0000 0.0000 0.0000
# 3 60.4515 60.4517 183.7085 0.0000 0.0000 0.0000
# 4 0.0000 0.0000 0.0000 55.5655 0.0000 0.0000
# 5 0.0000 0.0000 0.0000 0.0000 55.5597 0.0000
# 6 0.0000 0.0000 0.0000 0.0000 0.0000 24.7835
#
#
#
# Elastic Compliance Matrix: (Units=1/GPa)
#
#
# Indices 1 2 3 4 5 6 
#
# 1 0.029110 -0.009228 -0.006542 0.000000 0.000000 0.000000
# 2 -0.009228 0.029110 -0.006542 0.000000 0.000000 0.000000
# 3 -0.006542 -0.006542 0.009749 0.000000 0.000000 0.000000
# 4 0.000000 0.000000 0.000000 0.017997 0.000000 0.000000
# 5 0.000000 0.000000 0.000000 0.000000 0.017999 0.000000
# 6 0.000000 0.000000 0.000000 0.000000 0.000000 0.040349
#
#
# Mechanical properties :
#
#
# Convention : Reuss Voigt Hill
#
# Bulk Modulus (GPa) = 42.83900 67.29767 55.06833
# Shear Modulus (GPa) = 25.41670 36.97986 31.19828
#
# Velocity S-wave (km/s) = 3.73108 4.50047 4.13371
# Velocity P-wave (km/s) = 6.48263 7.99156 7.27632
#
# Compressibility (1/GPa) = 0.02334322
#
# Stress axis : x y z
#
# Youngs Moduli (GPa) = 34.35259 34.35218 102.57380
#
# Poissons Ratio (x) = 0.31701 0.67106
# Poissons Ratio (y) = 0.31702 0.67108
# Poissons Ratio (z) = 0.22474 0.22475
#
# Static dielectric constant tensor:
#      x y z
#    x 3.126010 0.000000 0.000000 
#    y 0.000000 3.126010 0.000000 
#    z 0.000000 0.000000 3.818080 
# 
# 
# High freq. dielectric constant tensor:
#      x y z
#    x 1.683330 0.000000 0.000000 
#    y 0.000000 1.683330 0.000000 
#    z 0.000000 0.000000 1.736200 
# 
# From -- ./inp_files/5734.got.cif
#   From: 2010.03.12/outbox.cif.g09.slc.cpg/sg115_3_cif.got.tgz:5734.got - 2010.04.14 02:11:21.
