data_PCOD8309585
_publ_section_title
;
Structure prediction by ZEFSAII (Michael W. Deem and Ramdas Pophale) SiO2 
 PCOD8309585
Probable space group: P -4 M 2
;
_chemical_formula_sum "Si O2"
_cell_formula_units_Z 44
_cell_length_a 8.999013
_cell_length_b 8.999013
_cell_length_c 28.245843
_cell_angle_alpha 90.000000
_cell_angle_beta 90.000000
_cell_angle_gamma 90.000000
_cell_volume 2287.411495
_symmetry_space_group_name_H-M "P -4 M 2"
_symmetry_group_IT_number 115
_symmetry_cell_setting 'tetragonal'
loop_
_space_group_symop_operation_xyz
x,y,z
y,-x,-z
-x,-y,z
-y,x,-z
y,x,-z
-y,-x,-z
-x,y,z
x,-y,z
loop_
_atom_site_type_symbol
_atom_site_label
_atom_site_fract_x
_atom_site_fract_y
_atom_site_fract_z
Si Si1 0.170550 0.170550 0.500000
Si Si2 0.667439 0.323406 0.137479
Si Si3 0.174375 0.671054 0.681745
Si Si4 0.170934 0.325594 0.403898
Si Si5 0.671157 0.825376 0.956923
Si Si6 0.327985 0.174230 0.768365
O O1 0.217141 0.272879 0.456108
O O2 0.000000 0.197659 0.514623
O O3 0.500000 0.261537 0.136980
O O4 0.671325 0.500000 0.137839
O O5 0.751002 0.265316 0.090813
O O6 0.748897 0.263758 0.184357
O O7 0.215915 0.500000 0.691092
O O8 0.246235 0.722171 0.632920
O O9 0.235449 0.769942 0.724110
O O10 0.000000 0.695606 0.677947
O O11 0.195601 0.500000 0.399946
O O12 0.000000 0.282054 0.393243
O O13 0.500000 0.780054 0.965881
O O14 0.689045 0.000000 0.951223
O O15 0.769555 0.769555 0.000000
O O16 0.500000 0.215343 0.760032
O O17 0.305756 0.000000 0.774317
#
# Coordination Sequence:
#
# PCOD8309585 Si02
#       6
#     4   8   8   8   8   8
#     4   9  18  34  56  81 112 150 186 221 266 321
#     4   9  17  31  54  82 110 141 177 219 268 321
#     4  11  24  39  55  78 109 145 185 228 272 319
#     4  10  21  37  58  84 112 143 181 224 270 322
#     4  10  20  34  53  78 108 142 181 224 269 318
#     4  10  20  35  57  84 112 142 178 221 270 325
#
# _framework density 19.235717000000001
#
# number of rings (size 3 to 8) (size 9 to 14) (size 15 to 20)
#    0.000    2.091    0.000    3.273    0.000    9.818 
#    0.000    2.727    0.000    5.455    0.000    0.000 
#    0.000    0.000    0.000    0.000    0.000    0.000 
#
# Total GULP energy -545785.298430 kJ/mol
# GULP energy per Si atom -12404.211328 kJ/mol
# Density = 1.919194 g / cm^3
# Si number density = 19.235717 Si / 1000 Ang^3
#
#
#
# Elastic Constant Matrix: (Units=GPa)
#
#
# Indices 1 2 3 4 5 6 
#
# 1 73.0486 38.4681 48.6882 0.0000 0.0000 0.0000
# 2 38.4681 73.0486 48.6882 0.0000 0.0000 0.0000
# 3 48.6882 48.6882 132.1196 0.0000 0.0000 0.0000
# 4 0.0000 0.0000 0.0000 -110.8381 0.0000 0.0000
# 5 0.0000 0.0000 0.0000 0.0000 -110.8381 0.0000
# 6 0.0000 0.0000 0.0000 0.0000 0.0000 25.6760
#
#
#
# Elastic Compliance Matrix: (Units=1/GPa)
#
#
# Indices 1 2 3 4 5 6 
#
# 1 0.021070 -0.007848 -0.004872 0.000000 0.000000 0.000000
# 2 -0.007848 0.021070 -0.004872 0.000000 0.000000 0.000000
# 3 -0.004872 -0.004872 0.011160 0.000000 0.000000 0.000000
# 4 0.000000 0.000000 0.000000 -0.009022 0.000000 0.000000
# 5 0.000000 0.000000 0.000000 0.000000 -0.009022 0.000000
# 6 0.000000 0.000000 0.000000 0.000000 0.000000 0.038947
#
#
# Mechanical properties :
#
#
# Convention : Reuss Voigt Hill
#
# Bulk Modulus (GPa) = 55.20605 61.10067 58.15336
# Shear Modulus (GPa) = 43.31757 -29.70856 6.80450
#
# Velocity S-wave (km/s) = 4.75060 -3.93421 1.88285
# Velocity P-wave (km/s) = 7.67157 3.34601 5.91814
#
# Compressibility (1/GPa) = 0.01811396
#
# Stress axis : x y z
#
# Youngs Moduli (GPa) = 47.46092 47.46092 89.60508
#
# Poissons Ratio (x) = 0.37248 0.43660
# Poissons Ratio (y) = 0.37248 0.43660
# Poissons Ratio (z) = 0.23125 0.23125
#
# Static dielectric constant tensor:
#      x y z
#    x 3.466390 0.000000 0.000000 
#    y 0.000000 3.466390 0.000000 
#    z 0.000000 0.000000 3.671200 
# 
# 
# High freq. dielectric constant tensor:
#      x y z
#    x 1.741010 0.000000 0.000000 
#    y 0.000000 1.741010 0.000000 
#    z 0.000000 0.000000 1.764630 
# 
# From -- ./inp_files/5763.got.cif
#   From: 2010.03.12/outbox.cif.g09.slc.cpg/sg115_3_cif.got.tgz:5763.got - 2010.04.14 02:11:21.
