data_PCOD8309469
_publ_section_title
;
Structure prediction by ZEFSAII (Michael W. Deem and Ramdas Pophale) SiO2 
 PCOD8309469
Probable space group: P -4 M 2
;
_chemical_formula_sum "Si O2"
_cell_formula_units_Z 48
_cell_length_a 9.355588
_cell_length_b 9.355588
_cell_length_c 30.769260
_cell_angle_alpha 90.000000
_cell_angle_beta 90.000000
_cell_angle_gamma 90.000000
_cell_volume 2693.141845
_symmetry_space_group_name_H-M "P -4 M 2"
_symmetry_group_IT_number 115
_symmetry_cell_setting 'tetragonal'
loop_
_space_group_symop_operation_xyz
x,y,z
y,-x,-z
-x,-y,z
-y,x,-z
y,x,-z
-y,-x,-z
-x,y,z
x,-y,z
loop_
_atom_site_type_symbol
_atom_site_label
_atom_site_fract_x
_atom_site_fract_y
_atom_site_fract_z
Si Si1 0.330011 0.161826 0.703192
Si Si2 0.170430 0.159201 0.952704
Si Si3 0.335108 0.331315 0.380070
Si Si4 0.162378 0.165244 0.449572
Si Si5 0.666445 0.834739 0.128976
Si Si6 0.667185 0.665460 0.786484
O O1 0.500000 0.162678 0.702970
O O2 0.272655 0.247127 0.661316
O O3 0.274492 0.241642 0.746276
O O4 0.270323 0.000000 0.702260
O O5 0.228576 0.257703 0.913875
O O6 0.000000 0.156390 0.952977
O O7 0.231102 0.000000 0.945009
O O8 0.219863 0.219863 0.000000
O O9 0.500000 0.288228 0.373970
O O10 0.317295 0.500000 0.385057
O O11 0.273803 0.259763 0.423188
O O12 0.193171 0.193171 0.500000
O O13 0.000000 0.210605 0.438115
O O14 0.186096 0.000000 0.437964
O O15 0.500000 0.811079 0.121643
O O16 0.720651 0.748461 0.170823
O O17 0.705423 0.000000 0.136360
O O18 0.500000 0.689465 0.794167
O O19 0.701602 0.500000 0.776594
#
# Coordination Sequence:
#
# PCOD8309469 Si02
#       6
#     8   8   8   8   8   8
#     4   9  17  30  49  71  94 123 160 199 237 278
#     4   8  14  26  44  63  83 111 146 180 216 262
#     4  10  20  33  51  76 103 130 163 202 242 287
#     4   9  19  36  55  74  99 132 167 202 243 290
#     4   9  17  29  45  65  89 116 146 182 225 271
#     4   9  17  30  47  65  88 119 152 186 228 278
#
# _framework density 17.823049999999999
#
# number of rings (size 3 to 8) (size 9 to 14) (size 15 to 20)
#    0.000    3.000    0.000    2.000    0.000    4.667 
#    0.000    4.167    0.000    4.000    0.000    0.000 
#    0.000    0.000    0.000    0.000    0.000    0.000 
#
# Total GULP energy -595135.143070 kJ/mol
# GULP energy per Si atom -12398.648814 kJ/mol
# Density = 1.778248 g / cm^3
# Si number density = 17.823050 Si / 1000 Ang^3
#
#
#
# Elastic Constant Matrix: (Units=GPa)
#
#
# Indices 1 2 3 4 5 6 
#
# 1 67.8417 37.0491 63.9280 0.0000 0.0000 0.0000
# 2 37.0491 67.8417 63.9280 0.0000 0.0000 0.0000
# 3 63.9280 63.9280 154.9278 0.0000 0.0000 0.0000
# 4 0.0000 0.0000 0.0000 34.1228 0.0000 0.0000
# 5 0.0000 0.0000 0.0000 0.0000 34.1228 0.0000
# 6 0.0000 0.0000 0.0000 0.0000 0.0000 19.9414
#
#
#
# Elastic Compliance Matrix: (Units=1/GPa)
#
#
# Indices 1 2 3 4 5 6 
#
# 1 0.025828 -0.006647 -0.007915 0.000000 0.000000 0.000000
# 2 -0.006647 0.025828 -0.007915 0.000000 0.000000 0.000000
# 3 -0.007915 -0.007915 0.012986 0.000000 0.000000 0.000000
# 4 0.000000 0.000000 0.000000 0.029306 0.000000 0.000000
# 5 0.000000 0.000000 0.000000 0.000000 0.029306 0.000000
# 6 0.000000 0.000000 0.000000 0.000000 0.000000 0.050147
#
#
# Mechanical properties :
#
#
# Convention : Reuss Voigt Hill
#
# Bulk Modulus (GPa) = 50.78730 68.93572 59.86151
# Shear Modulus (GPa) = 22.23026 26.01783 24.12405
#
# Velocity S-wave (km/s) = 3.53551 3.82486 3.68303
# Velocity P-wave (km/s) = 6.72485 7.63334 7.19345
#
# Compressibility (1/GPa) = 0.01968996
#
# Stress axis : x y z
#
# Youngs Moduli (GPa) = 38.71703 38.71703 77.00324
#
# Poissons Ratio (x) = 0.25735 0.60947
# Poissons Ratio (y) = 0.25735 0.60947
# Poissons Ratio (z) = 0.30644 0.30644
#
# Static dielectric constant tensor:
#      x y z
#    x 3.147590 0.000000 0.000000 
#    y 0.000000 3.147590 0.000000 
#    z 0.000000 0.000000 3.532600 
# 
# 
# High freq. dielectric constant tensor:
#      x y z
#    x 1.668530 0.000000 0.000000 
#    y 0.000000 1.668530 0.000000 
#    z 0.000000 0.000000 1.703720 
# 
# From -- ./inp_files/5948.got.cif
#   From: 2010.03.12/outbox.cif.g09.slc.cpg/sg115_3_cif.got.tgz:5948.got - 2010.04.14 02:11:21.
