data_PCOD8309245
_publ_section_title
;
Structure prediction by ZEFSAII (Michael W. Deem and Ramdas Pophale) SiO2 
 PCOD8309245
Probable space group: P -4 M 2
;
_chemical_formula_sum "Si O2"
_cell_formula_units_Z 56
_cell_length_a 24.615545
_cell_length_b 24.615545
_cell_length_c 5.117923
_cell_angle_alpha 90.000000
_cell_angle_beta 90.000000
_cell_angle_gamma 90.000000
_cell_volume 3101.077779
_symmetry_space_group_name_H-M "P -4 M 2"
_symmetry_group_IT_number 115
_symmetry_cell_setting 'tetragonal'
loop_
_space_group_symop_operation_xyz
x,y,z
y,-x,-z
-x,-y,z
-y,x,-z
y,x,-z
-y,-x,-z
-x,y,z
x,-y,z
loop_
_atom_site_type_symbol
_atom_site_label
_atom_site_fract_x
_atom_site_fract_y
_atom_site_fract_z
Si Si1 0.630939 0.279762 0.501642
Si Si2 0.560956 0.281970 0.990540
Si Si3 0.847716 0.377043 0.487998
Si Si4 0.937547 0.291374 0.647746
Si Si5 0.938891 0.774432 0.131356
Si Si6 0.109563 0.062421 0.760314
Si Si7 0.558703 0.155773 0.004389
O O1 0.688365 0.311636 0.500000
O O2 0.595651 0.302632 0.743468
O O3 0.644874 0.214835 0.516607
O O4 0.595251 0.294504 0.249262
O O5 0.500000 0.308485 0.004179
O O6 0.553000 0.218754 0.943957
O O7 0.892883 0.334558 0.568853
O O8 0.867326 0.398290 0.204506
O O9 0.852954 0.424986 0.696984
O O10 0.936797 0.246631 0.424490
O O11 0.000000 0.314561 0.678535
O O12 0.913222 0.265894 0.916367
O O13 0.911606 0.833790 0.136106
O O14 0.000000 0.781655 0.028924
O O15 0.092910 0.092910 0.500000
O O16 0.116310 0.000000 0.680490
O O17 0.067411 0.067411 0.000000
O O18 0.500000 0.127565 0.964743
#
# Coordination Sequence:
#
# PCOD8309245 Si02
#       7
#     8   8   8   8   8   8   8
#     4  10  19  31  47  72 107 135 156 197 259 308
#     4   9  17  30  49  71  96 131 174 208 234 282
#     4  10  19  31  50  74 100 133 169 205 252 305
#     4  10  19  34  55  74  94 126 175 222 249 283
#     4   9  19  35  53  71  92 122 161 207 249 282
#     4  11  22  36  54  76 102 128 156 194 247 309
#     4   9  17  30  49  72  99 133 169 204 246 297
#
# _framework density 18.058239
#
# number of rings (size 3 to 8) (size 9 to 14) (size 15 to 20)
#    0.000    2.286    0.000    3.429    0.000    6.571 
#    0.000    2.143    0.000    4.286    0.000    0.000 
#    0.000   20.000    0.000    0.000    0.000    0.000 
#
# Total GULP energy -693915.870518 kJ/mol
# GULP energy per Si atom -12391.354831 kJ/mol
# Density = 1.801714 g / cm^3
# Si number density = 18.058239 Si / 1000 Ang^3
#
#
#
# Elastic Constant Matrix: (Units=GPa)
#
#
# Indices 1 2 3 4 5 6 
#
# 1 76.4796 46.0926 21.5958 0.0000 0.0000 0.0000
# 2 46.0926 76.4810 21.5954 0.0000 0.0000 0.0000
# 3 21.5958 21.5954 104.7027 0.0000 0.0000 0.0000
# 4 0.0000 0.0000 0.0000 14.5157 0.0000 0.0000
# 5 0.0000 0.0000 0.0000 0.0000 14.5177 0.0000
# 6 0.0000 0.0000 0.0000 0.0000 0.0000 10.7325
#
#
#
# Elastic Compliance Matrix: (Units=1/GPa)
#
#
# Indices 1 2 3 4 5 6 
#
# 1 0.020853 -0.012055 -0.001815 0.000000 0.000000 0.000000
# 2 -0.012055 0.020853 -0.001814 0.000000 0.000000 0.000000
# 3 -0.001815 -0.001814 0.010299 0.000000 0.000000 0.000000
# 4 0.000000 0.000000 0.000000 0.068891 0.000000 0.000000
# 5 0.000000 0.000000 0.000000 0.000000 0.068881 0.000000
# 6 0.000000 0.000000 0.000000 0.000000 0.000000 0.093175
#
#
# Mechanical properties :
#
#
# Convention : Reuss Voigt Hill
#
# Bulk Modulus (GPa) = 48.45753 48.47009 48.46381
# Shear Modulus (GPa) = 15.56661 19.17848 17.37255
#
# Velocity S-wave (km/s) = 2.93921 3.26242 3.10502
# Velocity P-wave (km/s) = 6.19765 6.41018 6.30481
#
# Compressibility (1/GPa) = 0.02063663
#
# Stress axis : x y z
#
# Youngs Moduli (GPa) = 47.95430 47.95534 97.09304
#
# Poissons Ratio (x) = 0.57811 0.17620
# Poissons Ratio (y) = 0.57810 0.17617
# Poissons Ratio (z) = 0.08702 0.08701
#
# Static dielectric constant tensor:
#      x y z
#    x 3.432250 0.000000 0.000000 
#    y 0.000000 3.432250 0.000000 
#    z 0.000000 0.000000 3.729300 
# 
# 
# High freq. dielectric constant tensor:
#      x y z
#    x 1.674670 0.000000 0.000000 
#    y 0.000000 1.674670 0.000000 
#    z 0.000000 0.000000 1.725810 
# 
# From -- ./inp_files/783.got.cif
#   From: 2010.03.12/outbox.cif.g09.slc.cpg/sg115_1_cif.got.tgz:783.got - 2010.04.14 02:11:21.
