data_PCOD8309880
_publ_section_title
;
Structure prediction by ZEFSAII (Michael W. Deem and Ramdas Pophale) SiO2 
 PCOD8309880
Probable space group: P -4 M 2
;
_chemical_formula_sum "Si O2"
_cell_formula_units_Z 44
_cell_length_a 9.087531
_cell_length_b 9.087531
_cell_length_c 28.059203
_cell_angle_alpha 90.000000
_cell_angle_beta 90.000000
_cell_angle_gamma 90.000000
_cell_volume 2317.219325
_symmetry_space_group_name_H-M "P -4 M 2"
_symmetry_group_IT_number 115
_symmetry_cell_setting 'tetragonal'
loop_
_space_group_symop_operation_xyz
x,y,z
y,-x,-z
-x,-y,z
-y,x,-z
y,x,-z
-y,-x,-z
-x,y,z
x,-y,z
loop_
_atom_site_type_symbol
_atom_site_label
_atom_site_fract_x
_atom_site_fract_y
_atom_site_fract_z
Si Si1 0.673311 0.831692 0.404479
Si Si2 0.672401 0.669083 0.139051
Si Si3 0.172398 0.330953 0.042127
Si Si4 0.172582 0.830936 0.776599
Si Si5 0.829889 0.829889 0.500000
Si Si6 0.672002 0.830528 0.679980
O O1 0.500000 0.816044 0.406890
O O2 0.738411 0.775616 0.454483
O O3 0.732720 0.728852 0.363060
O O4 0.722358 0.000000 0.394868
O O5 0.500000 0.693068 0.132680
O O6 0.711674 0.500000 0.150733
O O7 0.749861 0.720312 0.090562
O O8 0.729354 0.770985 0.181147
O O9 0.211810 0.500000 0.030389
O O10 0.000000 0.307286 0.048644
O O11 0.228822 0.228822 0.000000
O O12 0.248786 0.777910 0.728065
O O13 0.000000 0.808448 0.770525
O O14 0.213568 0.000000 0.787814
O O15 0.000000 0.799231 0.488831
O O16 0.500000 0.804142 0.686719
O O17 0.709526 0.000000 0.668984
#
# Coordination Sequence:
#
# PCOD8309880 Si02
#       6
#     8   8   8   8   4   8
#     4  10  21  36  55  81 112 144 179 222 271 322
#     4  10  21  37  58  83 111 145 183 223 270 324
#     4  10  21  37  58  83 111 145 184 226 272 322
#     4  10  21  37  58  83 110 142 181 225 272 322
#     4   9  18  34  56  79 106 144 186 225 266 317
#     4  10  21  37  58  82 108 142 183 225 270 322
#
# _framework density 18.988275000000002
#
# number of rings (size 3 to 8) (size 9 to 14) (size 15 to 20)
#    0.000    2.091    0.000    2.727    0.000    7.636 
#    0.000    1.818    0.000    0.000    0.000    0.000 
#    0.000    0.000    0.000    0.000    0.000    0.000 
#
# Total GULP energy -545861.242336 kJ/mol
# GULP energy per Si atom -12405.937326 kJ/mol
# Density = 1.894506 g / cm^3
# Si number density = 18.988275 Si / 1000 Ang^3
#
#
#
# Elastic Constant Matrix: (Units=GPa)
#
#
# Indices 1 2 3 4 5 6 
#
# 1 82.1441 42.9979 67.6604 0.0000 0.0000 0.0000
# 2 42.9979 82.1441 67.6604 0.0000 0.0000 0.0000
# 3 67.6604 67.6604 158.2741 0.0000 0.0000 0.0000
# 4 0.0000 0.0000 0.0000 54.9187 0.0000 0.0000
# 5 0.0000 0.0000 0.0000 0.0000 54.9187 0.0000
# 6 0.0000 0.0000 0.0000 0.0000 0.0000 29.9018
#
#
#
# Elastic Compliance Matrix: (Units=1/GPa)
#
#
# Indices 1 2 3 4 5 6 
#
# 1 0.020203 -0.005343 -0.006353 0.000000 0.000000 0.000000
# 2 -0.005343 0.020203 -0.006353 0.000000 0.000000 0.000000
# 3 -0.006353 -0.006353 0.011749 0.000000 0.000000 0.000000
# 4 0.000000 0.000000 0.000000 0.018209 0.000000 0.000000
# 5 0.000000 0.000000 0.000000 0.000000 0.018209 0.000000
# 6 0.000000 0.000000 0.000000 0.000000 0.000000 0.033443
#
#
# Mechanical properties :
#
#
# Convention : Reuss Voigt Hill
#
# Bulk Modulus (GPa) = 62.26815 75.46665 68.86740
# Shear Modulus (GPa) = 30.58785 37.56410 34.07597
#
# Velocity S-wave (km/s) = 4.01793 4.45261 4.24084
# Velocity P-wave (km/s) = 7.37490 8.14030 7.76703
#
# Compressibility (1/GPa) = 0.01605957
#
# Stress axis : x y z
#
# Youngs Moduli (GPa) = 49.49830 49.49830 85.11029
#
# Poissons Ratio (x) = 0.26445 0.54067
# Poissons Ratio (y) = 0.26445 0.54067
# Poissons Ratio (z) = 0.31444 0.31444
#
# Static dielectric constant tensor:
#      x y z
#    x 3.438280 0.000000 0.000000 
#    y 0.000000 3.438280 0.000000 
#    z 0.000000 0.000000 3.574690 
# 
# 
# High freq. dielectric constant tensor:
#      x y z
#    x 1.737830 0.000000 0.000000 
#    y 0.000000 1.737830 0.000000 
#    z 0.000000 0.000000 1.749470 
# 
# From -- ./inp_files/5760.got.cif
#   From: 2010.03.12/outbox.cif.g09.slc.cpg/sg115_3_cif.got.tgz:5760.got - 2010.04.14 02:11:21.
