data_PCOD8309777
_publ_section_title
;
Structure prediction by ZEFSAII (Michael W. Deem and Ramdas Pophale) SiO2 
 PCOD8309777
Probable space group: P -4 M 2
;
_chemical_formula_sum "Si O2"
_cell_formula_units_Z 48
_cell_length_a 9.232129
_cell_length_b 9.232129
_cell_length_c 30.293883
_cell_angle_alpha 90.000000
_cell_angle_beta 90.000000
_cell_angle_gamma 90.000000
_cell_volume 2582.014473
_symmetry_space_group_name_H-M "P -4 M 2"
_symmetry_group_IT_number 115
_symmetry_cell_setting 'tetragonal'
loop_
_space_group_symop_operation_xyz
x,y,z
y,-x,-z
-x,-y,z
-y,x,-z
y,x,-z
-y,-x,-z
-x,y,z
x,-y,z
loop_
_atom_site_type_symbol
_atom_site_label
_atom_site_fract_x
_atom_site_fract_y
_atom_site_fract_z
Si Si1 0.666575 0.333426 0.000000
Si Si2 0.669601 0.166723 0.586106
Si Si3 0.663743 0.167856 0.340700
Si Si4 0.332224 0.170584 0.834745
Si Si5 0.830784 0.668193 0.912036
Si Si6 0.331623 0.668378 0.500000
Si Si7 0.332242 0.833902 0.238916
O O1 0.713177 0.234469 0.040892
O O2 0.500000 0.306704 0.986707
O O3 0.500000 0.192938 0.591305
O O4 0.742994 0.225740 0.629986
O O5 0.728445 0.248869 0.542853
O O6 0.710107 0.000000 0.580651
O O7 0.500000 0.219880 0.350261
O O8 0.703320 0.195906 0.289890
O O9 0.679689 0.000000 0.352370
O O10 0.500000 0.212282 0.839631
O O11 0.244466 0.237360 0.874962
O O12 0.273380 0.233226 0.788921
O O13 0.308265 0.000000 0.834705
O O14 0.800180 0.500000 0.901971
O O15 0.000000 0.703125 0.912468
O O16 0.500000 0.700441 0.492356
O O17 0.500000 0.802082 0.228678
O O18 0.296388 0.000000 0.226511
#
# Coordination Sequence:
#
# PCOD8309777 Si02
#       7
#     4   8   8   8   8   4   8
#     4   9  18  34  56  81 110 144 180 219 264 313
#     4  10  21  35  52  78 110 140 172 215 265 314
#     4   9  19  36  57  80 106 138 176 217 261 312
#     4  11  24  38  53  78 111 144 179 221 267 314
#     4  10  21  37  58  83 110 142 180 221 265 315
#     4   9  18  34  54  73  98 138 184 223 260 307
#     4   9  19  37  59  81 105 136 177 221 264 314
#
# _framework density 18.590136999999999
#
# number of rings (size 3 to 8) (size 9 to 14) (size 15 to 20)
#    0.000    2.333    0.000    3.000    0.000    8.667 
#    0.000    8.333    0.000    0.000    0.000    0.000 
#    0.000    0.000    0.000    0.000    0.000    0.000 
#
# Total GULP energy -595374.897384 kJ/mol
# GULP energy per Si atom -12403.643696 kJ/mol
# Density = 1.854783 g / cm^3
# Si number density = 18.590137 Si / 1000 Ang^3
#
#
#
# Elastic Constant Matrix: (Units=GPa)
#
#
# Indices 1 2 3 4 5 6 
#
# 1 87.4379 61.3458 71.4799 0.0000 0.0000 0.0000
# 2 61.3458 87.4379 71.4797 0.0000 0.0000 0.0000
# 3 71.4799 71.4797 129.9737 0.0000 0.0000 0.0000
# 4 0.0000 0.0000 0.0000 -7.8746 0.0000 0.0000
# 5 0.0000 0.0000 0.0000 0.0000 -7.8761 0.0000
# 6 0.0000 0.0000 0.0000 0.0000 0.0000 30.0795
#
#
#
# Elastic Compliance Matrix: (Units=1/GPa)
#
#
# Indices 1 2 3 4 5 6 
#
# 1 0.026289 -0.012037 -0.007838 0.000000 0.000000 0.000000
# 2 -0.012037 0.026289 -0.007838 0.000000 0.000000 0.000000
# 3 -0.007838 -0.007838 0.016315 0.000000 0.000000 0.000000
# 4 0.000000 0.000000 0.000000 -0.126991 0.000000 0.000000
# 5 0.000000 0.000000 0.000000 0.000000 -0.126966 0.000000
# 6 0.000000 0.000000 0.000000 0.000000 0.000000 0.033245
#
#
# Mechanical properties :
#
#
# Convention : Reuss Voigt Hill
#
# Bulk Modulus (GPa) = 74.25375 79.27337 76.76356
# Shear Modulus (GPa) = -54.40533 9.56870 -22.41831
#
# Velocity S-wave (km/s) = -5.41565 2.27120 -3.47641
# Velocity P-wave (km/s) = 0.96106 7.04366 5.02676
#
# Compressibility (1/GPa) = 0.01346733
#
# Stress axis : x y z
#
# Youngs Moduli (GPa) = 38.03826 38.03848 61.29192
#
# Poissons Ratio (x) = 0.45785 0.48043
# Poissons Ratio (y) = 0.45785 0.48042
# Poissons Ratio (z) = 0.29816 0.29816
#
# Static dielectric constant tensor:
#      x y z
#    x 3.498130 0.000000 0.000000 
#    y 0.000000 3.498130 0.000000 
#    z 0.000000 0.000000 3.476580 
# 
# 
# High freq. dielectric constant tensor:
#      x y z
#    x 1.719360 0.000000 0.000000 
#    y 0.000000 1.719360 0.000000 
#    z 0.000000 0.000000 1.733660 
# 
# From -- ./inp_files/6272.got.cif
#   From: 2010.03.12/outbox.cif.g09.slc.cpg/sg115_4_cif.got.tgz:6272.got - 2010.04.14 02:11:21.
