data_PCOD8309291
_publ_section_title
;
Structure prediction by ZEFSAII (Michael W. Deem and Ramdas Pophale) SiO2 
 PCOD8309291
Probable space group: P -4 M 2
;
_chemical_formula_sum "Si O2"
_cell_formula_units_Z 40
_cell_length_a 8.048412
_cell_length_b 8.048412
_cell_length_c 29.192042
_cell_angle_alpha 90.000000
_cell_angle_beta 90.000000
_cell_angle_gamma 90.000000
_cell_volume 1890.971028
_symmetry_space_group_name_H-M "P -4 M 2"
_symmetry_group_IT_number 115
_symmetry_cell_setting 'tetragonal'
loop_
_space_group_symop_operation_xyz
x,y,z
y,-x,-z
-x,-y,z
-y,x,-z
y,x,-z
-y,-x,-z
-x,y,z
x,-y,z
loop_
_atom_site_type_symbol
_atom_site_label
_atom_site_fract_x
_atom_site_fract_y
_atom_site_fract_z
Si Si1 0.194095 0.687793 0.547061
Si Si2 0.199201 0.000000 0.709738
Si Si3 0.307883 0.819949 0.045459
Si Si4 0.314814 0.190524 0.235366
Si Si5 0.304250 0.318171 0.138847
Si Si6 0.196767 0.000000 0.606432
O O1 0.294045 0.705956 0.500000
O O2 0.224942 0.500000 0.566508
O O3 0.259513 0.830097 0.581942
O O4 0.000000 0.716519 0.536833
O O5 0.270815 0.831743 0.733704
O O6 0.266574 0.000000 0.657914
O O7 0.000000 0.000000 0.712898
O O8 0.500000 0.837250 0.056397
O O9 0.222044 0.745324 0.091245
O O10 0.228037 0.000000 0.036057
O O11 0.289179 0.710822 0.000000
O O12 0.500000 0.273211 0.243272
O O13 0.260111 0.203284 0.182181
O O14 0.330384 0.000000 0.248926
O O15 0.500000 0.326934 0.132000
O O16 0.231078 0.500000 0.149184
O O17 0.000000 0.000000 0.607667
#
# Coordination Sequence:
#
# PCOD8309291 Si02
#       6
#     8   4   8   8   8   4
#     4  10  19  32  55  83 113 154 198 241 293 346
#     4   9  18  32  51  81 113 147 186 230 282 332
#     4  10  20  34  52  75 104 136 171 212 264 324
#     4   9  17  31  52  76 105 141 183 231 279 332
#     4   9  17  31  53  77  99 129 172 218 266 323
#     4   9  18  32  53  81 119 152 189 243 288 338
#
# _framework density 21.153153
#
# number of rings (size 3 to 8) (size 9 to 14) (size 15 to 20)
#    0.000    2.600    1.000    1.200    0.000    4.600 
#    1.800    4.500    0.000    2.400    0.000    2.800 
#    0.000    0.000    0.000    0.000    0.000    0.000 
#
# Total GULP energy -495613.834355 kJ/mol
# GULP energy per Si atom -12390.345859 kJ/mol
# Density = 2.110501 g / cm^3
# Si number density = 21.153153 Si / 1000 Ang^3
#
#
#
# Elastic Constant Matrix: (Units=GPa)
#
#
# Indices 1 2 3 4 5 6 
#
# 1 79.3921 25.9997 45.1972 0.0000 0.0000 0.0000
# 2 25.9997 79.3930 45.1979 0.0000 0.0000 0.0000
# 3 45.1972 45.1979 169.9239 0.0000 0.0000 0.0000
# 4 0.0000 0.0000 0.0000 15.2462 0.0000 0.0000
# 5 0.0000 0.0000 0.0000 0.0000 15.2461 0.0000
# 6 0.0000 0.0000 0.0000 0.0000 0.0000 7.8382
#
#
#
# Elastic Compliance Matrix: (Units=1/GPa)
#
#
# Indices 1 2 3 4 5 6 
#
# 1 0.015511 -0.003218 -0.003270 0.000000 0.000000 0.000000
# 2 -0.003218 0.015511 -0.003270 0.000000 0.000000 0.000000
# 3 -0.003270 -0.003270 0.007624 0.000000 0.000000 0.000000
# 4 0.000000 0.000000 0.000000 0.065590 0.000000 0.000000
# 5 0.000000 0.000000 0.000000 0.000000 0.065590 0.000000
# 6 0.000000 0.000000 0.000000 0.000000 0.000000 0.127581
#
#
# Mechanical properties :
#
#
# Convention : Reuss Voigt Hill
#
# Bulk Modulus (GPa) = 52.27088 62.38873 57.32981
# Shear Modulus (GPa) = 15.46552 21.82039 18.64295
#
# Velocity S-wave (km/s) = 2.70686 3.21525 2.97194
# Velocity P-wave (km/s) = 5.87654 6.58344 6.24001
#
# Compressibility (1/GPa) = 0.01913111
#
# Stress axis : x y z
#
# Youngs Moduli (GPa) = 64.47026 64.47086 131.15792
#
# Poissons Ratio (x) = 0.20748 0.42885
# Poissons Ratio (y) = 0.20747 0.42885
# Poissons Ratio (z) = 0.21080 0.21080
#
# Static dielectric constant tensor:
#      x y z
#    x 3.738120 0.000000 0.000000 
#    y 0.000000 3.738120 0.000000 
#    z 0.000000 0.000000 3.811140 
# 
# 
# High freq. dielectric constant tensor:
#      x y z
#    x 1.806260 0.000000 0.000000 
#    y 0.000000 1.806260 0.000000 
#    z 0.000000 0.000000 1.822970 
# 
# From -- ./inp_files/5483.got.cif
#   From: 2010.03.12/outbox.cif.g09.slc.cpg/sg115_3_cif.got.tgz:5483.got - 2010.04.14 02:11:21.
