data_PCOD8309416
_publ_section_title
;
Structure prediction by ZEFSAII (Michael W. Deem and Ramdas Pophale) SiO2 
 PCOD8309416
Probable space group: P -4 M 2
;
_chemical_formula_sum "Si O2"
_cell_formula_units_Z 48
_cell_length_a 9.120712
_cell_length_b 9.120712
_cell_length_c 31.445304
_cell_angle_alpha 90.000000
_cell_angle_beta 90.000000
_cell_angle_gamma 90.000000
_cell_volume 2615.852685
_symmetry_space_group_name_H-M "P -4 M 2"
_symmetry_group_IT_number 115
_symmetry_cell_setting 'tetragonal'
loop_
_space_group_symop_operation_xyz
x,y,z
y,-x,-z
-x,-y,z
-y,x,-z
y,x,-z
-y,-x,-z
-x,y,z
x,-y,z
loop_
_atom_site_type_symbol
_atom_site_label
_atom_site_fract_x
_atom_site_fract_y
_atom_site_fract_z
Si Si1 0.671714 0.668746 0.623902
Si Si2 0.174394 0.335665 0.782943
Si Si3 0.172467 0.831158 0.301002
Si Si4 0.824309 0.834798 0.863942
Si Si5 0.828379 0.331445 0.537278
Si Si6 0.837121 0.824525 0.955192
O O1 0.500000 0.695985 0.618714
O O2 0.707794 0.500000 0.634783
O O3 0.732663 0.770431 0.660840
O O4 0.748672 0.716823 0.580369
O O5 0.235267 0.500000 0.778556
O O6 0.228668 0.243455 0.742492
O O7 0.238652 0.266927 0.826418
O O8 0.000000 0.332814 0.784963
O O9 0.000000 0.812704 0.296758
O O10 0.216887 0.000000 0.309342
O O11 0.760166 0.780305 0.910204
O O12 0.000000 0.830337 0.865562
O O13 0.771683 0.000000 0.854512
O O14 0.771398 0.228603 0.500000
O O15 0.791912 0.500000 0.526104
O O16 0.000000 0.305859 0.543528
O O17 0.000000 0.758894 0.953364
O O18 0.843287 0.000000 0.957540
O O19 0.764862 0.764862 0.000000
#
# Coordination Sequence:
#
# PCOD8309416 Si02
#       6
#     8   8   8   8   8   8
#     4  10  21  37  57  79 103 133 168 205 246 292
#     4   9  16  25  38  57  83 116 152 190 234 284
#     4  10  20  33  50  72  98 129 165 204 246 292
#     4   8  12  18  29  46  71 103 138 177 222 273
#     4  10  21  37  58  83 110 141 175 209 246 288
#     4   7   9  13  22  38  62  93 127 164 211 266
#
# _framework density 18.349658000000002
#
# number of rings (size 3 to 8) (size 9 to 14) (size 15 to 20)
#    0.000    3.000    0.000    3.500    0.000    5.667 
#    0.000    0.000    0.000    0.000    0.000    0.000 
#    0.000    1.333    0.000    9.333    0.000    9.167 
#
# Total GULP energy -594783.492443 kJ/mol
# GULP energy per Si atom -12391.322759 kJ/mol
# Density = 1.830789 g / cm^3
# Si number density = 18.349658 Si / 1000 Ang^3
#
#
#
# Elastic Constant Matrix: (Units=GPa)
#
#
# Indices 1 2 3 4 5 6 
#
# 1 61.1067 27.1305 57.8447 0.0000 0.0000 0.0000
# 2 27.1305 61.1073 57.8458 0.0000 0.0000 0.0000
# 3 57.8447 57.8458 188.3446 0.0000 0.0000 0.0000
# 4 0.0000 0.0000 0.0000 0.3733 0.0000 0.0000
# 5 0.0000 0.0000 0.0000 0.0000 0.3739 0.0000
# 6 0.0000 0.0000 0.0000 0.0000 0.0000 16.7277
#
#
#
# Elastic Compliance Matrix: (Units=1/GPa)
#
#
# Indices 1 2 3 4 5 6 
#
# 1 0.024203 -0.005229 -0.005827 0.000000 0.000000 0.000000
# 2 -0.005229 0.024203 -0.005827 0.000000 0.000000 0.000000
# 3 -0.005827 -0.005827 0.008889 0.000000 0.000000 0.000000
# 4 0.000000 0.000000 0.000000 2.678957 0.000000 0.000000
# 5 0.000000 0.000000 0.000000 0.000000 2.674454 0.000000
# 6 0.000000 0.000000 0.000000 0.000000 0.000000 0.059781
#
#
# Mechanical properties :
#
#
# Convention : Reuss Voigt Hill
#
# Bulk Modulus (GPa) = 42.50521 66.24450 54.37485
# Shear Modulus (GPa) = 0.90710 14.67748 7.79229
#
# Velocity S-wave (km/s) = 0.70386 2.83128 2.06295
# Velocity P-wave (km/s) = 4.88619 6.84600 5.94738
#
# Compressibility (1/GPa) = 0.02352653
#
# Stress axis : x y z
#
# Youngs Moduli (GPa) = 41.31784 41.31777 112.50214
#
# Poissons Ratio (x) = 0.21607 0.65555
# Poissons Ratio (y) = 0.21607 0.65557
# Poissons Ratio (z) = 0.24076 0.24077
#
# Static dielectric constant tensor:
#      x y z
#    x 3.039570 0.000000 0.000000 
#    y 0.000000 3.039570 0.000000 
#    z 0.000000 0.000000 3.857740 
# 
# 
# High freq. dielectric constant tensor:
#      x y z
#    x 1.669150 0.000000 0.000000 
#    y 0.000000 1.669150 0.000000 
#    z 0.000000 0.000000 1.740240 
# 
# From -- ./inp_files/6111.got.cif
#   From: 2010.03.12/outbox.cif.g09.slc.cpg/sg115_4_cif.got.tgz:6111.got - 2010.04.14 02:11:21.
