data_PCOD8309601
_publ_section_title
;
Structure prediction by ZEFSAII (Michael W. Deem and Ramdas Pophale) SiO2 
 PCOD8309601
Probable space group: P -4 M 2
;
_chemical_formula_sum "Si O2"
_cell_formula_units_Z 40
_cell_length_a 9.205239
_cell_length_b 9.205239
_cell_length_c 25.631023
_cell_angle_alpha 90.000000
_cell_angle_beta 90.000000
_cell_angle_gamma 90.000000
_cell_volume 2171.881259
_symmetry_space_group_name_H-M "P -4 M 2"
_symmetry_group_IT_number 115
_symmetry_cell_setting 'tetragonal'
loop_
_space_group_symop_operation_xyz
x,y,z
y,-x,-z
-x,-y,z
-y,x,-z
y,x,-z
-y,-x,-z
-x,y,z
x,-y,z
loop_
_atom_site_type_symbol
_atom_site_label
_atom_site_fract_x
_atom_site_fract_y
_atom_site_fract_z
Si Si1 0.329172 0.839534 0.042523
Si Si2 0.169891 0.332005 0.839745
Si Si3 0.331720 0.171181 0.342671
Si Si4 0.670086 0.830170 0.750169
Si Si5 0.161671 0.172614 0.443060
O O1 0.500000 0.843861 0.036632
O O2 0.289139 0.789239 0.100994
O O3 0.264742 0.000000 0.032294
O O4 0.269610 0.730391 0.000000
O O5 0.207436 0.500000 0.828264
O O6 0.266438 0.229399 0.804018
O O7 0.000000 0.304558 0.828934
O O8 0.500000 0.212047 0.340163
O O9 0.248907 0.253455 0.297461
O O10 0.269726 0.227192 0.398054
O O11 0.306344 0.000000 0.335414
O O12 0.500000 0.797015 0.748333
O O13 0.703901 0.000000 0.746362
O O14 0.222152 0.222152 0.500000
O O15 0.000000 0.236349 0.432473
O O16 0.152925 0.000000 0.443652
#
# Coordination Sequence:
#
# PCOD8309601 Si02
#       5
#     8   8   8   8   8
#     4   9  19  35  54  78 108 139 172 211 253 300
#     4   9  19  37  58  78 102 135 174 213 255 305
#     4  10  20  34  54  79 105 136 174 212 253 305
#     4  11  24  38  52  75 105 135 170 214 263 310
#     4   8  14  27  49  75 102 134 172 212 252 295
#
# _framework density 18.417214999999999
#
# number of rings (size 3 to 8) (size 9 to 14) (size 15 to 20)
#    0.000    2.600    0.000    3.600    0.000    7.600 
#    0.000    7.000    0.000    3.600    0.000    0.000 
#    0.000    0.000    0.000    0.000    0.000    0.000 
#
# Total GULP energy -495940.257441 kJ/mol
# GULP energy per Si atom -12398.506436 kJ/mol
# Density = 1.837530 g / cm^3
# Si number density = 18.417215 Si / 1000 Ang^3
#
#
#
# Elastic Constant Matrix: (Units=GPa)
#
#
# Indices 1 2 3 4 5 6 
#
# 1 78.7744 54.0515 71.3602 0.0000 0.0000 0.0000
# 2 54.0515 78.7769 71.3609 0.0000 0.0000 0.0000
# 3 71.3602 71.3609 167.4116 0.0000 0.0000 0.0000
# 4 0.0000 0.0000 0.0000 -300.9483 0.0000 0.0000
# 5 0.0000 0.0000 0.0000 0.0000 -301.0353 0.0000
# 6 0.0000 0.0000 0.0000 0.0000 0.0000 27.3736
#
#
#
# Elastic Compliance Matrix: (Units=1/GPa)
#
#
# Indices 1 2 3 4 5 6 
#
# 1 0.027169 -0.013278 -0.005921 0.000000 0.000000 0.000000
# 2 -0.013278 0.027168 -0.005921 0.000000 0.000000 0.000000
# 3 -0.005921 -0.005921 0.011021 0.000000 0.000000 0.000000
# 4 0.000000 0.000000 0.000000 -0.003323 0.000000 0.000000
# 5 0.000000 0.000000 0.000000 0.000000 -0.003322 0.000000
# 6 0.000000 0.000000 0.000000 0.000000 0.000000 0.036532
#
#
# Mechanical properties :
#
#
# Convention : Reuss Voigt Hill
#
# Bulk Modulus (GPa) = 66.14493 79.83424 72.98959
# Shear Modulus (GPa) = 33.21734 -106.37600 -36.57933
#
# Velocity S-wave (km/s) = 4.25149 -7.60818 -4.46146
# Velocity P-wave (km/s) = 7.75196 5.80840 3.63012
#
# Compressibility (1/GPa) = 0.01511832
#
# Stress axis : x y z
#
# Youngs Moduli (GPa) = 36.80672 36.80813 90.73548
#
# Poissons Ratio (x) = 0.48873 0.53726
# Poissons Ratio (y) = 0.48871 0.53723
# Poissons Ratio (z) = 0.21794 0.21794
#
# Static dielectric constant tensor:
#      x y z
#    x 4.292470 0.000000 0.000000 
#    y 0.000000 4.292220 0.000000 
#    z 0.000000 0.000000 3.719790 
# 
# 
# High freq. dielectric constant tensor:
#      x y z
#    x 1.700150 0.000000 0.000000 
#    y 0.000000 1.700150 0.000000 
#    z 0.000000 0.000000 1.732630 
# 
# From -- ./inp_files/5080.got.cif
#   From: 2010.03.12/outbox.cif.g09.slc.cpg/sg115_3_cif.got.tgz:5080.got - 2010.04.14 02:11:21.
