data_PCOD8309678
_publ_section_title
;
Structure prediction by ZEFSAII (Michael W. Deem and Ramdas Pophale) SiO2 
 PCOD8309678
Probable space group: P -4 M 2
;
_chemical_formula_sum "Si O2"
_cell_formula_units_Z 44
_cell_length_a 9.115171
_cell_length_b 9.115171
_cell_length_c 28.633082
_cell_angle_alpha 90.000000
_cell_angle_beta 90.000000
_cell_angle_gamma 90.000000
_cell_volume 2379.018054
_symmetry_space_group_name_H-M "P -4 M 2"
_symmetry_group_IT_number 115
_symmetry_cell_setting 'tetragonal'
loop_
_space_group_symop_operation_xyz
x,y,z
y,-x,-z
-x,-y,z
-y,x,-z
y,x,-z
-y,-x,-z
-x,y,z
x,-y,z
loop_
_atom_site_type_symbol
_atom_site_label
_atom_site_fract_x
_atom_site_fract_y
_atom_site_fract_z
Si Si1 0.327272 0.670907 0.915468
Si Si2 0.835003 0.674143 0.822408
Si Si3 0.663646 0.675103 0.449005
Si Si4 0.669442 0.327720 0.731410
Si Si5 0.828213 0.828213 0.000000
Si Si6 0.835513 0.674805 0.360282
O O1 0.500000 0.698728 0.914049
O O2 0.291838 0.500000 0.925007
O O3 0.259112 0.725836 0.866748
O O4 0.256010 0.768857 0.955194
O O5 0.836411 0.500000 0.820396
O O6 0.759815 0.734881 0.775399
O O7 0.000000 0.736836 0.826377
O O8 0.724778 0.724778 0.500000
O O9 0.500000 0.736737 0.440846
O O10 0.660024 0.500000 0.448081
O O11 0.764760 0.738878 0.407736
O O12 0.500000 0.287983 0.740019
O O13 0.691368 0.500000 0.724976
O O14 0.731999 0.252020 0.684840
O O15 0.000000 0.795852 0.994210
O O16 0.830174 0.500000 0.361668
O O17 0.000000 0.734748 0.357054
#
# Coordination Sequence:
#
# PCOD8309678 Si02
#       6
#     8   8   8   8   4   8
#     4  10  20  35  57  83 107 133 169 210 251 297
#     4   9  17  30  50  75 101 129 162 202 245 286
#     4   8  13  22  38  60  84 111 146 187 229 274
#     4   9  16  27  45  68  93 122 157 195 234 279
#     4  11  24  39  54  76 108 143 176 209 248 294
#     4   9  16  25  39  62  91 119 148 187 234 279
#
# _framework density 18.495024000000001
#
# number of rings (size 3 to 8) (size 9 to 14) (size 15 to 20)
#    0.000    2.818    0.000    2.727    0.000    7.273 
#    0.000    0.909    0.000    4.909    0.000    5.091 
#    0.000    0.000    0.000    0.000    0.000    0.000 
#
# Total GULP energy -545510.173599 kJ/mol
# GULP energy per Si atom -12397.958491 kJ/mol
# Density = 1.845293 g / cm^3
# Si number density = 18.495024 Si / 1000 Ang^3
#
#
#
# Elastic Constant Matrix: (Units=GPa)
#
#
# Indices 1 2 3 4 5 6 
#
# 1 70.3674 33.0675 59.8314 0.0000 0.0000 0.0000
# 2 33.0675 70.3674 59.8314 0.0000 0.0000 0.0000
# 3 59.8314 59.8314 191.9419 0.0000 0.0000 0.0000
# 4 0.0000 0.0000 0.0000 2.1454 0.0000 0.0000
# 5 0.0000 0.0000 0.0000 0.0000 2.1454 0.0000
# 6 0.0000 0.0000 0.0000 0.0000 0.0000 13.8270
#
#
#
# Elastic Compliance Matrix: (Units=1/GPa)
#
#
# Indices 1 2 3 4 5 6 
#
# 1 0.020965 -0.005844 -0.004713 0.000000 0.000000 0.000000
# 2 -0.005844 0.020965 -0.004713 0.000000 0.000000 0.000000
# 3 -0.004713 -0.004713 0.008148 0.000000 0.000000 0.000000
# 4 0.000000 0.000000 0.000000 0.466114 0.000000 0.000000
# 5 0.000000 0.000000 0.000000 0.000000 0.466114 0.000000
# 6 0.000000 0.000000 0.000000 0.000000 0.000000 0.072322
#
#
# Mechanical properties :
#
#
# Convention : Reuss Voigt Hill
#
# Bulk Modulus (GPa) = 51.18649 70.90413 61.04531
# Shear Modulus (GPa) = 4.58008 15.61998 10.10003
#
# Velocity S-wave (km/s) = 1.57536 2.90927 2.33940
# Velocity P-wave (km/s) = 5.57180 7.05019 6.35414
#
# Compressibility (1/GPa) = 0.01953641
#
# Stress axis : x y z
#
# Youngs Moduli (GPa) = 47.69791 47.69791 122.72351
#
# Poissons Ratio (x) = 0.27877 0.57845
# Poissons Ratio (y) = 0.27877 0.57845
# Poissons Ratio (z) = 0.22482 0.22482
#
# Static dielectric constant tensor:
#      x y z
#    x 3.188320 0.000000 0.000000 
#    y 0.000000 3.188320 0.000000 
#    z 0.000000 0.000000 3.780610 
# 
# 
# High freq. dielectric constant tensor:
#      x y z
#    x 1.685210 0.000000 0.000000 
#    y 0.000000 1.685210 0.000000 
#    z 0.000000 0.000000 1.739480 
# 
# From -- ./inp_files/5837.got.cif
#   From: 2010.03.12/outbox.cif.g09.slc.cpg/sg115_3_cif.got.tgz:5837.got - 2010.04.14 02:11:21.
