data_PCOD8309824
_publ_section_title
;
Structure prediction by ZEFSAII (Michael W. Deem and Ramdas Pophale) SiO2 
 PCOD8309824
Probable space group: P -4 M 2
;
_chemical_formula_sum "Si O2"
_cell_formula_units_Z 44
_cell_length_a 9.234238
_cell_length_b 9.234238
_cell_length_c 28.397173
_cell_angle_alpha 90.000000
_cell_angle_beta 90.000000
_cell_angle_gamma 90.000000
_cell_volume 2421.459639
_symmetry_space_group_name_H-M "P -4 M 2"
_symmetry_group_IT_number 115
_symmetry_cell_setting 'tetragonal'
loop_
_space_group_symop_operation_xyz
x,y,z
y,-x,-z
-x,-y,z
-y,x,-z
y,x,-z
-y,-x,-z
-x,y,z
x,-y,z
loop_
_atom_site_type_symbol
_atom_site_label
_atom_site_fract_x
_atom_site_fract_y
_atom_site_fract_z
Si Si1 0.829818 0.667257 0.959234
Si Si2 0.169470 0.333017 0.226905
Si Si3 0.336488 0.172388 0.592026
Si Si4 0.168533 0.168533 0.500000
Si Si5 0.172616 0.163669 0.318058
Si Si6 0.668418 0.333581 0.134075
O O1 0.790273 0.500000 0.969139
O O2 0.761678 0.719066 0.910036
O O3 0.000000 0.692440 0.956727
O O4 0.764867 0.764867 0.000000
O O5 0.207133 0.500000 0.237149
O O6 0.229022 0.240069 0.270616
O O7 0.247040 0.277224 0.179813
O O8 0.000000 0.309618 0.219650
O O9 0.500000 0.232813 0.592793
O O10 0.257128 0.225934 0.544860
O O11 0.250731 0.234636 0.637094
O O12 0.336219 0.000000 0.593763
O O13 0.000000 0.197321 0.510070
O O14 0.000000 0.165634 0.319210
O O15 0.231938 0.000000 0.319729
O O16 0.500000 0.313045 0.144455
O O17 0.707487 0.500000 0.122969
#
# Coordination Sequence:
#
# PCOD8309824 Si02
#       6
#     8   8   8   4   8   8
#     4  10  21  36  54  76 101 130 165 205 249 297
#     4   9  17  29  46  69  96 125 158 196 236 279
#     4   9  16  26  42  64  90 120 152 187 228 274
#     4   9  16  26  42  65  90 114 144 185 230 272
#     4   9  16  26  42  66  95 124 154 190 233 279
#     4   9  18  33  52  72  96 129 166 201 239 287
#
# _framework density 18.170859
#
# number of rings (size 3 to 8) (size 9 to 14) (size 15 to 20)
#    0.000    2.818    0.000    1.636    0.000    6.909 
#    0.000    1.818    0.000    1.364    0.000    0.000 
#    0.000    0.000    0.000    0.000    0.000    0.000 
#
# Total GULP energy -545649.041812 kJ/mol
# GULP energy per Si atom -12401.114587 kJ/mol
# Density = 1.812950 g / cm^3
# Si number density = 18.170859 Si / 1000 Ang^3
#
#
#
# Elastic Constant Matrix: (Units=GPa)
#
#
# Indices 1 2 3 4 5 6 
#
# 1 72.5472 34.1279 73.6104 0.0000 0.0000 0.0000
# 2 34.1279 72.5472 73.6104 0.0000 0.0000 0.0000
# 3 73.6104 73.6104 198.8771 0.0000 0.0000 0.0000
# 4 0.0000 0.0000 0.0000 21.5360 0.0000 0.0000
# 5 0.0000 0.0000 0.0000 0.0000 21.5360 0.0000
# 6 0.0000 0.0000 0.0000 0.0000 0.0000 14.4228
#
#
#
# Elastic Compliance Matrix: (Units=1/GPa)
#
#
# Indices 1 2 3 4 5 6 
#
# 1 0.022596 -0.003433 -0.007093 0.000000 0.000000 0.000000
# 2 -0.003433 0.022596 -0.007093 0.000000 0.000000 0.000000
# 3 -0.007093 -0.007093 0.010279 0.000000 0.000000 0.000000
# 4 0.000000 0.000000 0.000000 0.046434 0.000000 0.000000
# 5 0.000000 0.000000 0.000000 0.000000 0.046434 0.000000
# 6 0.000000 0.000000 0.000000 0.000000 0.000000 0.069335
#
#
# Mechanical properties :
#
#
# Convention : Reuss Voigt Hill
#
# Bulk Modulus (GPa) = 49.42313 78.51878 63.97095
# Shear Modulus (GPa) = 19.25640 22.34047 20.79843
#
# Velocity S-wave (km/s) = 3.25890 3.51018 3.38687
# Velocity P-wave (km/s) = 6.43574 7.72876 7.11169
#
# Compressibility (1/GPa) = 0.02023344
#
# Stress axis : x y z
#
# Youngs Moduli (GPa) = 44.25613 44.25613 97.28839
#
# Poissons Ratio (x) = 0.15193 0.69004
# Poissons Ratio (y) = 0.15193 0.69004
# Poissons Ratio (z) = 0.31390 0.31390
#
# Static dielectric constant tensor:
#      x y z
#    x 3.179760 0.000000 0.000000 
#    y 0.000000 3.179760 0.000000 
#    z 0.000000 0.000000 3.559840 
# 
# 
# High freq. dielectric constant tensor:
#      x y z
#    x 1.680390 0.000000 0.000000 
#    y 0.000000 1.680390 0.000000 
#    z 0.000000 0.000000 1.719770 
# 
# From -- ./inp_files/5766.got.cif
#   From: 2010.03.12/outbox.cif.g09.slc.cpg/sg115_3_cif.got.tgz:5766.got - 2010.04.14 02:11:21.
