data_PCOD8309920
_publ_section_title
;
Structure prediction by ZEFSAII (Michael W. Deem and Ramdas Pophale) SiO2 
 PCOD8309920
Probable space group: P -4 M 2
;
_chemical_formula_sum "Si O2"
_cell_formula_units_Z 44
_cell_length_a 9.245822
_cell_length_b 9.245822
_cell_length_c 28.332080
_cell_angle_alpha 90.000000
_cell_angle_beta 90.000000
_cell_angle_gamma 90.000000
_cell_volume 2421.974218
_symmetry_space_group_name_H-M "P -4 M 2"
_symmetry_group_IT_number 115
_symmetry_cell_setting 'tetragonal'
loop_
_space_group_symop_operation_xyz
x,y,z
y,-x,-z
-x,-y,z
-y,x,-z
y,x,-z
-y,-x,-z
-x,y,z
x,-y,z
loop_
_atom_site_type_symbol
_atom_site_label
_atom_site_fract_x
_atom_site_fract_y
_atom_site_fract_z
Si Si1 0.160568 0.173076 0.051225
Si Si2 0.169830 0.331307 0.323684
Si Si3 0.334541 0.334541 0.500000
Si Si4 0.341099 0.171038 0.137670
Si Si5 0.833608 0.671112 0.757276
Si Si6 0.169179 0.332521 0.594197
O O1 0.249135 0.239524 0.095027
O O2 0.000000 0.234347 0.057602
O O3 0.159500 0.000000 0.052154
O O4 0.223317 0.223317 0.000000
O O5 0.205508 0.500000 0.328934
O O6 0.242900 0.273049 0.276369
O O7 0.233016 0.247957 0.368230
O O8 0.000000 0.301819 0.320937
O O9 0.309896 0.500000 0.483969
O O10 0.230685 0.292880 0.542953
O O11 0.500000 0.239427 0.133731
O O12 0.276923 0.205086 0.189517
O O13 0.349899 0.000000 0.131473
O O14 0.808872 0.500000 0.751883
O O15 0.000000 0.708610 0.744819
O O16 0.199620 0.500000 0.606525
O O17 0.000000 0.297807 0.594827
#
# Coordination Sequence:
#
# PCOD8309920 Si02
#       6
#     8   8   4   8   8   8
#     4   8  13  21  35  58  87 118 154 193 230 274
#     4  11  24  38  52  74 104 136 170 209 252 299
#     4   9  18  34  56  81 110 144 178 209 244 289
#     4   8  14  25  42  65  92 120 152 193 239 287
#     4   9  18  33  53  76  99 125 163 209 253 300
#     4  10  21  37  58  83 109 138 173 211 249 293
#
# _framework density 18.166996999999999
#
# number of rings (size 3 to 8) (size 9 to 14) (size 15 to 20)
#    0.000    2.818    0.000    3.273    0.000    6.545 
#    0.000    3.636    0.000    1.091    0.000    2.545 
#    0.000    0.000    0.000    0.000    0.000    0.000 
#
# Total GULP energy -545420.742061 kJ/mol
# GULP energy per Si atom -12395.925956 kJ/mol
# Density = 1.812565 g / cm^3
# Si number density = 18.166997 Si / 1000 Ang^3
#
#
#
# Elastic Constant Matrix: (Units=GPa)
#
#
# Indices 1 2 3 4 5 6 
#
# 1 76.3067 45.1862 69.3792 0.0000 0.0000 0.0000
# 2 45.1862 76.3067 69.3792 0.0000 0.0000 0.0000
# 3 69.3792 69.3792 160.5872 0.0000 0.0000 0.0000
# 4 0.0000 0.0000 0.0000 -169.6472 0.0000 0.0000
# 5 0.0000 0.0000 0.0000 0.0000 -169.6472 0.0000
# 6 0.0000 0.0000 0.0000 0.0000 0.0000 21.8436
#
#
#
# Elastic Compliance Matrix: (Units=1/GPa)
#
#
# Indices 1 2 3 4 5 6 
#
# 1 0.024191 -0.007942 -0.007020 0.000000 0.000000 0.000000
# 2 -0.007942 0.024191 -0.007020 0.000000 0.000000 0.000000
# 3 -0.007020 -0.007020 0.012293 0.000000 0.000000 0.000000
# 4 0.000000 0.000000 0.000000 -0.005895 0.000000 0.000000
# 5 0.000000 0.000000 0.000000 0.000000 -0.005895 0.000000
# 6 0.000000 0.000000 0.000000 0.000000 0.000000 0.045780
#
#
# Mechanical properties :
#
#
# Convention : Reuss Voigt Hill
#
# Bulk Modulus (GPa) = 59.84392 75.67661 67.76027
# Shear Modulus (GPa) = 34.67418 -54.87308 -10.09945
#
# Velocity S-wave (km/s) = 4.37353 -5.50185 -2.36036
# Velocity P-wave (km/s) = 7.64959 1.17729 5.47276
#
# Compressibility (1/GPa) = 0.01671014
#
# Stress axis : x y z
#
# Youngs Moduli (GPa) = 41.33804 41.33804 81.34850
#
# Poissons Ratio (x) = 0.32832 0.57106
# Poissons Ratio (y) = 0.32832 0.57106
# Poissons Ratio (z) = 0.29019 0.29019
#
# Static dielectric constant tensor:
#      x y z
#    x 3.275660 0.000000 0.000000 
#    y 0.000000 3.275660 0.000000 
#    z 0.000000 0.000000 3.629970 
# 
# 
# High freq. dielectric constant tensor:
#      x y z
#    x 1.680310 0.000000 0.000000 
#    y 0.000000 1.680310 0.000000 
#    z 0.000000 0.000000 1.723410 
# 
# From -- ./inp_files/5694.got.cif
#   From: 2010.03.12/outbox.cif.g09.slc.cpg/sg115_3_cif.got.tgz:5694.got - 2010.04.14 02:11:21.
