data_PCOD8309105
_publ_section_title
;
Structure prediction by ZEFSAII (Michael W. Deem and Ramdas Pophale) SiO2 
 PCOD8309105
Probable space group: P -4 21 C
;
_chemical_formula_sum "Si O2"
_cell_formula_units_Z 56
_cell_length_a 14.970300
_cell_length_b 14.970300
_cell_length_c 11.192889
_cell_angle_alpha 90.000000
_cell_angle_beta 90.000000
_cell_angle_gamma 90.000000
_cell_volume 2508.437034
_symmetry_space_group_name_H-M "P -4 21 C"
_symmetry_group_IT_number 114
_symmetry_cell_setting 'tetragonal'
loop_
_space_group_symop_operation_xyz
x,y,z
y,-x,-z
-x,-y,z
-y,x,-z
1/2+x,1/2-y,1/2-z
1/2-x,1/2+y,1/2-z
1/2-y,1/2-x,1/2+z
1/2+y,1/2+x,1/2+z
loop_
_atom_site_type_symbol
_atom_site_label
_atom_site_fract_x
_atom_site_fract_y
_atom_site_fract_z
Si Si1 0.526059 0.272260 0.131943
Si Si2 0.473940 0.727741 0.868067
Si Si3 0.155308 0.807043 0.758368
Si Si4 0.454079 0.094239 0.871218
Si Si5 0.626777 0.420183 0.500000
Si Si6 0.192960 0.155313 0.758368
Si Si7 0.454082 0.094241 0.128811
O O1 0.593839 0.310399 0.227656
O O2 0.422225 0.286876 0.164032
O O3 0.535063 0.164939 0.130167
O O4 0.545073 0.312705 0.000005
O O5 0.577771 0.713118 0.835973
O O6 0.464942 0.835062 0.869851
O O7 0.406155 0.689609 0.772354
O O8 0.235429 0.735434 0.749998
O O9 0.113813 0.814406 0.889346
O O10 0.392411 0.107582 0.750016
O O11 0.500000 0.000000 0.863510
O O12 0.401329 0.102599 0.000016
O O13 0.527544 0.378531 0.499994
O O14 0.685589 0.386178 0.610653
O O15 0.500000 0.000000 0.136536
#
# Coordination Sequence:
#
# PCOD8309105 Si02
#       7
#     8   8   8   8   8   8   8
#     4  11  25  46  68 102 139 188 239 296 362 440
#     4  11  25  46  68 102 139 188 239 296 362 440
#     4  12  27  47  73 107 146 188 242 303 369 438
#     4   9  19  38  62  92 131 176 229 285 349 429
#     4  11  24  52  80 106 146 195 254 318 376 435
#     4  12  27  47  73 107 146 188 242 303 369 438
#     4   9  19  38  62  92 131 176 229 285 349 429
#
# _framework density 22.324657999999999
#
# number of rings (size 3 to 8) (size 9 to 14) (size 15 to 20)
#    0.000    1.286    2.857    1.714    8.000    0.571 
#    5.143    1.429    0.000    0.000    0.000    0.000 
#    0.000    0.000    0.000    0.000    0.000    0.000 
#
# Total GULP energy -693790.008539 kJ/mol
# GULP energy per Si atom -12389.107295 kJ/mol
# Density = 2.227385 g / cm^3
# Si number density = 22.324658 Si / 1000 Ang^3
#
#
#
# Elastic Constant Matrix: (Units=GPa)
#
#
# Indices 1 2 3 4 5 6 
#
# 1 89.9388 28.1137 16.2389 0.0000 0.0000 0.0000
# 2 28.1137 89.9388 16.2389 0.0000 0.0000 0.0000
# 3 16.2389 16.2389 184.0021 0.0000 0.0000 0.0000
# 4 0.0000 0.0000 0.0000 26.1038 0.0000 0.0000
# 5 0.0000 0.0000 0.0000 0.0000 26.1038 0.0000
# 6 0.0000 0.0000 0.0000 0.0000 0.0000 31.9692
#
#
#
# Elastic Compliance Matrix: (Units=1/GPa)
#
#
# Indices 1 2 3 4 5 6 
#
# 1 0.012428 -0.003747 -0.000766 0.000000 0.000000 0.000000
# 2 -0.003747 0.012428 -0.000766 0.000000 0.000000 0.000000
# 3 -0.000766 -0.000766 0.005570 0.000000 0.000000 0.000000
# 4 0.000000 0.000000 0.000000 0.038309 0.000000 0.000000
# 5 0.000000 0.000000 0.000000 0.000000 0.038309 0.000000
# 6 0.000000 0.000000 0.000000 0.000000 0.000000 0.031280
#
#
# Mechanical properties :
#
#
# Convention : Reuss Voigt Hill
#
# Bulk Modulus (GPa) = 50.33116 53.89587 52.11352
# Shear Modulus (GPa) = 32.15348 37.05457 34.60403
#
# Velocity S-wave (km/s) = 3.79920 4.07849 3.94132
# Velocity P-wave (km/s) = 6.46833 6.80978 6.64125
#
# Compressibility (1/GPa) = 0.01986841
#
# Stress axis : x y z
#
# Youngs Moduli (GPa) = 80.46272 80.46272 179.53459
#
# Poissons Ratio (x) = 0.30146 0.13756
# Poissons Ratio (y) = 0.30146 0.13756
# Poissons Ratio (z) = 0.06165 0.06165
#
# Static dielectric constant tensor:
#      x y z
#    x 3.938220 0.000000 0.000000 
#    y 0.000000 3.938220 0.000000 
#    z 0.000000 0.000000 -4.450270 
# 
# 
# High freq. dielectric constant tensor:
#      x y z
#    x 1.872730 0.000000 0.000000 
#    y 0.000000 1.872730 0.000000 
#    z 0.000000 0.000000 1.907970 
# 
# From -- ./inp_files/1756.got.cif
#   From: 2010.03.12/outbox.cif.g09.slc.cpg/sg114_1_cif.got.tgz:1756.got - 2010.04.14 02:08:34.
