data_PCOD8309189
_publ_section_title
;
Structure prediction by ZEFSAII (Michael W. Deem and Ramdas Pophale) SiO2 
 PCOD8309189
Probable space group: P -4 M 2
;
_chemical_formula_sum "Si O2"
_cell_formula_units_Z 64
_cell_length_a 14.398292
_cell_length_b 14.398292
_cell_length_c 19.953814
_cell_angle_alpha 90.000000
_cell_angle_beta 90.000000
_cell_angle_gamma 90.000000
_cell_volume 4136.641393
_symmetry_space_group_name_H-M "P -4 M 2"
_symmetry_group_IT_number 115
_symmetry_cell_setting 'tetragonal'
loop_
_space_group_symop_operation_xyz
x,y,z
y,-x,-z
-x,-y,z
-y,x,-z
y,x,-z
-y,-x,-z
-x,y,z
x,-y,z
loop_
_atom_site_type_symbol
_atom_site_label
_atom_site_fract_x
_atom_site_fract_y
_atom_site_fract_z
Si Si1 0.893055 0.392891 0.796721
Si Si2 0.609008 0.896503 0.577549
Si Si3 0.107100 0.745746 0.914553
Si Si4 0.393164 0.894906 0.820541
Si Si5 0.609932 0.770234 0.698273
Si Si6 0.255141 0.105601 0.933780
Si Si7 0.606993 0.744832 0.315427
Si Si8 0.607225 0.248663 0.470022
O O1 0.878146 0.500000 0.816650
O O2 0.862713 0.333151 0.861584
O O3 0.831330 0.365881 0.732162
O O4 0.000000 0.373517 0.777233
O O5 0.500000 0.907132 0.588948
O O6 0.648738 0.830100 0.635857
O O7 0.632333 0.847737 0.506998
O O8 0.654173 0.000000 0.579258
O O9 0.168089 0.837439 0.905274
O O10 0.000000 0.773017 0.903814
O O11 0.126344 0.711552 0.990428
O O12 0.500000 0.879582 0.835638
O O13 0.358239 0.826089 0.763450
O O14 0.343586 0.869775 0.889415
O O15 0.372591 0.000000 0.796630
O O16 0.500000 0.755315 0.693595
O O17 0.655982 0.669227 0.702008
O O18 0.222865 0.000000 0.926256
O O19 0.500000 0.715986 0.304516
O O20 0.626161 0.772249 0.392297
O O21 0.667266 0.332735 0.500000
O O22 0.500000 0.276186 0.483138
#
# Coordination Sequence:
#
# PCOD8309189 Si02
#       8
#     8   8   8   8   8   8   8   8
#     4   9  18  32  48  66  88 117 153 190 228 264
#     4   9  17  29  45  64  86 113 144 177 215 258
#     4   9  17  29  45  64  88 118 149 182 222 269
#     4   9  17  28  43  64  88 114 145 181 222 261
#     4  10  18  29  45  64  90 120 146 177 215 260
#     4   9  17  28  43  65  91 117 146 182 223 267
#     4  10  20  31  46  66  90 119 149 182 219 261
#     4  10  19  31  45  65  92 119 146 179 218 262
#
# _framework density 15.471489
#
# number of rings (size 3 to 8) (size 9 to 14) (size 15 to 20)
#    0.000    2.625    1.250    1.125    0.000    3.125 
#    0.000    7.500    0.000    0.000    0.000    0.000 
#    0.000    1.250    0.000   23.250    0.000    0.625 
#
# Total GULP energy -793390.263055 kJ/mol
# GULP energy per Si atom -12396.722860 kJ/mol
# Density = 1.543627 g / cm^3
# Si number density = 15.471489 Si / 1000 Ang^3
#
#
#
# Elastic Constant Matrix: (Units=GPa)
#
#
# Indices 1 2 3 4 5 6 
#
# 1 75.2155 49.6006 58.9222 0.0000 0.0000 0.0000
# 2 49.6006 75.2148 58.9224 0.0000 0.0000 0.0000
# 3 58.9222 58.9224 118.5446 0.0000 0.0000 0.0000
# 4 0.0000 0.0000 0.0000 24.8990 0.0000 0.0000
# 5 0.0000 0.0000 0.0000 0.0000 24.8991 0.0000
# 6 0.0000 0.0000 0.0000 0.0000 0.0000 22.4290
#
#
#
# Elastic Compliance Matrix: (Units=1/GPa)
#
#
# Indices 1 2 3 4 5 6 
#
# 1 0.027068 -0.011972 -0.007503 0.000000 0.000000 0.000000
# 2 -0.011972 0.027069 -0.007504 0.000000 0.000000 0.000000
# 3 -0.007503 -0.007504 0.015895 0.000000 0.000000 0.000000
# 4 0.000000 0.000000 0.000000 0.040162 0.000000 0.000000
# 5 0.000000 0.000000 0.000000 0.000000 0.040162 0.000000
# 6 0.000000 0.000000 0.000000 0.000000 0.000000 0.044585
#
#
# Mechanical properties :
#
#
# Convention : Reuss Voigt Hill
#
# Bulk Modulus (GPa) = 62.21537 67.09615 64.65576
# Shear Modulus (GPa) = 19.66512 21.21405 20.43959
#
# Velocity S-wave (km/s) = 3.56905 3.70695 3.63866
# Velocity P-wave (km/s) = 7.56865 7.86026 7.71583
#
# Compressibility (1/GPa) = 0.01607320
#
# Stress axis : x y z
#
# Youngs Moduli (GPa) = 36.94392 36.94314 62.91319
#
# Poissons Ratio (x) = 0.44228 0.47206
# Poissons Ratio (y) = 0.44229 0.47209
# Poissons Ratio (z) = 0.27721 0.27721
#
# Static dielectric constant tensor:
#      x y z
#    x 2.912000 0.000000 0.000000 
#    y 0.000000 2.912000 0.000000 
#    z 0.000000 0.000000 3.141890 
# 
# 
# High freq. dielectric constant tensor:
#      x y z
#    x 1.581230 0.000000 0.000000 
#    y 0.000000 1.581230 0.000000 
#    z 0.000000 0.000000 1.604140 
# 
# From -- ./inp_files/4411.got.cif
#   From: 2010.03.12/outbox.cif.g09.slc.cpg/sg115_3_cif.got.tgz:4411.got - 2010.04.14 02:11:21.
