data_PCOD8309078
_publ_section_title
;
Structure prediction by ZEFSAII (Michael W. Deem and Ramdas Pophale) SiO2 
 PCOD8309078
Probable space group: P -4 21 C
;
_chemical_formula_sum "Si O2"
_cell_formula_units_Z 40
_cell_length_a 9.459717
_cell_length_b 9.459717
_cell_length_c 21.947489
_cell_angle_alpha 90.000000
_cell_angle_beta 90.000000
_cell_angle_gamma 90.000000
_cell_volume 1963.998394
_symmetry_space_group_name_H-M "P -4 21 C"
_symmetry_group_IT_number 114
_symmetry_cell_setting 'tetragonal'
loop_
_space_group_symop_operation_xyz
x,y,z
y,-x,-z
-x,-y,z
-y,x,-z
1/2+x,1/2-y,1/2-z
1/2-x,1/2+y,1/2-z
1/2-y,1/2-x,1/2+z
1/2+y,1/2+x,1/2+z
loop_
_atom_site_type_symbol
_atom_site_label
_atom_site_fract_x
_atom_site_fract_y
_atom_site_fract_z
Si Si1 0.735751 0.831397 0.887477
Si Si2 0.168603 0.264249 0.112523
Si Si3 0.000000 0.334834 0.706435
Si Si4 0.830048 0.500000 0.343281
Si Si5 0.343163 0.656837 1.000000
O O1 0.637388 0.788421 0.830797
O O2 0.666975 0.781623 0.950513
O O3 0.871597 0.736001 0.879597
O O4 0.765405 1.000000 0.890016
O O5 0.211578 0.362611 0.169204
O O6 0.263999 0.128403 0.120403
O O7 0.218377 0.333026 0.049487
O O8 1.000000 0.269156 0.774069
O O9 0.000000 0.500000 0.714878
O O10 0.000000 0.500000 0.347149
O O11 0.500000 0.671551 0.029880
#
# Coordination Sequence:
#
# PCOD8309078 Si02
#       5
#     8   8   8   8   8
#     4  11  23  42  65  95 130 170 216 269 324 379
#     4  11  23  42  65  95 130 170 216 269 324 379
#     4   9  20  41  67  95 129 169 210 269 326 385
#     4  11  23  41  65  97 133 169 216 261 324 389
#     4  11  24  42  63  90 128 170 221 266 325 394
#
# _framework density 20.366617000000002
#
# number of rings (size 3 to 8) (size 9 to 14) (size 15 to 20)
#    0.000    1.400    2.000    3.000    2.800    0.000 
#    0.000    6.000    0.000    0.000    0.000    0.000 
#    0.000    0.000    0.000    0.000    0.000    0.000 
#
# Total GULP energy -495858.102827 kJ/mol
# GULP energy per Si atom -12396.452571 kJ/mol
# Density = 2.032026 g / cm^3
# Si number density = 20.366617 Si / 1000 Ang^3
#
#
#
# Elastic Constant Matrix: (Units=GPa)
#
#
# Indices 1 2 3 4 5 6 
#
# 1 123.1271 50.7744 26.9564 0.0000 0.0000 0.0000
# 2 50.7744 123.1271 26.9564 0.0000 0.0000 0.0000
# 3 26.9564 26.9564 77.8596 0.0000 0.0000 0.0000
# 4 0.0000 0.0000 0.0000 42.1709 0.0000 0.0000
# 5 0.0000 0.0000 0.0000 0.0000 42.1709 0.0000
# 6 0.0000 0.0000 0.0000 0.0000 0.0000 10.9617
#
#
#
# Elastic Compliance Matrix: (Units=1/GPa)
#
#
# Indices 1 2 3 4 5 6 
#
# 1 0.010131 -0.003690 -0.002230 0.000000 0.000000 0.000000
# 2 -0.003690 0.010131 -0.002230 0.000000 0.000000 0.000000
# 3 -0.002230 -0.002230 0.014388 0.000000 0.000000 0.000000
# 4 0.000000 0.000000 0.000000 0.023713 0.000000 0.000000
# 5 0.000000 0.000000 0.000000 0.000000 0.023713 0.000000
# 6 0.000000 0.000000 0.000000 0.000000 0.000000 0.091227
#
#
# Mechanical properties :
#
#
# Convention : Reuss Voigt Hill
#
# Bulk Modulus (GPa) = 54.49445 59.27645 56.88545
# Shear Modulus (GPa) = 25.54658 33.68916 29.61787
#
# Velocity S-wave (km/s) = 3.54550 4.07152 3.81758
# Velocity P-wave (km/s) = 6.60118 7.16037 6.88646
#
# Compressibility (1/GPa) = 0.01835049
#
# Stress axis : x y z
#
# Youngs Moduli (GPa) = 98.70217 98.70217 69.50259
#
# Poissons Ratio (x) = 0.36418 0.15501
# Poissons Ratio (y) = 0.36418 0.15501
# Poissons Ratio (z) = 0.22013 0.22013
#
# Static dielectric constant tensor:
#      x y z
#    x 3.655280 0.000000 0.000000 
#    y 0.000000 3.655280 0.000000 
#    z 0.000000 0.000000 3.897930 
# 
# 
# High freq. dielectric constant tensor:
#      x y z
#    x 1.800290 0.000000 0.000000 
#    y 0.000000 1.800290 0.000000 
#    z 0.000000 0.000000 1.798040 
# 
# From -- ./inp_files/3328.got.cif
#   From: 2010.03.12/outbox.cif.g09.slc.cpg/sg114_2_cif.got.tgz:3328.got - 2010.04.14 02:08:34.
