data_PCOD8309193
_publ_section_title
;
Structure prediction by ZEFSAII (Michael W. Deem and Ramdas Pophale) SiO2 
 PCOD8309193
Probable space group: P -4 M 2
;
_chemical_formula_sum "Si O2"
_cell_formula_units_Z 64
_cell_length_a 14.573687
_cell_length_b 14.573687
_cell_length_c 19.749741
_cell_angle_alpha 90.000000
_cell_angle_beta 90.000000
_cell_angle_gamma 90.000000
_cell_volume 4194.693958
_symmetry_space_group_name_H-M "P -4 M 2"
_symmetry_group_IT_number 115
_symmetry_cell_setting 'tetragonal'
loop_
_space_group_symop_operation_xyz
x,y,z
y,-x,-z
-x,-y,z
-y,x,-z
y,x,-z
-y,-x,-z
-x,y,z
x,-y,z
loop_
_atom_site_type_symbol
_atom_site_label
_atom_site_fract_x
_atom_site_fract_y
_atom_site_fract_z
Si Si1 0.402045 0.277238 0.041294
Si Si2 0.393623 0.746951 0.195372
Si Si3 0.681147 0.898987 0.008067
Si Si4 0.397859 0.608551 0.426144
Si Si5 0.102067 0.604593 0.235094
Si Si6 0.293141 0.392580 0.294464
Si Si7 0.103678 0.763123 0.131896
Si Si8 0.256461 0.896698 0.158516
O O1 0.500000 0.319650 0.021083
O O2 0.384182 0.292954 0.120120
O O3 0.322074 0.322074 0.000000
O O4 0.402928 0.170246 0.020277
O O5 0.500000 0.763749 0.215383
O O6 0.348476 0.669818 0.241943
O O7 0.340252 0.844603 0.196787
O O8 0.747146 0.866902 0.946329
O O9 0.641173 0.000000 0.990977
O O10 0.737110 0.901555 0.077644
O O11 0.359824 0.640177 0.500000
O O12 0.500000 0.649451 0.410997
O O13 0.406166 0.500000 0.428169
O O14 0.325701 0.639578 0.368907
O O15 0.109367 0.500000 0.209864
O O16 0.183305 0.624489 0.289309
O O17 0.117364 0.666156 0.169203
O O18 0.000000 0.622989 0.267133
O O19 0.317257 0.500000 0.281294
O O20 0.163812 0.839165 0.170802
O O21 0.000000 0.798941 0.136500
O O22 0.250180 0.000000 0.188697
#
# Coordination Sequence:
#
# PCOD8309193 Si02
#       8
#     8   8   8   8   8   8   8   8
#     4  10  21  33  44  57  80 111 146 185 223 263
#     4  10  20  33  45  62  85 113 152 189 223 266
#     4   9  18  31  47  62  78 103 138 184 236 284
#     4   8  14  25  42  68 100 126 148 177 213 255
#     4   9  18  30  44  66  94 120 147 180 219 269
#     4  10  18  29  48  70  94 123 151 182 224 269
#     4  10  18  30  46  64  87 110 139 183 233 280
#     4  10  19  32  46  61  82 110 148 189 233 277
#
# _framework density 15.25737
#
# number of rings (size 3 to 8) (size 9 to 14) (size 15 to 20)
#    0.000    2.500    1.250    2.625    0.000    2.625 
#    0.000    5.000    0.000    2.250    0.000    0.875 
#    0.000    3.000    0.000    0.000    0.000    0.125 
#
# Total GULP energy -793008.903072 kJ/mol
# GULP energy per Si atom -12390.764111 kJ/mol
# Density = 1.522264 g / cm^3
# Si number density = 15.257370 Si / 1000 Ang^3
#
#
#
# Elastic Constant Matrix: (Units=GPa)
#
#
# Indices 1 2 3 4 5 6 
#
# 1 88.3253 48.3767 43.1262 0.0000 0.0000 0.0000
# 2 48.3767 88.3252 43.1262 0.0000 0.0000 0.0000
# 3 43.1262 43.1262 63.1065 0.0000 0.0000 0.0000
# 4 0.0000 0.0000 0.0000 14.1511 0.0000 0.0000
# 5 0.0000 0.0000 0.0000 0.0000 14.1511 0.0000
# 6 0.0000 0.0000 0.0000 0.0000 0.0000 15.7187
#
#
#
# Elastic Compliance Matrix: (Units=1/GPa)
#
#
# Indices 1 2 3 4 5 6 
#
# 1 0.018946 -0.006086 -0.008789 0.000000 0.000000 0.000000
# 2 -0.006086 0.018946 -0.008789 0.000000 0.000000 0.000000
# 3 -0.008789 -0.008789 0.027858 0.000000 0.000000 0.000000
# 4 0.000000 0.000000 0.000000 0.070666 0.000000 0.000000
# 5 0.000000 0.000000 0.000000 0.000000 0.070666 0.000000
# 6 0.000000 0.000000 0.000000 0.000000 0.000000 0.063619
#
#
# Mechanical properties :
#
#
# Convention : Reuss Voigt Hill
#
# Bulk Modulus (GPa) = 54.27538 56.55726 55.41632
# Shear Modulus (GPa) = 15.42403 15.81269 15.61836
#
# Velocity S-wave (km/s) = 3.18295 3.22280 3.20294
# Velocity P-wave (km/s) = 7.01133 7.14128 7.07660
#
# Compressibility (1/GPa) = 0.01842456
#
# Stress axis : x y z
#
# Youngs Moduli (GPa) = 52.78086 52.78077 35.89592
#
# Poissons Ratio (x) = 0.32122 0.31548
# Poissons Ratio (y) = 0.32122 0.31548
# Poissons Ratio (z) = 0.46387 0.46387
#
# Static dielectric constant tensor:
#      x y z
#    x 3.024490 0.000000 0.000000 
#    y 0.000000 3.024490 0.000000 
#    z 0.000000 0.000000 2.856540 
# 
# 
# High freq. dielectric constant tensor:
#      x y z
#    x 1.580860 0.000000 0.000000 
#    y 0.000000 1.580860 0.000000 
#    z 0.000000 0.000000 1.545720 
# 
# From -- ./inp_files/4433.got.cif
#   From: 2010.03.12/outbox.cif.g09.slc.cpg/sg115_3_cif.got.tgz:4433.got - 2010.04.14 02:11:21.
