data_PCOD8309246
_publ_section_title
;
Structure prediction by ZEFSAII (Michael W. Deem and Ramdas Pophale) SiO2 
 PCOD8309246
Probable space group: P -4 M 2
;
_chemical_formula_sum "Si O2"
_cell_formula_units_Z 48
_cell_length_a 8.129936
_cell_length_b 8.129936
_cell_length_c 34.131991
_cell_angle_alpha 90.000000
_cell_angle_beta 90.000000
_cell_angle_gamma 90.000000
_cell_volume 2255.983277
_symmetry_space_group_name_H-M "P -4 M 2"
_symmetry_group_IT_number 115
_symmetry_cell_setting 'tetragonal'
loop_
_space_group_symop_operation_xyz
x,y,z
y,-x,-z
-x,-y,z
-y,x,-z
y,x,-z
-y,-x,-z
-x,y,z
x,-y,z
loop_
_atom_site_type_symbol
_atom_site_label
_atom_site_fract_x
_atom_site_fract_y
_atom_site_fract_z
Si Si1 0.184712 0.812956 0.619123
Si Si2 0.806292 0.318572 0.880872
Si Si3 0.812634 0.688360 0.039864
Si Si4 0.691563 0.680299 0.541569
Si Si5 0.196423 0.000000 0.835485
Si Si6 0.000000 0.195945 0.253565
Si Si7 0.317128 0.196061 0.300381
O O1 0.281144 0.797045 0.578566
O O2 0.260114 0.706689 0.654912
O O3 0.000000 0.755357 0.610456
O O4 0.191521 0.000000 0.633607
O O5 0.743207 0.500000 0.866439
O O6 0.759392 0.302352 0.926261
O O7 0.731162 0.166442 0.855784
O O8 0.000000 0.312534 0.876452
O O9 0.766605 0.500000 0.032054
O O10 0.000000 0.710522 0.053659
O O11 0.787492 0.787492 0.000000
O O12 0.757746 0.757746 0.500000
O O13 0.500000 0.661574 0.534383
O O14 0.769593 0.500000 0.550504
O O15 0.258380 0.000000 0.790951
O O16 0.000000 0.000000 0.838177
O O17 0.831626 0.265692 0.273446
O O18 0.000000 0.000000 0.255859
O O19 0.500000 0.253128 0.285796
O O20 0.305974 0.000000 0.300254
#
# Coordination Sequence:
#
# PCOD8309246 Si02
#       7
#     8   8   8   8   4   4   8
#     4  10  19  31  48  72 102 133 169 214 262 319
#     4  10  20  35  55  79 109 147 189 229 280 345
#     4  11  23  37  55  81 111 146 188 232 283 337
#     4   9  19  35  51  68  94 129 170 214 259 313
#     4   9  18  32  51  75 109 147 183 233 287 337
#     4   9  16  28  46  73 107 139 177 225 279 341
#     4   9  16  27  45  70 103 140 175 218 276 335
#
# _framework density 21.276754
#
# number of rings (size 3 to 8) (size 9 to 14) (size 15 to 20)
#    0.000    2.333    1.667    2.000    0.000    6.000 
#    0.000    5.833    0.000    0.000    0.000    2.333 
#    0.000    0.000    0.000    0.000    0.000    0.000 
#
# Total GULP energy -594848.283391 kJ/mol
# GULP energy per Si atom -12392.672571 kJ/mol
# Density = 2.122833 g / cm^3
# Si number density = 21.276754 Si / 1000 Ang^3
#
#
#
# Elastic Constant Matrix: (Units=GPa)
#
#
# Indices 1 2 3 4 5 6 
#
# 1 90.4485 12.4534 42.8849 0.0000 0.0000 0.0000
# 2 12.4534 90.4485 42.8849 0.0000 0.0000 0.0000
# 3 42.8849 42.8849 154.7669 0.0000 0.0000 0.0000
# 4 0.0000 0.0000 0.0000 14.3185 0.0000 0.0000
# 5 0.0000 0.0000 0.0000 0.0000 14.3185 0.0000
# 6 0.0000 0.0000 0.0000 0.0000 0.0000 13.9055
#
#
#
# Elastic Compliance Matrix: (Units=1/GPa)
#
#
# Indices 1 2 3 4 5 6 
#
# 1 0.012729 -0.000092 -0.003501 0.000000 0.000000 0.000000
# 2 -0.000092 0.012729 -0.003501 0.000000 0.000000 0.000000
# 3 -0.003501 -0.003501 0.008402 0.000000 0.000000 0.000000
# 4 0.000000 0.000000 0.000000 0.069840 0.000000 0.000000
# 5 0.000000 0.000000 0.000000 0.000000 0.069840 0.000000
# 6 0.000000 0.000000 0.000000 0.000000 0.000000 0.071914
#
#
# Mechanical properties :
#
#
# Convention : Reuss Voigt Hill
#
# Bulk Modulus (GPa) = 50.84172 59.12334 54.98253
# Shear Modulus (GPa) = 18.78284 24.33787 21.56036
#
# Velocity S-wave (km/s) = 2.97440 3.38579 3.18674
# Velocity P-wave (km/s) = 5.97857 6.56756 6.27997
#
# Compressibility (1/GPa) = 0.01966889
#
# Stress axis : x y z
#
# Youngs Moduli (GPa) = 78.56123 78.56123 119.02197
#
# Poissons Ratio (x) = 0.00726 0.41676
# Poissons Ratio (y) = 0.00726 0.41676
# Poissons Ratio (z) = 0.27508 0.27508
#
# Static dielectric constant tensor:
#      x y z
#    x 3.818600 0.000000 0.000000 
#    y 0.000000 3.818600 0.000000 
#    z 0.000000 0.000000 3.801100 
# 
# 
# High freq. dielectric constant tensor:
#      x y z
#    x 1.812660 0.000000 0.000000 
#    y 0.000000 1.812660 0.000000 
#    z 0.000000 0.000000 1.834000 
# 
# From -- ./inp_files/6240.got.cif
#   From: 2010.03.12/outbox.cif.g09.slc.cpg/sg115_4_cif.got.tgz:6240.got - 2010.04.14 02:11:21.
