data_PCOD8309248
_publ_section_title
;
Structure prediction by ZEFSAII (Michael W. Deem and Ramdas Pophale) SiO2 
 PCOD8309248
Probable space group: P -4 M 2
;
_chemical_formula_sum "Si O2"
_cell_formula_units_Z 40
_cell_length_a 8.021714
_cell_length_b 8.021714
_cell_length_c 29.109337
_cell_angle_alpha 90.000000
_cell_angle_beta 90.000000
_cell_angle_gamma 90.000000
_cell_volume 1873.124575
_symmetry_space_group_name_H-M "P -4 M 2"
_symmetry_group_IT_number 115
_symmetry_cell_setting 'tetragonal'
loop_
_space_group_symop_operation_xyz
x,y,z
y,-x,-z
-x,-y,z
-y,x,-z
y,x,-z
-y,-x,-z
-x,y,z
x,-y,z
loop_
_atom_site_type_symbol
_atom_site_label
_atom_site_fract_x
_atom_site_fract_y
_atom_site_fract_z
Si Si1 0.194607 0.688118 0.547300
Si Si2 0.301105 0.313548 0.950774
Si Si3 0.319342 0.807565 0.236626
Si Si4 0.197464 0.000000 0.607077
Si Si5 0.000000 0.799918 0.289285
Si Si6 0.188780 0.307606 0.144829
O O1 0.294304 0.705696 0.500000
O O2 0.225206 0.500000 0.566876
O O3 0.000000 0.717810 0.537104
O O4 0.260857 0.830050 0.582412
O O5 0.500000 0.311601 0.953305
O O6 0.233538 0.500000 0.943992
O O7 0.235302 0.210622 0.906807
O O8 0.237917 0.237917 0.000000
O O9 0.500000 0.729530 0.250814
O O10 0.299779 0.788337 0.181813
O O11 0.165437 0.724860 0.264424
O O12 0.322512 0.000000 0.249357
O O13 0.267382 0.000000 0.658731
O O14 0.000000 0.000000 0.608328
O O15 0.000000 0.000000 0.286442
O O16 0.242972 0.500000 0.145368
O O17 0.000000 0.281741 0.160122
#
# Coordination Sequence:
#
# PCOD8309248 Si02
#       6
#     8   8   8   4   4   8
#     4  10  19  32  55  84 114 151 192 235 286 343
#     4   8  14  26  44  65  91 124 162 209 265 323
#     4  10  20  34  54  77 104 142 185 230 283 340
#     4   9  18  32  55  83 117 152 189 239 286 334
#     4   9  18  34  53  79 113 147 182 234 288 332
#     4  10  19  31  50  75 101 133 176 222 272 332
#
# _framework density 21.354692
#
# number of rings (size 3 to 8) (size 9 to 14) (size 15 to 20)
#    0.000    2.600    2.000    1.200    0.000    2.200 
#    0.000    5.000    0.000    6.000    0.000    2.800 
#    0.000    0.000    0.000    0.000    0.000    0.000 
#
# Total GULP energy -495661.889955 kJ/mol
# GULP energy per Si atom -12391.547249 kJ/mol
# Density = 2.130609 g / cm^3
# Si number density = 21.354692 Si / 1000 Ang^3
#
#
#
# Elastic Constant Matrix: (Units=GPa)
#
#
# Indices 1 2 3 4 5 6 
#
# 1 83.6429 24.3589 44.8035 0.0000 0.0000 0.0000
# 2 24.3589 83.6429 44.8035 0.0000 0.0000 0.0000
# 3 44.8035 44.8035 160.5999 0.0000 0.0000 0.0000
# 4 0.0000 0.0000 0.0000 17.5139 0.0000 0.0000
# 5 0.0000 0.0000 0.0000 0.0000 17.5139 0.0000
# 6 0.0000 0.0000 0.0000 0.0000 0.0000 12.2033
#
#
#
# Elastic Compliance Matrix: (Units=1/GPa)
#
#
# Indices 1 2 3 4 5 6 
#
# 1 0.014458 -0.002410 -0.003361 0.000000 0.000000 0.000000
# 2 -0.002410 0.014458 -0.003361 0.000000 0.000000 0.000000
# 3 -0.003361 -0.003361 0.008102 0.000000 0.000000 0.000000
# 4 0.000000 0.000000 0.000000 0.057098 0.000000 0.000000
# 5 0.000000 0.000000 0.000000 0.000000 0.057098 0.000000
# 6 0.000000 0.000000 0.000000 0.000000 0.000000 0.081945
#
#
# Mechanical properties :
#
#
# Convention : Reuss Voigt Hill
#
# Bulk Modulus (GPa) = 53.32411 61.75749 57.54080
# Shear Modulus (GPa) = 19.40443 23.70754 21.55598
#
# Velocity S-wave (km/s) = 3.01769 3.33555 3.18059
# Velocity P-wave (km/s) = 6.09646 6.61945 6.36333
#
# Compressibility (1/GPa) = 0.01875324
#
# Stress axis : x y z
#
# Youngs Moduli (GPa) = 69.16674 69.16674 123.42737
#
# Poissons Ratio (x) = 0.16670 0.41484
# Poissons Ratio (y) = 0.16670 0.41484
# Poissons Ratio (z) = 0.23247 0.23247
#
# Static dielectric constant tensor:
#      x y z
#    x 3.715560 0.000000 0.000000 
#    y 0.000000 3.715560 0.000000 
#    z 0.000000 0.000000 3.979110 
# 
# 
# High freq. dielectric constant tensor:
#      x y z
#    x 1.810850 0.000000 0.000000 
#    y 0.000000 1.810850 0.000000 
#    z 0.000000 0.000000 1.835250 
# 
# From -- ./inp_files/5576.got.cif
#   From: 2010.03.12/outbox.cif.g09.slc.cpg/sg115_3_cif.got.tgz:5576.got - 2010.04.14 02:11:21.
