data_PCOD8309655
_publ_section_title
;
Structure prediction by ZEFSAII (Michael W. Deem and Ramdas Pophale) SiO2 
 PCOD8309655
Probable space group: P -4 M 2
;
_chemical_formula_sum "Si O2"
_cell_formula_units_Z 40
_cell_length_a 8.064714
_cell_length_b 8.064714
_cell_length_c 29.168078
_cell_angle_alpha 90.000000
_cell_angle_beta 90.000000
_cell_angle_gamma 90.000000
_cell_volume 1897.080473
_symmetry_space_group_name_H-M "P -4 M 2"
_symmetry_group_IT_number 115
_symmetry_cell_setting 'tetragonal'
loop_
_space_group_symop_operation_xyz
x,y,z
y,-x,-z
-x,-y,z
-y,x,-z
y,x,-z
-y,-x,-z
-x,y,z
x,-y,z
loop_
_atom_site_type_symbol
_atom_site_label
_atom_site_fract_x
_atom_site_fract_y
_atom_site_fract_z
Si Si1 0.819201 0.692996 0.736377
Si Si2 0.691141 0.179497 0.544973
Si Si3 0.302909 0.500000 0.211197
Si Si4 0.500000 0.803622 0.892979
Si Si5 0.815610 0.194942 0.947736
Si Si6 0.197377 0.312431 0.356547
O O1 0.820054 0.500000 0.746686
O O2 0.665328 0.773334 0.764518
O O3 0.801004 0.722669 0.682226
O O4 0.000000 0.766785 0.751505
O O5 0.708757 0.291244 0.500000
O O6 0.500000 0.154265 0.555636
O O7 0.759986 0.254306 0.593146
O O8 0.772682 0.000000 0.534429
O O9 0.500000 0.500000 0.215610
O O10 0.247469 0.500000 0.159289
O O11 0.331504 0.729762 0.916076
O O12 0.500000 0.000000 0.899044
O O13 0.000000 0.270543 0.936177
O O14 0.827393 0.000000 0.940206
O O15 0.765935 0.234066 0.000000
O O16 0.261763 0.500000 0.348788
O O17 0.000000 0.304202 0.353590
#
# Coordination Sequence:
#
# PCOD8309655 Si02
#       6
#     8   8   4   4   8   8
#     4  10  21  37  58  80 103 141 187 227 278 343
#     4   9  19  34  50  72 104 139 172 212 263 320
#     4  10  22  40  54  74 116 148 174 230 290 325
#     4  10  20  34  56  84 110 146 194 232 274 337
#     4   8  15  31  54  79 112 149 183 229 282 327
#     4   9  18  34  55  77 103 135 175 226 280 329
#
# _framework density 21.085031000000001
#
# number of rings (size 3 to 8) (size 9 to 14) (size 15 to 20)
#    0.000    2.800    1.000    1.800    0.000    4.000 
#    1.800    6.000    0.000    0.000    0.000    0.000 
#    0.000    0.000    0.000    0.000    0.000    0.000 
#
# Total GULP energy -495525.876866 kJ/mol
# GULP energy per Si atom -12388.146922 kJ/mol
# Density = 2.103704 g / cm^3
# Si number density = 21.085031 Si / 1000 Ang^3
#
#
#
# Elastic Constant Matrix: (Units=GPa)
#
#
# Indices 1 2 3 4 5 6 
#
# 1 80.3839 23.1954 49.1444 0.0000 0.0000 0.0000
# 2 23.1954 80.3834 49.1441 0.0000 0.0000 0.0000
# 3 49.1444 49.1441 161.3869 0.0000 0.0000 0.0000
# 4 0.0000 0.0000 0.0000 25.8359 0.0000 0.0000
# 5 0.0000 0.0000 0.0000 0.0000 25.8360 0.0000
# 6 0.0000 0.0000 0.0000 0.0000 0.0000 8.9856
#
#
#
# Elastic Compliance Matrix: (Units=1/GPa)
#
#
# Indices 1 2 3 4 5 6 
#
# 1 0.015532 -0.001954 -0.004135 0.000000 0.000000 0.000000
# 2 -0.001954 0.015532 -0.004135 0.000000 0.000000 0.000000
# 3 -0.004135 -0.004135 0.008714 0.000000 0.000000 0.000000
# 4 0.000000 0.000000 0.000000 0.038706 0.000000 0.000000
# 5 0.000000 0.000000 0.000000 0.000000 0.038706 0.000000
# 6 0.000000 0.000000 0.000000 0.000000 0.000000 0.111290
#
#
# Mechanical properties :
#
#
# Convention : Reuss Voigt Hill
#
# Bulk Modulus (GPa) = 51.72863 62.79133 57.25998
# Shear Modulus (GPa) = 19.57941 25.50951 22.54446
#
# Velocity S-wave (km/s) = 3.05059 3.48205 3.27343
# Velocity P-wave (km/s) = 6.08233 6.78313 6.44227
#
# Compressibility (1/GPa) = 0.01933166
#
# Stress axis : x y z
#
# Youngs Moduli (GPa) = 64.38339 64.38298 114.75293
#
# Poissons Ratio (x) = 0.12581 0.47446
# Poissons Ratio (y) = 0.12581 0.47446
# Poissons Ratio (z) = 0.26620 0.26620
#
# Static dielectric constant tensor:
#      x y z
#    x 3.883290 0.000000 0.000000 
#    y 0.000000 3.883290 0.000000 
#    z 0.000000 0.000000 3.873860 
# 
# 
# High freq. dielectric constant tensor:
#      x y z
#    x 1.805080 0.000000 0.000000 
#    y 0.000000 1.805080 0.000000 
#    z 0.000000 0.000000 1.825960 
# 
# From -- ./inp_files/5552.got.cif
#   From: 2010.03.12/outbox.cif.g09.slc.cpg/sg115_3_cif.got.tgz:5552.got - 2010.04.14 02:11:21.
