data_PCOD8309009
_publ_section_title
;
Structure prediction by ZEFSAII (Michael W. Deem and Ramdas Pophale) SiO2 
 PCOD8309009
Probable space group: P -4 21 C
;
_chemical_formula_sum "Si O2"
_cell_formula_units_Z 42
_cell_length_a 14.121460
_cell_length_b 14.121460
_cell_length_c 9.546398
_cell_angle_alpha 90.000000
_cell_angle_beta 90.000000
_cell_angle_gamma 90.000000
_cell_volume 1903.700996
_symmetry_space_group_name_H-M "P -4 21 C"
_symmetry_group_IT_number 114
_symmetry_cell_setting 'tetragonal'
loop_
_space_group_symop_operation_xyz
x,y,z
y,-x,-z
-x,-y,z
-y,x,-z
1/2+x,1/2-y,1/2-z
1/2-x,1/2+y,1/2-z
1/2-y,1/2-x,1/2+z
1/2+y,1/2+x,1/2+z
loop_
_atom_site_type_symbol
_atom_site_label
_atom_site_fract_x
_atom_site_fract_y
_atom_site_fract_z
Si Si1 0.607652 0.896244 0.446952
Si Si2 0.396244 0.892349 0.946952
Si Si3 0.606691 0.500000 0.268693
Si Si4 0.734509 0.853707 0.196179
Si Si5 0.765491 0.646293 0.303821
Si Si6 0.000000 0.000000 0.500000
O O1 0.500000 0.868595 0.411132
O O2 0.665435 0.906401 0.303269
O O3 0.650973 0.814976 0.544954
O O4 0.612513 0.000000 0.519956
O O5 0.406401 0.834565 0.803269
O O6 0.314975 0.849027 0.044954
O O7 0.500000 0.500000 0.336842
O O8 0.664643 0.407107 0.315614
O O9 0.664644 0.592892 0.315614
O O10 0.593830 0.500000 0.098613
O O11 0.750000 0.750000 0.250000
#
# Coordination Sequence:
#
# PCOD8309009 Si02
#       6
#     8   8   8   8   8   2
#     4  11  23  43  70  99 135 174 229 298 352 408
#     4  11  23  43  70  99 135 174 229 298 352 408
#     4  10  24  44  67  98 140 188 237 283 345 427
#     4  12  25  41  69 103 138 180 237 283 353 419
#     4  12  25  41  69 103 138 180 237 283 353 419
#     4   8  24  40  72  80 138 184 240 260 338 412
#
# _framework density 22.062287000000001
#
# number of rings (size 3 to 8) (size 9 to 14) (size 15 to 20)
#    0.571    0.381    3.810    2.286    5.333    6.095 
#    0.000    0.000    0.000    0.000    0.000    0.000 
#    0.000    0.000    0.000    0.000    0.000    0.000 
#
# Total GULP energy -520757.693686 kJ/mol
# GULP energy per Si atom -12398.992707 kJ/mol
# Density = 2.201207 g / cm^3
# Si number density = 22.062287 Si / 1000 Ang^3
#
#
#
# Elastic Constant Matrix: (Units=GPa)
#
#
# Indices 1 2 3 4 5 6 
#
# 1 134.7232 30.6532 -2.3225 0.0000 0.0000 0.0000
# 2 30.6532 134.7232 -2.3225 0.0000 0.0000 0.0000
# 3 -2.3225 -2.3225 53.9419 0.0000 0.0000 0.0000
# 4 0.0000 0.0000 0.0000 31.3629 0.0000 0.0000
# 5 0.0000 0.0000 0.0000 0.0000 31.3629 0.0000
# 6 0.0000 0.0000 0.0000 0.0000 0.0000 35.1878
#
#
#
# Elastic Compliance Matrix: (Units=1/GPa)
#
#
# Indices 1 2 3 4 5 6 
#
# 1 0.007832 -0.001777 0.000261 0.000000 0.000000 0.000000
# 2 -0.001777 0.007832 0.000261 0.000000 0.000000 0.000000
# 3 0.000261 0.000261 0.018561 0.000000 0.000000 0.000000
# 4 0.000000 0.000000 0.000000 0.031885 0.000000 0.000000
# 5 0.000000 0.000000 0.000000 0.000000 0.031885 0.000000
# 6 0.000000 0.000000 0.000000 0.000000 0.000000 0.028419
#
#
# Mechanical properties :
#
#
# Convention : Reuss Voigt Hill
#
# Bulk Modulus (GPa) = 31.53399 41.71165 36.62282
# Shear Modulus (GPa) = 35.84352 39.40806 37.62579
#
# Velocity S-wave (km/s) = 4.03507 4.23095 4.13417
# Velocity P-wave (km/s) = 6.00277 6.54334 6.27887
#
# Compressibility (1/GPa) = 0.03171181
#
# Stress axis : x y z
#
# Youngs Moduli (GPa) = 127.68900 127.68900 53.87668
#
# Poissons Ratio (x) = 0.22695 -0.01404
# Poissons Ratio (y) = 0.22695 -0.01404
# Poissons Ratio (z) = -0.03328 -0.03328
#
# Static dielectric constant tensor:
#      x y z
#    x 3.999840 0.000000 0.000000 
#    y 0.000000 3.999840 0.000000 
#    z 0.000000 0.000000 4.046700 
# 
# 
# High freq. dielectric constant tensor:
#      x y z
#    x 1.877320 0.000000 0.000000 
#    y 0.000000 1.877320 0.000000 
#    z 0.000000 0.000000 1.855320 
# 
# From -- ./inp_files/833.got.cif
#   From: 2010.03.12/outbox.cif.g09.slc.cpg/sg114_1_cif.got.tgz:833.got - 2010.04.14 02:08:34.
