data_PCOD8309632
_publ_section_title
;
Structure prediction by ZEFSAII (Michael W. Deem and Ramdas Pophale) SiO2 
 PCOD8309632
Probable space group: P -4 M 2
;
_chemical_formula_sum "Si O2"
_cell_formula_units_Z 44
_cell_length_a 8.990632
_cell_length_b 8.990632
_cell_length_c 28.296307
_cell_angle_alpha 90.000000
_cell_angle_beta 90.000000
_cell_angle_gamma 90.000000
_cell_volume 2287.231914
_symmetry_space_group_name_H-M "P -4 M 2"
_symmetry_group_IT_number 115
_symmetry_cell_setting 'tetragonal'
loop_
_space_group_symop_operation_xyz
x,y,z
y,-x,-z
-x,-y,z
-y,x,-z
y,x,-z
-y,-x,-z
-x,y,z
x,-y,z
loop_
_atom_site_type_symbol
_atom_site_label
_atom_site_fract_x
_atom_site_fract_y
_atom_site_fract_z
Si Si1 0.171926 0.175282 0.913097
Si Si2 0.176681 0.332553 0.818443
Si Si3 0.674750 0.670316 0.638984
Si Si4 0.825933 0.670368 0.542463
Si Si5 0.825771 0.171392 0.275468
Si Si6 0.326840 0.326840 0.000000
O O1 0.233105 0.244822 0.864438
O O2 0.000000 0.218819 0.922239
O O3 0.191617 0.000000 0.910022
O O4 0.272101 0.237578 0.954731
O O5 0.239317 0.500000 0.820176
O O6 0.236644 0.253550 0.771220
O O7 0.000000 0.330172 0.817666
O O8 0.500000 0.689833 0.634324
O O9 0.719999 0.500000 0.649852
O O10 0.746745 0.724717 0.590157
O O11 0.733217 0.774842 0.680201
O O12 0.773105 0.773105 0.500000
O O13 0.783184 0.500000 0.531142
O O14 0.000000 0.691023 0.549748
O O15 0.000000 0.189903 0.267929
O O16 0.781522 0.000000 0.284148
O O17 0.294388 0.500000 0.991939
#
# Coordination Sequence:
#
# PCOD8309632 Si02
#       6
#     8   8   8   8   8   4
#     4  10  20  35  57  84 111 140 178 223 270 322
#     4   9  17  31  54  82 111 144 180 220 268 321
#     4  10  21  37  57  80 107 142 183 225 270 321
#     4  10  21  37  58  83 110 142 180 222 270 324
#     4  10  20  34  54  81 112 145 182 225 271 319
#     4  11  24  39  54  76 108 145 184 225 270 320
#
# _framework density 19.237226
#
# number of rings (size 3 to 8) (size 9 to 14) (size 15 to 20)
#    0.000    2.091    0.000    3.273    0.000    9.091 
#    0.000    0.909    0.000    5.455    0.000    0.000 
#    0.000    0.000    0.000    0.000    0.000    0.000 
#
# Total GULP energy -545797.178537 kJ/mol
# GULP energy per Si atom -12404.481330 kJ/mol
# Density = 1.919344 g / cm^3
# Si number density = 19.237226 Si / 1000 Ang^3
#
#
#
# Elastic Constant Matrix: (Units=GPa)
#
#
# Indices 1 2 3 4 5 6 
#
# 1 76.7808 33.8305 52.3497 0.0000 0.0000 0.0000
# 2 33.8305 76.7808 52.3497 0.0000 0.0000 0.0000
# 3 52.3497 52.3497 157.4789 0.0000 0.0000 0.0000
# 4 0.0000 0.0000 0.0000 120.5904 0.0000 0.0000
# 5 0.0000 0.0000 0.0000 0.0000 120.5904 0.0000
# 6 0.0000 0.0000 0.0000 0.0000 0.0000 26.6833
#
#
#
# Elastic Compliance Matrix: (Units=1/GPa)
#
#
# Indices 1 2 3 4 5 6 
#
# 1 0.018237 -0.005046 -0.004385 0.000000 0.000000 0.000000
# 2 -0.005046 0.018237 -0.004385 0.000000 0.000000 0.000000
# 3 -0.004385 -0.004385 0.009266 0.000000 0.000000 0.000000
# 4 0.000000 0.000000 0.000000 0.008293 0.000000 0.000000
# 5 0.000000 0.000000 0.000000 0.000000 0.008293 0.000000
# 6 0.000000 0.000000 0.000000 0.000000 0.000000 0.037477
#
#
# Mechanical properties :
#
#
# Convention : Reuss Voigt Hill
#
# Bulk Modulus (GPa) = 55.22481 65.34449 60.28465
# Shear Modulus (GPa) = 37.46186 65.07353 51.26769
#
# Velocity S-wave (km/s) = 4.41768 5.82240 5.16799
# Velocity P-wave (km/s) = 7.40208 8.90179 8.18635
#
# Compressibility (1/GPa) = 0.01810780
#
# Stress axis : x y z
#
# Youngs Moduli (GPa) = 54.83339 54.83339 107.92711
#
# Poissons Ratio (x) = 0.27667 0.47328
# Poissons Ratio (y) = 0.27667 0.47328
# Poissons Ratio (z) = 0.24045 0.24045
#
# Static dielectric constant tensor:
#      x y z
#    x 3.383350 0.000000 0.000000 
#    y 0.000000 3.383350 0.000000 
#    z 0.000000 0.000000 3.705380 
# 
# 
# High freq. dielectric constant tensor:
#      x y z
#    x 1.740980 0.000000 0.000000 
#    y 0.000000 1.740980 0.000000 
#    z 0.000000 0.000000 1.764590 
# 
# From -- ./inp_files/5683.got.cif
#   From: 2010.03.12/outbox.cif.g09.slc.cpg/sg115_3_cif.got.tgz:5683.got - 2010.04.14 02:11:21.
