data_PCOD8309154
_publ_section_title
;
Structure prediction by ZEFSAII (Michael W. Deem and Ramdas Pophale) SiO2 
 PCOD8309154
Probable space group: P -4 M 2
;
_chemical_formula_sum "Si O2"
_cell_formula_units_Z 56
_cell_length_a 13.559316
_cell_length_b 13.559316
_cell_length_c 21.505641
_cell_angle_alpha 90.000000
_cell_angle_beta 90.000000
_cell_angle_gamma 90.000000
_cell_volume 3953.920710
_symmetry_space_group_name_H-M "P -4 M 2"
_symmetry_group_IT_number 115
_symmetry_cell_setting 'tetragonal'
loop_
_space_group_symop_operation_xyz
x,y,z
y,-x,-z
-x,-y,z
-y,x,-z
y,x,-z
-y,-x,-z
-x,y,z
x,-y,z
loop_
_atom_site_type_symbol
_atom_site_label
_atom_site_fract_x
_atom_site_fract_y
_atom_site_fract_z
Si Si1 0.703452 0.612719 0.441409
Si Si2 0.612978 0.889850 0.633685
Si Si3 0.112719 0.203452 0.058591
Si Si4 0.885068 0.887059 0.189049
Si Si5 0.385068 0.387059 0.689050
Si Si6 0.389850 0.112978 0.866315
Si Si7 0.795509 0.704491 0.250000
O O1 0.680630 0.680630 0.500000
O O2 0.687435 0.500000 0.461657
O O3 0.816648 0.634905 0.423282
O O4 0.633016 0.638468 0.383280
O O5 0.500000 0.876327 0.655550
O O6 0.680656 0.866139 0.692396
O O7 0.634896 0.000000 0.610018
O O8 0.133016 0.138468 0.883280
O O9 0.000000 0.187435 0.038343
O O10 0.180630 0.180630 0.000000
O O11 0.134905 0.316648 0.076718
O O12 0.815417 0.818443 0.231803
O O13 0.000000 0.862113 0.201938
O O14 0.860392 0.000000 0.205044
O O15 0.500000 0.362113 0.701938
O O16 0.360392 0.500000 0.705044
O O17 0.315417 0.318443 0.731803
O O18 0.500000 0.134896 0.889982
O O19 0.366139 0.180656 0.807604
O O20 0.376327 0.000000 0.844450
#
# Coordination Sequence:
#
# PCOD8309154 Si02
#       7
#     8   8   8   8   8   8   8
#     4   9  16  25  39  58  79 104 130 158 195 235
#     4   9  16  25  39  61  84 102 124 158 200 244
#     4   9  16  25  39  58  79 104 130 158 195 235
#     4   9  17  27  40  61  85 106 132 167 202 237
#     4   9  17  27  40  61  85 106 132 167 202 237
#     4   9  16  25  39  61  84 102 124 158 200 244
#     4  10  16  25  42  61  82 108 132 156 198 244
#
# _framework density 14.163157
#
# number of rings (size 3 to 8) (size 9 to 14) (size 15 to 20)
#    0.000    2.857    0.000    5.143    0.000    2.571 
#    0.000    0.000    0.000    7.286    0.000    0.000 
#    0.000    0.000    0.000    0.000    0.000    0.000 
#
# Total GULP energy -694266.034064 kJ/mol
# GULP energy per Si atom -12397.607751 kJ/mol
# Density = 1.413092 g / cm^3
# Si number density = 14.163157 Si / 1000 Ang^3
#
#
#
# Elastic Constant Matrix: (Units=GPa)
#
#
# Indices 1 2 3 4 5 6 
#
# 1 98.6620 42.5712 50.2003 0.0000 0.0000 0.0000
# 2 42.5712 98.6620 50.2003 0.0000 0.0000 0.0000
# 3 50.2003 50.2003 86.8810 0.0000 0.0000 0.0000
# 4 0.0000 0.0000 0.0000 20.7292 0.0000 0.0000
# 5 0.0000 0.0000 0.0000 0.0000 20.7292 0.0000
# 6 0.0000 0.0000 0.0000 0.0000 0.0000 19.8713
#
#
#
# Elastic Compliance Matrix: (Units=1/GPa)
#
#
# Indices 1 2 3 4 5 6 
#
# 1 0.014922 -0.002906 -0.006943 0.000000 0.000000 0.000000
# 2 -0.002906 0.014922 -0.006943 0.000000 0.000000 0.000000
# 3 -0.006943 -0.006943 0.019533 0.000000 0.000000 0.000000
# 4 0.000000 0.000000 0.000000 0.048241 0.000000 0.000000
# 5 0.000000 0.000000 0.000000 0.000000 0.048241 0.000000
# 6 0.000000 0.000000 0.000000 0.000000 0.000000 0.050324
#
#
# Mechanical properties :
#
#
# Convention : Reuss Voigt Hill
#
# Bulk Modulus (GPa) = 63.31632 63.34987 63.33310
# Shear Modulus (GPa) = 21.27363 21.68147 21.47755
#
# Velocity S-wave (km/s) = 3.87982 3.91683 3.89837
# Velocity P-wave (km/s) = 8.05436 8.07968 8.06703
#
# Compressibility (1/GPa) = 0.01579372
#
# Stress axis : x y z
#
# Youngs Moduli (GPa) = 67.01420 67.01420 51.19430
#
# Poissons Ratio (x) = 0.19475 0.35544
# Poissons Ratio (y) = 0.19475 0.35544
# Poissons Ratio (z) = 0.46528 0.46528
#
# Static dielectric constant tensor:
#      x y z
#    x 2.739270 0.000000 0.000000 
#    y 0.000000 2.739270 0.000000 
#    z 0.000000 0.000000 2.568370 
# 
# 
# High freq. dielectric constant tensor:
#      x y z
#    x 1.528680 0.000000 0.000000 
#    y 0.000000 1.528680 0.000000 
#    z 0.000000 0.000000 1.525420 
# 
# From -- ./inp_files/4363.got.cif
#   From: 2010.03.12/outbox.cif.g09.slc.cpg/sg115_3_cif.got.tgz:4363.got - 2010.04.14 02:11:21.
