data_PCOD8309886
_publ_section_title
;
Structure prediction by ZEFSAII (Michael W. Deem and Ramdas Pophale) SiO2 
 PCOD8309886
Probable space group: P -4 M 2
;
_chemical_formula_sum "Si O2"
_cell_formula_units_Z 17
_cell_length_a 11.418118
_cell_length_b 11.418118
_cell_length_c 6.840745
_cell_angle_alpha 90.000000
_cell_angle_beta 90.000000
_cell_angle_gamma 90.000000
_cell_volume 891.851312
_symmetry_space_group_name_H-M "P -4 M 2"
_symmetry_group_IT_number 115
_symmetry_cell_setting 'tetragonal'
loop_
_space_group_symop_operation_xyz
x,y,z
y,-x,-z
-x,-y,z
-y,x,-z
y,x,-z
-y,-x,-z
-x,y,z
x,-y,z
loop_
_atom_site_type_symbol
_atom_site_label
_atom_site_fract_x
_atom_site_fract_y
_atom_site_fract_z
Si Si1 0.316364 0.865226 0.452770
Si Si2 0.500000 0.500000 0.000000
Si Si3 0.871939 0.500000 0.215365
Si Si4 0.500000 0.255339 0.178999
O O1 0.189699 0.810302 0.500000
O O2 0.386012 0.856013 0.653395
O O3 0.383572 0.792566 0.284841
O O4 0.302251 0.000000 0.384115
O O5 0.500000 0.395123 0.159695
O O6 0.000000 0.500000 0.117676
O O7 0.778576 0.500000 0.046689
#
# Coordination Sequence:
#
# PCOD8309886 Si02
#       4
#     8   1   4   4
#     4  10  21  36  56  81 111 149 190 232 278 333
#     4  12  24  32  58  92 112 142 184 236 278 340
#     4   9  18  35  58  80 106 145 188 225 274 340
#     4  11  21  38  57  82 115 146 177 227 294 334
#
# _framework density 19.061471999999998
#
# number of rings (size 3 to 8) (size 9 to 14) (size 15 to 20)
#    0.000    1.882    0.000    6.353    0.000    2.353 
#    0.000    4.706    0.000    0.000    0.000    6.588 
#    0.000    0.000    0.000    0.000    0.000    0.000 
#
# Total GULP energy -210771.701478 kJ/mol
# GULP energy per Si atom -12398.335381 kJ/mol
# Density = 1.901809 g / cm^3
# Si number density = 19.061472 Si / 1000 Ang^3
#
#
#
# Elastic Constant Matrix: (Units=GPa)
#
#
# Indices 1 2 3 4 5 6 
#
# 1 146.8365 60.6432 39.8006 0.0000 0.0000 0.0000
# 2 60.6432 146.8337 39.8008 0.0000 0.0000 0.0000
# 3 39.8006 39.8008 87.1536 0.0000 0.0000 0.0000
# 4 0.0000 0.0000 0.0000 26.0906 0.0000 0.0000
# 5 0.0000 0.0000 0.0000 0.0000 26.0896 0.0000
# 6 0.0000 0.0000 0.0000 0.0000 0.0000 28.4287
#
#
#
# Elastic Compliance Matrix: (Units=1/GPa)
#
#
# Indices 1 2 3 4 5 6 
#
# 1 0.008723 -0.002879 -0.002669 0.000000 0.000000 0.000000
# 2 -0.002879 0.008723 -0.002669 0.000000 0.000000 0.000000
# 3 -0.002669 -0.002669 0.013911 0.000000 0.000000 0.000000
# 4 0.000000 0.000000 0.000000 0.038328 0.000000 0.000000
# 5 0.000000 0.000000 0.000000 0.000000 0.038329 0.000000
# 6 0.000000 0.000000 0.000000 0.000000 0.000000 0.035176
#
#
# Mechanical properties :
#
#
# Convention : Reuss Voigt Hill
#
# Bulk Modulus (GPa) = 67.00563 73.47924 70.24244
# Shear Modulus (GPa) = 30.37710 32.16041 31.26875
#
# Velocity S-wave (km/s) = 3.99637 4.11200 4.05460
# Velocity P-wave (km/s) = 7.51820 7.82157 7.67139
#
# Compressibility (1/GPa) = 0.01492412
#
# Stress axis : x y z
#
# Youngs Moduli (GPa) = 114.64309 114.64041 71.88365
#
# Poissons Ratio (x) = 0.33007 0.19183
# Poissons Ratio (y) = 0.33008 0.19184
# Poissons Ratio (z) = 0.30593 0.30594
#
# Static dielectric constant tensor:
#      x y z
#    x 3.660280 0.000000 0.000000 
#    y 0.000000 3.660250 0.000000 
#    z 0.000000 0.000000 3.303530 
# 
# 
# High freq. dielectric constant tensor:
#      x y z
#    x 1.741440 0.000000 0.000000 
#    y 0.000000 1.741440 0.000000 
#    z 0.000000 0.000000 1.738540 
# 
# From -- ./inp_files/108.got.cif
#   From: 2010.03.12/outbox.cif.g09.slc.cpg/sg115_1_cif.got.tgz:108.got - 2010.04.14 02:11:21.
