data_PCOD8309026
_publ_section_title
;
Structure prediction by ZEFSAII (Michael W. Deem and Ramdas Pophale) SiO2 
 PCOD8309026
Probable space group: P -4 21 C
;
_chemical_formula_sum "Si O2"
_cell_formula_units_Z 40
_cell_length_a 8.031505
_cell_length_b 8.031505
_cell_length_c 23.792481
_cell_angle_alpha 90.000000
_cell_angle_beta 90.000000
_cell_angle_gamma 90.000000
_cell_volume 1534.735713
_symmetry_space_group_name_H-M "P -4 21 C"
_symmetry_group_IT_number 114
_symmetry_cell_setting 'tetragonal'
loop_
_space_group_symop_operation_xyz
x,y,z
y,-x,-z
-x,-y,z
-y,x,-z
1/2+x,1/2-y,1/2-z
1/2-x,1/2+y,1/2-z
1/2-y,1/2-x,1/2+z
1/2+y,1/2+x,1/2+z
loop_
_atom_site_type_symbol
_atom_site_label
_atom_site_fract_x
_atom_site_fract_y
_atom_site_fract_z
Si Si1 0.122867 0.250590 0.420730
Si Si2 0.581730 0.667581 0.589613
Si Si3 0.312617 0.950250 0.459709
Si Si4 0.448235 0.747898 0.201416
Si Si5 0.557860 0.734125 0.713892
O O1 0.195170 0.438807 0.421442
O O2 0.020927 0.229936 0.478481
O O3 0.010010 0.226983 0.365078
O O4 0.243661 0.089630 0.416714
O O5 0.500000 0.500000 0.564888
O O6 0.756867 0.710143 0.559304
O O7 0.618192 0.647815 0.656063
O O8 0.500000 0.000000 0.465542
O O9 0.397329 0.579984 0.234846
O O10 0.608360 0.828007 0.229439
O O11 0.287736 0.867404 0.208287
#
# Coordination Sequence:
#
# PCOD8309026 Si02
#       5
#     8   8   8   8   8
#     4  11  27  47  72 110 153 193 250 312 374 448
#     4  11  25  47  76 110 146 198 250 310 378 447
#     4  12  26  46  77 111 152 202 253 305 376 463
#     4  10  25  47  70 103 142 192 238 314 372 448
#     4  10  25  45  73 100 145 187 246 306 380 444
#
# _framework density 26.063117999999999
#
# number of rings (size 3 to 8) (size 9 to 14) (size 15 to 20)
#    0.000    1.200    2.000    1.200   16.800    0.400 
#    0.000    0.000    0.000    0.000    0.000    0.000 
#    0.000    0.000    0.000    0.000    0.000    0.000 
#
# Total GULP energy -495662.082174 kJ/mol
# GULP energy per Si atom -12391.552054 kJ/mol
# Density = 2.600380 g / cm^3
# Si number density = 26.063118 Si / 1000 Ang^3
#
#
#
# Elastic Constant Matrix: (Units=GPa)
#
#
# Indices 1 2 3 4 5 6 
#
# 1 104.2896 27.5203 33.3225 0.0000 0.0000 0.0000
# 2 27.5203 104.2896 33.3225 0.0000 0.0000 0.0000
# 3 33.3225 33.3225 137.5243 0.0000 0.0000 0.0000
# 4 0.0000 0.0000 0.0000 26.3346 0.0000 0.0000
# 5 0.0000 0.0000 0.0000 0.0000 26.3346 0.0000
# 6 0.0000 0.0000 0.0000 0.0000 0.0000 -1.6877
#
#
#
# Elastic Compliance Matrix: (Units=1/GPa)
#
#
# Indices 1 2 3 4 5 6 
#
# 1 0.010836 -0.002190 -0.002095 0.000000 0.000000 0.000000
# 2 -0.002190 0.010836 -0.002095 0.000000 0.000000 0.000000
# 3 -0.002095 -0.002095 0.008287 0.000000 0.000000 0.000000
# 4 0.000000 0.000000 0.000000 0.037973 0.000000 0.000000
# 5 0.000000 0.000000 0.000000 0.000000 0.037973 0.000000
# 6 0.000000 0.000000 0.000000 0.000000 0.000000 -0.592537
#
#
# Mechanical properties :
#
#
# Convention : Reuss Voigt Hill
#
# Bulk Modulus (GPa) = 58.14371 59.38158 58.76264
# Shear Modulus (GPa) = -10.68058 26.99218 8.15580
#
# Velocity S-wave (km/s) = -2.02654 3.22164 1.77089
# Velocity P-wave (km/s) = 4.10870 6.05573 5.17461
#
# Compressibility (1/GPa) = 0.01719876
#
# Stress axis : x y z
#
# Youngs Moduli (GPa) = 92.28514 92.28514 120.67589
#
# Poissons Ratio (x) = 0.20211 0.25281
# Poissons Ratio (y) = 0.20211 0.25281
# Poissons Ratio (z) = 0.19333 0.19333
#
# Static dielectric constant tensor:
#      x y z
#    x 5.014400 0.000000 0.000000 
#    y 0.000000 5.014400 0.000000 
#    z 0.000000 0.000000 4.888140 
# 
# 
# High freq. dielectric constant tensor:
#      x y z
#    x 2.052880 0.000000 0.000000 
#    y 0.000000 2.052880 0.000000 
#    z 0.000000 0.000000 2.038970 
# 
# From -- ./inp_files/3386.got.cif
#   From: 2010.03.12/outbox.cif.g09.slc.cpg/sg114_2_cif.got.tgz:3386.got - 2010.04.14 02:08:34.
