data_PCOD8310247
_publ_section_title
;
Structure prediction by ZEFSAII (Michael W. Deem and Ramdas Pophale) SiO2 
 PCOD8310247
Probable space group: P -4 C 2
;
_chemical_formula_sum "Si O2"
_cell_formula_units_Z 24
_cell_length_a 7.919120
_cell_length_b 7.919120
_cell_length_c 15.789739
_cell_angle_alpha 90.000000
_cell_angle_beta 90.000000
_cell_angle_gamma 90.000000
_cell_volume 990.213400
_symmetry_space_group_name_H-M "P -4 C 2"
_symmetry_group_IT_number 116
_symmetry_cell_setting 'tetragonal'
loop_
_space_group_symop_operation_xyz
x,y,z
y,-x,-z
-x,-y,z
-y,x,-z
y,x,1/2-z
-y,-x,1/2-z
-x,y,1/2+z
x,-y,1/2+z
loop_
_atom_site_type_symbol
_atom_site_label
_atom_site_fract_x
_atom_site_fract_y
_atom_site_fract_z
Si Si1 0.725708 0.862821 0.833412
Si Si2 0.789949 0.618656 0.115128
Si Si3 0.536267 0.183300 0.074808
O O1 0.838464 0.838464 0.750000
O O2 0.528018 0.817562 0.814219
O O3 0.778135 0.729607 0.904864
O O4 0.751003 0.055323 0.868793
O O5 0.603578 0.697655 0.120084
O O6 0.809205 0.519782 0.026254
O O7 0.500000 0.000000 0.111027
#
# Coordination Sequence:
#
# PCOD8310247 Si02
#       3
#     8   8   8
#     4  11  26  46  70 110 155 190 250 313 388 459
#     4  11  23  46  74 107 144 200 258 307 381 459
#     4  12  23  43  76 105 146 195 253 317 377 459
#
# _framework density 24.237199
#
# number of rings (size 3 to 8) (size 9 to 14) (size 15 to 20)
#    0.000    0.667    6.667    1.000    4.667    4.000 
#    0.000    5.000    0.000    0.000    0.000    0.000 
#    0.000    0.000    0.000    0.000    0.000    0.000 
#
# Total GULP energy -297423.464891 kJ/mol
# GULP energy per Si atom -12392.644370 kJ/mol
# Density = 2.418203 g / cm^3
# Si number density = 24.237199 Si / 1000 Ang^3
#
#
#
# Elastic Constant Matrix: (Units=GPa)
#
#
# Indices 1 2 3 4 5 6 
#
# 1 86.8682 21.2179 18.3034 0.0000 0.0000 0.0000
# 2 21.2179 86.8682 18.3034 0.0000 0.0000 0.0000
# 3 18.3034 18.3034 65.1987 0.0000 0.0000 0.0000
# 4 0.0000 0.0000 0.0000 25.4109 0.0000 0.0000
# 5 0.0000 0.0000 0.0000 0.0000 25.4109 0.0000
# 6 0.0000 0.0000 0.0000 0.0000 0.0000 40.5737
#
#
#
# Elastic Compliance Matrix: (Units=1/GPa)
#
#
# Indices 1 2 3 4 5 6 
#
# 1 0.012728 -0.002504 -0.002870 0.000000 0.000000 0.000000
# 2 -0.002504 0.012728 -0.002870 0.000000 0.000000 0.000000
# 3 -0.002870 -0.002870 0.016949 0.000000 0.000000 0.000000
# 4 0.000000 0.000000 0.000000 0.039353 0.000000 0.000000
# 5 0.000000 0.000000 0.000000 0.000000 0.039353 0.000000
# 6 0.000000 0.000000 0.000000 0.000000 0.000000 0.024647
#
#
# Mechanical properties :
#
#
# Convention : Reuss Voigt Hill
#
# Bulk Modulus (GPa) = 38.58567 39.39831 38.99199
# Shear Modulus (GPa) = 29.25922 30.35311 29.80616
#
# Velocity S-wave (km/s) = 3.47825 3.54267 3.51061
# Velocity P-wave (km/s) = 5.66441 5.74671 5.70571
#
# Compressibility (1/GPa) = 0.02591636
#
# Stress axis : x y z
#
# Youngs Moduli (GPa) = 78.56636 78.56636 58.99969
#
# Poissons Ratio (x) = 0.19674 0.16934
# Poissons Ratio (y) = 0.19674 0.16934
# Poissons Ratio (z) = 0.22550 0.22550
#
# Static dielectric constant tensor:
#      x y z
#    x 4.523840 0.000000 0.000000 
#    y 0.000000 4.523840 0.000000 
#    z 0.000000 0.000000 3.989970 
# 
# 
# High freq. dielectric constant tensor:
#      x y z
#    x 1.968000 0.000000 0.000000 
#    y 0.000000 1.968000 0.000000 
#    z 0.000000 0.000000 1.937580 
# 
# From -- ./inp_files/2273.got.cif
#   From: 2010.03.12/outbox.cif.g09.slc.cpg/sg116_2_cif.got.tgz:2273.got - 2010.04.14 02:15:44.
