data_PCOD8310163
_publ_section_title
;
Structure prediction by ZEFSAII (Michael W. Deem and Ramdas Pophale) SiO2 
 PCOD8310163
Probable space group: P -4 C 2
;
_chemical_formula_sum "Si O2"
_cell_formula_units_Z 40
_cell_length_a 14.768324
_cell_length_b 14.768324
_cell_length_c 9.153375
_cell_angle_alpha 90.000000
_cell_angle_beta 90.000000
_cell_angle_gamma 90.000000
_cell_volume 1996.382152
_symmetry_space_group_name_H-M "P -4 C 2"
_symmetry_group_IT_number 116
_symmetry_cell_setting 'tetragonal'
loop_
_space_group_symop_operation_xyz
x,y,z
y,-x,-z
-x,-y,z
-y,x,-z
y,x,1/2-z
-y,-x,1/2-z
-x,y,1/2+z
x,-y,1/2+z
loop_
_atom_site_type_symbol
_atom_site_label
_atom_site_fract_x
_atom_site_fract_y
_atom_site_fract_z
Si Si1 0.662731 0.226250 0.367062
Si Si2 0.393965 0.450333 0.592004
Si Si3 0.836597 0.195136 0.920342
Si Si4 0.603045 0.036546 0.258658
Si Si5 0.728711 0.975376 0.499079
O O1 0.733426 0.266575 0.250000
O O2 0.581365 0.292285 0.401856
O O3 0.713268 0.208528 0.519503
O O4 0.608762 0.139597 0.310227
O O5 0.393360 0.553229 0.533864
O O6 0.441378 0.441378 0.750000
O O7 0.817355 0.182646 0.750000
O O8 0.942829 0.203582 0.958004
O O9 0.793234 0.111746 0.009595
O O10 0.636544 0.029908 0.093229
O O11 0.500000 0.000000 0.275324
O O12 0.683104 0.981373 0.340062
#
# Coordination Sequence:
#
# PCOD8310163 Si02
#       5
#     8   8   8   8   8
#     4  10  22  41  65  93 129 174 211 270 332 386
#     4  10  21  39  61  88 124 168 218 272 322 382
#     4  11  23  42  65  93 128 168 213 267 325 388
#     4  11  23  42  66  95 134 172 213 270 328 393
#     4  11  23  42  66  95 131 170 218 268 326 393
#
# _framework density 20.036244
#
# number of rings (size 3 to 8) (size 9 to 14) (size 15 to 20)
#    0.000    1.400    4.000    1.800    0.000    3.600 
#   14.400    1.000    0.000    0.000    0.000    0.000 
#    0.000    0.000    0.000    0.000    0.000    0.000 
#
# Total GULP energy -495676.462461 kJ/mol
# GULP energy per Si atom -12391.911562 kJ/mol
# Density = 1.999064 g / cm^3
# Si number density = 20.036244 Si / 1000 Ang^3
#
#
#
# Elastic Constant Matrix: (Units=GPa)
#
#
# Indices 1 2 3 4 5 6 
#
# 1 110.2179 71.2628 18.8186 0.0000 0.0000 0.0000
# 2 71.2628 110.2182 18.8181 0.0000 0.0000 0.0000
# 3 18.8186 18.8181 77.2166 0.0000 0.0000 0.0000
# 4 0.0000 0.0000 0.0000 21.4382 0.0000 0.0000
# 5 0.0000 0.0000 0.0000 0.0000 21.4380 0.0000
# 6 0.0000 0.0000 0.0000 0.0000 0.0000 47.7979
#
#
#
# Elastic Compliance Matrix: (Units=1/GPa)
#
#
# Indices 1 2 3 4 5 6 
#
# 1 0.015737 -0.009933 -0.001414 0.000000 0.000000 0.000000
# 2 -0.009933 0.015737 -0.001414 0.000000 0.000000 0.000000
# 3 -0.001414 -0.001414 0.013640 0.000000 0.000000 0.000000
# 4 0.000000 0.000000 0.000000 0.046646 0.000000 0.000000
# 5 0.000000 0.000000 0.000000 0.000000 0.046646 0.000000
# 6 0.000000 0.000000 0.000000 0.000000 0.000000 0.020921
#
#
# Mechanical properties :
#
#
# Convention : Reuss Voigt Hill
#
# Bulk Modulus (GPa) = 51.04758 57.27241 54.16000
# Shear Modulus (GPa) = 26.12583 30.71838 28.42210
#
# Velocity S-wave (km/s) = 3.61491 3.91978 3.77043
# Velocity P-wave (km/s) = 6.55411 7.00947 6.78561
#
# Compressibility (1/GPa) = 0.01958957
#
# Stress axis : x y z
#
# Youngs Moduli (GPa) = 63.54427 63.54458 73.31391
#
# Poissons Ratio (x) = 0.63122 0.10370
# Poissons Ratio (y) = 0.63122 0.10369
# Poissons Ratio (z) = 0.08988 0.08987
#
# Static dielectric constant tensor:
#      x y z
#    x 3.600330 0.000000 0.000000 
#    y 0.000000 3.600320 0.000000 
#    z 0.000000 0.000000 4.018860 
# 
# 
# High freq. dielectric constant tensor:
#      x y z
#    x 1.782690 0.000000 0.000000 
#    y 0.000000 1.782690 0.000000 
#    z 0.000000 0.000000 1.795510 
# 
# From -- ./inp_files/804.got.cif
#   From: 2010.03.12/outbox.cif.g09.slc.cpg/sg116_1_cif.got.tgz:804.got - 2010.04.14 02:15:44.
