data_PCOD8310153
_publ_section_title
;
Structure prediction by ZEFSAII (Michael W. Deem and Ramdas Pophale) SiO2 
 PCOD8310153
Probable space group: P -4 C 2
;
_chemical_formula_sum "Si O2"
_cell_formula_units_Z 52
_cell_length_a 21.122906
_cell_length_b 21.122906
_cell_length_c 5.337971
_cell_angle_alpha 90.000000
_cell_angle_beta 90.000000
_cell_angle_gamma 90.000000
_cell_volume 2381.680730
_symmetry_space_group_name_H-M "P -4 C 2"
_symmetry_group_IT_number 116
_symmetry_cell_setting 'tetragonal'
loop_
_space_group_symop_operation_xyz
x,y,z
y,-x,-z
-x,-y,z
-y,x,-z
y,x,1/2-z
-y,-x,1/2-z
-x,y,1/2+z
x,-y,1/2+z
loop_
_atom_site_type_symbol
_atom_site_label
_atom_site_fract_x
_atom_site_fract_y
_atom_site_fract_z
Si Si1 0.459409 0.644627 0.784829
Si Si2 0.404459 0.026283 0.886910
Si Si3 0.737361 0.973526 0.381673
Si Si4 0.623808 0.247870 0.599846
Si Si5 0.726109 0.176004 0.870382
Si Si6 0.272891 0.272891 0.750000
Si Si7 0.842463 0.540459 0.666468
O O1 0.417233 0.582768 0.750000
O O2 0.509091 0.644014 0.557274
O O3 0.417524 0.708471 0.781095
O O4 0.409027 0.101209 0.858373
O O5 0.438776 0.993979 0.646718
O O6 0.332534 0.002802 0.906296
O O7 0.738926 0.898062 0.362241
O O8 0.772210 0.996549 0.637564
O O9 0.657852 0.189949 0.744025
O O10 0.679554 0.289774 0.475688
O O11 0.579402 0.221893 0.375916
O O12 0.784798 0.215203 0.750000
O O13 0.719086 0.200317 0.156831
O O14 0.844984 0.488508 0.443905
#
# Coordination Sequence:
#
# PCOD8310153 Si02
#       7
#     8   8   8   8   8   4   8
#     4  12  28  48  74  97 126 160 207 269 342 425
#     4  10  21  37  58  84 120 175 221 265 303 368
#     4  10  22  38  64  95 131 184 223 267 323 392
#     4  11  25  44  68 101 127 171 215 274 343 410
#     4  10  23  41  67 103 138 178 227 284 341 397
#     4  10  24  38  74  92 135 170 221 278 350 398
#     4  12  27  42  63  92 131 175 222 277 322 381
#
# _framework density 21.833318999999999
#
# number of rings (size 3 to 8) (size 9 to 14) (size 15 to 20)
#    0.000    1.231    0.000    5.538   15.077    2.769 
#    0.000    0.000    0.000    0.000    0.000    0.000 
#    0.000    1.846    0.000    0.000    0.000    0.000 
#
# Total GULP energy -644508.835415 kJ/mol
# GULP energy per Si atom -12394.400681 kJ/mol
# Density = 2.178363 g / cm^3
# Si number density = 21.833319 Si / 1000 Ang^3
#
#
#
# Elastic Constant Matrix: (Units=GPa)
#
#
# Indices 1 2 3 4 5 6 
#
# 1 81.7968 13.4164 2.1856 0.0000 0.0000 0.0000
# 2 13.4164 81.7974 2.1832 0.0000 0.0000 0.0000
# 3 2.1856 2.1832 110.8059 0.0000 0.0000 0.0000
# 4 0.0000 0.0000 0.0000 32.3826 0.0000 0.0000
# 5 0.0000 0.0000 0.0000 0.0000 32.3828 0.0000
# 6 0.0000 0.0000 0.0000 0.0000 0.0000 25.8807
#
#
#
# Elastic Compliance Matrix: (Units=1/GPa)
#
#
# Indices 1 2 3 4 5 6 
#
# 1 0.012568 -0.002056 -0.000207 0.000000 0.000000 0.000000
# 2 -0.002056 0.012568 -0.000207 0.000000 0.000000 0.000000
# 3 -0.000207 -0.000207 0.009033 0.000000 0.000000 0.000000
# 4 0.000000 0.000000 0.000000 0.030881 0.000000 0.000000
# 5 0.000000 0.000000 0.000000 0.000000 0.030881 0.000000
# 6 0.000000 0.000000 0.000000 0.000000 0.000000 0.038639
#
#
# Mechanical properties :
#
#
# Convention : Reuss Voigt Hill
#
# Bulk Modulus (GPa) = 34.21323 34.44117 34.32720
# Shear Modulus (GPa) = 33.50018 35.23688 34.36853
#
# Velocity S-wave (km/s) = 3.92134 4.02170 3.97184
# Velocity P-wave (km/s) = 6.01721 6.11345 6.06552
#
# Compressibility (1/GPa) = 0.02922846
#
# Stress axis : x y z
#
# Youngs Moduli (GPa) = 79.56613 79.56676 110.70564
#
# Poissons Ratio (x) = 0.16358 0.02296
# Poissons Ratio (y) = 0.16358 0.02293
# Poissons Ratio (z) = 0.01650 0.01648
#
# Static dielectric constant tensor:
#      x y z
#    x 3.764130 0.000000 0.000000 
#    y 0.000000 3.764120 0.000000 
#    z 0.000000 0.000000 5.278050 
# 
# 
# High freq. dielectric constant tensor:
#      x y z
#    x 1.835350 0.000000 0.000000 
#    y 0.000000 1.835350 0.000000 
#    z 0.000000 0.000000 1.889300 
# 
# From -- ./inp_files/211.got.cif
#   From: 2010.03.12/outbox.cif.g09.slc.cpg/sg116_1_cif.got.tgz:211.got - 2010.04.14 02:15:44.
