data_PCOD8310875
_publ_section_title
;
Structure prediction by ZEFSAII (Michael W. Deem and Ramdas Pophale) SiO2 
 PCOD8310875
Probable space group: I -4 M 2
;
_chemical_formula_sum "Si O2"
_cell_formula_units_Z 48
_cell_length_a 13.021667
_cell_length_b 13.021667
_cell_length_c 16.211150
_cell_angle_alpha 90.000000
_cell_angle_beta 90.000000
_cell_angle_gamma 90.000000
_cell_volume 2748.824382
_symmetry_space_group_name_H-M "I -4 M 2"
_symmetry_group_IT_number 119
_symmetry_cell_setting 'tetragonal'
loop_
_space_group_symop_operation_xyz
x,y,z
y,-x,-z
-x,-y,z
-y,x,-z
y,x,-z
-y,-x,-z
-x,y,z
x,-y,z
1/2+x,1/2+y,1/2+z
1/2+y,1/2-x,1/2-z
1/2-x,1/2-y,1/2+z
1/2-y,1/2+x,1/2-z
1/2+y,1/2+x,1/2-z
1/2-y,1/2-x,1/2-z
1/2-x,1/2+y,1/2+z
1/2+x,1/2-y,1/2+z
loop_
_atom_site_type_symbol
_atom_site_label
_atom_site_fract_x
_atom_site_fract_y
_atom_site_fract_z
Si Si1 0.203044 0.616816 0.332054
Si Si2 0.780903 0.883183 0.251198
Si Si3 0.879391 0.193091 0.412010
O O1 0.194204 0.500000 0.361942
O O2 0.135399 0.635399 0.250000
O O3 0.321302 0.644726 0.311337
O O4 0.160386 0.689334 0.404844
O O5 0.667875 0.832126 0.250000
O O6 0.826183 0.877939 0.343307
O O7 0.772729 0.000000 0.221248
O O8 0.851589 0.148412 0.500000
O O9 0.000000 0.189476 0.397443
#
# Coordination Sequence:
#
# PCOD8310875 Si02
#       3
#    16  16  16
#     4   9  18  32  51  74  97 124 162 203 238 278
#     4   9  18  32  50  73  98 126 163 201 237 282
#     4  10  20  32  48  73 101 126 156 196 241 290
#
# _framework density 17.462009999999999
#
# number of rings (size 3 to 8) (size 9 to 14) (size 15 to 20)
#    0.000    3.333    0.000    5.000    0.000    7.000 
#    0.000    6.667    0.000    8.000    0.000    0.000 
#    0.000    0.000    0.000    0.000    0.000    0.000 
#
# Total GULP energy -297513.230746 kJ/mol
# GULP energy per Si atom -12396.384614 kJ/mol
# Density = 1.742227 g / cm^3
# Si number density = 17.462010 Si / 1000 Ang^3
#
#
#
# Elastic Constant Matrix: (Units=GPa)
#
#
# Indices 1 2 3 4 5 6 
#
# 1 101.8261 69.7194 21.9731 0.0000 0.0000 0.0000
# 2 69.7194 101.8308 21.9642 0.0000 0.0000 0.0000
# 3 21.9731 21.9642 55.2756 0.0000 0.0000 0.0000
# 4 0.0000 0.0000 0.0000 16.0774 0.0000 0.0000
# 5 0.0000 0.0000 0.0000 0.0000 16.0783 0.0000
# 6 0.0000 0.0000 0.0000 0.0000 0.0000 8.2038
#
#
#
# Elastic Compliance Matrix: (Units=1/GPa)
#
#
# Indices 1 2 3 4 5 6 
#
# 1 0.018818 -0.012327 -0.002582 0.000000 0.000000 0.000000
# 2 -0.012327 0.018816 -0.002576 0.000000 0.000000 0.000000
# 3 -0.002582 -0.002576 0.020141 0.000000 0.000000 0.000000
# 4 0.000000 0.000000 0.000000 0.062199 0.000000 0.000000
# 5 0.000000 0.000000 0.000000 0.000000 0.062196 0.000000
# 6 0.000000 0.000000 0.000000 0.000000 0.000000 0.121895
#
#
# Mechanical properties :
#
#
# Convention : Reuss Voigt Hill
#
# Bulk Modulus (GPa) = 43.85220 54.02732 48.93976
# Shear Modulus (GPa) = 14.42429 17.75695 16.09062
#
# Velocity S-wave (km/s) = 2.87721 3.19233 3.03886
# Velocity P-wave (km/s) = 6.01708 6.67795 6.35611
#
# Compressibility (1/GPa) = 0.02280387
#
# Stress axis : x y z
#
# Youngs Moduli (GPa) = 53.14042 53.14717 49.64898
#
# Poissons Ratio (x) = 0.65514 0.12821
# Poissons Ratio (y) = 0.65506 0.12791
# Poissons Ratio (z) = 0.13723 0.13693
#
# Static dielectric constant tensor:
#      x y z
#    x 3.246190 0.000000 0.000000 
#    y 0.000000 3.246190 0.000000 
#    z 0.000000 0.000000 2.959680 
# 
# 
# High freq. dielectric constant tensor:
#      x y z
#    x 1.675950 0.000000 0.000000 
#    y 0.000000 1.675950 0.000000 
#    z 0.000000 0.000000 1.643180 
# 
# From -- ./inp_files/4820.got.cif
#   From: 2010.03.12/outbox.cif.g09.slc.cpg/sg119_3_cif.got.tgz:4820.got - 2010.04.14 02:25:26.
