data_PCOD8310594
_publ_section_title
;
Structure prediction by ZEFSAII (Michael W. Deem and Ramdas Pophale) SiO2 
 PCOD8310594
Probable space group: P -4 N 2
;
_chemical_formula_sum "Si O2"
_cell_formula_units_Z 48
_cell_length_a 12.232219
_cell_length_b 12.232219
_cell_length_c 18.754702
_cell_angle_alpha 90.000000
_cell_angle_beta 90.000000
_cell_angle_gamma 90.000000
_cell_volume 2806.213203
_symmetry_space_group_name_H-M "P -4 N 2"
_symmetry_group_IT_number 118
_symmetry_cell_setting 'tetragonal'
loop_
_space_group_symop_operation_xyz
x,y,z
y,-x,-z
-x,-y,z
-y,x,-z
1/2+y,1/2+x,1/2-z
1/2-y,1/2-x,1/2-z
1/2-x,1/2+y,1/2+z
1/2+x,1/2-y,1/2+z
loop_
_atom_site_type_symbol
_atom_site_label
_atom_site_fract_x
_atom_site_fract_y
_atom_site_fract_z
Si Si1 0.626970 0.205327 0.037392
Si Si2 0.374458 0.214099 0.025650
Si Si3 0.283460 0.147506 0.171591
Si Si4 0.242697 0.007560 0.996341
Si Si5 0.907881 0.075023 0.885829
Si Si6 0.430427 0.891881 0.329878
O O1 0.503144 0.218862 0.010195
O O2 0.620891 0.177198 0.121698
O O3 0.687161 0.318395 0.018222
O O4 0.695707 0.108034 0.002090
O O5 0.344228 0.219971 0.110824
O O6 0.333878 0.100446 0.993074
O O7 0.327657 0.172344 0.250000
O O8 0.151778 0.159309 0.169709
O O9 0.297321 0.017967 0.154601
O O10 0.179693 0.005732 0.921377
O O11 0.152272 0.034550 0.055543
O O12 0.000000 0.000000 0.847752
O O13 0.387884 0.887884 0.250000
O O14 0.500000 0.000000 0.348048
#
# Coordination Sequence:
#
# PCOD8310594 Si02
#       6
#     8   8   8   8   8   8
#     4  12  20  36  53  83 115 146 190 223 285 332
#     4  11  23  33  58  81 108 154 182 232 275 336
#     4  11  20  33  54  80 110 143 181 222 290 339
#     4  11  17  32  54  86 110 130 179 227 284 327
#     4  11  18  29  54  86 115 134 170 238 292 331
#     4  11  18  32  59  85 108 134 178 240 287 331
#
# _framework density 17.104901999999999
#
# number of rings (size 3 to 8) (size 9 to 14) (size 15 to 20)
#    0.000    0.833   11.667    0.500    0.000    0.333 
#    0.000    0.000    7.333    0.000    0.000    1.167 
#    0.000    0.000    0.000    0.000    0.000    0.000 
#
# Total GULP energy -594764.344452 kJ/mol
# GULP energy per Si atom -12390.923843 kJ/mol
# Density = 1.706597 g / cm^3
# Si number density = 17.104902 Si / 1000 Ang^3
#
#
#
# Elastic Constant Matrix: (Units=GPa)
#
#
# Indices 1 2 3 4 5 6 
#
# 1 66.0786 15.2016 22.3461 0.0000 0.0000 0.0000
# 2 15.2016 66.0787 22.3462 0.0000 0.0000 0.0000
# 3 22.3461 22.3462 69.5917 0.0000 0.0000 0.0000
# 4 0.0000 0.0000 0.0000 19.7081 0.0000 0.0000
# 5 0.0000 0.0000 0.0000 0.0000 19.7080 0.0000
# 6 0.0000 0.0000 0.0000 0.0000 0.0000 33.7163
#
#
#
# Elastic Compliance Matrix: (Units=1/GPa)
#
#
# Indices 1 2 3 4 5 6 
#
# 1 0.017298 -0.002357 -0.004798 0.000000 0.000000 0.000000
# 2 -0.002357 0.017298 -0.004798 0.000000 0.000000 0.000000
# 3 -0.004798 -0.004798 0.017451 0.000000 0.000000 0.000000
# 4 0.000000 0.000000 0.000000 0.050740 0.000000 0.000000
# 5 0.000000 0.000000 0.000000 0.000000 0.050741 0.000000
# 6 0.000000 0.000000 0.000000 0.000000 0.000000 0.029659
#
#
# Mechanical properties :
#
#
# Convention : Reuss Voigt Hill
#
# Bulk Modulus (GPa) = 35.53375 35.72631 35.63003
# Shear Modulus (GPa) = 23.09758 24.08350 23.59054
#
# Velocity S-wave (km/s) = 3.67870 3.75639 3.71774
# Velocity P-wave (km/s) = 6.23401 6.30443 6.26932
#
# Compressibility (1/GPa) = 0.02814226
#
# Stress axis : x y z
#
# Youngs Moduli (GPa) = 57.80958 57.80956 57.30457
#
# Poissons Ratio (x) = 0.13626 0.27493
# Poissons Ratio (y) = 0.13626 0.27493
# Poissons Ratio (z) = 0.27735 0.27735
#
# Static dielectric constant tensor:
#      x y z
#    x 3.360600 0.000000 0.000000 
#    y 0.000000 3.360600 0.000000 
#    z 0.000000 0.000000 3.130050 
# 
# 
# High freq. dielectric constant tensor:
#      x y z
#    x 1.657340 0.000000 0.000000 
#    y 0.000000 1.657340 0.000000 
#    z 0.000000 0.000000 1.629860 
# 
# From -- ./inp_files/5622.got.cif
#   From: 2010.03.12/outbox.cif.g09.slc.cpg/sg118_3_cif.got.tgz:5622.got - 2010.04.14 02:21:17.
