data_PCOD8310713
_publ_section_title
;
Structure prediction by ZEFSAII (Michael W. Deem and Ramdas Pophale) SiO2 
 PCOD8310713
Probable space group: I -4 M 2
;
_chemical_formula_sum "Si O2"
_cell_formula_units_Z 112
_cell_length_a 14.837618
_cell_length_b 14.837618
_cell_length_c 34.102111
_cell_angle_alpha 90.000000
_cell_angle_beta 90.000000
_cell_angle_gamma 90.000000
_cell_volume 7507.747107
_symmetry_space_group_name_H-M "I -4 M 2"
_symmetry_group_IT_number 119
_symmetry_cell_setting 'tetragonal'
loop_
_space_group_symop_operation_xyz
x,y,z
y,-x,-z
-x,-y,z
-y,x,-z
y,x,-z
-y,-x,-z
-x,y,z
x,-y,z
1/2+x,1/2+y,1/2+z
1/2+y,1/2-x,1/2-z
1/2-x,1/2-y,1/2+z
1/2-y,1/2+x,1/2-z
1/2+y,1/2+x,1/2-z
1/2-y,1/2-x,1/2-z
1/2-x,1/2+y,1/2+z
1/2+x,1/2-y,1/2+z
loop_
_atom_site_type_symbol
_atom_site_label
_atom_site_fract_x
_atom_site_fract_y
_atom_site_fract_z
Si Si1 0.601213 0.398179 0.107484
Si Si2 0.098247 0.606565 0.063956
Si Si3 0.601228 0.600973 0.732642
Si Si4 0.896324 0.395279 0.153047
Si Si5 0.711171 0.241977 0.706336
Si Si6 0.786037 0.106633 0.532652
Si Si7 0.400451 0.297978 0.188179
O O1 0.500000 0.388747 0.090770
O O2 0.622453 0.500000 0.119910
O O3 0.669294 0.366836 0.073895
O O4 0.614552 0.338978 0.145659
O O5 0.093768 0.500000 0.065159
O O6 0.115800 0.638509 0.108394
O O7 0.180405 0.635527 0.035389
O O8 0.000000 0.643656 0.049085
O O9 0.500000 0.635522 0.728936
O O10 0.612949 0.500000 0.716610
O O11 0.659975 0.663287 0.703981
O O12 0.625707 0.605576 0.778557
O O13 0.867849 0.500000 0.157854
O O14 0.830142 0.333746 0.178387
O O15 0.000000 0.382467 0.166441
O O16 0.702609 0.202609 0.750000
O O17 0.815346 0.267353 0.695580
O O18 0.833759 0.166242 0.500000
O O19 0.798261 0.000000 0.523606
O O20 0.500000 0.250400 0.190463
#
# Coordination Sequence:
#
# PCOD8310713 Si02
#       7
#    16  16  16  16  16  16  16
#     4   9  16  25  38  57  82 112 140 160 185 231
#     4   8  15  28  43  57  76 107 143 169 187 218
#     4   9  17  29  43  58  78 104 137 177 213 242
#     4   9  17  28  41  59  85 113 137 161 192 237
#     4  10  19  27  39  59  82 108 137 172 210 245
#     4  10  18  26  38  59  87 111 129 156 195 236
#     4   9  17  28  41  57  78 107 141 171 198 235
#
# _framework density 14.917923
#
# number of rings (size 3 to 8) (size 9 to 14) (size 15 to 20)
#    0.000    2.857    0.000    3.000    0.000    7.000 
#    0.000    0.714    0.000    0.429    0.000    7.000 
#    0.000    2.571    0.000    0.000    0.000    0.000 
#
# Total GULP energy -693883.610386 kJ/mol
# GULP energy per Si atom -12390.778757 kJ/mol
# Density = 1.488397 g / cm^3
# Si number density = 14.917923 Si / 1000 Ang^3
#
#
#
# Elastic Constant Matrix: (Units=GPa)
#
#
# Indices 1 2 3 4 5 6 
#
# 1 87.1524 48.8475 37.5664 0.0000 0.0000 0.0000
# 2 48.8475 87.1525 37.5664 0.0000 0.0000 0.0000
# 3 37.5664 37.5664 58.1170 0.0000 0.0000 0.0000
# 4 0.0000 0.0000 0.0000 18.0492 0.0000 0.0000
# 5 0.0000 0.0000 0.0000 0.0000 18.0491 0.0000
# 6 0.0000 0.0000 0.0000 0.0000 0.0000 17.8193
#
#
#
# Elastic Compliance Matrix: (Units=1/GPa)
#
#
# Indices 1 2 3 4 5 6 
#
# 1 0.018772 -0.007335 -0.007393 0.000000 0.000000 0.000000
# 2 -0.007335 0.018772 -0.007393 0.000000 0.000000 0.000000
# 3 -0.007393 -0.007393 0.026764 0.000000 0.000000 0.000000
# 4 0.000000 0.000000 0.000000 0.055404 0.000000 0.000000
# 5 0.000000 0.000000 0.000000 0.000000 0.055404 0.000000
# 6 0.000000 0.000000 0.000000 0.000000 0.000000 0.056119
#
#
# Mechanical properties :
#
#
# Convention : Reuss Voigt Hill
#
# Bulk Modulus (GPa) = 49.83348 53.37581 51.60465
# Shear Modulus (GPa) = 17.72016 18.01296 17.86656
#
# Velocity S-wave (km/s) = 3.45025 3.47864 3.46447
# Velocity P-wave (km/s) = 7.02495 7.21054 7.11835
#
# Compressibility (1/GPa) = 0.02006683
#
# Stress axis : x y z
#
# Youngs Moduli (GPa) = 53.27168 53.27179 37.36358
#
# Poissons Ratio (x) = 0.39073 0.27622
# Poissons Ratio (y) = 0.39073 0.27622
# Poissons Ratio (z) = 0.39383 0.39383
#
# Static dielectric constant tensor:
#      x y z
#    x 3.053120 0.000000 0.000000 
#    y 0.000000 3.053130 0.000000 
#    z 0.000000 0.000000 2.795960 
# 
# 
# High freq. dielectric constant tensor:
#      x y z
#    x 1.556080 0.000000 0.000000 
#    y 0.000000 1.556080 0.000000 
#    z 0.000000 0.000000 1.553440 
# 
# From -- ./inp_files/10430.got.cif
#   From: 2010.03.12/outbox.cif.g09.slc.cpg/sg119_6_cif.got.tgz:10430.got - 2010.04.14 02:25:26.
