data_PCOD8310733
_publ_section_title
;
Structure prediction by ZEFSAII (Michael W. Deem and Ramdas Pophale) SiO2 
 PCOD8310733
Probable space group: I -4 M 2
;
_chemical_formula_sum "Si O2"
_cell_formula_units_Z 128
_cell_length_a 20.891781
_cell_length_b 20.891781
_cell_length_c 17.516644
_cell_angle_alpha 90.000000
_cell_angle_beta 90.000000
_cell_angle_gamma 90.000000
_cell_volume 7645.428532
_symmetry_space_group_name_H-M "I -4 M 2"
_symmetry_group_IT_number 119
_symmetry_cell_setting 'tetragonal'
loop_
_space_group_symop_operation_xyz
x,y,z
y,-x,-z
-x,-y,z
-y,x,-z
y,x,-z
-y,-x,-z
-x,y,z
x,-y,z
1/2+x,1/2+y,1/2+z
1/2+y,1/2-x,1/2-z
1/2-x,1/2-y,1/2+z
1/2-y,1/2+x,1/2-z
1/2+y,1/2+x,1/2-z
1/2-y,1/2-x,1/2-z
1/2-x,1/2+y,1/2+z
1/2+x,1/2-y,1/2+z
loop_
_atom_site_type_symbol
_atom_site_label
_atom_site_fract_x
_atom_site_fract_y
_atom_site_fract_z
Si Si1 0.248508 0.126715 0.382970
Si Si2 0.075228 0.179386 0.475330
Si Si3 0.274167 0.347740 0.166006
Si Si4 0.570478 0.925959 0.028952
Si Si5 0.070526 0.358304 0.687519
Si Si6 0.204060 0.425813 0.466063
Si Si7 0.251296 0.341673 0.337682
Si Si8 0.750085 0.318292 0.565732
O O1 0.230726 0.087097 0.458384
O O2 0.189594 0.158916 0.339893
O O3 0.282051 0.077947 0.324264
O O4 0.299991 0.181384 0.401665
O O5 0.116421 0.116421 0.500000
O O6 0.095663 0.215650 0.396218
O O7 0.000000 0.161116 0.469696
O O8 0.265477 0.369640 0.253636
O O9 0.212286 0.303784 0.150589
O O10 0.500000 0.906012 0.995575
O O11 0.585079 0.890579 0.107101
O O12 0.570639 0.000000 0.049528
O O13 0.627651 0.910357 0.969776
O O14 0.120895 0.379106 0.750000
O O15 0.000000 0.374992 0.717664
O O16 0.218553 0.500000 0.477155
O O17 0.229222 0.403871 0.383803
O O18 0.244351 0.389602 0.531839
O O19 0.315262 0.306907 0.370955
O O20 0.733338 0.266663 0.500000
#
# Coordination Sequence:
#
# PCOD8310733 Si02
#       8
#    16  16  16  16  16  16  16  16
#     4  10  18  31  51  72  94 123 163 202 243 295
#     4  10  20  35  53  76 102 129 165 206 249 304
#     4   9  19  32  53  73  97 128 158 202 258 301
#     4   9  18  31  44  61  91 132 169 198 231 274
#     4  11  22  31  44  65  95 130 166 205 241 282
#     4  10  18  29  47  71  98 127 164 202 235 286
#     4   9  18  32  49  73 100 128 158 202 255 298
#     4   9  16  29  48  69  96 124 157 199 245 287
#
# _framework density 16.74203
#
# number of rings (size 3 to 8) (size 9 to 14) (size 15 to 20)
#    0.000    2.375    1.250    3.375    3.500    1.250 
#    0.000    0.000    0.000    1.500    0.000    0.000 
#    0.000   20.250    0.000    0.000    0.000    0.000 
#
# Total GULP energy -792915.088963 kJ/mol
# GULP energy per Si atom -12389.298265 kJ/mol
# Density = 1.670392 g / cm^3
# Si number density = 16.742030 Si / 1000 Ang^3
#
#
#
# Elastic Constant Matrix: (Units=GPa)
#
#
# Indices 1 2 3 4 5 6 
#
# 1 78.9978 34.2096 43.6721 0.0000 0.0000 0.0000
# 2 34.2096 78.9993 43.6707 0.0000 0.0000 0.0000
# 3 43.6721 43.6707 81.5891 0.0000 0.0000 0.0000
# 4 0.0000 0.0000 0.0000 17.2922 0.0000 0.0000
# 5 0.0000 0.0000 0.0000 0.0000 17.2910 0.0000
# 6 0.0000 0.0000 0.0000 0.0000 0.0000 17.7250
#
#
#
# Elastic Compliance Matrix: (Units=1/GPa)
#
#
# Indices 1 2 3 4 5 6 
#
# 1 0.018688 -0.003640 -0.008055 0.000000 0.000000 0.000000
# 2 -0.003640 0.018687 -0.008054 0.000000 0.000000 0.000000
# 3 -0.008055 -0.008054 0.020879 0.000000 0.000000 0.000000
# 4 0.000000 0.000000 0.000000 0.057830 0.000000 0.000000
# 5 0.000000 0.000000 0.000000 0.000000 0.057834 0.000000
# 6 0.000000 0.000000 0.000000 0.000000 0.000000 0.056417
#
#
# Mechanical properties :
#
#
# Convention : Reuss Voigt Hill
#
# Bulk Modulus (GPa) = 53.31493 53.63233 53.47363
# Shear Modulus (GPa) = 18.11054 18.33056 18.22055
#
# Velocity S-wave (km/s) = 3.29255 3.31249 3.30254
# Velocity P-wave (km/s) = 6.80945 6.83624 6.82286
#
# Compressibility (1/GPa) = 0.01875647
#
# Stress axis : x y z
#
# Youngs Moduli (GPa) = 53.51136 53.51428 47.89557
#
# Poissons Ratio (x) = 0.19478 0.38578
# Poissons Ratio (y) = 0.19477 0.38574
# Poissons Ratio (z) = 0.43102 0.43099
#
# Static dielectric constant tensor:
#      x y z
#    x 3.123200 0.000000 0.000000 
#    y 0.000000 3.123190 0.000000 
#    z 0.000000 0.000000 3.214230 
# 
# 
# High freq. dielectric constant tensor:
#      x y z
#    x 1.631540 0.000000 0.000000 
#    y 0.000000 1.631540 0.000000 
#    z 0.000000 0.000000 1.638800 
# 
# From -- ./inp_files/6927.got.cif
#   From: 2010.03.12/outbox.cif.g09.slc.cpg/sg119_4_cif.got.tgz:6927.got - 2010.04.14 02:25:26.
