data_PCOD8310424
_publ_section_title
;
Structure prediction by ZEFSAII (Michael W. Deem and Ramdas Pophale) SiO2 
 PCOD8310424
Probable space group: P -4 B 2
;
_chemical_formula_sum "Si O2"
_cell_formula_units_Z 20
_cell_length_a 9.805046
_cell_length_b 9.805046
_cell_length_c 8.629435
_cell_angle_alpha 90.000000
_cell_angle_beta 90.000000
_cell_angle_gamma 90.000000
_cell_volume 829.624622
_symmetry_space_group_name_H-M "P -4 B 2"
_symmetry_group_IT_number 117
_symmetry_cell_setting 'tetragonal'
loop_
_space_group_symop_operation_xyz
x,y,z
y,-x,-z
-x,-y,z
-y,x,-z
1/2+y,1/2+x,-z
1/2-y,1/2-x,-z
1/2-x,1/2+y,z
1/2+x,1/2-y,z
loop_
_atom_site_type_symbol
_atom_site_label
_atom_site_fract_x
_atom_site_fract_y
_atom_site_fract_z
Si Si1 0.500000 0.500000 0.500000
Si Si2 0.233289 0.601340 0.854498
Si Si3 0.000000 0.000000 0.000000
Si Si4 0.252358 0.861922 0.650783
O O1 0.423579 0.605716 0.389578
O O2 0.391697 0.586332 0.900821
O O3 0.226129 0.714737 0.722443
O O4 0.177103 0.461051 0.777803
O O5 0.139006 0.639006 0.000000
O O6 0.348329 0.848329 0.500000
#
# Coordination Sequence:
#
# PCOD8310424 Si02
#       4
#     2   8   2   8
#     4  12  26  52  82 112 182 208 278 356 422 484
#     4  12  27  49  84 122 163 223 277 347 427 504
#     4  12  26  52  82 112 182 208 278 356 422 484
#     4  12  27  49  84 122 163 223 277 347 427 504
#
# _framework density 24.107288
#
# number of rings (size 3 to 8) (size 9 to 14) (size 15 to 20)
#    0.000    0.000    8.000    1.200    0.000    0.000 
#    0.000   20.000    0.000    0.000    0.000    0.000 
#    0.000    0.000    0.000    0.000    0.000    0.000 
#
# Total GULP energy -248108.955327 kJ/mol
# GULP energy per Si atom -12405.447766 kJ/mol
# Density = 2.405242 g / cm^3
# Si number density = 24.107288 Si / 1000 Ang^3
#
#
#
# Elastic Constant Matrix: (Units=GPa)
#
#
# Indices 1 2 3 4 5 6 
#
# 1 101.3871 28.9471 40.3937 0.0000 0.0000 0.0000
# 2 28.9471 101.3871 40.3937 0.0000 0.0000 0.0000
# 3 40.3937 40.3937 135.8549 0.0000 0.0000 0.0000
# 4 0.0000 0.0000 0.0000 53.0562 0.0000 0.0000
# 5 0.0000 0.0000 0.0000 0.0000 53.0562 0.0000
# 6 0.0000 0.0000 0.0000 0.0000 0.0000 48.4243
#
#
#
# Elastic Compliance Matrix: (Units=1/GPa)
#
#
# Indices 1 2 3 4 5 6 
#
# 1 0.011605 -0.002199 -0.002797 0.000000 0.000000 0.000000
# 2 -0.002199 0.011605 -0.002797 0.000000 0.000000 0.000000
# 3 -0.002797 -0.002797 0.009024 0.000000 0.000000 0.000000
# 4 0.000000 0.000000 0.000000 0.018848 0.000000 0.000000
# 5 0.000000 0.000000 0.000000 0.000000 0.018848 0.000000
# 6 0.000000 0.000000 0.000000 0.000000 0.000000 0.020651
#
#
# Mechanical properties :
#
#
# Convention : Reuss Voigt Hill
#
# Bulk Modulus (GPa) = 60.06276 62.01092 61.03684
# Shear Modulus (GPa) = 44.75624 46.16698 45.46161
#
# Velocity S-wave (km/s) = 4.31344 4.38089 4.34730
# Velocity P-wave (km/s) = 7.05525 7.16717 7.11143
#
# Compressibility (1/GPa) = 0.01664925
#
# Stress axis : x y z
#
# Youngs Moduli (GPa) = 86.16732 86.16732 110.81692
#
# Poissons Ratio (x) = 0.18950 0.30992
# Poissons Ratio (y) = 0.18950 0.30992
# Poissons Ratio (z) = 0.24099 0.24099
#
# Static dielectric constant tensor:
#      x y z
#    x 4.465780 0.000000 0.000000 
#    y 0.000000 4.465780 0.000000 
#    z 0.000000 0.000000 4.690810 
# 
# 
# High freq. dielectric constant tensor:
#      x y z
#    x 1.954320 0.000000 0.000000 
#    y 0.000000 1.954320 0.000000 
#    z 0.000000 0.000000 1.983340 
# 
# From -- ./inp_files/2257.got.cif
#   From: 2010.03.12/outbox.cif.g09.slc.cpg/sg117_2_cif.got.tgz:2257.got - 2010.04.14 02:19:01.
