data_PCOD8310363
_publ_section_title
;
Structure prediction by ZEFSAII (Michael W. Deem and Ramdas Pophale) SiO2 
 PCOD8310363
Probable space group: P -4 B 2
;
_chemical_formula_sum "Si O2"
_cell_formula_units_Z 32
_cell_length_a 10.174175
_cell_length_b 10.174175
_cell_length_c 13.926505
_cell_angle_alpha 90.000000
_cell_angle_beta 90.000000
_cell_angle_gamma 90.000000
_cell_volume 1441.585968
_symmetry_space_group_name_H-M "P -4 B 2"
_symmetry_group_IT_number 117
_symmetry_cell_setting 'tetragonal'
loop_
_space_group_symop_operation_xyz
x,y,z
y,-x,-z
-x,-y,z
-y,x,-z
1/2+y,1/2+x,-z
1/2-y,1/2-x,-z
1/2-x,1/2+y,z
1/2+x,1/2-y,z
loop_
_atom_site_type_symbol
_atom_site_label
_atom_site_fract_x
_atom_site_fract_y
_atom_site_fract_z
Si Si1 0.386924 0.752480 0.223322
Si Si2 0.500000 0.500000 0.000000
Si Si3 0.500000 0.000000 0.317053
Si Si4 0.953505 0.215848 0.649662
Si Si5 0.384971 0.645574 0.839310
Si Si6 0.500000 0.500000 0.500000
O O1 0.330837 0.694395 0.324880
O O2 0.494372 0.660379 0.173724
O O3 0.260518 0.774604 0.152564
O O4 0.466426 0.882786 0.246111
O O5 0.631984 0.532278 0.062753
O O6 0.370474 0.038481 0.380025
O O7 0.031129 0.191224 0.748033
O O8 0.012991 0.130918 0.563435
#
# Coordination Sequence:
#
# PCOD8310363 Si02
#       6
#     8   2   4   8   8   2
#     4  11  20  43  65  96 135 182 228 278 341 412
#     4  12  22  40  64 106 128 184 218 288 352 406
#     4  10  24  40  71  97 132 184 228 280 345 413
#     4  11  22  44  69  98 133 184 227 283 346 413
#     4  11  23  40  68  93 138 180 230 279 346 411
#     4  12  22  40  80  98 136 188 230 288 364 422
#
# _framework density 22.197773999999999
#
# number of rings (size 3 to 8) (size 9 to 14) (size 15 to 20)
#    0.000    1.000    7.500    0.000    0.000    1.000 
#    0.000   12.500    0.000    1.500    0.000    0.000 
#    0.000    0.000    0.000    0.000    0.000    0.000 
#
# Total GULP energy -396533.095404 kJ/mol
# GULP energy per Si atom -12391.659231 kJ/mol
# Density = 2.214725 g / cm^3
# Si number density = 22.197774 Si / 1000 Ang^3
#
#
#
# Elastic Constant Matrix: (Units=GPa)
#
#
# Indices 1 2 3 4 5 6 
#
# 1 140.6013 29.9802 37.7412 0.0000 0.0000 0.0000
# 2 29.9802 140.6013 37.7412 0.0000 0.0000 0.0000
# 3 37.7412 37.7412 93.0246 0.0000 0.0000 0.0000
# 4 0.0000 0.0000 0.0000 15.3842 0.0000 0.0000
# 5 0.0000 0.0000 0.0000 0.0000 15.3842 0.0000
# 6 0.0000 0.0000 0.0000 0.0000 0.0000 47.7609
#
#
#
# Elastic Compliance Matrix: (Units=1/GPa)
#
#
# Indices 1 2 3 4 5 6 
#
# 1 0.008092 -0.000947 -0.002899 0.000000 0.000000 0.000000
# 2 -0.000947 0.008092 -0.002899 0.000000 0.000000 0.000000
# 3 -0.002899 -0.002899 0.013102 0.000000 0.000000 0.000000
# 4 0.000000 0.000000 0.000000 0.065002 0.000000 0.000000
# 5 0.000000 0.000000 0.000000 0.000000 0.065002 0.000000
# 6 0.000000 0.000000 0.000000 0.000000 0.000000 0.020938
#
#
# Mechanical properties :
#
#
# Convention : Reuss Voigt Hill
#
# Bulk Modulus (GPa) = 63.30401 65.01692 64.16047
# Shear Modulus (GPa) = 25.12764 33.62350 29.37557
#
# Velocity S-wave (km/s) = 3.36815 3.89617 3.64174
# Velocity P-wave (km/s) = 6.61105 7.04227 6.83007
#
# Compressibility (1/GPa) = 0.01579679
#
# Stress axis : x y z
#
# Youngs Moduli (GPa) = 123.57204 123.57204 76.32408
#
# Poissons Ratio (x) = 0.11707 0.22125
# Poissons Ratio (y) = 0.11707 0.22125
# Poissons Ratio (z) = 0.35821 0.35821
#
# Static dielectric constant tensor:
#      x y z
#    x 5.144730 0.000000 0.000000 
#    y 0.000000 5.144730 0.000000 
#    z 0.000000 0.000000 3.581320 
# 
# 
# High freq. dielectric constant tensor:
#      x y z
#    x 1.890290 0.000000 0.000000 
#    y 0.000000 1.890290 0.000000 
#    z 0.000000 0.000000 1.830180 
# 
# From -- ./inp_files/2487.got.cif
#   From: 2010.03.12/outbox.cif.g09.slc.cpg/sg117_2_cif.got.tgz:2487.got - 2010.04.14 02:19:01.
