data_PCOD8310722
_publ_section_title
;
Structure prediction by ZEFSAII (Michael W. Deem and Ramdas Pophale) SiO2 
 PCOD8310722
Probable space group: I -4 M 2
;
_chemical_formula_sum "Si O2"
_cell_formula_units_Z 68
_cell_length_a 18.870782
_cell_length_b 18.870782
_cell_length_c 11.539715
_cell_angle_alpha 90.000000
_cell_angle_beta 90.000000
_cell_angle_gamma 90.000000
_cell_volume 4109.366519
_symmetry_space_group_name_H-M "I -4 M 2"
_symmetry_group_IT_number 119
_symmetry_cell_setting 'tetragonal'
loop_
_space_group_symop_operation_xyz
x,y,z
y,-x,-z
-x,-y,z
-y,x,-z
y,x,-z
-y,-x,-z
-x,y,z
x,-y,z
1/2+x,1/2+y,1/2+z
1/2+y,1/2-x,1/2-z
1/2-x,1/2-y,1/2+z
1/2-y,1/2+x,1/2-z
1/2+y,1/2+x,1/2-z
1/2-y,1/2-x,1/2-z
1/2-x,1/2+y,1/2+z
1/2+x,1/2-y,1/2+z
loop_
_atom_site_type_symbol
_atom_site_label
_atom_site_fract_x
_atom_site_fract_y
_atom_site_fract_z
Si Si1 0.000000 0.654717 0.090595
Si Si2 0.355865 0.000000 0.473420
Si Si3 0.350645 0.717054 0.894528
Si Si4 0.000000 0.500000 0.081187
Si Si5 0.255647 0.000000 0.682759
Si Si6 0.147527 0.346720 0.960333
Si Si7 0.216481 0.283520 0.750000
O O1 0.000000 0.575389 0.151626
O O2 0.000000 0.716181 0.185894
O O3 0.931048 0.663516 0.010000
O O4 0.335673 0.926601 0.409889
O O5 0.438716 0.000000 0.488125
O O6 0.324228 0.000000 0.602609
O O7 0.430187 0.708684 0.844503
O O8 0.296319 0.701455 0.791036
O O9 0.338562 0.661439 0.000000
O O10 0.332770 0.796800 0.936542
O O11 0.160482 0.294074 0.854137
#
# Coordination Sequence:
#
# PCOD8310722 Si02
#       7
#     8   8  16   4   8  16   8
#     4  10  18  28  42  69 100 128 166 192 220 266
#     4   8  16  28  40  61  89 124 160 182 207 250
#     4   9  18  32  48  68  91 119 155 192 237 285
#     4   8  16  25  36  57  96 132 152 179 204 241
#     4  10  18  29  48  67  89 115 146 199 243 276
#     4   9  18  29  44  66  95 127 160 191 219 269
#     4  10  18  30  46  63  92 129 154 190 238 272
#
# _framework density 16.547561000000002
#
# number of rings (size 3 to 8) (size 9 to 14) (size 15 to 20)
#    0.000    2.824    0.000    1.412    0.000    8.941 
#    0.000    1.176    0.000    4.588    0.000    0.000 
#    0.000    1.882    0.000    0.118    0.000    0.000 
#
# Total GULP energy -421243.816829 kJ/mol
# GULP energy per Si atom -12389.524024 kJ/mol
# Density = 1.650990 g / cm^3
# Si number density = 16.547561 Si / 1000 Ang^3
#
#
#
# Elastic Constant Matrix: (Units=GPa)
#
#
# Indices 1 2 3 4 5 6 
#
# 1 106.6657 45.5134 51.7186 0.0000 0.0000 0.0000
# 2 45.5134 106.6663 51.7175 0.0000 0.0000 0.0000
# 3 51.7186 51.7175 80.2358 0.0000 0.0000 0.0000
# 4 0.0000 0.0000 0.0000 21.8632 0.0000 0.0000
# 5 0.0000 0.0000 0.0000 0.0000 21.8636 0.0000
# 6 0.0000 0.0000 0.0000 0.0000 0.0000 22.3714
#
#
#
# Elastic Compliance Matrix: (Units=1/GPa)
#
#
# Indices 1 2 3 4 5 6 
#
# 1 0.014024 -0.002329 -0.007539 0.000000 0.000000 0.000000
# 2 -0.002329 0.014024 -0.007538 0.000000 0.000000 0.000000
# 3 -0.007539 -0.007538 0.022181 0.000000 0.000000 0.000000
# 4 0.000000 0.000000 0.000000 0.045739 0.000000 0.000000
# 5 0.000000 0.000000 0.000000 0.000000 0.045738 0.000000
# 6 0.000000 0.000000 0.000000 0.000000 0.000000 0.044700
#
#
# Mechanical properties :
#
#
# Convention : Reuss Voigt Hill
#
# Bulk Modulus (GPa) = 64.85912 65.71850 65.28881
# Shear Modulus (GPa) = 22.08913 22.86087 22.47500
#
# Velocity S-wave (km/s) = 3.65757 3.72092 3.68938
# Velocity P-wave (km/s) = 7.55763 7.63292 7.59537
#
# Compressibility (1/GPa) = 0.01541803
#
# Stress axis : x y z
#
# Youngs Moduli (GPa) = 71.30669 71.30861 45.08314
#
# Poissons Ratio (x) = 0.16606 0.33986
# Poissons Ratio (y) = 0.16606 0.33984
# Poissons Ratio (z) = 0.53755 0.53753
#
# Static dielectric constant tensor:
#      x y z
#    x 3.224380 0.000000 0.000000 
#    y 0.000000 3.224400 0.000000 
#    z 0.000000 0.000000 2.870230 
# 
# 
# High freq. dielectric constant tensor:
#      x y z
#    x 1.627410 0.000000 0.000000 
#    y 0.000000 1.627410 0.000000 
#    z 0.000000 0.000000 1.620760 
# 
# From -- ./inp_files/3957.got.cif
#   From: 2010.03.12/outbox.cif.g09.slc.cpg/sg119_2_cif.got.tgz:3957.got - 2010.04.14 02:25:26.
