data_PCOD8310761
_publ_section_title
;
Structure prediction by ZEFSAII (Michael W. Deem and Ramdas Pophale) SiO2 
 PCOD8310761
Probable space group: I -4 M 2
;
_chemical_formula_sum "Si O2"
_cell_formula_units_Z 56
_cell_length_a 14.301950
_cell_length_b 14.301950
_cell_length_c 17.131254
_cell_angle_alpha 90.000000
_cell_angle_beta 90.000000
_cell_angle_gamma 90.000000
_cell_volume 3504.125606
_symmetry_space_group_name_H-M "I -4 M 2"
_symmetry_group_IT_number 119
_symmetry_cell_setting 'tetragonal'
loop_
_space_group_symop_operation_xyz
x,y,z
y,-x,-z
-x,-y,z
-y,x,-z
y,x,-z
-y,-x,-z
-x,y,z
x,-y,z
1/2+x,1/2+y,1/2+z
1/2+y,1/2-x,1/2-z
1/2-x,1/2-y,1/2+z
1/2-y,1/2+x,1/2-z
1/2+y,1/2+x,1/2-z
1/2-y,1/2-x,1/2-z
1/2-x,1/2+y,1/2+z
1/2+x,1/2-y,1/2+z
loop_
_atom_site_type_symbol
_atom_site_label
_atom_site_fract_x
_atom_site_fract_y
_atom_site_fract_z
Si Si1 0.271034 0.106423 0.704801
Si Si2 0.706804 0.206804 0.250000
Si Si3 0.892030 0.392883 0.888724
Si Si4 0.394257 0.754835 0.975193
O O1 0.368002 0.131999 0.750000
O O2 0.191705 0.181128 0.733782
O O3 0.287467 0.122555 0.613095
O O4 0.240411 0.000000 0.723537
O O5 0.677068 0.147206 0.175794
O O6 0.875295 0.500000 0.861437
O O7 0.000000 0.371148 0.900766
O O8 0.843695 0.371623 0.971048
O O9 0.500000 0.720395 0.987327
O O10 0.331480 0.668521 0.000000
#
# Coordination Sequence:
#
# PCOD8310761 Si02
#       4
#    16   8  16  16
#     4   9  19  32  51  75 102 134 166 197 242 294
#     4  10  18  33  53  70 106 130 160 206 254 288
#     4  10  20  33  53  78  98 125 167 211 254 292
#     4  10  18  33  51  72 102 131 163 203 246 296
#
# _framework density 15.981161999999999
#
# number of rings (size 3 to 8) (size 9 to 14) (size 15 to 20)
#    0.857    1.429    2.857    0.857    0.000    2.857 
#    0.000    2.857    0.000    3.429    0.000    0.000 
#    0.000    0.000    0.000    0.000    0.000    0.000 
#
# Total GULP energy -346986.023060 kJ/mol
# GULP energy per Si atom -12392.357966 kJ/mol
# Density = 1.594479 g / cm^3
# Si number density = 15.981162 Si / 1000 Ang^3
#
#
#
# Elastic Constant Matrix: (Units=GPa)
#
#
# Indices 1 2 3 4 5 6 
#
# 1 104.9128 66.0632 67.4026 0.0000 0.0000 0.0000
# 2 66.0632 104.9160 67.4019 0.0000 0.0000 0.0000
# 3 67.4026 67.4019 128.4634 0.0000 0.0000 0.0000
# 4 0.0000 0.0000 0.0000 26.7471 0.0000 0.0000
# 5 0.0000 0.0000 0.0000 0.0000 26.7466 0.0000
# 6 0.0000 0.0000 0.0000 0.0000 0.0000 26.0301
#
#
#
# Elastic Compliance Matrix: (Units=1/GPa)
#
#
# Indices 1 2 3 4 5 6 
#
# 1 0.017858 -0.007882 -0.005234 0.000000 0.000000 0.000000
# 2 -0.007882 0.017857 -0.005233 0.000000 0.000000 0.000000
# 3 -0.005234 -0.005233 0.013276 0.000000 0.000000 0.000000
# 4 0.000000 0.000000 0.000000 0.037387 0.000000 0.000000
# 5 0.000000 0.000000 0.000000 0.000000 0.037388 0.000000
# 6 0.000000 0.000000 0.000000 0.000000 0.000000 0.038417
#
#
# Mechanical properties :
#
#
# Convention : Reuss Voigt Hill
#
# Bulk Modulus (GPa) = 81.35571 82.22528 81.79050
# Shear Modulus (GPa) = 24.63302 25.06640 24.84971
#
# Velocity S-wave (km/s) = 3.93030 3.96472 3.94755
# Velocity P-wave (km/s) = 8.46251 8.51597 8.48928
#
# Compressibility (1/GPa) = 0.01229170
#
# Stress axis : x y z
#
# Youngs Moduli (GPa) = 55.99812 56.00134 75.32119
#
# Poissons Ratio (x) = 0.44140 0.39424
# Poissons Ratio (y) = 0.44138 0.39419
# Poissons Ratio (z) = 0.29310 0.29308
#
# Static dielectric constant tensor:
#      x y z
#    x 2.982430 0.000000 0.000000 
#    y 0.000000 2.982420 0.000000 
#    z 0.000000 0.000000 3.196280 
# 
# 
# High freq. dielectric constant tensor:
#      x y z
#    x 1.602310 0.000000 0.000000 
#    y 0.000000 1.602310 0.000000 
#    z 0.000000 0.000000 1.629430 
# 
# From -- ./inp_files/4922.got.cif
#   From: 2010.03.12/outbox.cif.g09.slc.cpg/sg119_3_cif.got.tgz:4922.got - 2010.04.14 02:25:26.
