data_PCOD8310504
_publ_section_title
;
Structure prediction by ZEFSAII (Michael W. Deem and Ramdas Pophale) SiO2 
 PCOD8310504
Probable space group: P -4 N 2
;
_chemical_formula_sum "Si O2"
_cell_formula_units_Z 40
_cell_length_a 9.273665
_cell_length_b 9.273665
_cell_length_c 20.815417
_cell_angle_alpha 90.000000
_cell_angle_beta 90.000000
_cell_angle_gamma 90.000000
_cell_volume 1790.143816
_symmetry_space_group_name_H-M "P -4 N 2"
_symmetry_group_IT_number 118
_symmetry_cell_setting 'tetragonal'
loop_
_space_group_symop_operation_xyz
x,y,z
y,-x,-z
-x,-y,z
-y,x,-z
1/2+y,1/2+x,1/2-z
1/2-y,1/2-x,1/2-z
1/2-x,1/2+y,1/2+z
1/2+x,1/2-y,1/2+z
loop_
_atom_site_type_symbol
_atom_site_label
_atom_site_fract_x
_atom_site_fract_y
_atom_site_fract_z
Si Si1 0.191704 0.373837 0.382528
Si Si2 0.091002 0.784097 0.787527
Si Si3 0.341880 0.508058 0.180237
Si Si4 0.809293 0.215645 0.153430
Si Si5 0.604102 0.296735 0.486159
O O1 0.328529 0.283497 0.356016
O O2 0.209815 0.534868 0.354286
O O3 0.175341 0.370965 0.459731
O O4 0.048121 0.292230 0.361312
O O5 0.135480 0.635480 0.750000
O O6 0.922449 0.807392 0.799599
O O7 0.150074 0.921379 0.747067
O O8 0.500000 0.500000 0.146282
O O9 0.302372 0.676424 0.188254
O O10 0.753202 0.170547 0.082332
O O11 0.434865 0.323313 0.480075
#
# Coordination Sequence:
#
# PCOD8310504 Si02
#       5
#     8   8   8   8   8
#     4  10  20  40  67 100 129 166 228 277 330 394
#     4  10  22  41  68  95 134 170 219 282 332 402
#     4  11  25  42  60  97 137 180 218 272 347 401
#     4  11  21  41  69  97 130 178 223 276 338 410
#     4   9  17  34  69 102 125 164 226 281 327 392
#
# _framework density 22.344573
#
# number of rings (size 3 to 8) (size 9 to 14) (size 15 to 20)
#    0.000    1.800    2.000    2.400    0.000    3.200 
#    3.600   14.000    0.000    0.000    0.000    0.000 
#    0.000    0.000    0.000    0.000    0.000    0.000 
#
# Total GULP energy -495534.221810 kJ/mol
# GULP energy per Si atom -12388.355545 kJ/mol
# Density = 2.229372 g / cm^3
# Si number density = 22.344573 Si / 1000 Ang^3
#
#
#
# Elastic Constant Matrix: (Units=GPa)
#
#
# Indices 1 2 3 4 5 6 
#
# 1 80.7906 61.2413 41.7359 0.0000 0.0000 0.0000
# 2 61.2413 80.7906 41.7359 0.0000 0.0000 0.0000
# 3 41.7359 41.7359 114.3283 0.0000 0.0000 0.0000
# 4 0.0000 0.0000 0.0000 24.1739 0.0000 0.0000
# 5 0.0000 0.0000 0.0000 0.0000 24.1739 0.0000
# 6 0.0000 0.0000 0.0000 0.0000 0.0000 18.8994
#
#
#
# Elastic Compliance Matrix: (Units=1/GPa)
#
#
# Indices 1 2 3 4 5 6 
#
# 1 0.030058 -0.021095 -0.003272 0.000000 0.000000 0.000000
# 2 -0.021095 0.030058 -0.003272 0.000000 0.000000 0.000000
# 3 -0.003272 -0.003272 0.011136 0.000000 0.000000 0.000000
# 4 0.000000 0.000000 0.000000 0.041367 0.000000 0.000000
# 5 0.000000 0.000000 0.000000 0.000000 0.041367 0.000000
# 6 0.000000 0.000000 0.000000 0.000000 0.000000 0.052912
#
#
# Mechanical properties :
#
#
# Convention : Reuss Voigt Hill
#
# Bulk Modulus (GPa) = 62.60032 62.81508 62.70770
# Shear Modulus (GPa) = 18.69152 22.19585 20.44369
#
# Velocity S-wave (km/s) = 2.89539 3.15516 3.02806
# Velocity P-wave (km/s) = 6.26534 6.43789 6.35220
#
# Compressibility (1/GPa) = 0.01597436
#
# Stress axis : x y z
#
# Youngs Moduli (GPa) = 33.26867 33.26867 89.80017
#
# Poissons Ratio (x) = 0.70179 0.29385
# Poissons Ratio (y) = 0.70179 0.29385
# Poissons Ratio (z) = 0.10886 0.10886
#
# Static dielectric constant tensor:
#      x y z
#    x 3.942850 0.000000 0.000000 
#    y 0.000000 3.942850 0.000000 
#    z 0.000000 0.000000 4.853280 
# 
# 
# High freq. dielectric constant tensor:
#      x y z
#    x 1.868240 0.000000 0.000000 
#    y 0.000000 1.868240 0.000000 
#    z 0.000000 0.000000 1.882590 
# 
# From -- ./inp_files/6019.got.cif
#   From: 2010.03.12/outbox.cif.g09.slc.cpg/sg118_4_cif.got.tgz:6019.got - 2010.04.14 02:21:17.
