data_PCOD8310949
_publ_section_title
;
Structure prediction by ZEFSAII (Michael W. Deem and Ramdas Pophale) SiO2 
 PCOD8310949
Probable space group: I -4 M 2
;
_chemical_formula_sum "Si O2"
_cell_formula_units_Z 74
_cell_length_a 20.345082
_cell_length_b 20.345082
_cell_length_c 8.831802
_cell_angle_alpha 90.000000
_cell_angle_beta 90.000000
_cell_angle_gamma 90.000000
_cell_volume 3655.680341
_symmetry_space_group_name_H-M "I -4 M 2"
_symmetry_group_IT_number 119
_symmetry_cell_setting 'tetragonal'
loop_
_space_group_symop_operation_xyz
x,y,z
y,-x,-z
-x,-y,z
-y,x,-z
y,x,-z
-y,-x,-z
-x,y,z
x,-y,z
1/2+x,1/2+y,1/2+z
1/2+y,1/2-x,1/2-z
1/2-x,1/2-y,1/2+z
1/2-y,1/2+x,1/2-z
1/2+y,1/2+x,1/2-z
1/2-y,1/2-x,1/2-z
1/2-x,1/2+y,1/2+z
1/2+x,1/2-y,1/2+z
loop_
_atom_site_type_symbol
_atom_site_label
_atom_site_fract_x
_atom_site_fract_y
_atom_site_fract_z
Si Si1 0.205103 0.000000 0.765744
Si Si2 0.000000 0.306123 0.503401
Si Si3 0.000000 0.790327 0.753194
Si Si4 0.000000 0.500000 0.750000
Si Si5 0.426390 0.000000 0.958723
Si Si6 0.778067 0.888472 0.007537
Si Si7 0.500000 0.606559 0.984292
Si Si8 0.130762 0.363099 0.083041
O O1 0.134028 0.000000 0.687024
O O2 0.253446 0.000000 0.626352
O O3 0.214869 0.933314 0.858917
O O4 0.930723 0.344016 0.492318
O O5 0.000000 0.280306 0.674460
O O6 0.933599 0.797338 0.850243
O O7 0.000000 0.842559 0.620342
O O8 0.934951 0.500000 0.642892
O O9 0.379164 0.055194 0.894851
O O10 0.500000 0.000000 0.885691
O O11 0.826775 0.826775 0.000000
O O12 0.702809 0.860792 0.019603
O O13 0.565378 0.565378 0.000000
O O14 0.157034 0.342967 0.250000
#
# Coordination Sequence:
#
# PCOD8310949 Si02
#       8
#     8   8   8   2   8  16   8  16
#     4  10  20  41  65  83 129 171 206 266 323 392
#     4  11  22  42  62  90 125 166 214 267 312 382
#     4  10  24  43  64  95 127 173 213 267 339 378
#     4   8  20  36  50  92 128 156 200 258 328 356
#     4  10  21  33  61  88 123 160 208 264 312 377
#     4  11  24  43  65  94 131 174 220 266 333 406
#     4  10  20  37  66 100 124 157 215 276 332 393
#     4  12  23  40  62  91 126 169 220 261 321 385
#
# _framework density 20.242470000000001
#
# number of rings (size 3 to 8) (size 9 to 14) (size 15 to 20)
#    0.324    0.973    3.243    3.243    0.000    4.324 
#    3.892    1.081    0.000    5.189    0.000    0.000 
#    0.000    0.000    0.000    0.000    0.000    0.000 
#
# Total GULP energy -458408.561170 kJ/mol
# GULP energy per Si atom -12389.420572 kJ/mol
# Density = 2.019640 g / cm^3
# Si number density = 20.242470 Si / 1000 Ang^3
#
#
#
# Elastic Constant Matrix: (Units=GPa)
#
#
# Indices 1 2 3 4 5 6 
#
# 1 129.2016 56.5714 26.8058 0.0000 0.0000 0.0000
# 2 56.5714 129.2018 26.8060 0.0000 0.0000 0.0000
# 3 26.8058 26.8060 86.7381 0.0000 0.0000 0.0000
# 4 0.0000 0.0000 0.0000 22.4166 0.0000 0.0000
# 5 0.0000 0.0000 0.0000 0.0000 22.4170 0.0000
# 6 0.0000 0.0000 0.0000 0.0000 0.0000 315.6717
#
#
#
# Elastic Compliance Matrix: (Units=1/GPa)
#
#
# Indices 1 2 3 4 5 6 
#
# 1 0.009839 -0.003929 -0.001826 0.000000 0.000000 0.000000
# 2 -0.003929 0.009839 -0.001826 0.000000 0.000000 0.000000
# 3 -0.001826 -0.001826 0.012658 0.000000 0.000000 0.000000
# 4 0.000000 0.000000 0.000000 0.044610 0.000000 0.000000
# 5 0.000000 0.000000 0.000000 0.000000 0.044609 0.000000
# 6 0.000000 0.000000 0.000000 0.000000 0.000000 0.003168
#
#
# Mechanical properties :
#
#
# Convention : Reuss Voigt Hill
#
# Bulk Modulus (GPa) = 58.23410 62.83421 60.53416
# Shear Modulus (GPa) = 34.33808 87.76496 61.05152
#
# Velocity S-wave (km/s) = 4.12313 6.59173 5.49778
# Velocity P-wave (km/s) = 7.17619 9.43625 8.38273
#
# Compressibility (1/GPa) = 0.01717207
#
# Stress axis : x y z
#
# Youngs Moduli (GPa) = 101.63441 101.63451 79.00223
#
# Poissons Ratio (x) = 0.39934 0.14429
# Poissons Ratio (y) = 0.39934 0.14429
# Poissons Ratio (z) = 0.18563 0.18563
#
# Static dielectric constant tensor:
#      x y z
#    x 3.760850 0.000000 0.000000 
#    y 0.000000 3.760850 0.000000 
#    z 0.000000 0.000000 3.949630 
# 
# 
# High freq. dielectric constant tensor:
#      x y z
#    x 1.790340 0.000000 0.000000 
#    y 0.000000 1.790340 0.000000 
#    z 0.000000 0.000000 1.797300 
# 
# From -- ./inp_files/2514.got.cif
#   From: 2010.03.12/outbox.cif.g09.slc.cpg/sg119_2_cif.got.tgz:2514.got - 2010.04.14 02:25:26.
