data_PCOD8310864
_publ_section_title
;
Structure prediction by ZEFSAII (Michael W. Deem and Ramdas Pophale) SiO2 
 PCOD8310864
Probable space group: I -4 M 2
;
_chemical_formula_sum "Si O2"
_cell_formula_units_Z 112
_cell_length_a 13.779381
_cell_length_b 13.779381
_cell_length_c 27.893486
_cell_angle_alpha 90.000000
_cell_angle_beta 90.000000
_cell_angle_gamma 90.000000
_cell_volume 5296.173585
_symmetry_space_group_name_H-M "I -4 M 2"
_symmetry_group_IT_number 119
_symmetry_cell_setting 'tetragonal'
loop_
_space_group_symop_operation_xyz
x,y,z
y,-x,-z
-x,-y,z
-y,x,-z
y,x,-z
-y,-x,-z
-x,y,z
x,-y,z
1/2+x,1/2+y,1/2+z
1/2+y,1/2-x,1/2-z
1/2-x,1/2-y,1/2+z
1/2-y,1/2+x,1/2-z
1/2+y,1/2+x,1/2-z
1/2-y,1/2-x,1/2-z
1/2-x,1/2+y,1/2+z
1/2+x,1/2-y,1/2+z
loop_
_atom_site_type_symbol
_atom_site_label
_atom_site_fract_x
_atom_site_fract_y
_atom_site_fract_z
Si Si1 0.387623 0.894489 0.647339
Si Si2 0.255100 0.108296 0.012826
Si Si3 0.113890 0.107697 0.289379
Si Si4 0.726983 0.892529 0.125260
Si Si5 0.232011 0.613014 0.052905
Si Si6 0.613785 0.291916 0.114384
Si Si7 0.614242 0.697997 0.691890
O O1 0.500000 0.896929 0.634921
O O2 0.337537 0.869631 0.597593
O O3 0.364477 0.812654 0.686518
O O4 0.353439 0.000000 0.667711
O O5 0.339710 0.179561 0.993043
O O6 0.268946 0.000000 0.991605
O O7 0.149469 0.149469 0.000000
O O8 0.253631 0.105456 0.069404
O O9 0.142381 0.151354 0.341024
O O10 0.152236 0.171222 0.244938
O O11 0.000000 0.102015 0.286803
O O12 0.159570 0.000000 0.284791
O O13 0.638745 0.817117 0.131633
O O14 0.824936 0.861268 0.152578
O O15 0.695667 0.000000 0.143219
O O16 0.253012 0.500000 0.042140
O O17 0.331563 0.670307 0.066322
O O18 0.500000 0.302214 0.104151
O O19 0.500000 0.673496 0.684393
#
# Coordination Sequence:
#
# PCOD8310864 Si02
#       7
#    16  16  16  16  16  16  16
#     4   9  17  31  56  91 126 162 204 249 304 374
#     4  11  23  42  65  95 132 171 216 263 316 381
#     4   9  19  36  62  97 128 162 214 266 318 385
#     4  11  24  41  62  92 126 163 213 268 319 381
#     4  11  22  40  66  94 127 168 214 265 321 384
#     4  11  23  42  66  91 126 170 215 271 330 384
#     4  10  19  37  65  94 130 172 211 259 321 387
#
# _framework density 21.147342999999999
#
# number of rings (size 3 to 8) (size 9 to 14) (size 15 to 20)
#    0.000    1.714    2.857    1.286    0.000    5.857 
#    0.000    2.857    0.000    1.714    0.000    8.000 
#    0.000    0.000    0.000    0.000    0.000    0.000 
#
# Total GULP energy -694196.214286 kJ/mol
# GULP energy per Si atom -12396.360969 kJ/mol
# Density = 2.109921 g / cm^3
# Si number density = 21.147343 Si / 1000 Ang^3
#
#
#
# Elastic Constant Matrix: (Units=GPa)
#
#
# Indices 1 2 3 4 5 6 
#
# 1 97.3815 44.0172 31.3751 0.0000 0.0000 0.0000
# 2 44.0172 97.3815 31.3751 0.0000 0.0000 0.0000
# 3 31.3751 31.3751 66.7357 0.0000 0.0000 0.0000
# 4 0.0000 0.0000 0.0000 32.4066 0.0000 0.0000
# 5 0.0000 0.0000 0.0000 0.0000 32.4066 0.0000
# 6 0.0000 0.0000 0.0000 0.0000 0.0000 26.8812
#
#
#
# Elastic Compliance Matrix: (Units=1/GPa)
#
#
# Indices 1 2 3 4 5 6 
#
# 1 0.013838 -0.004901 -0.004202 0.000000 0.000000 0.000000
# 2 -0.004901 0.013838 -0.004202 0.000000 0.000000 0.000000
# 3 -0.004202 -0.004202 0.018935 0.000000 0.000000 0.000000
# 4 0.000000 0.000000 0.000000 0.030858 0.000000 0.000000
# 5 0.000000 0.000000 0.000000 0.000000 0.030858 0.000000
# 6 0.000000 0.000000 0.000000 0.000000 0.000000 0.037201
#
#
# Mechanical properties :
#
#
# Convention : Reuss Voigt Hill
#
# Bulk Modulus (GPa) = 49.99371 52.78148 51.38759
# Shear Modulus (GPa) = 27.96366 28.65430 28.30898
#
# Velocity S-wave (km/s) = 3.64032 3.68500 3.66273
# Velocity P-wave (km/s) = 6.43127 6.56649 6.49923
#
# Compressibility (1/GPa) = 0.02000252
#
# Stress axis : x y z
#
# Youngs Moduli (GPa) = 72.26508 72.26508 52.81198
#
# Poissons Ratio (x) = 0.35418 0.22189
# Poissons Ratio (y) = 0.35418 0.22189
# Poissons Ratio (z) = 0.30362 0.30362
#
# Static dielectric constant tensor:
#      x y z
#    x 4.158260 0.000000 0.000000 
#    y 0.000000 4.158260 0.000000 
#    z 0.000000 0.000000 3.853780 
# 
# 
# High freq. dielectric constant tensor:
#      x y z
#    x 1.830850 0.000000 0.000000 
#    y 0.000000 1.830850 0.000000 
#    z 0.000000 0.000000 1.825440 
# 
# From -- ./inp_files/8826.got.cif
#   From: 2010.03.12/outbox.cif.g09.slc.cpg/sg119_5_cif.got.tgz:8826.got - 2010.04.14 02:25:26.
