data_PCOD8310698
_publ_section_title
;
Structure prediction by ZEFSAII (Michael W. Deem and Ramdas Pophale) SiO2 
 PCOD8310698
Probable space group: I -4 M 2
;
_chemical_formula_sum "Si O2"
_cell_formula_units_Z 112
_cell_length_a 20.440483
_cell_length_b 20.440483
_cell_length_c 16.274212
_cell_angle_alpha 90.000000
_cell_angle_beta 90.000000
_cell_angle_gamma 90.000000
_cell_volume 6799.582957
_symmetry_space_group_name_H-M "I -4 M 2"
_symmetry_group_IT_number 119
_symmetry_cell_setting 'tetragonal'
loop_
_space_group_symop_operation_xyz
x,y,z
y,-x,-z
-x,-y,z
-y,x,-z
y,x,-z
-y,-x,-z
-x,y,z
x,-y,z
1/2+x,1/2+y,1/2+z
1/2+y,1/2-x,1/2-z
1/2-x,1/2-y,1/2+z
1/2-y,1/2+x,1/2-z
1/2+y,1/2+x,1/2-z
1/2-y,1/2-x,1/2-z
1/2-x,1/2+y,1/2+z
1/2+x,1/2-y,1/2+z
loop_
_atom_site_type_symbol
_atom_site_label
_atom_site_fract_x
_atom_site_fract_y
_atom_site_fract_z
Si Si1 0.426672 0.797123 0.592927
Si Si2 0.922993 0.072427 0.221655
Si Si3 0.279170 0.881958 0.729302
Si Si4 0.654469 0.421879 0.432003
Si Si5 0.845242 0.573741 0.070209
Si Si6 0.371897 0.350027 0.865883
Si Si7 0.073242 0.784567 0.521384
O O1 0.500000 0.806198 0.562722
O O2 0.426736 0.782269 0.690224
O O3 0.396975 0.729733 0.554785
O O4 0.393398 0.864351 0.563010
O O5 0.897281 0.125441 0.155410
O O6 0.903609 0.091501 0.314284
O O7 0.000000 0.069976 0.216346
O O8 0.894266 0.000000 0.202480
O O9 0.314532 0.814532 0.750000
O O10 0.314180 0.925279 0.660310
O O11 0.208282 0.859371 0.698248
O O12 0.608688 0.391313 0.500000
O O13 0.651763 0.500000 0.438510
O O14 0.876667 0.500000 0.059451
O O15 0.791156 0.585461 0.000169
O O16 0.419723 0.327995 0.939034
O O17 0.304518 0.375569 0.907468
O O18 0.000000 0.795152 0.554468
#
# Coordination Sequence:
#
# PCOD8310698 Si02
#       7
#    16  16  16  16  16  16  16
#     4  10  19  32  50  72  94 123 162 203 247 295
#     4  10  19  29  45  68  92 123 163 201 236 280
#     4   9  17  30  46  68  94 124 157 197 240 292
#     4  10  20  34  49  67  94 129 165 205 249 292
#     4   9  18  32  48  69  96 127 157 197 248 300
#     4  10  17  29  46  66  91 126 162 197 235 286
#     4   9  18  30  45  65  94 128 160 198 243 288
#
# _framework density 16.471599000000001
#
# number of rings (size 3 to 8) (size 9 to 14) (size 15 to 20)
#    0.000    2.429    1.429    1.714    0.000    2.143 
#    7.714    0.000    0.000    6.000    0.000    0.000 
#    0.000    0.000    0.000    0.000    0.000   14.286 
#
# Total GULP energy -693817.712822 kJ/mol
# GULP energy per Si atom -12389.602015 kJ/mol
# Density = 1.643411 g / cm^3
# Si number density = 16.471599 Si / 1000 Ang^3
#
#
#
# Elastic Constant Matrix: (Units=GPa)
#
#
# Indices 1 2 3 4 5 6 
#
# 1 83.6575 46.1675 20.9052 0.0000 0.0000 0.0000
# 2 46.1675 83.6518 20.9051 0.0000 0.0000 0.0000
# 3 20.9052 20.9051 45.4111 0.0000 0.0000 0.0000
# 4 0.0000 0.0000 0.0000 23.0930 0.0000 0.0000
# 5 0.0000 0.0000 0.0000 0.0000 23.0931 0.0000
# 6 0.0000 0.0000 0.0000 0.0000 0.0000 19.9745
#
#
#
# Elastic Compliance Matrix: (Units=1/GPa)
#
#
# Indices 1 2 3 4 5 6 
#
# 1 0.017859 -0.008816 -0.004163 0.000000 0.000000 0.000000
# 2 -0.008816 0.017860 -0.004164 0.000000 0.000000 0.000000
# 3 -0.004163 -0.004164 0.025854 0.000000 0.000000 0.000000
# 4 0.000000 0.000000 0.000000 0.043303 0.000000 0.000000
# 5 0.000000 0.000000 0.000000 0.000000 0.043303 0.000000
# 6 0.000000 0.000000 0.000000 0.000000 0.000000 0.050064
#
#
# Mechanical properties :
#
#
# Convention : Reuss Voigt Hill
#
# Bulk Modulus (GPa) = 36.64558 43.18619 39.91588
# Shear Modulus (GPa) = 20.69322 21.54829 21.12075
#
# Velocity S-wave (km/s) = 3.54827 3.62084 3.58474
# Velocity P-wave (km/s) = 6.25164 6.61484 6.43580
#
# Compressibility (1/GPa) = 0.02728842
#
# Stress axis : x y z
#
# Youngs Moduli (GPa) = 55.99401 55.98976 38.67847
#
# Poissons Ratio (x) = 0.49361 0.16102
# Poissons Ratio (y) = 0.49365 0.16104
# Poissons Ratio (z) = 0.23310 0.23312
#
# Static dielectric constant tensor:
#      x y z
#    x 3.097790 0.000000 0.000000 
#    y 0.000000 3.097790 0.000000 
#    z 0.000000 0.000000 3.038670 
# 
# 
# High freq. dielectric constant tensor:
#      x y z
#    x 1.626250 0.000000 0.000000 
#    y 0.000000 1.626250 0.000000 
#    z 0.000000 0.000000 1.616570 
# 
# From -- ./inp_files/6876.got.cif
#   From: 2010.03.12/outbox.cif.g09.slc.cpg/sg119_4_cif.got.tgz:6876.got - 2010.04.14 02:25:26.
