data_PCOD8310202
_publ_section_title
;
Structure prediction by ZEFSAII (Michael W. Deem and Ramdas Pophale) SiO2 
 PCOD8310202
Probable space group: P -4 C 2
;
_chemical_formula_sum "Si O2"
_cell_formula_units_Z 40
_cell_length_a 18.591505
_cell_length_b 18.591505
_cell_length_c 5.101660
_cell_angle_alpha 90.000000
_cell_angle_beta 90.000000
_cell_angle_gamma 90.000000
_cell_volume 1763.358466
_symmetry_space_group_name_H-M "P -4 C 2"
_symmetry_group_IT_number 116
_symmetry_cell_setting 'tetragonal'
loop_
_space_group_symop_operation_xyz
x,y,z
y,-x,-z
-x,-y,z
-y,x,-z
y,x,1/2-z
-y,-x,1/2-z
-x,y,1/2+z
x,-y,1/2+z
loop_
_atom_site_type_symbol
_atom_site_label
_atom_site_fract_x
_atom_site_fract_y
_atom_site_fract_z
Si Si1 0.047970 0.168141 0.714920
Si Si2 0.667383 0.548049 0.280676
Si Si3 0.124530 0.319559 0.701459
Si Si4 0.077774 0.530932 0.325010
Si Si5 0.783284 0.333864 0.702151
O O1 0.108992 0.108992 0.750000
O O2 0.082489 0.246271 0.748870
O O3 0.014134 0.158100 0.429013
O O4 0.598068 0.598068 0.250000
O O5 0.665432 0.516095 0.571935
O O6 0.740505 0.592557 0.243812
O O7 0.070339 0.385310 0.758212
O O8 0.150607 0.327044 0.403383
O O9 0.190577 0.328048 0.902465
O O10 0.119506 0.514895 0.598848
O O11 0.000000 0.500000 0.407912
O O12 0.734162 0.265839 0.750000
#
# Coordination Sequence:
#
# PCOD8310202 Si02
#       5
#     8   8   8   8   8
#     4  12  28  48  77 107 141 183 238 296 364 435
#     4  11  24  41  64  94 135 179 234 299 355 419
#     4  12  25  43  74 100 138 188 226 282 346 423
#     4  10  23  39  62  93 140 173 216 261 322 391
#     4  11  24  43  66  96 134 174 229 289 337 403
#
# _framework density 22.683986000000001
#
# number of rings (size 3 to 8) (size 9 to 14) (size 15 to 20)
#    0.000    0.800    0.000    6.600    5.600   10.400 
#    0.000    0.000    0.000    0.000    0.000    0.000 
#    0.000    0.000    0.000    0.000    0.000    0.000 
#
# Total GULP energy -496123.081855 kJ/mol
# GULP energy per Si atom -12403.077046 kJ/mol
# Density = 2.263236 g / cm^3
# Si number density = 22.683986 Si / 1000 Ang^3
#
#
#
# Elastic Constant Matrix: (Units=GPa)
#
#
# Indices 1 2 3 4 5 6 
#
# 1 103.7056 44.9127 7.5286 0.0000 0.0000 0.0000
# 2 44.9127 103.7109 7.5320 0.0000 0.0000 0.0000
# 3 7.5286 7.5320 112.6100 0.0000 0.0000 0.0000
# 4 0.0000 0.0000 0.0000 33.9105 0.0000 0.0000
# 5 0.0000 0.0000 0.0000 0.0000 33.9109 0.0000
# 6 0.0000 0.0000 0.0000 0.0000 0.0000 39.4262
#
#
#
# Elastic Compliance Matrix: (Units=1/GPa)
#
#
# Indices 1 2 3 4 5 6 
#
# 1 0.011892 -0.005117 -0.000453 0.000000 0.000000 0.000000
# 2 -0.005117 0.011891 -0.000453 0.000000 0.000000 0.000000
# 3 -0.000453 -0.000453 0.008941 0.000000 0.000000 0.000000
# 4 0.000000 0.000000 0.000000 0.029489 0.000000 0.000000
# 5 0.000000 0.000000 0.000000 0.000000 0.029489 0.000000
# 6 0.000000 0.000000 0.000000 0.000000 0.000000 0.025364
#
#
# Mechanical properties :
#
#
# Convention : Reuss Voigt Hill
#
# Bulk Modulus (GPa) = 48.36148 48.88590 48.62369
# Shear Modulus (GPa) = 36.76368 38.78641 37.77504
#
# Velocity S-wave (km/s) = 4.03015 4.13953 4.08520
# Velocity P-wave (km/s) = 6.55912 6.66673 6.61314
#
# Compressibility (1/GPa) = 0.02067761
#
# Stress axis : x y z
#
# Youngs Moduli (GPa) = 84.09339 84.09738 111.84695
#
# Poissons Ratio (x) = 0.43031 0.05064
# Poissons Ratio (y) = 0.43029 0.05069
# Poissons Ratio (z) = 0.03808 0.03812
#
# Static dielectric constant tensor:
#      x y z
#    x 4.162150 0.000000 0.000000 
#    y 0.000000 4.162150 0.000000 
#    z 0.000000 0.000000 4.783850 
# 
# 
# High freq. dielectric constant tensor:
#      x y z
#    x 1.898710 0.000000 0.000000 
#    y 0.000000 1.898710 0.000000 
#    z 0.000000 0.000000 1.924350 
# 
# From -- ./inp_files/133.got.cif
#   From: 2010.03.12/outbox.cif.g09.slc.cpg/sg116_1_cif.got.tgz:133.got - 2010.04.14 02:15:44.
