data_PCOD8310254
_publ_section_title
;
Structure prediction by ZEFSAII (Michael W. Deem and Ramdas Pophale) SiO2 
 PCOD8310254
Probable space group: P -4 C 2
;
_chemical_formula_sum "Si O2"
_cell_formula_units_Z 18
_cell_length_a 5.385500
_cell_length_b 5.385500
_cell_length_c 23.770961
_cell_angle_alpha 90.000000
_cell_angle_beta 90.000000
_cell_angle_gamma 90.000000
_cell_volume 689.443688
_symmetry_space_group_name_H-M "P -4 C 2"
_symmetry_group_IT_number 116
_symmetry_cell_setting 'tetragonal'
loop_
_space_group_symop_operation_xyz
x,y,z
y,-x,-z
-x,-y,z
-y,x,-z
y,x,1/2-z
-y,-x,1/2-z
-x,y,1/2+z
x,-y,1/2+z
loop_
_atom_site_type_symbol
_atom_site_label
_atom_site_fract_x
_atom_site_fract_y
_atom_site_fract_z
Si Si1 0.345947 0.245815 0.189177
Si Si2 0.500000 0.500000 0.000000
Si Si3 0.864294 0.250605 0.571973
O O1 0.500000 0.500000 0.187405
O O2 0.215522 0.215522 0.250000
O O3 0.145154 0.253454 0.139764
O O4 0.500000 0.000000 0.176826
O O5 0.276573 0.597578 0.959052
O O6 0.000000 0.500000 0.552021
O O7 0.000000 0.000000 0.551246
#
# Coordination Sequence:
#
# PCOD8310254 Si02
#       3
#     8   2   8
#     4  11  24  48  81 118 161 205 265 337 414 495
#     4  12  32  52  74 116 172 216 288 354 396 512
#     4  12  29  50  83 117 161 218 276 340 419 489
#
# _framework density 26.108006
#
# number of rings (size 3 to 8) (size 9 to 14) (size 15 to 20)
#    0.000    0.444    2.222    4.000    6.222    4.444 
#    0.000    0.000    0.000    0.000    0.000    0.000 
#    0.000    0.000    0.000    0.000    0.000    0.000 
#
# Total GULP energy -223158.091108 kJ/mol
# GULP energy per Si atom -12397.671728 kJ/mol
# Density = 2.604858 g / cm^3
# Si number density = 26.108006 Si / 1000 Ang^3
#
#
#
# Elastic Constant Matrix: (Units=GPa)
#
#
# Indices 1 2 3 4 5 6 
#
# 1 159.2691 54.3207 36.7521 0.0000 0.0000 0.0000
# 2 54.3207 159.2691 36.7521 0.0000 0.0000 0.0000
# 3 36.7521 36.7521 184.2365 0.0000 0.0000 0.0000
# 4 0.0000 0.0000 0.0000 10.7325 0.0000 0.0000
# 5 0.0000 0.0000 0.0000 0.0000 10.7325 0.0000
# 6 0.0000 0.0000 0.0000 0.0000 0.0000 52.8965
#
#
#
# Elastic Compliance Matrix: (Units=1/GPa)
#
#
# Indices 1 2 3 4 5 6 
#
# 1 0.007278 -0.002251 -0.001003 0.000000 0.000000 0.000000
# 2 -0.002251 0.007278 -0.001003 0.000000 0.000000 0.000000
# 3 -0.001003 -0.001003 0.005828 0.000000 0.000000 0.000000
# 4 0.000000 0.000000 0.000000 0.093175 0.000000 0.000000
# 5 0.000000 0.000000 0.000000 0.000000 0.093175 0.000000
# 6 0.000000 0.000000 0.000000 0.000000 0.000000 0.018905
#
#
# Mechanical properties :
#
#
# Convention : Reuss Voigt Hill
#
# Bulk Modulus (GPa) = 84.24144 84.26940 84.25542
# Shear Modulus (GPa) = 20.99897 39.86897 30.43397
#
# Velocity S-wave (km/s) = 2.83912 3.91202 3.41793
# Velocity P-wave (km/s) = 6.56384 7.26309 6.92230
#
# Compressibility (1/GPa) = 0.01187064
#
# Stress axis : x y z
#
# Youngs Moduli (GPa) = 137.40551 137.40551 171.58870
#
# Poissons Ratio (x) = 0.30927 0.17207
# Poissons Ratio (y) = 0.30927 0.17207
# Poissons Ratio (z) = 0.13779 0.13779
#
# Static dielectric constant tensor:
#      x y z
#    x 4.598060 0.000000 0.000000 
#    y 0.000000 4.598060 0.000000 
#    z 0.000000 0.000000 5.161140 
# 
# 
# High freq. dielectric constant tensor:
#      x y z
#    x 2.039470 0.000000 0.000000 
#    y 0.000000 2.039470 0.000000 
#    z 0.000000 0.000000 2.081370 
# 
# From -- ./inp_files/4235.got.cif
#   From: 2010.03.12/outbox.cif.g09.slc.cpg/sg116_3_cif.got.tgz:4235.got - 2010.04.14 02:15:44.
