data_PCOD8310705
_publ_section_title
;
Structure prediction by ZEFSAII (Michael W. Deem and Ramdas Pophale) SiO2 
 PCOD8310705
Probable space group: I -4 M 2
;
_chemical_formula_sum "Si O2"
_cell_formula_units_Z 120
_cell_length_a 25.132118
_cell_length_b 25.132118
_cell_length_c 12.196871
_cell_angle_alpha 90.000000
_cell_angle_beta 90.000000
_cell_angle_gamma 90.000000
_cell_volume 7703.828584
_symmetry_space_group_name_H-M "I -4 M 2"
_symmetry_group_IT_number 119
_symmetry_cell_setting 'tetragonal'
loop_
_space_group_symop_operation_xyz
x,y,z
y,-x,-z
-x,-y,z
-y,x,-z
y,x,-z
-y,-x,-z
-x,y,z
x,-y,z
1/2+x,1/2+y,1/2+z
1/2+y,1/2-x,1/2-z
1/2-x,1/2-y,1/2+z
1/2-y,1/2+x,1/2-z
1/2+y,1/2+x,1/2-z
1/2-y,1/2-x,1/2-z
1/2-x,1/2+y,1/2+z
1/2+x,1/2-y,1/2+z
loop_
_atom_site_type_symbol
_atom_site_label
_atom_site_fract_x
_atom_site_fract_y
_atom_site_fract_z
Si Si1 0.400027 0.099974 0.750000
Si Si2 0.792095 0.641092 0.985010
Si Si3 0.116399 0.441226 0.027245
Si Si4 0.832167 0.243398 0.735333
Si Si5 0.613872 0.059753 0.152811
Si Si6 0.788442 0.383721 0.574644
Si Si7 0.841855 0.254564 0.282001
Si Si8 0.563987 0.209764 0.649233
O O1 0.444759 0.100211 0.843874
O O2 0.408473 0.153513 0.679065
O O3 0.753798 0.636220 0.878506
O O4 0.828429 0.694228 0.982336
O O5 0.829349 0.589721 0.000754
O O6 0.754537 0.645835 0.089486
O O7 0.126796 0.500000 0.983892
O O8 0.066779 0.415950 0.963096
O O9 0.792840 0.292840 0.750000
O O10 0.872371 0.240190 0.840510
O O11 0.800325 0.188481 0.739560
O O12 0.574234 0.074234 0.250000
O O13 0.665063 0.097112 0.156440
O O14 0.633250 0.000000 0.164795
O O15 0.776988 0.427429 0.480112
O O16 0.806558 0.306558 0.250000
O O17 0.899124 0.250090 0.219629
O O18 0.500000 0.212815 0.675286
#
# Coordination Sequence:
#
# PCOD8310705 Si02
#       8
#     8  16  16  16  16  16  16  16
#     4  12  20  36  48  63  88 118 164 204 252 280
#     4  10  17  32  47  67  92 120 153 193 246 299
#     4  11  22  33  49  66  87 121 165 212 249 286
#     4   9  20  29  49  71  93 117 149 192 251 296
#     4  11  22  35  49  62  85 118 159 208 255 295
#     4  10  18  34  48  65  89 117 156 196 238 300
#     4  11  18  32  48  73  96 119 150 200 242 294
#     4  12  21  33  53  70  91 127 161 201 251 292
#
# _framework density 15.57667
#
# number of rings (size 3 to 8) (size 9 to 14) (size 15 to 20)
#    0.000    1.333    6.000    3.600    0.000    2.000 
#    0.000    0.667    0.000    1.800    0.000    0.000 
#    0.000    0.000    0.000    0.000    0.000   18.667 
#
# Total GULP energy -743411.570008 kJ/mol
# GULP energy per Si atom -12390.192833 kJ/mol
# Density = 1.554122 g / cm^3
# Si number density = 15.576670 Si / 1000 Ang^3
#
#
#
# Elastic Constant Matrix: (Units=GPa)
#
#
# Indices 1 2 3 4 5 6 
#
# 1 57.8711 40.5259 31.3673 0.0000 0.0000 0.0000
# 2 40.5259 57.8712 31.3671 0.0000 0.0000 0.0000
# 3 31.3673 31.3671 96.5574 0.0000 0.0000 0.0000
# 4 0.0000 0.0000 0.0000 12.9267 0.0000 0.0000
# 5 0.0000 0.0000 0.0000 0.0000 12.9267 0.0000
# 6 0.0000 0.0000 0.0000 0.0000 0.0000 6.5579
#
#
#
# Elastic Compliance Matrix: (Units=1/GPa)
#
#
# Indices 1 2 3 4 5 6 
#
# 1 0.035235 -0.022418 -0.004164 0.000000 0.000000 0.000000
# 2 -0.022418 0.035235 -0.004164 0.000000 0.000000 0.000000
# 3 -0.004164 -0.004164 0.013062 0.000000 0.000000 0.000000
# 4 0.000000 0.000000 0.000000 0.077359 0.000000 0.000000
# 5 0.000000 0.000000 0.000000 0.000000 0.077359 0.000000
# 6 0.000000 0.000000 0.000000 0.000000 0.000000 0.152488
#
#
# Mechanical properties :
#
#
# Convention : Reuss Voigt Hill
#
# Bulk Modulus (GPa) = 45.36872 46.53558 45.95215
# Shear Modulus (GPa) = 10.87958 13.75155 12.31556
#
# Velocity S-wave (km/s) = 2.64569 2.97447 2.81489
# Velocity P-wave (km/s) = 6.20663 6.46039 6.33478
#
# Compressibility (1/GPa) = 0.02204162
#
# Stress axis : x y z
#
# Youngs Moduli (GPa) = 28.38067 28.38077 76.55878
#
# Poissons Ratio (x) = 0.63623 0.31879
# Poissons Ratio (y) = 0.63622 0.31878
# Poissons Ratio (z) = 0.11818 0.11817
#
# Static dielectric constant tensor:
#      x y z
#    x 2.731960 0.000000 0.000000 
#    y 0.000000 2.731960 0.000000 
#    z 0.000000 0.000000 3.350810 
# 
# 
# High freq. dielectric constant tensor:
#      x y z
#    x 1.554950 0.000000 0.000000 
#    y 0.000000 1.554950 0.000000 
#    z 0.000000 0.000000 1.626840 
# 
# From -- ./inp_files/4485.got.cif
#   From: 2010.03.12/outbox.cif.g09.slc.cpg/sg119_3_cif.got.tgz:4485.got - 2010.04.14 02:25:26.
