data_PCOD8310828
_publ_section_title
;
Structure prediction by ZEFSAII (Michael W. Deem and Ramdas Pophale) SiO2 
 PCOD8310828
Probable space group: I -4 M 2
;
_chemical_formula_sum "Si O2"
_cell_formula_units_Z 64
_cell_length_a 12.967130
_cell_length_b 12.967130
_cell_length_c 22.014524
_cell_angle_alpha 90.000000
_cell_angle_beta 90.000000
_cell_angle_gamma 90.000000
_cell_volume 3701.664289
_symmetry_space_group_name_H-M "I -4 M 2"
_symmetry_group_IT_number 119
_symmetry_cell_setting 'tetragonal'
loop_
_space_group_symop_operation_xyz
x,y,z
y,-x,-z
-x,-y,z
-y,x,-z
y,x,-z
-y,-x,-z
-x,y,z
x,-y,z
1/2+x,1/2+y,1/2+z
1/2+y,1/2-x,1/2-z
1/2-x,1/2-y,1/2+z
1/2-y,1/2+x,1/2-z
1/2+y,1/2+x,1/2-z
1/2-y,1/2-x,1/2-z
1/2-x,1/2+y,1/2+z
1/2+x,1/2-y,1/2+z
loop_
_atom_site_type_symbol
_atom_site_label
_atom_site_fract_x
_atom_site_fract_y
_atom_site_fract_z
Si Si1 0.122443 0.622737 0.512574
Si Si2 0.733268 0.241572 0.906031
Si Si3 0.744293 0.379602 0.286474
Si Si4 0.111082 0.120967 0.676579
O O1 0.138049 0.500000 0.514819
O O2 0.171415 0.666458 0.450839
O O3 0.190735 0.673990 0.565841
O O4 0.000000 0.650082 0.517502
O O5 0.777267 0.174191 0.850728
O O6 0.649328 0.320144 0.880743
O O7 0.747404 0.500000 0.298777
O O8 0.848872 0.348872 0.250000
O O9 0.653697 0.342048 0.241607
O O10 0.000000 0.173639 0.668166
O O11 0.102171 0.000000 0.677416
#
# Coordination Sequence:
#
# PCOD8310828 Si02
#       4
#    16  16  16  16
#     4  10  21  35  51  72  98 130 168 210 252 292
#     4  10  19  33  52  71  97 130 166 203 245 298
#     4   9  18  31  48  73 101 129 161 198 243 294
#     4   9  17  30  49  73  98 122 152 194 244 296
#
# _framework density 17.28952
#
# number of rings (size 3 to 8) (size 9 to 14) (size 15 to 20)
#    0.000    2.500    0.000    2.250    0.000    2.250 
#    0.000    0.000    0.000   18.000    0.000   12.250 
#    0.000    0.000    0.000    0.000    0.000    0.000 
#
# Total GULP energy -396510.321654 kJ/mol
# GULP energy per Si atom -12390.947552 kJ/mol
# Density = 1.725017 g / cm^3
# Si number density = 17.289520 Si / 1000 Ang^3
#
#
#
# Elastic Constant Matrix: (Units=GPa)
#
#
# Indices 1 2 3 4 5 6 
#
# 1 96.5868 42.8837 54.8576 0.0000 0.0000 0.0000
# 2 42.8837 96.5868 54.8576 0.0000 0.0000 0.0000
# 3 54.8576 54.8576 133.0704 0.0000 0.0000 0.0000
# 4 0.0000 0.0000 0.0000 21.2569 0.0000 0.0000
# 5 0.0000 0.0000 0.0000 0.0000 21.2569 0.0000
# 6 0.0000 0.0000 0.0000 0.0000 0.0000 26.2593
#
#
#
# Elastic Compliance Matrix: (Units=1/GPa)
#
#
# Indices 1 2 3 4 5 6 
#
# 1 0.014616 -0.004005 -0.004374 0.000000 0.000000 0.000000
# 2 -0.004005 0.014616 -0.004374 0.000000 0.000000 0.000000
# 3 -0.004374 -0.004374 0.011121 0.000000 0.000000 0.000000
# 4 0.000000 0.000000 0.000000 0.047044 0.000000 0.000000
# 5 0.000000 0.000000 0.000000 0.000000 0.047044 0.000000
# 6 0.000000 0.000000 0.000000 0.000000 0.000000 0.038082
#
#
# Mechanical properties :
#
#
# Convention : Reuss Voigt Hill
#
# Bulk Modulus (GPa) = 67.35750 70.16018 68.75884
# Shear Modulus (GPa) = 24.63316 25.33094 24.98205
#
# Velocity S-wave (km/s) = 3.77867 3.83182 3.80534
# Velocity P-wave (km/s) = 7.62109 7.76175 7.69174
#
# Compressibility (1/GPa) = 0.01484616
#
# Stress axis : x y z
#
# Youngs Moduli (GPa) = 68.41814 68.41814 89.91641
#
# Poissons Ratio (x) = 0.27401 0.39333
# Poissons Ratio (y) = 0.27401 0.39333
# Poissons Ratio (z) = 0.29929 0.29929
#
# Static dielectric constant tensor:
#      x y z
#    x 3.527790 0.000000 0.000000 
#    y 0.000000 3.527790 0.000000 
#    z 0.000000 0.000000 3.322560 
# 
# 
# High freq. dielectric constant tensor:
#      x y z
#    x 1.666890 0.000000 0.000000 
#    y 0.000000 1.666890 0.000000 
#    z 0.000000 0.000000 1.678090 
# 
# From -- ./inp_files/7390.got.cif
#   From: 2010.03.12/outbox.cif.g09.slc.cpg/sg119_4_cif.got.tgz:7390.got - 2010.04.14 02:25:26.
