data_PCOD8310858
_publ_section_title
;
Structure prediction by ZEFSAII (Michael W. Deem and Ramdas Pophale) SiO2 
 PCOD8310858
Probable space group: I -4 M 2
;
_chemical_formula_sum "Si O2"
_cell_formula_units_Z 88
_cell_length_a 14.860396
_cell_length_b 14.860396
_cell_length_c 21.757957
_cell_angle_alpha 90.000000
_cell_angle_beta 90.000000
_cell_angle_gamma 90.000000
_cell_volume 4804.839437
_symmetry_space_group_name_H-M "I -4 M 2"
_symmetry_group_IT_number 119
_symmetry_cell_setting 'tetragonal'
loop_
_space_group_symop_operation_xyz
x,y,z
y,-x,-z
-x,-y,z
-y,x,-z
y,x,-z
-y,-x,-z
-x,y,z
x,-y,z
1/2+x,1/2+y,1/2+z
1/2+y,1/2-x,1/2-z
1/2-x,1/2-y,1/2+z
1/2-y,1/2+x,1/2-z
1/2+y,1/2+x,1/2-z
1/2-y,1/2-x,1/2-z
1/2-x,1/2+y,1/2+z
1/2+x,1/2-y,1/2+z
loop_
_atom_site_type_symbol
_atom_site_label
_atom_site_fract_x
_atom_site_fract_y
_atom_site_fract_z
Si Si1 0.000000 0.396234 0.437236
Si Si2 0.099096 0.900905 0.500000
Si Si3 0.334999 0.193393 0.147012
Si Si4 0.709233 0.599475 0.732062
Si Si5 0.245002 0.597078 0.239191
Si Si6 0.602028 0.000000 0.417849
Si Si7 0.366687 0.253747 0.897482
O O1 0.000000 0.399970 0.509741
O O2 0.092119 0.344031 0.416511
O O3 0.000000 0.500000 0.411508
O O4 0.172363 0.894655 0.553131
O O5 0.000000 0.890351 0.530410
O O6 0.382837 0.247939 0.201442
O O7 0.281334 0.110877 0.177384
O O8 0.410614 0.154600 0.102337
O O9 0.263840 0.257896 0.110022
O O10 0.669202 0.500000 0.729188
O O11 0.629392 0.670196 0.720744
O O12 0.215234 0.500000 0.263743
O O13 0.162726 0.662726 0.250000
O O14 0.275047 0.590189 0.168420
O O15 0.500000 0.000000 0.391186
#
# Coordination Sequence:
#
# PCOD8310858 Si02
#       7
#     8   8  16  16  16   8  16
#     4  11  24  40  57  81 113 151 204 254 299 339
#     4  11  22  34  58  92 124 158 191 226 296 375
#     4  10  20  34  56  81 116 152 186 231 279 344
#     4  10  19  36  55  83 114 149 186 230 287 344
#     4  11  22  39  57  82 114 149 198 246 294 351
#     4  11  22  36  56  88 116 152 192 234 288 347
#     4  11  21  39  55  81 116 153 194 242 290 351
#
# _framework density 18.314869000000002
#
# number of rings (size 3 to 8) (size 9 to 14) (size 15 to 20)
#    0.000    1.364    6.364    1.636    1.273    2.000 
#    0.000    0.000    0.000    0.000    0.000    0.000 
#    0.000    0.000    0.000    0.545    0.000    0.000 
#
# Total GULP energy -545145.120269 kJ/mol
# GULP energy per Si atom -12389.661824 kJ/mol
# Density = 1.827318 g / cm^3
# Si number density = 18.314869 Si / 1000 Ang^3
#
#
#
# Elastic Constant Matrix: (Units=GPa)
#
#
# Indices 1 2 3 4 5 6 
#
# 1 142.0231 69.5156 29.4892 0.0000 0.0000 0.0000
# 2 69.5156 142.0238 29.4886 0.0000 0.0000 0.0000
# 3 29.4892 29.4886 55.4641 0.0000 0.0000 0.0000
# 4 0.0000 0.0000 0.0000 17.9793 0.0000 0.0000
# 5 0.0000 0.0000 0.0000 0.0000 17.9796 0.0000
# 6 0.0000 0.0000 0.0000 0.0000 0.0000 7.4564
#
#
#
# Elastic Compliance Matrix: (Units=1/GPa)
#
#
# Indices 1 2 3 4 5 6 
#
# 1 0.009671 -0.004121 -0.002951 0.000000 0.000000 0.000000
# 2 -0.004121 0.009671 -0.002951 0.000000 0.000000 0.000000
# 3 -0.002951 -0.002951 0.021167 0.000000 0.000000 0.000000
# 4 0.000000 0.000000 0.000000 0.055619 0.000000 0.000000
# 5 0.000000 0.000000 0.000000 0.000000 0.055619 0.000000
# 6 0.000000 0.000000 0.000000 0.000000 0.000000 0.134112
#
#
# Mechanical properties :
#
#
# Convention : Reuss Voigt Hill
#
# Bulk Modulus (GPa) = 48.86584 66.27753 57.57168
# Shear Modulus (GPa) = 15.98848 22.75092 19.36970
#
# Velocity S-wave (km/s) = 2.95783 3.52832 3.25560
# Velocity P-wave (km/s) = 6.19709 7.27084 6.75533
#
# Compressibility (1/GPa) = 0.02046419
#
# Stress axis : x y z
#
# Youngs Moduli (GPa) = 103.40375 103.40481 47.24254
#
# Poissons Ratio (x) = 0.42611 0.13941
# Poissons Ratio (y) = 0.42611 0.13940
# Poissons Ratio (z) = 0.30513 0.30511
#
# Static dielectric constant tensor:
#      x y z
#    x 3.604000 0.000000 0.000000 
#    y 0.000000 3.604000 0.000000 
#    z 0.000000 0.000000 3.335050 
# 
# 
# High freq. dielectric constant tensor:
#      x y z
#    x 1.708170 0.000000 0.000000 
#    y 0.000000 1.708170 0.000000 
#    z 0.000000 0.000000 1.697280 
# 
# From -- ./inp_files/7735.got.cif
#   From: 2010.03.12/outbox.cif.g09.slc.cpg/sg119_4_cif.got.tgz:7735.got - 2010.04.14 02:25:26.
