data_PCOD8310517
_publ_section_title
;
Structure prediction by ZEFSAII (Michael W. Deem and Ramdas Pophale) SiO2 
 PCOD8310517
Probable space group: P -4 N 2
;
_chemical_formula_sum "Si O2"
_cell_formula_units_Z 40
_cell_length_a 15.031781
_cell_length_b 15.031781
_cell_length_c 8.810708
_cell_angle_alpha 90.000000
_cell_angle_beta 90.000000
_cell_angle_gamma 90.000000
_cell_volume 1990.818592
_symmetry_space_group_name_H-M "P -4 N 2"
_symmetry_group_IT_number 118
_symmetry_cell_setting 'tetragonal'
loop_
_space_group_symop_operation_xyz
x,y,z
y,-x,-z
-x,-y,z
-y,x,-z
1/2+y,1/2+x,1/2-z
1/2-y,1/2-x,1/2-z
1/2-x,1/2+y,1/2+z
1/2+x,1/2-y,1/2+z
loop_
_atom_site_type_symbol
_atom_site_label
_atom_site_fract_x
_atom_site_fract_y
_atom_site_fract_z
Si Si1 0.506775 0.864819 0.194972
Si Si2 0.315017 0.469282 0.643510
Si Si3 0.104570 0.711193 0.444928
Si Si4 0.777327 0.895358 0.887004
Si Si5 0.944214 0.113139 0.577526
O O1 0.605102 0.894899 0.250000
O O2 0.470920 0.775451 0.265087
O O3 0.438906 0.938906 0.250000
O O4 0.523364 0.849443 0.013625
O O5 0.337543 0.366351 0.622346
O O6 0.301602 0.516533 0.481800
O O7 0.388720 0.519559 0.748312
O O8 0.076565 0.739014 0.276184
O O9 0.199634 0.663054 0.462450
O O10 0.114511 0.799420 0.548618
O O11 0.025781 0.114132 0.455136
#
# Coordination Sequence:
#
# PCOD8310517 Si02
#       5
#     8   8   8   8   8
#     4  10  21  42  70  95 125 174 229 275 326 404
#     4  11  24  39  65  94 132 171 224 271 348 401
#     4  10  22  42  63  92 132 171 218 275 341 395
#     4  11  24  40  63  94 134 174 213 286 338 410
#     4  10  21  37  61  93 125 172 221 272 333 412
#
# _framework density 20.092237999999998
#
# number of rings (size 3 to 8) (size 9 to 14) (size 15 to 20)
#    0.000    1.600    4.000    0.000    5.600    0.400 
#    0.000    1.000    8.800    0.000    0.000    0.000 
#    0.000    0.000    0.000    0.000    0.000    0.000 
#
# Total GULP energy -495601.081211 kJ/mol
# GULP energy per Si atom -12390.027030 kJ/mol
# Density = 2.004651 g / cm^3
# Si number density = 20.092238 Si / 1000 Ang^3
#
#
#
# Elastic Constant Matrix: (Units=GPa)
#
#
# Indices 1 2 3 4 5 6 
#
# 1 103.6220 54.0314 63.6265 0.0000 0.0000 0.0000
# 2 54.0314 103.6231 63.6260 0.0000 0.0000 0.0000
# 3 63.6265 63.6260 129.5859 0.0000 0.0000 0.0000
# 4 0.0000 0.0000 0.0000 35.0349 0.0000 0.0000
# 5 0.0000 0.0000 0.0000 0.0000 35.0345 0.0000
# 6 0.0000 0.0000 0.0000 0.0000 0.0000 32.3184
#
#
#
# Elastic Compliance Matrix: (Units=1/GPa)
#
#
# Indices 1 2 3 4 5 6 
#
# 1 0.015336 -0.004829 -0.005159 0.000000 0.000000 0.000000
# 2 -0.004829 0.015336 -0.005159 0.000000 0.000000 0.000000
# 3 -0.005159 -0.005159 0.012783 0.000000 0.000000 0.000000
# 4 0.000000 0.000000 0.000000 0.028543 0.000000 0.000000
# 5 0.000000 0.000000 0.000000 0.000000 0.028543 0.000000
# 6 0.000000 0.000000 0.000000 0.000000 0.000000 0.030942
#
#
# Mechanical properties :
#
#
# Convention : Reuss Voigt Hill
#
# Bulk Modulus (GPa) = 75.98001 77.71099 76.84550
# Shear Modulus (GPa) = 30.09073 30.84737 30.46905
#
# Velocity S-wave (km/s) = 3.87412 3.92253 3.89840
# Velocity P-wave (km/s) = 7.60983 7.69909 7.65459
#
# Compressibility (1/GPa) = 0.01316136
#
# Stress axis : x y z
#
# Youngs Moduli (GPa) = 65.20524 65.20674 78.22915
#
# Poissons Ratio (x) = 0.31488 0.40359
# Poissons Ratio (y) = 0.31487 0.40357
# Poissons Ratio (z) = 0.33640 0.33639
#
# Static dielectric constant tensor:
#      x y z
#    x 3.828800 0.000000 0.000000 
#    y 0.000000 3.828790 0.000000 
#    z 0.000000 0.000000 3.953630 
# 
# 
# High freq. dielectric constant tensor:
#      x y z
#    x 1.783410 0.000000 0.000000 
#    y 0.000000 1.783410 0.000000 
#    z 0.000000 0.000000 1.786480 
# 
# From -- ./inp_files/1907.got.cif
#   From: 2010.03.12/outbox.cif.g09.slc.cpg/sg118_1_cif.got.tgz:1907.got - 2010.04.14 02:21:17.
