data_PCOD8310781
_publ_section_title
;
Structure prediction by ZEFSAII (Michael W. Deem and Ramdas Pophale) SiO2 
 PCOD8310781
Probable space group: I -4 M 2
;
_chemical_formula_sum "Si O2"
_cell_formula_units_Z 112
_cell_length_a 17.146648
_cell_length_b 17.146648
_cell_length_c 21.209633
_cell_angle_alpha 90.000000
_cell_angle_beta 90.000000
_cell_angle_gamma 90.000000
_cell_volume 6235.791972
_symmetry_space_group_name_H-M "I -4 M 2"
_symmetry_group_IT_number 119
_symmetry_cell_setting 'tetragonal'
loop_
_space_group_symop_operation_xyz
x,y,z
y,-x,-z
-x,-y,z
-y,x,-z
y,x,-z
-y,-x,-z
-x,y,z
x,-y,z
1/2+x,1/2+y,1/2+z
1/2+y,1/2-x,1/2-z
1/2-x,1/2-y,1/2+z
1/2-y,1/2+x,1/2-z
1/2+y,1/2+x,1/2-z
1/2-y,1/2-x,1/2-z
1/2-x,1/2+y,1/2+z
1/2+x,1/2-y,1/2+z
loop_
_atom_site_type_symbol
_atom_site_label
_atom_site_fract_x
_atom_site_fract_y
_atom_site_fract_z
Si Si1 0.801855 0.184344 0.739685
Si Si2 0.292826 0.293590 0.096006
Si Si3 0.732657 0.911056 0.495418
Si Si4 0.087748 0.337366 0.198408
Si Si5 0.639284 0.086591 0.939349
Si Si6 0.410272 0.409337 0.677830
Si Si7 0.696682 0.641889 0.435072
O O1 0.775957 0.275957 0.750000
O O2 0.805710 0.170602 0.665064
O O3 0.736831 0.133981 0.776201
O O4 0.882644 0.154059 0.769756
O O5 0.278287 0.366803 0.050670
O O6 0.222859 0.231002 0.092681
O O7 0.370713 0.249406 0.072001
O O8 0.640473 0.906543 0.511257
O O9 0.760575 0.000000 0.491916
O O10 0.093851 0.406150 0.250000
O O11 0.121018 0.370160 0.132172
O O12 0.000000 0.310095 0.187011
O O13 0.731928 0.084585 0.951522
O O14 0.604110 0.000000 0.945859
O O15 0.500000 0.396426 0.700832
O O16 0.394401 0.500000 0.664580
O O17 0.397227 0.361944 0.613748
O O18 0.651904 0.651904 0.500000
#
# Coordination Sequence:
#
# PCOD8310781 Si02
#       7
#    16  16  16  16  16  16  16
#     4  11  19  34  59  77 103 144 192 232 272 334
#     4  10  20  36  57  82 103 141 196 232 275 336
#     4  10  20  36  54  78 111 139 182 243 284 321
#     4  10  19  30  48  75 106 143 178 214 264 322
#     4  10  19  32  53  78 108 146 179 217 274 332
#     4  11  24  38  54  86 125 151 181 234 289 334
#     4  11  18  36  59  81 108 150 191 227 265 331
#
# _framework density 17.960830000000001
#
# number of rings (size 3 to 8) (size 9 to 14) (size 15 to 20)
#    0.000    1.571    5.714    3.429    0.000    5.000 
#    0.000    2.143    0.000    3.429    0.000    0.000 
#    0.000    0.286    0.000    0.000    0.000    0.000 
#
# Total GULP energy -693972.963534 kJ/mol
# GULP energy per Si atom -12392.374349 kJ/mol
# Density = 1.791995 g / cm^3
# Si number density = 17.960830 Si / 1000 Ang^3
#
#
#
# Elastic Constant Matrix: (Units=GPa)
#
#
# Indices 1 2 3 4 5 6 
#
# 1 83.3243 24.1169 21.5827 0.0000 0.0000 0.0000
# 2 24.1169 83.3235 21.5827 0.0000 0.0000 0.0000
# 3 21.5827 21.5827 70.1613 0.0000 0.0000 0.0000
# 4 0.0000 0.0000 0.0000 24.3921 0.0000 0.0000
# 5 0.0000 0.0000 0.0000 0.0000 24.3923 0.0000
# 6 0.0000 0.0000 0.0000 0.0000 0.0000 17.9421
#
#
#
# Elastic Compliance Matrix: (Units=1/GPa)
#
#
# Indices 1 2 3 4 5 6 
#
# 1 0.013755 -0.003135 -0.003267 0.000000 0.000000 0.000000
# 2 -0.003135 0.013755 -0.003267 0.000000 0.000000 0.000000
# 3 -0.003267 -0.003267 0.016263 0.000000 0.000000 0.000000
# 4 0.000000 0.000000 0.000000 0.040997 0.000000 0.000000
# 5 0.000000 0.000000 0.000000 0.000000 0.040997 0.000000
# 6 0.000000 0.000000 0.000000 0.000000 0.000000 0.055735
#
#
# Mechanical properties :
#
#
# Convention : Reuss Voigt Hill
#
# Bulk Modulus (GPa) = 40.92459 41.26376 41.09418
# Shear Modulus (GPa) = 23.92534 24.64708 24.28621
#
# Velocity S-wave (km/s) = 3.65373 3.70843 3.68118
# Velocity P-wave (km/s) = 6.37453 6.43124 6.40295
#
# Compressibility (1/GPa) = 0.02443518
#
# Stress axis : x y z
#
# Youngs Moduli (GPa) = 72.70165 72.70089 61.49024
#
# Poissons Ratio (x) = 0.22792 0.20088
# Poissons Ratio (y) = 0.22792 0.20088
# Poissons Ratio (z) = 0.23750 0.23751
#
# Static dielectric constant tensor:
#      x y z
#    x 3.446890 0.000000 0.000000 
#    y 0.000000 3.446890 0.000000 
#    z 0.000000 0.000000 3.601240 
# 
# 
# High freq. dielectric constant tensor:
#      x y z
#    x 1.679860 0.000000 0.000000 
#    y 0.000000 1.679860 0.000000 
#    z 0.000000 0.000000 1.695130 
# 
# From -- ./inp_files/8038.got.cif
#   From: 2010.03.12/outbox.cif.g09.slc.cpg/sg119_5_cif.got.tgz:8038.got - 2010.04.14 02:25:26.
