data_PCOD8310400
_publ_section_title
;
Structure prediction by ZEFSAII (Michael W. Deem and Ramdas Pophale) SiO2 
 PCOD8310400
Probable space group: P -4 B 2
;
_chemical_formula_sum "Si O2"
_cell_formula_units_Z 40
_cell_length_a 9.479797
_cell_length_b 9.479797
_cell_length_c 20.449273
_cell_angle_alpha 90.000000
_cell_angle_beta 90.000000
_cell_angle_gamma 90.000000
_cell_volume 1837.705638
_symmetry_space_group_name_H-M "P -4 B 2"
_symmetry_group_IT_number 117
_symmetry_cell_setting 'tetragonal'
loop_
_space_group_symop_operation_xyz
x,y,z
y,-x,-z
-x,-y,z
-y,x,-z
1/2+y,1/2+x,-z
1/2-y,1/2-x,-z
1/2-x,1/2+y,z
1/2+x,1/2-y,z
loop_
_atom_site_type_symbol
_atom_site_label
_atom_site_fract_x
_atom_site_fract_y
_atom_site_fract_z
Si Si1 0.195574 0.916820 0.024448
Si Si2 0.416818 0.304427 0.475552
Si Si3 0.989917 0.169047 0.830553
Si Si4 0.759329 0.759331 0.750000
Si Si5 0.489916 0.669046 0.330553
O O1 0.220352 0.971262 0.097397
O O2 0.330383 0.830383 0.000000
O O3 0.053182 0.822544 0.022474
O O4 0.322544 0.446821 0.477525
O O5 0.330380 0.169621 0.500000
O O6 0.471264 0.279649 0.402603
O O7 0.082666 0.252855 0.777396
O O8 0.834511 0.223911 0.813458
O O9 0.000000 0.000000 0.823287
O O10 0.723909 0.665490 0.686542
O O11 0.747144 0.917335 0.722603
O O12 0.500000 0.500000 0.323286
#
# Coordination Sequence:
#
# PCOD8310400 Si02
#       5
#     8   8   8   8   8
#     4  11  24  45  72 101 137 181 229 291 351 411
#     4  11  24  45  72 101 137 181 229 291 351 411
#     4  12  24  46  69 102 145 178 231 293 348 413
#     4  12  24  44  70  98 142 188 224 282 350 408
#     4  12  24  46  69 102 145 178 231 293 348 413
#
# _framework density 21.766273000000002
#
# number of rings (size 3 to 8) (size 9 to 14) (size 15 to 20)
#    0.000    0.400    8.000    2.400    0.000    1.600 
#    0.000    4.000    0.000    0.000    0.000    0.000 
#    0.000    0.000    0.000    0.000    0.000    0.000 
#
# Total GULP energy -495919.118296 kJ/mol
# GULP energy per Si atom -12397.977957 kJ/mol
# Density = 2.171673 g / cm^3
# Si number density = 21.766273 Si / 1000 Ang^3
#
#
#
# Elastic Constant Matrix: (Units=GPa)
#
#
# Indices 1 2 3 4 5 6 
#
# 1 70.6096 43.0061 44.5259 0.0000 0.0000 0.0000
# 2 43.0061 70.6112 44.5256 0.0000 0.0000 0.0000
# 3 44.5259 44.5256 138.8825 0.0000 0.0000 0.0000
# 4 0.0000 0.0000 0.0000 32.5717 0.0000 0.0000
# 5 0.0000 0.0000 0.0000 0.0000 32.5715 0.0000
# 6 0.0000 0.0000 0.0000 0.0000 0.0000 50.6590
#
#
#
# Elastic Compliance Matrix: (Units=1/GPa)
#
#
# Indices 1 2 3 4 5 6 
#
# 1 0.023991 -0.012235 -0.003769 0.000000 0.000000 0.000000
# 2 -0.012235 0.023990 -0.003769 0.000000 0.000000 0.000000
# 3 -0.003769 -0.003769 0.009617 0.000000 0.000000 0.000000
# 4 0.000000 0.000000 0.000000 0.030701 0.000000 0.000000
# 5 0.000000 0.000000 0.000000 0.000000 0.030702 0.000000
# 6 0.000000 0.000000 0.000000 0.000000 0.000000 0.019740
#
#
# Mechanical properties :
#
#
# Convention : Reuss Voigt Hill
#
# Bulk Modulus (GPa) = 55.39356 60.46871 57.93113
# Shear Modulus (GPa) = 27.12892 33.03016 30.07954
#
# Velocity S-wave (km/s) = 3.53423 3.89973 3.72147
# Velocity P-wave (km/s) = 6.49299 6.93674 6.71853
#
# Compressibility (1/GPa) = 0.01805264
#
# Stress axis : x y z
#
# Youngs Moduli (GPa) = 41.68189 41.68317 103.98370
#
# Poissons Ratio (x) = 0.51001 0.39191
# Poissons Ratio (y) = 0.50999 0.39188
# Poissons Ratio (z) = 0.15710 0.15709
#
# Static dielectric constant tensor:
#      x y z
#    x 3.909020 0.000000 0.000000 
#    y 0.000000 3.909020 0.000000 
#    z 0.000000 0.000000 4.067960 
# 
# 
# High freq. dielectric constant tensor:
#      x y z
#    x 1.850580 0.000000 0.000000 
#    y 0.000000 1.850580 0.000000 
#    z 0.000000 0.000000 1.870920 
# 
# From -- ./inp_files/3520.got.cif
#   From: 2010.03.12/outbox.cif.g09.slc.cpg/sg117_2_cif.got.tgz:3520.got - 2010.04.14 02:19:01.
