data_PCOD8310063
_publ_section_title
;
Structure prediction by ZEFSAII (Michael W. Deem and Ramdas Pophale) SiO2 
 PCOD8310063
Probable space group: P -4 C 2
;
_chemical_formula_sum "Si O2"
_cell_formula_units_Z 30
_cell_length_a 11.726675
_cell_length_b 11.726675
_cell_length_c 10.903554
_cell_angle_alpha 90.000000
_cell_angle_beta 90.000000
_cell_angle_gamma 90.000000
_cell_volume 1499.401209
_symmetry_space_group_name_H-M "P -4 C 2"
_symmetry_group_IT_number 116
_symmetry_cell_setting 'tetragonal'
loop_
_space_group_symop_operation_xyz
x,y,z
y,-x,-z
-x,-y,z
-y,x,-z
y,x,1/2-z
-y,-x,1/2-z
-x,y,1/2+z
x,-y,1/2+z
loop_
_atom_site_type_symbol
_atom_site_label
_atom_site_fract_x
_atom_site_fract_y
_atom_site_fract_z
Si Si1 0.938546 0.778020 0.103238
Si Si2 0.818799 0.766200 0.612257
Si Si3 0.000000 0.000000 0.750000
Si Si4 0.393555 0.653676 0.514026
Si Si5 0.274444 0.274444 0.250000
O O1 0.853473 0.712761 0.195969
O O2 0.056815 0.708450 0.082917
O O3 0.992655 0.892525 0.160114
O O4 0.874824 0.798317 0.975703
O O5 0.810286 0.810286 0.750000
O O6 0.725355 0.668471 0.591255
O O7 0.526739 0.656576 0.486775
O O8 0.369900 0.709651 0.646366
#
# Coordination Sequence:
#
# PCOD8310063 Si02
#       5
#     8   8   2   8   4
#     4  10  20  36  59  93 126 169 201 254 309 376
#     4  11  23  37  63  93 128 163 213 255 317 377
#     4  10  16  34  58  86 124 174 208 236 292 372
#     4  10  24  43  70  90 113 164 222 269 312 367
#     4   9  22  40  62  91 130 154 204 263 314 372
#
# _framework density 20.007988999999998
#
# number of rings (size 3 to 8) (size 9 to 14) (size 15 to 20)
#    0.000    1.867    1.333    1.600   11.200    1.067 
#    0.000    5.333    0.000    0.000    0.000    0.000 
#    0.000    0.000    0.000    0.000    0.000    0.000 
#
# Total GULP energy -371887.758555 kJ/mol
# GULP energy per Si atom -12396.258618 kJ/mol
# Density = 1.996245 g / cm^3
# Si number density = 20.007989 Si / 1000 Ang^3
#
#
#
# Elastic Constant Matrix: (Units=GPa)
#
#
# Indices 1 2 3 4 5 6 
#
# 1 107.2673 81.0646 54.7773 0.0000 0.0000 0.0000
# 2 81.0646 107.2673 54.7773 0.0000 0.0000 0.0000
# 3 54.7773 54.7773 147.8659 0.0000 0.0000 0.0000
# 4 0.0000 0.0000 0.0000 22.4199 0.0000 0.0000
# 5 0.0000 0.0000 0.0000 0.0000 22.4199 0.0000
# 6 0.0000 0.0000 0.0000 0.0000 0.0000 31.2211
#
#
#
# Elastic Compliance Matrix: (Units=1/GPa)
#
#
# Indices 1 2 3 4 5 6 
#
# 1 0.022466 -0.015698 -0.002507 0.000000 0.000000 0.000000
# 2 -0.015698 0.022466 -0.002507 0.000000 0.000000 0.000000
# 3 -0.002507 -0.002507 0.008621 0.000000 0.000000 0.000000
# 4 0.000000 0.000000 0.000000 0.044603 0.000000 0.000000
# 5 0.000000 0.000000 0.000000 0.000000 0.044603 0.000000
# 6 0.000000 0.000000 0.000000 0.000000 0.000000 0.032030
#
#
# Mechanical properties :
#
#
# Convention : Reuss Voigt Hill
#
# Bulk Modulus (GPa) = 82.45478 82.62656 82.54067
# Shear Modulus (GPa) = 22.70077 26.66425 24.68251
#
# Velocity S-wave (km/s) = 3.37201 3.65455 3.51612
# Velocity P-wave (km/s) = 7.51406 7.69377 7.60444
#
# Compressibility (1/GPa) = 0.01212786
#
# Stress axis : x y z
#
# Youngs Moduli (GPa) = 44.51137 44.51137 116.00140
#
# Poissons Ratio (x) = 0.69873 0.29086
# Poissons Ratio (y) = 0.69873 0.29086
# Poissons Ratio (z) = 0.11161 0.11161
#
# Static dielectric constant tensor:
#      x y z
#    x 3.702140 0.000000 0.000000 
#    y 0.000000 3.702140 0.000000 
#    z 0.000000 0.000000 3.717300 
# 
# 
# High freq. dielectric constant tensor:
#      x y z
#    x 1.771390 0.000000 0.000000 
#    y 0.000000 1.771390 0.000000 
#    z 0.000000 0.000000 1.797100 
# 
# From -- ./inp_files/1496.got.cif
#   From: 2010.03.12/outbox.cif.g09.slc.cpg/sg116_1_cif.got.tgz:1496.got - 2010.04.14 02:15:44.
