data_PCOD8310104
_publ_section_title
;
Structure prediction by ZEFSAII (Michael W. Deem and Ramdas Pophale) SiO2 
 PCOD8310104
Probable space group: P -4 C 2
;
_chemical_formula_sum "Si O2"
_cell_formula_units_Z 34
_cell_length_a 11.313589
_cell_length_b 11.313589
_cell_length_c 12.986311
_cell_angle_alpha 90.000000
_cell_angle_beta 90.000000
_cell_angle_gamma 90.000000
_cell_volume 1662.212694
_symmetry_space_group_name_H-M "P -4 C 2"
_symmetry_group_IT_number 116
_symmetry_cell_setting 'tetragonal'
loop_
_space_group_symop_operation_xyz
x,y,z
y,-x,-z
-x,-y,z
-y,x,-z
y,x,1/2-z
-y,-x,1/2-z
-x,y,1/2+z
x,-y,1/2+z
loop_
_atom_site_type_symbol
_atom_site_label
_atom_site_fract_x
_atom_site_fract_y
_atom_site_fract_z
Si Si1 0.000000 0.000000 0.000000
Si Si2 0.142920 0.393849 0.432413
Si Si3 0.946717 0.624694 0.652943
Si Si4 0.211722 0.855191 0.937258
Si Si5 0.359263 0.123130 0.630642
O O1 0.922098 0.092977 0.933916
O O2 0.140570 0.389579 0.556853
O O3 0.212713 0.277966 0.390259
O O4 0.197834 0.519419 0.394954
O O5 0.011563 0.386836 0.392298
O O6 0.868343 0.675054 0.748316
O O7 0.000000 0.500000 0.687746
O O8 0.059364 0.706925 0.629077
O O9 0.252550 0.837935 0.056493
#
# Coordination Sequence:
#
# PCOD8310104 Si02
#       5
#     2   8   8   8   8
#     4  12  20  36  50  84 128 158 184 224 306 356
#     4  10  19  36  55  79 113 152 197 242 282 347
#     4  11  19  36  60  82 113 160 204 237 285 356
#     4  11  22  37  56  82 126 155 190 249 294 349
#     4  10  20  36  57  81 112 155 205 234 284 354
#
# _framework density 20.454663
#
# number of rings (size 3 to 8) (size 9 to 14) (size 15 to 20)
#    0.000    1.412   11.765    0.000    0.000    1.882 
#    0.000    1.176    0.000    0.706    0.000    0.000 
#    7.059    0.000    0.000    0.000    0.000    0.000 
#
# Total GULP energy -421239.726240 kJ/mol
# GULP energy per Si atom -12389.403713 kJ/mol
# Density = 2.040811 g / cm^3
# Si number density = 20.454663 Si / 1000 Ang^3
#
#
#
# Elastic Constant Matrix: (Units=GPa)
#
#
# Indices 1 2 3 4 5 6 
#
# 1 73.7296 19.5354 19.2620 0.0000 0.0000 0.0000
# 2 19.5354 73.7296 19.2620 0.0000 0.0000 0.0000
# 3 19.2620 19.2620 112.1510 0.0000 0.0000 0.0000
# 4 0.0000 0.0000 0.0000 32.4887 0.0000 0.0000
# 5 0.0000 0.0000 0.0000 0.0000 32.4887 0.0000
# 6 0.0000 0.0000 0.0000 0.0000 0.0000 17.9880
#
#
#
# Elastic Compliance Matrix: (Units=1/GPa)
#
#
# Indices 1 2 3 4 5 6 
#
# 1 0.014997 -0.003456 -0.001982 0.000000 0.000000 0.000000
# 2 -0.003456 0.014997 -0.001982 0.000000 0.000000 0.000000
# 3 -0.001982 -0.001982 0.009597 0.000000 0.000000 0.000000
# 4 0.000000 0.000000 0.000000 0.030780 0.000000 0.000000
# 5 0.000000 0.000000 0.000000 0.000000 0.030780 0.000000
# 6 0.000000 0.000000 0.000000 0.000000 0.000000 0.055593
#
#
# Mechanical properties :
#
#
# Convention : Reuss Voigt Hill
#
# Bulk Modulus (GPa) = 40.40312 41.74768 41.07540
# Shear Modulus (GPa) = 27.80360 30.02982 28.91671
#
# Velocity S-wave (km/s) = 3.69084 3.83576 3.76400
# Velocity P-wave (km/s) = 6.16104 6.33021 6.24620
#
# Compressibility (1/GPa) = 0.02475056
#
# Stress axis : x y z
#
# Youngs Moduli (GPa) = 66.68215 66.68215 104.19466
#
# Poissons Ratio (x) = 0.23043 0.20653
# Poissons Ratio (y) = 0.23043 0.20653
# Poissons Ratio (z) = 0.13217 0.13217
#
# Static dielectric constant tensor:
#      x y z
#    x 3.827930 0.000000 0.000000 
#    y 0.000000 3.827930 0.000000 
#    z 0.000000 0.000000 4.068080 
# 
# 
# High freq. dielectric constant tensor:
#      x y z
#    x 1.776590 0.000000 0.000000 
#    y 0.000000 1.776590 0.000000 
#    z 0.000000 0.000000 1.795210 
# 
# From -- ./inp_files/2476.got.cif
#   From: 2010.03.12/outbox.cif.g09.slc.cpg/sg116_2_cif.got.tgz:2476.got - 2010.04.14 02:15:44.
