data_PCOD8310577
_publ_section_title
;
Structure prediction by ZEFSAII (Michael W. Deem and Ramdas Pophale) SiO2 
 PCOD8310577
Probable space group: P -4 N 2
;
_chemical_formula_sum "Si O2"
_cell_formula_units_Z 58
_cell_length_a 18.043259
_cell_length_b 18.043259
_cell_length_c 8.559169
_cell_angle_alpha 90.000000
_cell_angle_beta 90.000000
_cell_angle_gamma 90.000000
_cell_volume 2786.516172
_symmetry_space_group_name_H-M "P -4 N 2"
_symmetry_group_IT_number 118
_symmetry_cell_setting 'tetragonal'
loop_
_space_group_symop_operation_xyz
x,y,z
y,-x,-z
-x,-y,z
-y,x,-z
1/2+y,1/2+x,1/2-z
1/2-y,1/2-x,1/2-z
1/2-x,1/2+y,1/2+z
1/2+x,1/2-y,1/2+z
loop_
_atom_site_type_symbol
_atom_site_label
_atom_site_fract_x
_atom_site_fract_y
_atom_site_fract_z
Si Si1 0.717598 0.104810 0.310886
Si Si2 0.347415 0.999140 0.560641
Si Si3 0.510677 0.709675 0.372861
Si Si4 0.706689 0.482297 0.274318
Si Si5 0.365047 0.348202 0.952755
Si Si6 0.712443 0.881694 0.360180
Si Si7 0.000000 0.500000 0.250000
Si Si8 0.934903 0.941214 0.287642
O O1 0.680631 0.180631 0.250000
O O2 0.657981 0.060073 0.417644
O O3 0.788871 0.110774 0.422487
O O4 0.753121 0.069637 0.153601
O O5 0.279005 0.987528 0.681969
O O6 0.343261 0.081196 0.485030
O O7 0.426858 0.995623 0.643270
O O8 0.535532 0.728145 0.547789
O O9 0.555175 0.754472 0.245531
O O10 0.519786 0.622459 0.332931
O O11 0.677942 0.405153 0.204696
O O12 0.639464 0.541659 0.278081
O O13 0.339592 0.277743 0.051975
O O14 0.425874 0.398681 0.042671
O O15 0.677219 0.822782 0.250000
O O16 0.000000 0.000000 0.307970
#
# Coordination Sequence:
#
# PCOD8310577 Si02
#       8
#     8   8   8   8   8   8   2   8
#     4  11  24  46  66  93 142 182 230 287 352 417
#     4  10  25  46  68 101 130 175 232 290 356 412
#     4  10  25  41  62 102 132 175 229 280 340 417
#     4  11  24  41  69  97 143 173 225 294 334 423
#     4  10  23  43  62  99 130 187 225 266 350 416
#     4   9  21  44  67  89 131 167 217 273 341 413
#     4  12  28  44  78 104 124 180 250 304 354 406
#     4  11  24  39  69  98 141 186 226 277 349 419
#
# _framework density 20.814520999999999
#
# number of rings (size 3 to 8) (size 9 to 14) (size 15 to 20)
#    0.000    1.655    1.379    1.655    9.655    2.207 
#    6.207    0.000    0.000    0.000    0.000    0.000 
#    0.000    0.000    0.000    0.000    0.000    0.000 
#
# Total GULP energy -718828.712732 kJ/mol
# GULP energy per Si atom -12393.598495 kJ/mol
# Density = 2.076715 g / cm^3
# Si number density = 20.814521 Si / 1000 Ang^3
#
#
#
# Elastic Constant Matrix: (Units=GPa)
#
#
# Indices 1 2 3 4 5 6 
#
# 1 96.3663 40.5613 33.9528 0.0000 0.0000 0.0000
# 2 40.5613 96.3686 33.9528 0.0000 0.0000 0.0000
# 3 33.9528 33.9528 119.4820 0.0000 0.0000 0.0000
# 4 0.0000 0.0000 0.0000 24.7847 0.0000 0.0000
# 5 0.0000 0.0000 0.0000 0.0000 24.7837 0.0000
# 6 0.0000 0.0000 0.0000 0.0000 0.0000 30.1610
#
#
#
# Elastic Compliance Matrix: (Units=1/GPa)
#
#
# Indices 1 2 3 4 5 6 
#
# 1 0.013210 -0.004709 -0.002416 0.000000 0.000000 0.000000
# 2 -0.004709 0.013210 -0.002416 0.000000 0.000000 0.000000
# 3 -0.002416 -0.002416 0.009742 0.000000 0.000000 0.000000
# 4 0.000000 0.000000 0.000000 0.040347 0.000000 0.000000
# 5 0.000000 0.000000 0.000000 0.000000 0.040349 0.000000
# 6 0.000000 0.000000 0.000000 0.000000 0.000000 0.033155
#
#
# Mechanical properties :
#
#
# Convention : Reuss Voigt Hill
#
# Bulk Modulus (GPa) = 58.54234 58.79453 58.66844
# Shear Modulus (GPa) = 28.60587 29.52924 29.06755
#
# Velocity S-wave (km/s) = 3.71121 3.77063 3.74104
# Velocity P-wave (km/s) = 6.82282 6.87496 6.84894
#
# Compressibility (1/GPa) = 0.01708165
#
# Stress axis : x y z
#
# Youngs Moduli (GPa) = 75.69856 75.70054 102.64422
#
# Poissons Ratio (x) = 0.35648 0.24796
# Poissons Ratio (y) = 0.35647 0.24795
# Poissons Ratio (z) = 0.18287 0.18287
#
# Static dielectric constant tensor:
#      x y z
#    x 3.708240 0.000000 0.000000 
#    y 0.000000 3.708250 0.000000 
#    z 0.000000 0.000000 3.740020 
# 
# 
# High freq. dielectric constant tensor:
#      x y z
#    x 1.811690 0.000000 0.000000 
#    y 0.000000 1.811690 0.000000 
#    z 0.000000 0.000000 1.822200 
# 
# From -- ./inp_files/2218.got.cif
#   From: 2010.03.12/outbox.cif.g09.slc.cpg/sg118_2_cif.got.tgz:2218.got - 2010.04.14 02:21:17.
