data_PCOD8310630
_publ_section_title
;
Structure prediction by ZEFSAII (Michael W. Deem and Ramdas Pophale) SiO2 
 PCOD8310630
Probable space group: P -4 N 2
;
_chemical_formula_sum "Si O2"
_cell_formula_units_Z 26
_cell_length_a 11.728614
_cell_length_b 11.728614
_cell_length_c 8.763582
_cell_angle_alpha 90.000000
_cell_angle_beta 90.000000
_cell_angle_gamma 90.000000
_cell_volume 1205.521726
_symmetry_space_group_name_H-M "P -4 N 2"
_symmetry_group_IT_number 118
_symmetry_cell_setting 'tetragonal'
loop_
_space_group_symop_operation_xyz
x,y,z
y,-x,-z
-x,-y,z
-y,x,-z
1/2+y,1/2+x,1/2-z
1/2-y,1/2-x,1/2-z
1/2-x,1/2+y,1/2+z
1/2+x,1/2-y,1/2+z
loop_
_atom_site_type_symbol
_atom_site_label
_atom_site_fract_x
_atom_site_fract_y
_atom_site_fract_z
Si Si1 0.845104 0.934011 0.933996
Si Si2 0.500000 0.000000 0.750000
Si Si3 0.268760 0.176103 0.413277
Si Si4 0.242349 0.479364 0.125463
O O1 0.824955 0.982896 0.764448
O O2 0.736840 0.856031 0.971548
O O3 0.960839 0.858609 0.945780
O O4 0.497284 0.109873 0.854928
O O5 0.331185 0.168816 0.250000
O O6 0.154400 0.249482 0.401838
O O7 0.228485 0.052793 0.474737
#
# Coordination Sequence:
#
# PCOD8310630 Si02
#       4
#     8   2   8   8
#     4  11  23  44  72 101 141 188 234 298 364 429
#     4  12  20  48  70  96 144 204 222 312 360 428
#     4  12  26  46  70 110 140 188 243 294 363 442
#     4  12  26  45  73 102 148 187 244 298 372 432
#
# _framework density 21.567423000000002
#
# number of rings (size 3 to 8) (size 9 to 14) (size 15 to 20)
#    0.000    0.308    7.692    0.000    4.308    0.615 
#    0.000    0.769    0.000    0.000    0.000    0.000 
#    0.000    0.000    0.000    0.000    0.000    0.000 
#
# Total GULP energy -322391.803835 kJ/mol
# GULP energy per Si atom -12399.684763 kJ/mol
# Density = 2.151833 g / cm^3
# Si number density = 21.567423 Si / 1000 Ang^3
#
#
#
# Elastic Constant Matrix: (Units=GPa)
#
#
# Indices 1 2 3 4 5 6 
#
# 1 94.2524 -2.2814 30.9578 0.0000 0.0000 0.0000
# 2 -2.2814 94.2519 30.9575 0.0000 0.0000 0.0000
# 3 30.9578 30.9575 98.0433 0.0000 0.0000 0.0000
# 4 0.0000 0.0000 0.0000 31.1211 0.0000 0.0000
# 5 0.0000 0.0000 0.0000 0.0000 31.1209 0.0000
# 6 0.0000 0.0000 0.0000 0.0000 0.0000 33.1326
#
#
#
# Elastic Compliance Matrix: (Units=1/GPa)
#
#
# Indices 1 2 3 4 5 6 
#
# 1 0.012084 0.001725 -0.004360 0.000000 0.000000 0.000000
# 2 0.001725 0.012084 -0.004360 0.000000 0.000000 0.000000
# 3 -0.004360 -0.004360 0.012953 0.000000 0.000000 0.000000
# 4 0.000000 0.000000 0.000000 0.032132 0.000000 0.000000
# 5 0.000000 0.000000 0.000000 0.000000 0.032133 0.000000
# 6 0.000000 0.000000 0.000000 0.000000 0.000000 0.030182
#
#
# Mechanical properties :
#
#
# Convention : Reuss Voigt Hill
#
# Bulk Modulus (GPa) = 43.23510 45.09058 44.16284
# Shear Modulus (GPa) = 32.62261 34.20252 33.41257
#
# Velocity S-wave (km/s) = 3.89342 3.98658 3.94028
# Velocity P-wave (km/s) = 6.34836 6.49174 6.42045
#
# Compressibility (1/GPa) = 0.02312936
#
# Stress axis : x y z
#
# Youngs Moduli (GPa) = 82.75658 82.75625 77.20237
#
# Poissons Ratio (x) = -0.14272 0.33660
# Poissons Ratio (y) = -0.14272 0.33660
# Poissons Ratio (z) = 0.36082 0.36082
#
# Static dielectric constant tensor:
#      x y z
#    x 4.163900 0.000000 0.000000 
#    y 0.000000 4.163900 0.000000 
#    z 0.000000 0.000000 3.844970 
# 
# 
# High freq. dielectric constant tensor:
#      x y z
#    x 1.858310 0.000000 0.000000 
#    y 0.000000 1.858310 0.000000 
#    z 0.000000 0.000000 1.832300 
# 
# From -- ./inp_files/1385.got.cif
#   From: 2010.03.12/outbox.cif.g09.slc.cpg/sg118_1_cif.got.tgz:1385.got - 2010.04.14 02:21:17.
