data_PCOD8310501
_publ_section_title
;
Structure prediction by ZEFSAII (Michael W. Deem and Ramdas Pophale) SiO2 
 PCOD8310501
Probable space group: P -4 N 2
;
_chemical_formula_sum "Si O2"
_cell_formula_units_Z 48
_cell_length_a 8.741639
_cell_length_b 8.741639
_cell_length_c 28.034095
_cell_angle_alpha 90.000000
_cell_angle_beta 90.000000
_cell_angle_gamma 90.000000
_cell_volume 2142.260480
_symmetry_space_group_name_H-M "P -4 N 2"
_symmetry_group_IT_number 118
_symmetry_cell_setting 'tetragonal'
loop_
_space_group_symop_operation_xyz
x,y,z
y,-x,-z
-x,-y,z
-y,x,-z
1/2+y,1/2+x,1/2-z
1/2-y,1/2-x,1/2-z
1/2-x,1/2+y,1/2+z
1/2+x,1/2-y,1/2+z
loop_
_atom_site_type_symbol
_atom_site_label
_atom_site_fract_x
_atom_site_fract_y
_atom_site_fract_z
Si Si1 0.179178 0.540477 0.636544
Si Si2 0.633976 0.315899 0.977355
Si Si3 0.882527 0.234357 0.138488
Si Si4 0.130898 0.891372 0.942661
Si Si5 0.172742 0.000636 0.625931
Si Si6 0.299828 0.833225 0.805702
O O1 0.291749 0.411811 0.657290
O O2 0.236097 0.568020 0.582127
O O3 0.212605 0.680630 0.671503
O O4 0.000000 0.500000 0.637053
O O5 0.751088 0.171339 0.983813
O O6 0.605464 0.324906 0.920755
O O7 0.476337 0.289508 0.006114
O O8 0.747704 0.336045 0.114766
O O9 0.007247 0.214315 0.096988
O O10 0.985430 0.281450 0.184046
O O11 0.000000 0.000000 0.965853
O O12 0.283386 0.955843 0.669208
O O13 0.000000 0.000000 0.644938
O O14 0.306159 0.806159 0.750000
#
# Coordination Sequence:
#
# PCOD8310501 Si02
#       6
#     8   8   8   8   8   8
#     4  10  20  39  69 102 138 184 232 294 368 434
#     4  11  22  39  73 108 142 182 247 305 366 441
#     4  10  22  39  72  97 140 183 233 293 369 431
#     4   9  20  42  71 102 138 189 233 291 370 434
#     4  12  23  41  68 104 137 186 236 302 372 431
#     4  11  24  42  65 100 142 192 244 292 361 445
#
# _framework density 22.406238999999999
#
# number of rings (size 3 to 8) (size 9 to 14) (size 15 to 20)
#    0.000    1.500    5.000    3.000    0.000    3.000 
#    0.000    1.667   18.333    4.000    0.000    0.000 
#    0.000    0.000    0.000    0.000    0.000    0.000 
#
# Total GULP energy -594647.607103 kJ/mol
# GULP energy per Si atom -12388.491815 kJ/mol
# Density = 2.235524 g / cm^3
# Si number density = 22.406239 Si / 1000 Ang^3
#
#
#
# Elastic Constant Matrix: (Units=GPa)
#
#
# Indices 1 2 3 4 5 6 
#
# 1 111.8185 49.7886 21.9056 0.0000 0.0000 0.0000
# 2 49.7886 111.8185 21.9056 0.0000 0.0000 0.0000
# 3 21.9056 21.9056 107.2731 0.0000 0.0000 0.0000
# 4 0.0000 0.0000 0.0000 16.3200 0.0000 0.0000
# 5 0.0000 0.0000 0.0000 0.0000 16.3200 0.0000
# 6 0.0000 0.0000 0.0000 0.0000 0.0000 54.6085
#
#
#
# Elastic Compliance Matrix: (Units=1/GPa)
#
#
# Indices 1 2 3 4 5 6 
#
# 1 0.011336 -0.004785 -0.001338 0.000000 0.000000 0.000000
# 2 -0.004785 0.011336 -0.001338 0.000000 0.000000 0.000000
# 3 -0.001338 -0.001338 0.009868 0.000000 0.000000 0.000000
# 4 0.000000 0.000000 0.000000 0.061275 0.000000 0.000000
# 5 0.000000 0.000000 0.000000 0.000000 0.061275 0.000000
# 6 0.000000 0.000000 0.000000 0.000000 0.000000 0.018312
#
#
# Mechanical properties :
#
#
# Convention : Reuss Voigt Hill
#
# Bulk Modulus (GPa) = 56.75781 57.56773 57.16277
# Shear Modulus (GPa) = 25.74722 33.27037 29.50880
#
# Velocity S-wave (km/s) = 3.39353 3.85758 3.63297
# Velocity P-wave (km/s) = 6.38286 6.75202 6.57004
#
# Compressibility (1/GPa) = 0.01761872
#
# Stress axis : x y z
#
# Youngs Moduli (GPa) = 88.21551 88.21551 101.33457
#
# Poissons Ratio (x) = 0.42215 0.13555
# Poissons Ratio (y) = 0.42215 0.13555
# Poissons Ratio (z) = 0.11800 0.11800
#
# Static dielectric constant tensor:
#      x y z
#    x 4.370050 0.000000 0.000000 
#    y 0.000000 4.370050 0.000000 
#    z 0.000000 0.000000 3.720830 
# 
# 
# High freq. dielectric constant tensor:
#      x y z
#    x 1.894800 0.000000 0.000000 
#    y 0.000000 1.894800 0.000000 
#    z 0.000000 0.000000 1.854960 
# 
# From -- ./inp_files/6834.got.cif
#   From: 2010.03.12/outbox.cif.g09.slc.cpg/sg118_4_cif.got.tgz:6834.got - 2010.04.14 02:21:17.
