data_PCOD8310568
_publ_section_title
;
Structure prediction by ZEFSAII (Michael W. Deem and Ramdas Pophale) SiO2 
 PCOD8310568
Probable space group: P -4 N 2
;
_chemical_formula_sum "Si O2"
_cell_formula_units_Z 64
_cell_length_a 11.473957
_cell_length_b 11.473957
_cell_length_c 24.094835
_cell_angle_alpha 90.000000
_cell_angle_beta 90.000000
_cell_angle_gamma 90.000000
_cell_volume 3172.125730
_symmetry_space_group_name_H-M "P -4 N 2"
_symmetry_group_IT_number 118
_symmetry_cell_setting 'tetragonal'
loop_
_space_group_symop_operation_xyz
x,y,z
y,-x,-z
-x,-y,z
-y,x,-z
1/2+y,1/2+x,1/2-z
1/2-y,1/2-x,1/2-z
1/2-x,1/2+y,1/2+z
1/2+x,1/2-y,1/2+z
loop_
_atom_site_type_symbol
_atom_site_label
_atom_site_fract_x
_atom_site_fract_y
_atom_site_fract_z
Si Si1 0.082681 0.598579 0.503227
Si Si2 0.049273 0.838505 0.029012
Si Si3 0.625814 0.563590 0.861646
Si Si4 0.153480 0.037654 0.527526
Si Si5 0.882923 0.803259 0.752796
Si Si6 0.437210 0.119158 0.131115
Si Si7 0.220800 0.142627 0.207369
Si Si8 0.983714 0.132684 0.159178
O O1 0.209515 0.594541 0.477350
O O2 0.017909 0.713406 0.484008
O O3 0.092745 0.590136 0.568398
O O4 0.000000 0.500000 0.477977
O O5 0.039809 0.858373 0.094308
O O6 0.926605 0.856574 0.997573
O O7 0.500000 0.500000 0.859005
O O8 0.616445 0.639937 0.917575
O O9 0.629549 0.640407 0.805519
O O10 0.753565 0.498999 0.862664
O O11 0.092723 0.096804 0.471979
O O12 0.823741 0.676260 0.750000
O O13 0.021686 0.790542 0.759270
O O14 0.823013 0.874839 0.803639
O O15 0.313400 0.125139 0.159546
O O16 0.500000 0.000000 0.154592
O O17 0.257965 0.242036 0.250000
O O18 0.103782 0.192854 0.178397
O O19 0.000000 0.000000 0.176221
#
# Coordination Sequence:
#
# PCOD8310568 Si02
#       8
#     8   8   8   8   8   8   8   8
#     4  11  26  41  62  98 130 169 217 266 326 393
#     4  11  23  42  68  94 124 173 221 263 327 388
#     4  12  22  41  67  96 126 178 220 259 326 408
#     4  11  22  44  65  94 134 169 210 269 329 387
#     4  11  25  40  64  92 125 166 215 269 324 384
#     4  11  23  38  61  98 135 160 207 269 337 380
#     4  11  22  39  64  94 129 162 205 267 326 383
#     4  10  22  44  62  90 128 166 216 263 313 383
#
# _framework density 20.175746
#
# number of rings (size 3 to 8) (size 9 to 14) (size 15 to 20)
#    0.000    1.000    5.000    2.625    5.250    0.000 
#    2.250    0.000    0.000    0.000    0.000    0.000 
#    0.000    0.000    0.000    0.000    0.000    0.000 
#
# Total GULP energy -792915.399067 kJ/mol
# GULP energy per Si atom -12389.303110 kJ/mol
# Density = 2.012983 g / cm^3
# Si number density = 20.175746 Si / 1000 Ang^3
#
#
#
# Elastic Constant Matrix: (Units=GPa)
#
#
# Indices 1 2 3 4 5 6 
#
# 1 95.5226 24.4264 23.0951 0.0000 0.0000 0.0000
# 2 24.4264 95.5235 23.0956 0.0000 0.0000 0.0000
# 3 23.0951 23.0956 123.3111 0.0000 0.0000 0.0000
# 4 0.0000 0.0000 0.0000 18.9962 0.0000 0.0000
# 5 0.0000 0.0000 0.0000 0.0000 18.9958 0.0000
# 6 0.0000 0.0000 0.0000 0.0000 0.0000 14.9604
#
#
#
# Elastic Compliance Matrix: (Units=1/GPa)
#
#
# Indices 1 2 3 4 5 6 
#
# 1 0.011525 -0.002540 -0.001683 0.000000 0.000000 0.000000
# 2 -0.002540 0.011525 -0.001683 0.000000 0.000000 0.000000
# 3 -0.001683 -0.001683 0.008740 0.000000 0.000000 0.000000
# 4 0.000000 0.000000 0.000000 0.052642 0.000000 0.000000
# 5 0.000000 0.000000 0.000000 0.000000 0.052643 0.000000
# 6 0.000000 0.000000 0.000000 0.000000 0.000000 0.066843
#
#
# Mechanical properties :
#
#
# Convention : Reuss Voigt Hill
#
# Bulk Modulus (GPa) = 50.05397 50.62127 50.33762
# Shear Modulus (GPa) = 22.48307 26.83983 24.66145
#
# Velocity S-wave (km/s) = 3.34183 3.65129 3.49998
# Velocity P-wave (km/s) = 6.30502 6.55137 6.42938
#
# Compressibility (1/GPa) = 0.01997844
#
# Stress axis : x y z
#
# Youngs Moduli (GPa) = 86.76674 86.76736 114.41742
#
# Poissons Ratio (x) = 0.22041 0.19254
# Poissons Ratio (y) = 0.22041 0.19254
# Poissons Ratio (z) = 0.14601 0.14601
#
# Static dielectric constant tensor:
#      x y z
#    x 3.774780 0.000000 0.000000 
#    y 0.000000 3.774780 0.000000 
#    z 0.000000 0.000000 3.969500 
# 
# 
# High freq. dielectric constant tensor:
#      x y z
#    x 1.777610 0.000000 0.000000 
#    y 0.000000 1.777610 0.000000 
#    z 0.000000 0.000000 1.805470 
# 
# From -- ./inp_files/6265.got.cif
#   From: 2010.03.12/outbox.cif.g09.slc.cpg/sg118_4_cif.got.tgz:6265.got - 2010.04.14 02:21:17.
