data_PCOD8310263
_publ_section_title
;
Structure prediction by ZEFSAII (Michael W. Deem and Ramdas Pophale) SiO2 
 PCOD8310263
Probable space group: P -4 C 2
;
_chemical_formula_sum "Si O2"
_cell_formula_units_Z 24
_cell_length_a 10.572640
_cell_length_b 10.572640
_cell_length_c 9.151350
_cell_angle_alpha 90.000000
_cell_angle_beta 90.000000
_cell_angle_gamma 90.000000
_cell_volume 1022.944461
_symmetry_space_group_name_H-M "P -4 C 2"
_symmetry_group_IT_number 116
_symmetry_cell_setting 'tetragonal'
loop_
_space_group_symop_operation_xyz
x,y,z
y,-x,-z
-x,-y,z
-y,x,-z
y,x,1/2-z
-y,-x,1/2-z
-x,y,1/2+z
x,-y,1/2+z
loop_
_atom_site_type_symbol
_atom_site_label
_atom_site_fract_x
_atom_site_fract_y
_atom_site_fract_z
Si Si1 0.001878 0.797383 0.289067
Si Si2 0.056296 0.632568 0.546641
Si Si3 0.414359 0.346087 0.418541
O O1 0.876995 0.876995 0.250000
O O2 0.007143 0.754383 0.456284
O O3 0.999055 0.662648 0.206067
O O4 0.126570 0.873431 0.250000
O O5 0.207211 0.636801 0.552178
O O6 0.000000 0.500000 0.490481
O O7 0.346765 0.436979 0.538271
O O8 0.390504 0.390504 0.250000
#
# Coordination Sequence:
#
# PCOD8310263 Si02
#       3
#     8   8   8
#     4  11  26  48  74 106 149 200 248 313 380 448
#     4  12  28  45  76 113 147 200 255 317 378 454
#     4  11  27  49  78 113 153 201 253 319 392 458
#
# _framework density 23.461684000000002
#
# number of rings (size 3 to 8) (size 9 to 14) (size 15 to 20)
#    0.000    0.667    0.000    6.000   18.667    2.667 
#    0.000    0.000    0.000    0.000    0.000    0.000 
#    0.000    0.000    0.000    0.000    0.000    0.000 
#
# Total GULP energy -297492.138412 kJ/mol
# GULP energy per Si atom -12395.505767 kJ/mol
# Density = 2.340828 g / cm^3
# Si number density = 23.461684 Si / 1000 Ang^3
#
#
#
# Elastic Constant Matrix: (Units=GPa)
#
#
# Indices 1 2 3 4 5 6 
#
# 1 108.2921 77.6572 51.7739 0.0000 0.0000 0.0000
# 2 77.6572 108.2964 51.7761 0.0000 0.0000 0.0000
# 3 51.7739 51.7761 121.5239 0.0000 0.0000 0.0000
# 4 0.0000 0.0000 0.0000 44.3394 0.0000 0.0000
# 5 0.0000 0.0000 0.0000 0.0000 44.3399 0.0000
# 6 0.0000 0.0000 0.0000 0.0000 0.0000 37.5699
#
#
#
# Elastic Compliance Matrix: (Units=1/GPa)
#
#
# Indices 1 2 3 4 5 6 
#
# 1 0.019846 -0.012795 -0.003004 0.000000 0.000000 0.000000
# 2 -0.012795 0.019845 -0.003004 0.000000 0.000000 0.000000
# 3 -0.003004 -0.003004 0.010788 0.000000 0.000000 0.000000
# 4 0.000000 0.000000 0.000000 0.022553 0.000000 0.000000
# 5 0.000000 0.000000 0.000000 0.000000 0.022553 0.000000
# 6 0.000000 0.000000 0.000000 0.000000 0.000000 0.026617
#
#
# Mechanical properties :
#
#
# Convention : Reuss Voigt Hill
#
# Bulk Modulus (GPa) = 77.67598 77.83630 77.75614
# Shear Modulus (GPa) = 30.46941 35.71019 33.08980
#
# Velocity S-wave (km/s) = 3.60764 3.90560 3.75957
# Velocity P-wave (km/s) = 7.10865 7.32026 7.21523
#
# Compressibility (1/GPa) = 0.01287399
#
# Stress axis : x y z
#
# Youngs Moduli (GPa) = 50.38885 50.39028 92.69224
#
# Poissons Ratio (x) = 0.64474 0.27842
# Poissons Ratio (y) = 0.64472 0.27845
# Poissons Ratio (z) = 0.15135 0.15137
#
# Static dielectric constant tensor:
#      x y z
#    x 4.199440 0.000000 0.000000 
#    y 0.000000 4.199440 0.000000 
#    z 0.000000 0.000000 4.312150 
# 
# 
# High freq. dielectric constant tensor:
#      x y z
#    x 1.935860 0.000000 0.000000 
#    y 0.000000 1.935860 0.000000 
#    z 0.000000 0.000000 1.940190 
# 
# From -- ./inp_files/450.got.cif
#   From: 2010.03.12/outbox.cif.g09.slc.cpg/sg116_1_cif.got.tgz:450.got - 2010.04.14 02:15:44.
