data_PCOD8310440
_publ_section_title
;
Structure prediction by ZEFSAII (Michael W. Deem and Ramdas Pophale) SiO2 
 PCOD8310440
Probable space group: P -4 N 2
;
_chemical_formula_sum "Si O2"
_cell_formula_units_Z 48
_cell_length_a 17.681946
_cell_length_b 17.681946
_cell_length_c 9.046523
_cell_angle_alpha 90.000000
_cell_angle_beta 90.000000
_cell_angle_gamma 90.000000
_cell_volume 2828.406402
_symmetry_space_group_name_H-M "P -4 N 2"
_symmetry_group_IT_number 118
_symmetry_cell_setting 'tetragonal'
loop_
_space_group_symop_operation_xyz
x,y,z
y,-x,-z
-x,-y,z
-y,x,-z
1/2+y,1/2+x,1/2-z
1/2-y,1/2-x,1/2-z
1/2-x,1/2+y,1/2+z
1/2+x,1/2-y,1/2+z
loop_
_atom_site_type_symbol
_atom_site_label
_atom_site_fract_x
_atom_site_fract_y
_atom_site_fract_z
Si Si1 0.199669 0.699669 0.582654
Si Si2 0.571547 0.696665 0.417030
Si Si3 0.808201 0.691800 0.576537
Si Si4 0.803335 0.928453 0.417030
Si Si5 0.918327 0.793776 0.421522
Si Si6 0.793775 0.081674 0.921523
O O1 0.225313 0.725313 0.750000
O O2 0.220192 0.611066 0.563708
O O3 0.245647 0.745649 0.460643
O O4 0.111066 0.720192 0.563709
O O5 0.541548 0.686488 0.250000
O O6 0.503043 0.687861 0.528883
O O7 0.633185 0.632810 0.455941
O O8 0.818286 0.681715 0.750000
O O9 0.887724 0.719835 0.507899
O O10 0.780165 0.612277 0.507901
O O11 0.867190 0.866815 0.455940
O O12 0.812139 0.996957 0.528883
O O13 0.918157 0.774066 0.250000
#
# Coordination Sequence:
#
# PCOD8310440 Si02
#       6
#     8   8   8   8   8   8
#     4   8  16  32  50  69  96 127 160 200 240 280
#     4   9  18  32  49  70  97 129 162 195 237 287
#     4  10  18  30  50  71  92 123 164 200 234 284
#     4   9  18  32  49  70  97 129 162 195 237 287
#     4  10  20  33  49  71 100 129 159 199 242 283
#     4  10  20  33  49  71 100 129 159 199 242 283
#
# _framework density 16.970687000000002
#
# number of rings (size 3 to 8) (size 9 to 14) (size 15 to 20)
#    0.000    2.667    0.000    4.500    0.000    7.333 
#    0.000    3.333    0.000    1.000    0.000    7.000 
#    0.000    0.000    0.000    0.000    0.000    0.000 
#
# Total GULP energy -594936.060640 kJ/mol
# GULP energy per Si atom -12394.501263 kJ/mol
# Density = 1.693206 g / cm^3
# Si number density = 16.970687 Si / 1000 Ang^3
#
#
#
# Elastic Constant Matrix: (Units=GPa)
#
#
# Indices 1 2 3 4 5 6 
#
# 1 66.5069 63.5835 51.7792 0.0000 0.0000 0.0000
# 2 63.5835 66.5069 51.7794 0.0000 0.0000 0.0000
# 3 51.7792 51.7794 109.4070 0.0000 0.0000 0.0000
# 4 0.0000 0.0000 0.0000 28.9551 0.0000 0.0000
# 5 0.0000 0.0000 0.0000 0.0000 28.9551 0.0000
# 6 0.0000 0.0000 0.0000 0.0000 0.0000 15.2696
#
#
#
# Elastic Compliance Matrix: (Units=1/GPa)
#
#
# Indices 1 2 3 4 5 6 
#
# 1 0.177199 -0.164866 -0.005837 0.000000 0.000000 0.000000
# 2 -0.164866 0.177200 -0.005838 0.000000 0.000000 0.000000
# 3 -0.005837 -0.005838 0.014665 0.000000 0.000000 0.000000
# 4 0.000000 0.000000 0.000000 0.034536 0.000000 0.000000
# 5 0.000000 0.000000 0.000000 0.000000 0.034536 0.000000
# 6 0.000000 0.000000 0.000000 0.000000 0.000000 0.065490
#
#
# Mechanical properties :
#
#
# Convention : Reuss Voigt Hill
#
# Bulk Modulus (GPa) = 62.56283 64.07835 63.32059
# Shear Modulus (GPa) = 5.80022 19.65455 12.72738
#
# Velocity S-wave (km/s) = 1.85073 3.40685 2.74152
# Velocity P-wave (km/s) = 6.44300 7.30176 6.88578
#
# Compressibility (1/GPa) = 0.01598393
#
# Stress axis : x y z
#
# Youngs Moduli (GPa) = 5.64336 5.64333 68.18804
#
# Poissons Ratio (x) = 0.93039 0.39800
# Poissons Ratio (y) = 0.93040 0.39805
# Poissons Ratio (z) = 0.03294 0.03294
#
# Static dielectric constant tensor:
#      x y z
#    x 3.126920 0.000000 0.000000 
#    y 0.000000 3.126920 0.000000 
#    z 0.000000 0.000000 3.131240 
# 
# 
# High freq. dielectric constant tensor:
#      x y z
#    x 1.635920 0.000000 0.000000 
#    y 0.000000 1.635920 0.000000 
#    z 0.000000 0.000000 1.662250 
# 
# From -- ./inp_files/2096.got.cif
#   From: 2010.03.12/outbox.cif.g09.slc.cpg/sg118_2_cif.got.tgz:2096.got - 2010.04.14 02:21:17.
