data_PCOD8310485
_publ_section_title
;
Structure prediction by ZEFSAII (Michael W. Deem and Ramdas Pophale) SiO2 
 PCOD8310485
Probable space group: P -4 N 2
;
_chemical_formula_sum "Si O2"
_cell_formula_units_Z 40
_cell_length_a 8.602806
_cell_length_b 8.602806
_cell_length_c 25.857034
_cell_angle_alpha 90.000000
_cell_angle_beta 90.000000
_cell_angle_gamma 90.000000
_cell_volume 1913.634381
_symmetry_space_group_name_H-M "P -4 N 2"
_symmetry_group_IT_number 118
_symmetry_cell_setting 'tetragonal'
loop_
_space_group_symop_operation_xyz
x,y,z
y,-x,-z
-x,-y,z
-y,x,-z
1/2+y,1/2+x,1/2-z
1/2-y,1/2-x,1/2-z
1/2-x,1/2+y,1/2+z
1/2+x,1/2-y,1/2+z
loop_
_atom_site_type_symbol
_atom_site_label
_atom_site_fract_x
_atom_site_fract_y
_atom_site_fract_z
Si Si1 0.147296 0.612169 0.192182
Si Si2 0.501180 0.174054 0.068006
Si Si3 0.893582 0.787508 0.381567
Si Si4 0.315898 0.495848 0.387059
Si Si5 0.345980 0.200580 0.961155
O O1 0.175283 0.675283 0.250000
O O2 0.289028 0.507154 0.169011
O O3 0.121131 0.763232 0.156546
O O4 0.000000 0.500000 0.188913
O O5 0.453726 0.309261 0.109392
O O6 0.500000 0.000000 0.092291
O O7 0.331260 0.784033 0.046667
O O8 0.376919 0.177321 0.021521
O O9 0.746882 0.673464 0.372418
O O10 0.993838 0.738812 0.431582
O O11 0.500000 0.500000 0.391845
O O12 0.231865 0.542432 0.440604
#
# Coordination Sequence:
#
# PCOD8310485 Si02
#       5
#     8   8   8   8   8
#     4   8  16  34  61  86 110 148 200 253 310 374
#     4  12  23  36  53  81 113 157 204 248 297 360
#     4  10  20  36  58  81 113 156 199 248 295 361
#     4  10  20  37  56  83 117 149 194 253 306 359
#     4  11  22  37  54  76 114 157 202 238 292 365
#
# _framework density 20.902636999999999
#
# number of rings (size 3 to 8) (size 9 to 14) (size 15 to 20)
#    0.000    1.800    2.000    4.800    0.000    0.000 
#    0.000    4.000    0.000    0.000    0.000    9.800 
#    0.000    1.600    0.000    0.000    0.000    0.000 
#
# Total GULP energy -495820.596255 kJ/mol
# GULP energy per Si atom -12395.514906 kJ/mol
# Density = 2.085506 g / cm^3
# Si number density = 20.902637 Si / 1000 Ang^3
#
#
#
# Elastic Constant Matrix: (Units=GPa)
#
#
# Indices 1 2 3 4 5 6 
#
# 1 81.5521 7.6270 6.7032 0.0000 0.0000 0.0000
# 2 7.6270 81.5521 6.7032 0.0000 0.0000 0.0000
# 3 6.7032 6.7032 85.9793 0.0000 0.0000 0.0000
# 4 0.0000 0.0000 0.0000 18.3319 0.0000 0.0000
# 5 0.0000 0.0000 0.0000 0.0000 18.3319 0.0000
# 6 0.0000 0.0000 0.0000 0.0000 0.0000 34.7413
#
#
#
# Elastic Compliance Matrix: (Units=1/GPa)
#
#
# Indices 1 2 3 4 5 6 
#
# 1 0.012437 -0.001090 -0.000885 0.000000 0.000000 0.000000
# 2 -0.001090 0.012437 -0.000885 0.000000 0.000000 0.000000
# 3 -0.000885 -0.000885 0.011769 0.000000 0.000000 0.000000
# 4 0.000000 0.000000 0.000000 0.054550 0.000000 0.000000
# 5 0.000000 0.000000 0.000000 0.000000 0.054550 0.000000
# 6 0.000000 0.000000 0.000000 0.000000 0.000000 0.028784
#
#
# Mechanical properties :
#
#
# Convention : Reuss Voigt Hill
#
# Bulk Modulus (GPa) = 32.33842 32.35006 32.34424
# Shear Modulus (GPa) = 26.23943 29.48434 27.86188
#
# Velocity S-wave (km/s) = 3.54689 3.75981 3.65490
# Velocity P-wave (km/s) = 5.68141 5.86160 5.77221
#
# Compressibility (1/GPa) = 0.03092297
#
# Stress axis : x y z
#
# Youngs Moduli (GPa) = 80.40662 80.40662 84.97158
#
# Poissons Ratio (x) = 0.08768 0.07517
# Poissons Ratio (y) = 0.08768 0.07517
# Poissons Ratio (z) = 0.07113 0.07113
#
# Static dielectric constant tensor:
#      x y z
#    x 3.714570 0.000000 0.000000 
#    y 0.000000 3.714570 0.000000 
#    z 0.000000 0.000000 3.796580 
# 
# 
# High freq. dielectric constant tensor:
#      x y z
#    x 1.814830 0.000000 0.000000 
#    y 0.000000 1.814830 0.000000 
#    z 0.000000 0.000000 1.782880 
# 
# From -- ./inp_files/6445.got.cif
#   From: 2010.03.12/outbox.cif.g09.slc.cpg/sg118_4_cif.got.tgz:6445.got - 2010.04.14 02:21:17.
