data_PCOD8310861
_publ_section_title
;
Structure prediction by ZEFSAII (Michael W. Deem and Ramdas Pophale) SiO2 
 PCOD8310861
Probable space group: I -4 M 2
;
_chemical_formula_sum "Si O2"
_cell_formula_units_Z 48
_cell_length_a 15.688688
_cell_length_b 15.688688
_cell_length_c 9.858315
_cell_angle_alpha 90.000000
_cell_angle_beta 90.000000
_cell_angle_gamma 90.000000
_cell_volume 2426.475684
_symmetry_space_group_name_H-M "I -4 M 2"
_symmetry_group_IT_number 119
_symmetry_cell_setting 'tetragonal'
loop_
_space_group_symop_operation_xyz
x,y,z
y,-x,-z
-x,-y,z
-y,x,-z
y,x,-z
-y,-x,-z
-x,y,z
x,-y,z
1/2+x,1/2+y,1/2+z
1/2+y,1/2-x,1/2-z
1/2-x,1/2-y,1/2+z
1/2-y,1/2+x,1/2-z
1/2+y,1/2+x,1/2-z
1/2-y,1/2-x,1/2-z
1/2-x,1/2+y,1/2+z
1/2+x,1/2-y,1/2+z
loop_
_atom_site_type_symbol
_atom_site_label
_atom_site_fract_x
_atom_site_fract_y
_atom_site_fract_z
Si Si1 0.632564 0.500000 0.787014
Si Si2 0.363816 0.904698 0.102128
Si Si3 0.500000 0.288460 0.488376
Si Si4 0.640951 0.500000 0.211631
Si Si5 0.782729 0.500000 0.992246
O O1 0.638346 0.500000 0.624538
O O2 0.582279 0.414668 0.829219
O O3 0.725116 0.500000 0.856286
O O4 0.360804 0.860804 0.250000
O O5 0.417948 0.843864 0.004058
O O6 0.404562 0.000000 0.116211
O O7 0.269744 0.914932 0.035327
O O8 0.500000 0.333589 0.631964
O O9 0.726951 0.500000 0.126431
#
# Coordination Sequence:
#
# PCOD8310861 Si02
#       5
#     8  16   8   8   8
#     4  11  22  45  67  80 123 179 215 244 304 388
#     4  10  19  36  68  92 118 166 210 244 306 384
#     4  10  22  39  66  91 119 167 215 253 310 376
#     4  11  26  41  59  94 129 163 209 268 312 354
#     4  12  21  38  66  95 123 165 207 260 310 371
#
# _framework density 19.781775
#
# number of rings (size 3 to 8) (size 9 to 14) (size 15 to 20)
#    1.000    0.333    5.000    2.500    0.000    4.000 
#    0.000   10.000    3.667    0.000    0.000    0.000 
#    0.000    0.000    0.000    0.000    0.000    0.000 
#
# Total GULP energy -297466.013311 kJ/mol
# GULP energy per Si atom -12394.417221 kJ/mol
# Density = 1.973675 g / cm^3
# Si number density = 19.781775 Si / 1000 Ang^3
#
#
#
# Elastic Constant Matrix: (Units=GPa)
#
#
# Indices 1 2 3 4 5 6 
#
# 1 86.8759 19.4216 9.4649 0.0000 0.0000 0.0000
# 2 19.4216 86.8759 9.4649 0.0000 0.0000 0.0000
# 3 9.4649 9.4649 79.9671 0.0000 0.0000 0.0000
# 4 0.0000 0.0000 0.0000 21.7407 0.0000 0.0000
# 5 0.0000 0.0000 0.0000 0.0000 21.7407 0.0000
# 6 0.0000 0.0000 0.0000 0.0000 0.0000 1.5531
#
#
#
# Elastic Compliance Matrix: (Units=1/GPa)
#
#
# Indices 1 2 3 4 5 6 
#
# 1 0.012217 -0.002607 -0.001137 0.000000 0.000000 0.000000
# 2 -0.002607 0.012217 -0.001137 0.000000 0.000000 0.000000
# 3 -0.001137 -0.001137 0.012774 0.000000 0.000000 0.000000
# 4 0.000000 0.000000 0.000000 0.045997 0.000000 0.000000
# 5 0.000000 0.000000 0.000000 0.000000 0.045997 0.000000
# 6 0.000000 0.000000 0.000000 0.000000 0.000000 0.643889
#
#
# Mechanical properties :
#
#
# Convention : Reuss Voigt Hill
#
# Bulk Modulus (GPa) = 36.43672 36.71351 36.57511
# Shear Modulus (GPa) = 6.31309 23.36473 14.83891
#
# Velocity S-wave (km/s) = 1.78838 3.44048 2.74182
# Velocity P-wave (km/s) = 4.76694 5.86362 5.34349
#
# Compressibility (1/GPa) = 0.02744484
#
# Stress axis : x y z
#
# Youngs Moduli (GPa) = 81.84993 81.84993 78.28159
#
# Poissons Ratio (x) = 0.21341 0.08904
# Poissons Ratio (y) = 0.21341 0.08904
# Poissons Ratio (z) = 0.09310 0.09310
#
# Static dielectric constant tensor:
#      x y z
#    x 3.654670 0.000000 0.000000 
#    y 0.000000 3.654670 0.000000 
#    z 0.000000 0.000000 3.311240 
# 
# 
# High freq. dielectric constant tensor:
#      x y z
#    x 1.767440 0.000000 0.000000 
#    y 0.000000 1.767440 0.000000 
#    z 0.000000 0.000000 1.761660 
# 
# From -- ./inp_files/1851.got.cif
#   From: 2010.03.12/outbox.cif.g09.slc.cpg/sg119_1_cif.got.tgz:1851.got - 2010.04.14 02:25:26.
