data_PCOD8310008
_publ_section_title
;
Structure prediction by ZEFSAII (Michael W. Deem and Ramdas Pophale) SiO2 
 PCOD8310008
Probable space group: P -4 M 2
;
_chemical_formula_sum "Si O2"
_cell_formula_units_Z 32
_cell_length_a 9.230448
_cell_length_b 9.230448
_cell_length_c 20.763082
_cell_angle_alpha 90.000000
_cell_angle_beta 90.000000
_cell_angle_gamma 90.000000
_cell_volume 1769.038885
_symmetry_space_group_name_H-M "P -4 M 2"
_symmetry_group_IT_number 115
_symmetry_cell_setting 'tetragonal'
loop_
_space_group_symop_operation_xyz
x,y,z
y,-x,-z
-x,-y,z
-y,x,-z
y,x,-z
-y,-x,-z
-x,y,z
x,-y,z
loop_
_atom_site_type_symbol
_atom_site_label
_atom_site_fract_x
_atom_site_fract_y
_atom_site_fract_z
Si Si1 0.170077 0.670247 0.557658
Si Si2 0.671172 0.158968 0.812094
Si Si3 0.673392 0.660798 0.930145
Si Si4 0.828911 0.332636 0.331613
O O1 0.253881 0.746120 0.500000
O O2 0.203207 0.500000 0.556321
O O3 0.226480 0.737037 0.624050
O O4 0.000000 0.701477 0.550513
O O5 0.500000 0.150050 0.820989
O O6 0.740046 0.251230 0.870165
O O7 0.704539 0.222370 0.741198
O O8 0.739987 0.000000 0.817473
O O9 0.500000 0.659800 0.928933
O O10 0.734791 0.500000 0.921615
O O11 0.723871 0.723871 0.000000
O O12 0.794669 0.500000 0.348663
O O13 0.000000 0.304146 0.340148
#
# Coordination Sequence:
#
# PCOD8310008 Si02
#       4
#     8   8   8   8
#     4  11  24  39  55  77 103 130 162 199 238 285
#     4   8  14  25  42  65  93 123 155 193 236 282
#     4   8  13  21  35  58  87 118 155 197 236 277
#     4   9  18  33  53  77 102 128 163 205 245 289
#
# _framework density 18.088919000000001
#
# number of rings (size 3 to 8) (size 9 to 14) (size 15 to 20)
#    0.000    3.000    0.000    3.750    0.000    6.500 
#    0.000    2.500    0.000    1.500    0.000    3.500 
#    0.000    0.000    0.000    0.000    0.000    0.000 
#
# Total GULP energy -396557.259841 kJ/mol
# GULP energy per Si atom -12392.414370 kJ/mol
# Density = 1.804775 g / cm^3
# Si number density = 18.088919 Si / 1000 Ang^3
#
#
#
# Elastic Constant Matrix: (Units=GPa)
#
#
# Indices 1 2 3 4 5 6 
#
# 1 69.2677 42.2865 62.4502 0.0000 0.0000 0.0000
# 2 42.2865 69.2694 62.4511 0.0000 0.0000 0.0000
# 3 62.4502 62.4511 174.2989 0.0000 0.0000 0.0000
# 4 0.0000 0.0000 0.0000 -0.2537 0.0000 0.0000
# 5 0.0000 0.0000 0.0000 0.0000 -0.2525 0.0000
# 6 0.0000 0.0000 0.0000 0.0000 0.0000 19.9284
#
#
#
# Elastic Compliance Matrix: (Units=1/GPa)
#
#
# Indices 1 2 3 4 5 6 
#
# 1 0.026016 -0.011046 -0.005363 0.000000 0.000000 0.000000
# 2 -0.011046 0.026015 -0.005363 0.000000 0.000000 0.000000
# 3 -0.005363 -0.005363 0.009581 0.000000 0.000000 0.000000
# 4 0.000000 0.000000 0.000000 -3.941061 0.000000 0.000000
# 5 0.000000 0.000000 0.000000 0.000000 -3.959757 0.000000
# 6 0.000000 0.000000 0.000000 0.000000 0.000000 0.050180
#
#
# Mechanical properties :
#
#
# Convention : Reuss Voigt Hill
#
# Bulk Modulus (GPa) = 55.35412 71.91242 63.63327
# Shear Modulus (GPa) = -0.64604 13.59430 6.47413
#
# Velocity S-wave (km/s) = -0.59827 2.74437 1.89389
# Velocity P-wave (km/s) = 5.49457 7.06282 6.32747
#
# Compressibility (1/GPa) = 0.01806550
#
# Stress axis : x y z
#
# Youngs Moduli (GPa) = 38.43817 38.43901 104.37674
#
# Poissons Ratio (x) = 0.42461 0.55982
# Poissons Ratio (y) = 0.42460 0.55982
# Poissons Ratio (z) = 0.20616 0.20617
#
# Static dielectric constant tensor:
#      x y z
#    x 3.191680 0.000000 0.000000 
#    y 0.000000 3.191680 0.000000 
#    z 0.000000 0.000000 3.730740 
# 
# 
# High freq. dielectric constant tensor:
#      x y z
#    x 1.668850 0.000000 0.000000 
#    y 0.000000 1.668850 0.000000 
#    z 0.000000 0.000000 1.724400 
# 
# From -- ./inp_files/4582.got.cif
#   From: 2010.03.12/outbox.cif.g09.slc.cpg/sg115_3_cif.got.tgz:4582.got - 2010.04.14 02:11:21.
