data_PCOD8310793
_publ_section_title
;
Structure prediction by ZEFSAII (Michael W. Deem and Ramdas Pophale) SiO2 
 PCOD8310793
Probable space group: I -4 M 2
;
_chemical_formula_sum "Si O2"
_cell_formula_units_Z 96
_cell_length_a 13.968459
_cell_length_b 13.968459
_cell_length_c 27.931556
_cell_angle_alpha 90.000000
_cell_angle_beta 90.000000
_cell_angle_gamma 90.000000
_cell_volume 5449.945065
_symmetry_space_group_name_H-M "I -4 M 2"
_symmetry_group_IT_number 119
_symmetry_cell_setting 'tetragonal'
loop_
_space_group_symop_operation_xyz
x,y,z
y,-x,-z
-x,-y,z
-y,x,-z
y,x,-z
-y,-x,-z
-x,y,z
x,-y,z
1/2+x,1/2+y,1/2+z
1/2+y,1/2-x,1/2-z
1/2-x,1/2-y,1/2+z
1/2-y,1/2+x,1/2-z
1/2+y,1/2+x,1/2-z
1/2-y,1/2-x,1/2-z
1/2-x,1/2+y,1/2+z
1/2+x,1/2-y,1/2+z
loop_
_atom_site_type_symbol
_atom_site_label
_atom_site_fract_x
_atom_site_fract_y
_atom_site_fract_z
Si Si1 0.610525 0.263344 0.967042
Si Si2 0.891509 0.243349 0.258582
Si Si3 0.606661 0.667446 0.863160
Si Si4 0.809734 0.606072 0.867747
Si Si5 0.771524 0.612553 0.715122
Si Si6 0.104081 0.612370 0.967536
O O1 0.500000 0.271854 0.979559
O O2 0.627826 0.268803 0.910187
O O3 0.654699 0.345302 0.000000
O O4 0.649716 0.160359 0.985473
O O5 0.849102 0.349102 0.250000
O O6 0.889922 0.230996 0.315670
O O7 0.826630 0.165102 0.230764
O O8 0.000000 0.236313 0.238846
O O9 0.500000 0.618588 0.867166
O O10 0.694945 0.593800 0.859966
O O11 0.853293 0.500000 0.856360
O O12 0.855462 0.691535 0.836819
O O13 0.832439 0.638865 0.921443
O O14 0.752296 0.500000 0.717363
O O15 0.858137 0.641863 0.750000
O O16 0.088573 0.500000 0.969962
O O17 0.000000 0.662941 0.965285
#
# Coordination Sequence:
#
# PCOD8310793 Si02
#       6
#    16  16  16  16  16  16
#     4  10  19  31  50  74 104 137 171 212 257 313
#     4  10  21  39  59  79 105 139 183 233 284 332
#     4  10  20  34  52  76 107 140 177 223 272 321
#     4  11  20  33  53  80 111 145 180 218 267 326
#     4  11  22  35  53  79 110 144 183 224 266 321
#     4   9  18  32  50  74 105 140 175 211 257 315
#
# _framework density 17.614856
#
# number of rings (size 3 to 8) (size 9 to 14) (size 15 to 20)
#    0.000    1.833    5.000    1.000    0.000    2.833 
#    0.000    4.167    0.000    3.000    0.000    0.000 
#    0.000    0.333    0.000    0.000    0.000    0.000 
#
# Total GULP energy -594646.431403 kJ/mol
# GULP energy per Si atom -12388.467321 kJ/mol
# Density = 1.757476 g / cm^3
# Si number density = 17.614856 Si / 1000 Ang^3
#
#
#
# Elastic Constant Matrix: (Units=GPa)
#
#
# Indices 1 2 3 4 5 6 
#
# 1 112.5690 36.3611 34.7148 0.0000 0.0000 0.0000
# 2 36.3611 112.5677 34.7144 0.0000 0.0000 0.0000
# 3 34.7148 34.7144 92.1259 0.0000 0.0000 0.0000
# 4 0.0000 0.0000 0.0000 21.6944 0.0000 0.0000
# 5 0.0000 0.0000 0.0000 0.0000 21.6947 0.0000
# 6 0.0000 0.0000 0.0000 0.0000 0.0000 13.9227
#
#
#
# Elastic Compliance Matrix: (Units=1/GPa)
#
#
# Indices 1 2 3 4 5 6 
#
# 1 0.010634 -0.002488 -0.003069 0.000000 0.000000 0.000000
# 2 -0.002488 0.010634 -0.003069 0.000000 0.000000 0.000000
# 3 -0.003069 -0.003069 0.013168 0.000000 0.000000 0.000000
# 4 0.000000 0.000000 0.000000 0.046095 0.000000 0.000000
# 5 0.000000 0.000000 0.000000 0.000000 0.046094 0.000000
# 6 0.000000 0.000000 0.000000 0.000000 0.000000 0.071825
#
#
# Mechanical properties :
#
#
# Convention : Reuss Voigt Hill
#
# Bulk Modulus (GPa) = 58.20238 58.76036 58.48137
# Shear Modulus (GPa) = 22.58039 25.56051 24.07045
#
# Velocity S-wave (km/s) = 3.58424 3.81343 3.70061
# Velocity P-wave (km/s) = 7.08819 7.26777 7.17854
#
# Compressibility (1/GPa) = 0.01718143
#
# Stress axis : x y z
#
# Youngs Moduli (GPa) = 94.04029 94.03929 75.94236
#
# Poissons Ratio (x) = 0.23400 0.23309
# Poissons Ratio (y) = 0.23400 0.23309
# Poissons Ratio (z) = 0.28864 0.28864
#
# Static dielectric constant tensor:
#      x y z
#    x 3.331530 0.000000 0.000000 
#    y 0.000000 3.331520 0.000000 
#    z 0.000000 0.000000 3.429940 
# 
# 
# High freq. dielectric constant tensor:
#      x y z
#    x 1.664460 0.000000 0.000000 
#    y 0.000000 1.664460 0.000000 
#    z 0.000000 0.000000 1.688610 
# 
# From -- ./inp_files/10390.got.cif
#   From: 2010.03.12/outbox.cif.g09.slc.cpg/sg119_6_cif.got.tgz:10390.got - 2010.04.14 02:25:26.
