data_PCOD8310644
_publ_section_title
;
Structure prediction by ZEFSAII (Michael W. Deem and Ramdas Pophale) SiO2 
 PCOD8310644
Probable space group: P -4 N 2
;
_chemical_formula_sum "Si O2"
_cell_formula_units_Z 28
_cell_length_a 9.658539
_cell_length_b 9.658539
_cell_length_c 13.899892
_cell_angle_alpha 90.000000
_cell_angle_beta 90.000000
_cell_angle_gamma 90.000000
_cell_volume 1296.684446
_symmetry_space_group_name_H-M "P -4 N 2"
_symmetry_group_IT_number 118
_symmetry_cell_setting 'tetragonal'
loop_
_space_group_symop_operation_xyz
x,y,z
y,-x,-z
-x,-y,z
-y,x,-z
1/2+y,1/2+x,1/2-z
1/2-y,1/2-x,1/2-z
1/2-x,1/2+y,1/2+z
1/2+x,1/2-y,1/2+z
loop_
_atom_site_type_symbol
_atom_site_label
_atom_site_fract_x
_atom_site_fract_y
_atom_site_fract_z
Si Si1 0.689992 0.244232 0.099376
Si Si2 0.971682 0.658558 0.414851
Si Si3 0.838987 0.025426 0.220936
Si Si4 0.732338 0.232338 0.750000
O O1 0.763137 0.385008 0.067306
O O2 0.805647 0.139169 0.140048
O O3 0.572472 0.275933 0.177373
O O4 0.620508 0.170255 0.009358
O O5 0.894557 0.727056 0.324449
O O6 0.000000 0.500000 0.389869
O O7 0.771987 0.877926 0.193233
O O8 0.000000 0.000000 0.228848
#
# Coordination Sequence:
#
# PCOD8310644 Si02
#       4
#     8   8   8   4
#     4  11  27  45  73 105 143 188 241 291 359 436
#     4  12  27  46  74 108 144 189 241 297 362 431
#     4  11  24  47  72 105 143 186 236 294 356 426
#     4  12  25  45  78 100 146 190 235 299 360 418
#
# _framework density 21.593534999999999
#
# number of rings (size 3 to 8) (size 9 to 14) (size 15 to 20)
#    0.000    0.571    2.857    3.857   12.000    1.143 
#    0.000    0.000    0.000    0.000    0.000    0.000 
#    0.000    0.000    0.000    0.000    0.000    0.000 
#
# Total GULP energy -347376.027050 kJ/mol
# GULP energy per Si atom -12406.286680 kJ/mol
# Density = 2.154439 g / cm^3
# Si number density = 21.593535 Si / 1000 Ang^3
#
#
#
# Elastic Constant Matrix: (Units=GPa)
#
#
# Indices 1 2 3 4 5 6 
#
# 1 108.4330 29.2602 21.9455 0.0000 0.0000 0.0000
# 2 29.2602 108.4330 21.9455 0.0000 0.0000 0.0000
# 3 21.9455 21.9455 101.1188 0.0000 0.0000 0.0000
# 4 0.0000 0.0000 0.0000 24.5599 0.0000 0.0000
# 5 0.0000 0.0000 0.0000 0.0000 24.5599 0.0000
# 6 0.0000 0.0000 0.0000 0.0000 0.0000 42.0753
#
#
#
# Elastic Compliance Matrix: (Units=1/GPa)
#
#
# Indices 1 2 3 4 5 6 
#
# 1 0.010216 -0.002414 -0.001693 0.000000 0.000000 0.000000
# 2 -0.002414 0.010216 -0.001693 0.000000 0.000000 0.000000
# 3 -0.001693 -0.001693 0.010624 0.000000 0.000000 0.000000
# 4 0.000000 0.000000 0.000000 0.040717 0.000000 0.000000
# 5 0.000000 0.000000 0.000000 0.000000 0.040717 0.000000
# 6 0.000000 0.000000 0.000000 0.000000 0.000000 0.023767
#
#
# Mechanical properties :
#
#
# Convention : Reuss Voigt Hill
#
# Bulk Modulus (GPa) = 51.39884 51.58745 51.49315
# Shear Modulus (GPa) = 32.39506 34.56126 33.47816
#
# Velocity S-wave (km/s) = 3.87747 4.00501 3.94176
# Velocity P-wave (km/s) = 6.62578 6.73268 6.67944
#
# Compressibility (1/GPa) = 0.01945569
#
# Stress axis : x y z
#
# Youngs Moduli (GPa) = 97.88144 97.88144 94.12352
#
# Poissons Ratio (x) = 0.23630 0.15938
# Poissons Ratio (y) = 0.23630 0.15938
# Poissons Ratio (z) = 0.16574 0.16574
#
# Static dielectric constant tensor:
#      x y z
#    x 4.216830 0.000000 0.000000 
#    y 0.000000 4.216830 0.000000 
#    z 0.000000 0.000000 3.771350 
# 
# 
# High freq. dielectric constant tensor:
#      x y z
#    x 1.865900 0.000000 0.000000 
#    y 0.000000 1.865900 0.000000 
#    z 0.000000 0.000000 1.841520 
# 
# From -- ./inp_files/4620.got.cif
#   From: 2010.03.12/outbox.cif.g09.slc.cpg/sg118_3_cif.got.tgz:4620.got - 2010.04.14 02:21:17.
