data_PCOD8310565
_publ_section_title
;
Structure prediction by ZEFSAII (Michael W. Deem and Ramdas Pophale) SiO2 
 PCOD8310565
Probable space group: P -4 N 2
;
_chemical_formula_sum "Si O2"
_cell_formula_units_Z 48
_cell_length_a 8.786541
_cell_length_b 8.786541
_cell_length_c 30.473675
_cell_angle_alpha 90.000000
_cell_angle_beta 90.000000
_cell_angle_gamma 90.000000
_cell_volume 2352.668357
_symmetry_space_group_name_H-M "P -4 N 2"
_symmetry_group_IT_number 118
_symmetry_cell_setting 'tetragonal'
loop_
_space_group_symop_operation_xyz
x,y,z
y,-x,-z
-x,-y,z
-y,x,-z
1/2+y,1/2+x,1/2-z
1/2-y,1/2-x,1/2-z
1/2-x,1/2+y,1/2+z
1/2+x,1/2-y,1/2+z
loop_
_atom_site_type_symbol
_atom_site_label
_atom_site_fract_x
_atom_site_fract_y
_atom_site_fract_z
Si Si1 0.092557 0.357974 0.198907
Si Si2 0.209685 0.869732 0.491493
Si Si3 0.073169 0.841383 0.136201
Si Si4 0.648985 0.092886 0.398815
Si Si5 0.131299 0.879973 0.638577
Si Si6 0.630505 0.110932 0.928880
O O1 0.118433 0.381568 0.250000
O O2 0.263200 0.347408 0.180402
O O3 0.000000 0.500000 0.178560
O O4 0.983638 0.216596 0.184557
O O5 0.267214 0.849508 0.442311
O O6 0.322616 0.789593 0.526931
O O7 0.045998 0.793420 0.494616
O O8 0.256607 0.859185 0.132213
O O9 0.995199 0.738577 0.099465
O O10 0.000000 0.000000 0.126994
O O11 0.500000 0.000000 0.412635
O O12 0.729111 0.959082 0.372380
O O13 0.242653 0.931081 0.598878
O O14 0.000000 0.000000 0.649135
O O15 0.500000 0.000000 0.945409
#
# Coordination Sequence:
#
# PCOD8310565 Si02
#       6
#     8   8   8   8   8   8
#     4  10  22  42  68  97 126 163 212 264 327 410
#     4  11  22  37  59  89 123 166 227 283 312 378
#     4  11  24  43  63  91 132 172 211 276 344 400
#     4  12  24  39  62  91 126 176 220 267 333 397
#     4  11  20  37  63  89 121 159 211 260 325 389
#     4  11  21  38  59  86 121 170 218 272 326 384
#
# _framework density 20.402367999999999
#
# number of rings (size 3 to 8) (size 9 to 14) (size 15 to 20)
#    0.000    1.000    1.667    8.500    0.000    0.667 
#    0.000    0.000    0.000    3.500    0.000    0.000 
#    0.000    0.000    0.000    0.000    0.000    0.000 
#
# Total GULP energy -594750.283732 kJ/mol
# GULP energy per Si atom -12390.630911 kJ/mol
# Density = 2.035593 g / cm^3
# Si number density = 20.402368 Si / 1000 Ang^3
#
#
#
# Elastic Constant Matrix: (Units=GPa)
#
#
# Indices 1 2 3 4 5 6 
#
# 1 94.8606 15.5202 30.3700 0.0000 0.0000 0.0000
# 2 15.5202 94.8606 30.3700 0.0000 0.0000 0.0000
# 3 30.3700 30.3700 93.3979 0.0000 0.0000 0.0000
# 4 0.0000 0.0000 0.0000 39.3996 0.0000 0.0000
# 5 0.0000 0.0000 0.0000 0.0000 39.3992 0.0000
# 6 0.0000 0.0000 0.0000 0.0000 0.0000 39.9735
#
#
#
# Elastic Compliance Matrix: (Units=1/GPa)
#
#
# Indices 1 2 3 4 5 6 
#
# 1 0.011819 -0.000785 -0.003588 0.000000 0.000000 0.000000
# 2 -0.000785 0.011819 -0.003588 0.000000 0.000000 0.000000
# 3 -0.003588 -0.003588 0.013040 0.000000 0.000000 0.000000
# 4 0.000000 0.000000 0.000000 0.025381 0.000000 0.000000
# 5 0.000000 0.000000 0.000000 0.000000 0.025381 0.000000
# 6 0.000000 0.000000 0.000000 0.000000 0.000000 0.025017
#
#
# Mechanical properties :
#
#
# Convention : Reuss Voigt Hill
#
# Bulk Modulus (GPa) = 48.17770 48.40437 48.29104
# Shear Modulus (GPa) = 36.95573 37.54506 37.25040
#
# Velocity S-wave (km/s) = 4.26061 4.29444 4.27756
# Velocity P-wave (km/s) = 6.91872 6.95457 6.93667
#
# Compressibility (1/GPa) = 0.02075649
#
# Stress axis : x y z
#
# Youngs Moduli (GPa) = 84.61029 84.61031 76.68604
#
# Poissons Ratio (x) = 0.06642 0.27514
# Poissons Ratio (y) = 0.06642 0.27514
# Poissons Ratio (z) = 0.30357 0.30357
#
# Static dielectric constant tensor:
#      x y z
#    x 3.708490 0.000000 0.000000 
#    y 0.000000 3.708490 0.000000 
#    z 0.000000 0.000000 3.569980 
# 
# 
# High freq. dielectric constant tensor:
#      x y z
#    x 1.805290 0.000000 0.000000 
#    y 0.000000 1.805290 0.000000 
#    z 0.000000 0.000000 1.782320 
# 
# From -- ./inp_files/6822.got.cif
#   From: 2010.03.12/outbox.cif.g09.slc.cpg/sg118_4_cif.got.tgz:6822.got - 2010.04.14 02:21:17.
