data_PCOD8310811
_publ_section_title
;
Structure prediction by ZEFSAII (Michael W. Deem and Ramdas Pophale) SiO2 
 PCOD8310811
Probable space group: I -4 M 2
;
_chemical_formula_sum "Si O2"
_cell_formula_units_Z 96
_cell_length_a 31.000272
_cell_length_b 31.000272
_cell_length_c 5.107870
_cell_angle_alpha 90.000000
_cell_angle_beta 90.000000
_cell_angle_gamma 90.000000
_cell_volume 4908.749209
_symmetry_space_group_name_H-M "I -4 M 2"
_symmetry_group_IT_number 119
_symmetry_cell_setting 'tetragonal'
loop_
_space_group_symop_operation_xyz
x,y,z
y,-x,-z
-x,-y,z
-y,x,-z
y,x,-z
-y,-x,-z
-x,y,z
x,-y,z
1/2+x,1/2+y,1/2+z
1/2+y,1/2-x,1/2-z
1/2-x,1/2-y,1/2+z
1/2-y,1/2+x,1/2-z
1/2+y,1/2+x,1/2-z
1/2-y,1/2-x,1/2-z
1/2-x,1/2+y,1/2+z
1/2+x,1/2-y,1/2+z
loop_
_atom_site_type_symbol
_atom_site_label
_atom_site_fract_x
_atom_site_fract_y
_atom_site_fract_z
Si Si1 0.570568 0.000000 0.215674
Si Si2 0.547414 0.619730 0.969106
Si Si3 0.161453 0.201035 0.765581
Si Si4 0.418729 0.351077 0.466489
Si Si5 0.407020 0.165228 0.755193
Si Si6 0.368012 0.203194 0.253141
Si Si7 0.000000 0.626860 0.280268
O O1 0.542954 0.957047 0.250000
O O2 0.609402 0.000000 0.423134
O O3 0.587254 0.000000 0.920237
O O4 0.500000 0.600554 0.911961
O O5 0.559352 0.655981 0.749229
O O6 0.580826 0.580826 0.000000
O O7 0.546036 0.647239 0.236915
O O8 0.175907 0.175907 0.500000
O O9 0.117645 0.183025 0.890895
O O10 0.152253 0.250228 0.700182
O O11 0.196927 0.196927 0.000000
O O12 0.398369 0.398369 0.500000
O O13 0.378913 0.121088 0.750000
O O14 0.393381 0.198046 0.525332
O O15 0.457461 0.154992 0.727746
O O16 0.400943 0.190815 0.024204
O O17 0.327408 0.172593 0.250000
#
# Coordination Sequence:
#
# PCOD8310811 Si02
#       7
#     8  16  16  16  16  16   8
#     4  11  22  34  52  86 122 144 184 262 320 334
#     4  10  19  32  52  75 107 142 182 228 274 330
#     4  11  21  36  62  88 111 145 187 235 293 353
#     4   9  18  33  52  76 103 138 178 217 266 331
#     4  10  21  38  59  83 114 159 199 234 289 348
#     4  10  22  39  59  85 120 151 184 235 292 354
#     4  12  22  37  62  82 112 160 214 244 278 362
#
# _framework density 19.556918
#
# number of rings (size 3 to 8) (size 9 to 14) (size 15 to 20)
#    0.000    1.750    0.000    6.500    0.000    2.833 
#    0.000    0.000   11.000    3.000    0.000    0.000 
#    0.000    0.000    0.000    0.000    0.000    0.000 
#
# Total GULP energy -594915.164943 kJ/mol
# GULP energy per Si atom -12394.065936 kJ/mol
# Density = 1.951241 g / cm^3
# Si number density = 19.556918 Si / 1000 Ang^3
#
#
#
# Elastic Constant Matrix: (Units=GPa)
#
#
# Indices 1 2 3 4 5 6 
#
# 1 87.7147 42.5986 35.1484 0.0000 0.0000 0.0000
# 2 42.5986 87.7154 35.1501 0.0000 0.0000 0.0000
# 3 35.1484 35.1501 133.0653 0.0000 0.0000 0.0000
# 4 0.0000 0.0000 0.0000 24.5978 0.0000 0.0000
# 5 0.0000 0.0000 0.0000 0.0000 24.5988 0.0000
# 6 0.0000 0.0000 0.0000 0.0000 0.0000 12.2395
#
#
#
# Elastic Compliance Matrix: (Units=1/GPa)
#
#
# Indices 1 2 3 4 5 6 
#
# 1 0.015557 -0.006608 -0.002364 0.000000 0.000000 0.000000
# 2 -0.006608 0.015557 -0.002364 0.000000 0.000000 0.000000
# 3 -0.002364 -0.002364 0.008764 0.000000 0.000000 0.000000
# 4 0.000000 0.000000 0.000000 0.040654 0.000000 0.000000
# 5 0.000000 0.000000 0.000000 0.000000 0.040652 0.000000
# 6 0.000000 0.000000 0.000000 0.000000 0.000000 0.081703
#
#
# Mechanical properties :
#
#
# Convention : Reuss Voigt Hill
#
# Bulk Modulus (GPa) = 58.11782 59.36552 58.74167
# Shear Modulus (GPa) = 21.61752 25.32710 23.47231
#
# Velocity S-wave (km/s) = 3.32831 3.60258 3.46816
# Velocity P-wave (km/s) = 6.67473 6.90839 6.79257
#
# Compressibility (1/GPa) = 0.01720643
#
# Stress axis : x y z
#
# Youngs Moduli (GPa) = 64.28015 64.27998 114.10381
#
# Poissons Ratio (x) = 0.42476 0.26971
# Poissons Ratio (y) = 0.42476 0.26975
# Poissons Ratio (z) = 0.15194 0.15196
#
# Static dielectric constant tensor:
#      x y z
#    x 3.395580 0.000000 0.000000 
#    y 0.000000 3.395580 0.000000 
#    z 0.000000 0.000000 4.273610 
# 
# 
# High freq. dielectric constant tensor:
#      x y z
#    x 1.742070 0.000000 0.000000 
#    y 0.000000 1.742070 0.000000 
#    z 0.000000 0.000000 1.792530 
# 
# From -- ./inp_files/1166.got.cif
#   From: 2010.03.12/outbox.cif.g09.slc.cpg/sg119_1_cif.got.tgz:1166.got - 2010.04.14 02:25:26.
