data_PCOD8310402
_publ_section_title
;
Structure prediction by ZEFSAII (Michael W. Deem and Ramdas Pophale) SiO2 
 PCOD8310402
Probable space group: P -4 B 2
;
_chemical_formula_sum "Si O2"
_cell_formula_units_Z 36
_cell_length_a 9.035404
_cell_length_b 9.035404
_cell_length_c 18.657306
_cell_angle_alpha 90.000000
_cell_angle_beta 90.000000
_cell_angle_gamma 90.000000
_cell_volume 1523.154951
_symmetry_space_group_name_H-M "P -4 B 2"
_symmetry_group_IT_number 117
_symmetry_cell_setting 'tetragonal'
loop_
_space_group_symop_operation_xyz
x,y,z
y,-x,-z
-x,-y,z
-y,x,-z
1/2+y,1/2+x,-z
1/2-y,1/2-x,-z
1/2-x,1/2+y,z
1/2+x,1/2-y,z
loop_
_atom_site_type_symbol
_atom_site_label
_atom_site_fract_x
_atom_site_fract_y
_atom_site_fract_z
Si Si1 0.684404 0.607140 0.969707
Si Si2 0.327144 0.827144 0.500000
Si Si3 0.829053 0.943261 0.592277
Si Si4 0.075425 0.650231 0.265931
Si Si5 0.633860 0.612187 0.809374
O O1 0.639750 0.666537 0.891261
O O2 0.676382 0.430355 0.972359
O O3 0.842689 0.657312 0.000000
O O4 0.224594 0.813258 0.430779
O O5 0.482474 0.788646 0.462753
O O6 0.775455 0.945623 0.673642
O O7 0.000000 0.000000 0.585048
O O8 0.245508 0.622693 0.243094
O O9 0.000000 0.500000 0.293602
O O10 0.977492 0.712689 0.200584
O O11 0.500000 0.500000 0.793522
#
# Coordination Sequence:
#
# PCOD8310402 Si02
#       5
#     8   4   8   8   8
#     4  11  24  45  72 108 146 197 248 312 378 446
#     4  12  24  46  78 104 148 190 240 312 374 442
#     4  12  27  51  71 112 148 193 245 308 379 446
#     4  12  29  45  77 112 148 206 253 313 385 464
#     4  12  25  50  74 106 157 197 257 318 382 462
#
# _framework density 23.635152000000001
#
# number of rings (size 3 to 8) (size 9 to 14) (size 15 to 20)
#    0.000    0.222    4.444    4.667    6.222    4.000 
#    0.000    0.000    0.000    0.000    0.000    0.000 
#    0.000    0.000    0.000    0.000    0.000    0.000 
#
# Total GULP energy -446186.562926 kJ/mol
# GULP energy per Si atom -12394.071192 kJ/mol
# Density = 2.358136 g / cm^3
# Si number density = 23.635152 Si / 1000 Ang^3
#
#
#
# Elastic Constant Matrix: (Units=GPa)
#
#
# Indices 1 2 3 4 5 6 
#
# 1 78.0150 45.0752 29.7329 0.0000 0.0000 0.0000
# 2 45.0752 78.0172 29.7330 0.0000 0.0000 0.0000
# 3 29.7329 29.7330 107.9522 0.0000 0.0000 0.0000
# 4 0.0000 0.0000 0.0000 33.6926 0.0000 0.0000
# 5 0.0000 0.0000 0.0000 0.0000 33.6925 0.0000
# 6 0.0000 0.0000 0.0000 0.0000 0.0000 39.0541
#
#
#
# Elastic Compliance Matrix: (Units=1/GPa)
#
#
# Indices 1 2 3 4 5 6 
#
# 1 0.019864 -0.010493 -0.002581 0.000000 0.000000 0.000000
# 2 -0.010493 0.019864 -0.002581 0.000000 0.000000 0.000000
# 3 -0.002581 -0.002581 0.010685 0.000000 0.000000 0.000000
# 4 0.000000 0.000000 0.000000 0.029680 0.000000 0.000000
# 5 0.000000 0.000000 0.000000 0.000000 0.029680 0.000000
# 6 0.000000 0.000000 0.000000 0.000000 0.000000 0.025605
#
#
# Mechanical properties :
#
#
# Convention : Reuss Voigt Hill
#
# Bulk Modulus (GPa) = 52.34789 52.56295 52.45542
# Shear Modulus (GPa) = 28.89214 31.91740 30.40477
#
# Velocity S-wave (km/s) = 3.50011 3.67879 3.59056
# Velocity P-wave (km/s) = 6.20731 6.35077 6.27945
#
# Compressibility (1/GPa) = 0.01910297
#
# Stress axis : x y z
#
# Youngs Moduli (GPa) = 50.34111 50.34261 93.58815
#
# Poissons Ratio (x) = 0.52826 0.24156
# Poissons Ratio (y) = 0.52824 0.24154
# Poissons Ratio (z) = 0.12993 0.12993
#
# Static dielectric constant tensor:
#      x y z
#    x 4.341730 0.000000 0.000000 
#    y 0.000000 4.341730 0.000000 
#    z 0.000000 0.000000 4.192580 
# 
# 
# High freq. dielectric constant tensor:
#      x y z
#    x 1.938390 0.000000 0.000000 
#    y 0.000000 1.938390 0.000000 
#    z 0.000000 0.000000 1.948200 
# 
# From -- ./inp_files/3415.got.cif
#   From: 2010.03.12/outbox.cif.g09.slc.cpg/sg117_2_cif.got.tgz:3415.got - 2010.04.14 02:19:01.
