data_PCOD8310462
_publ_section_title
;
Structure prediction by ZEFSAII (Michael W. Deem and Ramdas Pophale) SiO2 
 PCOD8310462
Probable space group: P -4 N 2
;
_chemical_formula_sum "Si O2"
_cell_formula_units_Z 42
_cell_length_a 15.558728
_cell_length_b 15.558728
_cell_length_c 8.653251
_cell_angle_alpha 90.000000
_cell_angle_beta 90.000000
_cell_angle_gamma 90.000000
_cell_volume 2094.727229
_symmetry_space_group_name_H-M "P -4 N 2"
_symmetry_group_IT_number 118
_symmetry_cell_setting 'tetragonal'
loop_
_space_group_symop_operation_xyz
x,y,z
y,-x,-z
-x,-y,z
-y,x,-z
1/2+y,1/2+x,1/2-z
1/2-y,1/2-x,1/2-z
1/2-x,1/2+y,1/2+z
1/2+x,1/2-y,1/2+z
loop_
_atom_site_type_symbol
_atom_site_label
_atom_site_fract_x
_atom_site_fract_y
_atom_site_fract_z
Si Si1 0.000000 0.000000 0.500000
Si Si2 0.616480 0.419666 0.527181
Si Si3 0.119348 0.873130 0.627616
Si Si4 0.001324 0.253765 0.443077
Si Si5 0.442373 0.079650 0.071320
Si Si6 0.717065 0.896365 0.845981
O O1 0.963846 0.930120 0.382387
O O2 0.523746 0.382982 0.476812
O O3 0.649491 0.383867 0.692223
O O4 0.688102 0.380680 0.413562
O O5 0.212812 0.902275 0.561094
O O6 0.075568 0.802467 0.520301
O O7 0.004962 0.339736 0.542580
O O8 0.977593 0.276731 0.267435
O O9 0.419463 0.080538 0.250000
O O10 0.500000 0.000000 0.019299
O O11 0.353682 0.082789 0.976322
O O12 0.688152 0.811849 0.750000
#
# Coordination Sequence:
#
# PCOD8310462 Si02
#       6
#     2   8   8   8   8   8
#     4   8  16  28  50  84 116 168 190 232 300 368
#     4  11  21  34  61  92 125 166 211 256 316 383
#     4  10  19  33  57  88 130 161 204 252 311 378
#     4  10  21  37  62  93 125 168 206 262 318 374
#     4  10  22  44  71  88 117 171 220 265 318 376
#     4  10  22  40  61  89 127 167 210 264 314 364
#
# _framework density 20.050345
#
# number of rings (size 3 to 8) (size 9 to 14) (size 15 to 20)
#    0.000    1.905    1.905    2.286    5.333    3.429 
#    0.000    3.810   12.571    0.000    0.000    0.000 
#    0.000    0.000    0.000    0.000    0.000    0.000 
#
# Total GULP energy -520500.029474 kJ/mol
# GULP energy per Si atom -12392.857845 kJ/mol
# Density = 2.000471 g / cm^3
# Si number density = 20.050345 Si / 1000 Ang^3
#
#
#
# Elastic Constant Matrix: (Units=GPa)
#
#
# Indices 1 2 3 4 5 6 
#
# 1 108.5576 52.3621 43.1623 0.0000 0.0000 0.0000
# 2 52.3621 108.5580 43.1628 0.0000 0.0000 0.0000
# 3 43.1623 43.1628 108.1566 0.0000 0.0000 0.0000
# 4 0.0000 0.0000 0.0000 22.4233 0.0000 0.0000
# 5 0.0000 0.0000 0.0000 0.0000 22.4219 0.0000
# 6 0.0000 0.0000 0.0000 0.0000 0.0000 28.9319
#
#
#
# Elastic Compliance Matrix: (Units=1/GPa)
#
#
# Indices 1 2 3 4 5 6 
#
# 1 0.012851 -0.004944 -0.003155 0.000000 0.000000 0.000000
# 2 -0.004944 0.012851 -0.003156 0.000000 0.000000 0.000000
# 3 -0.003155 -0.003156 0.011764 0.000000 0.000000 0.000000
# 4 0.000000 0.000000 0.000000 0.044596 0.000000 0.000000
# 5 0.000000 0.000000 0.000000 0.000000 0.044599 0.000000
# 6 0.000000 0.000000 0.000000 0.000000 0.000000 0.034564
#
#
# Mechanical properties :
#
#
# Convention : Reuss Voigt Hill
#
# Bulk Modulus (GPa) = 66.86061 66.96073 66.91067
# Shear Modulus (GPa) = 26.49406 27.19441 26.84423
#
# Velocity S-wave (km/s) = 3.63902 3.68680 3.66299
# Velocity P-wave (km/s) = 7.14670 7.18277 7.16476
#
# Compressibility (1/GPa) = 0.01495649
#
# Stress axis : x y z
#
# Youngs Moduli (GPa) = 77.81495 77.81502 85.00209
#
# Poissons Ratio (x) = 0.38471 0.26822
# Poissons Ratio (y) = 0.38471 0.26823
# Poissons Ratio (z) = 0.24554 0.24555
#
# Static dielectric constant tensor:
#      x y z
#    x 3.653840 0.000000 0.000000 
#    y 0.000000 3.653840 0.000000 
#    z 0.000000 0.000000 3.750600 
# 
# 
# High freq. dielectric constant tensor:
#      x y z
#    x 1.770310 0.000000 0.000000 
#    y 0.000000 1.770310 0.000000 
#    z 0.000000 0.000000 1.797740 
# 
# From -- ./inp_files/1948.got.cif
#   From: 2010.03.12/outbox.cif.g09.slc.cpg/sg118_1_cif.got.tgz:1948.got - 2010.04.14 02:21:17.
