data_PCOD8310696
_publ_section_title
;
Structure prediction by ZEFSAII (Michael W. Deem and Ramdas Pophale) SiO2 
 PCOD8310696
Probable space group: I -4 M 2
;
_chemical_formula_sum "Si O2"
_cell_formula_units_Z 72
_cell_length_a 12.199861
_cell_length_b 12.199861
_cell_length_c 28.922039
_cell_angle_alpha 90.000000
_cell_angle_beta 90.000000
_cell_angle_gamma 90.000000
_cell_volume 4304.658193
_symmetry_space_group_name_H-M "I -4 M 2"
_symmetry_group_IT_number 119
_symmetry_cell_setting 'tetragonal'
loop_
_space_group_symop_operation_xyz
x,y,z
y,-x,-z
-x,-y,z
-y,x,-z
y,x,-z
-y,-x,-z
-x,y,z
x,-y,z
1/2+x,1/2+y,1/2+z
1/2+y,1/2-x,1/2-z
1/2-x,1/2-y,1/2+z
1/2-y,1/2+x,1/2-z
1/2+y,1/2+x,1/2-z
1/2-y,1/2-x,1/2-z
1/2-x,1/2+y,1/2+z
1/2+x,1/2-y,1/2+z
loop_
_atom_site_type_symbol
_atom_site_label
_atom_site_fract_x
_atom_site_fract_y
_atom_site_fract_z
Si Si1 0.381041 0.500000 0.161579
Si Si2 0.500000 0.319356 0.737766
Si Si3 0.875083 0.124918 0.000000
Si Si4 0.264330 0.235671 0.750000
Si Si5 0.371757 0.279803 0.403795
Si Si6 0.867881 0.237625 0.658884
Si Si7 0.500000 0.620621 0.637439
O O1 0.500000 0.500000 0.138534
O O2 0.395609 0.500000 0.217262
O O3 0.323895 0.613875 0.146699
O O4 0.391400 0.245373 0.736790
O O5 0.500000 0.393795 0.692411
O O6 0.790287 0.150095 0.041362
O O7 0.000000 0.140292 0.017990
O O8 0.186061 0.273040 0.707535
O O9 0.500000 0.268147 0.392756
O O10 0.313718 0.172311 0.383109
O O11 0.320410 0.388553 0.379483
O O12 0.000000 0.242987 0.663127
O O13 0.500000 0.500000 0.614168
#
# Coordination Sequence:
#
# PCOD8310696 Si02
#       7
#     8   8   8   8  16  16   8
#     4   8  17  32  49  67  90 133 177 211 230 273
#     4  10  17  29  46  70 100 132 169 205 244 294
#     4   9  16  30  52  80 103 124 160 206 253 296
#     4  10  20  31  48  73 102 134 168 208 248 290
#     4  10  19  31  52  79 102 129 161 204 254 302
#     4  10  20  34  51  73 101 135 172 207 246 295
#     4  10  17  28  49  75  98 129 169 205 236 297
#
# _framework density 16.726064999999998
#
# number of rings (size 3 to 8) (size 9 to 14) (size 15 to 20)
#    0.000    2.333    3.333    0.333    0.000    2.444 
#    0.000    0.000    2.444    0.667    0.000    0.000 
#    0.000    0.000    0.000    0.000    0.000    0.000 
#
# Total GULP energy -446053.797517 kJ/mol
# GULP energy per Si atom -12390.383264 kJ/mol
# Density = 1.668800 g / cm^3
# Si number density = 16.726065 Si / 1000 Ang^3
#
#
#
# Elastic Constant Matrix: (Units=GPa)
#
#
# Indices 1 2 3 4 5 6 
#
# 1 89.1096 37.6428 41.0798 0.0000 0.0000 0.0000
# 2 37.6428 89.1085 41.0800 0.0000 0.0000 0.0000
# 3 41.0798 41.0800 87.3962 0.0000 0.0000 0.0000
# 4 0.0000 0.0000 0.0000 25.5825 0.0000 0.0000
# 5 0.0000 0.0000 0.0000 0.0000 25.5825 0.0000
# 6 0.0000 0.0000 0.0000 0.0000 0.0000 16.7290
#
#
#
# Elastic Compliance Matrix: (Units=1/GPa)
#
#
# Indices 1 2 3 4 5 6 
#
# 1 0.015388 -0.004042 -0.005333 0.000000 0.000000 0.000000
# 2 -0.004042 0.015388 -0.005333 0.000000 0.000000 0.000000
# 3 -0.005333 -0.005333 0.016456 0.000000 0.000000 0.000000
# 4 0.000000 0.000000 0.000000 0.039089 0.000000 0.000000
# 5 0.000000 0.000000 0.000000 0.000000 0.039089 0.000000
# 6 0.000000 0.000000 0.000000 0.000000 0.000000 0.059776
#
#
# Mechanical properties :
#
#
# Convention : Reuss Voigt Hill
#
# Bulk Modulus (GPa) = 56.13069 56.13551 56.13310
# Shear Modulus (GPa) = 22.67134 23.29960 22.98547
#
# Velocity S-wave (km/s) = 3.68564 3.73636 3.71108
# Velocity P-wave (km/s) = 7.19330 7.22830 7.21082
#
# Compressibility (1/GPa) = 0.01781557
#
# Stress axis : x y z
#
# Youngs Moduli (GPa) = 64.98496 64.98374 60.76851
#
# Poissons Ratio (x) = 0.26266 0.32409
# Poissons Ratio (y) = 0.26266 0.32410
# Poissons Ratio (z) = 0.34658 0.34658
#
# Static dielectric constant tensor:
#      x y z
#    x 3.048010 0.000000 0.000000 
#    y 0.000000 3.048020 0.000000 
#    z 0.000000 0.000000 2.994310 
# 
# 
# High freq. dielectric constant tensor:
#      x y z
#    x 1.629220 0.000000 0.000000 
#    y 0.000000 1.629220 0.000000 
#    z 0.000000 0.000000 1.633800 
# 
# From -- ./inp_files/10080.got.cif
#   From: 2010.03.12/outbox.cif.g09.slc.cpg/sg119_6_cif.got.tgz:10080.got - 2010.04.14 02:25:26.
