data_PCOD8310646
_publ_section_title
;
Structure prediction by ZEFSAII (Michael W. Deem and Ramdas Pophale) SiO2 
 PCOD8310646
Probable space group: P -4 N 2
;
_chemical_formula_sum "Si O2"
_cell_formula_units_Z 18
_cell_length_a 5.382154
_cell_length_b 5.382154
_cell_length_c 23.780256
_cell_angle_alpha 90.000000
_cell_angle_beta 90.000000
_cell_angle_gamma 90.000000
_cell_volume 688.856508
_symmetry_space_group_name_H-M "P -4 N 2"
_symmetry_group_IT_number 118
_symmetry_cell_setting 'tetragonal'
loop_
_space_group_symop_operation_xyz
x,y,z
y,-x,-z
-x,-y,z
-y,x,-z
1/2+y,1/2+x,1/2-z
1/2-y,1/2-x,1/2-z
1/2-x,1/2+y,1/2+z
1/2+x,1/2-y,1/2+z
loop_
_atom_site_type_symbol
_atom_site_label
_atom_site_fract_x
_atom_site_fract_y
_atom_site_fract_z
Si Si1 0.653833 0.253446 0.189640
Si Si2 0.636662 0.747291 0.572066
Si Si3 0.000000 0.000000 0.500000
O O1 0.500000 0.500000 0.176490
O O2 0.788895 0.288895 0.250000
O O3 0.849734 0.226976 0.139577
O O4 0.500000 0.000000 0.190501
O O5 0.500000 0.500000 0.549452
O O6 0.902121 0.775481 0.540528
O O7 0.500000 0.000000 0.555207
#
# Coordination Sequence:
#
# PCOD8310646 Si02
#       3
#     8   8   2
#     4  11  24  48  79 118 161 207 268 341 416 498
#     4  12  29  50  82 117 160 219 278 342 420 497
#     4  12  32  52  72 116 176 208 296 340 426 500
#
# _framework density 26.130262999999999
#
# number of rings (size 3 to 8) (size 9 to 14) (size 15 to 20)
#    0.000    0.444    2.222    4.000    6.222    4.444 
#    0.000    0.000    0.000    0.000    0.000    0.000 
#    0.000    0.000    0.000    0.000    0.000    0.000 
#
# Total GULP energy -223169.857971 kJ/mol
# GULP energy per Si atom -12398.325443 kJ/mol
# Density = 2.607079 g / cm^3
# Si number density = 26.130263 Si / 1000 Ang^3
#
#
#
# Elastic Constant Matrix: (Units=GPa)
#
#
# Indices 1 2 3 4 5 6 
#
# 1 158.6108 55.1718 35.7481 0.0000 0.0000 0.0000
# 2 55.1718 158.6108 35.7481 0.0000 0.0000 0.0000
# 3 35.7481 35.7481 185.9892 0.0000 0.0000 0.0000
# 4 0.0000 0.0000 0.0000 18.3413 0.0000 0.0000
# 5 0.0000 0.0000 0.0000 0.0000 18.3413 0.0000
# 6 0.0000 0.0000 0.0000 0.0000 0.0000 55.5749
#
#
#
# Elastic Compliance Matrix: (Units=1/GPa)
#
#
# Indices 1 2 3 4 5 6 
#
# 1 0.007333 -0.002334 -0.000961 0.000000 0.000000 0.000000
# 2 -0.002334 0.007333 -0.000961 0.000000 0.000000 0.000000
# 3 -0.000961 -0.000961 0.005746 0.000000 0.000000 0.000000
# 4 0.000000 0.000000 0.000000 0.054522 0.000000 0.000000
# 5 0.000000 0.000000 0.000000 0.000000 0.054522 0.000000
# 6 0.000000 0.000000 0.000000 0.000000 0.000000 0.017994
#
#
# Mechanical properties :
#
#
# Convention : Reuss Voigt Hill
#
# Bulk Modulus (GPa) = 84.02900 84.06076 84.04488
# Shear Modulus (GPa) = 31.26397 43.55435 37.40916
#
# Velocity S-wave (km/s) = 3.46275 4.08710 3.78781
# Velocity P-wave (km/s) = 6.94371 7.38324 7.16684
#
# Compressibility (1/GPa) = 0.01190065
#
# Stress axis : x y z
#
# Youngs Moduli (GPa) = 136.36499 136.36499 174.03383
#
# Poissons Ratio (x) = 0.31831 0.16722
# Poissons Ratio (y) = 0.31831 0.16722
# Poissons Ratio (z) = 0.13102 0.13102
#
# Static dielectric constant tensor:
#      x y z
#    x 5.698840 0.000000 0.000000 
#    y 0.000000 5.698840 0.000000 
#    z 0.000000 0.000000 5.318220 
# 
# 
# High freq. dielectric constant tensor:
#      x y z
#    x 2.039620 0.000000 0.000000 
#    y 0.000000 2.039620 0.000000 
#    z 0.000000 0.000000 2.084460 
# 
# From -- ./inp_files/5786.got.cif
#   From: 2010.03.12/outbox.cif.g09.slc.cpg/sg118_3_cif.got.tgz:5786.got - 2010.04.14 02:21:17.
