data_PCOD8310546
_publ_section_title
;
Structure prediction by ZEFSAII (Michael W. Deem and Ramdas Pophale) SiO2 
 PCOD8310546
Probable space group: P -4 N 2
;
_chemical_formula_sum "Si O2"
_cell_formula_units_Z 48
_cell_length_a 14.164214
_cell_length_b 14.164214
_cell_length_c 11.010750
_cell_angle_alpha 90.000000
_cell_angle_beta 90.000000
_cell_angle_gamma 90.000000
_cell_volume 2209.031259
_symmetry_space_group_name_H-M "P -4 N 2"
_symmetry_group_IT_number 118
_symmetry_cell_setting 'tetragonal'
loop_
_space_group_symop_operation_xyz
x,y,z
y,-x,-z
-x,-y,z
-y,x,-z
1/2+y,1/2+x,1/2-z
1/2-y,1/2-x,1/2-z
1/2-x,1/2+y,1/2+z
1/2+x,1/2-y,1/2+z
loop_
_atom_site_type_symbol
_atom_site_label
_atom_site_fract_x
_atom_site_fract_y
_atom_site_fract_z
Si Si1 0.033801 0.810296 0.151476
Si Si2 0.685007 0.814994 0.750000
Si Si3 0.685561 0.254117 0.033230
Si Si4 0.703809 0.020914 0.306108
Si Si5 0.082057 0.210542 0.922368
Si Si6 0.130172 0.113346 0.327704
Si Si7 0.000000 0.500000 0.750000
Si Si8 0.000000 0.000000 0.500000
O O1 0.079446 0.709898 0.198611
O O2 0.113404 0.892579 0.149276
O O3 0.944487 0.844768 0.230554
O O4 0.007417 0.799523 0.009643
O O5 0.692349 0.739151 0.858045
O O6 0.578746 0.234876 0.075970
O O7 0.750149 0.165933 0.993687
O O8 0.678052 0.306537 0.907030
O O9 0.706045 0.078311 0.179070
O O10 0.595277 0.992022 0.331059
O O11 0.779170 0.938617 0.269653
O O12 0.082240 0.038412 0.415899
#
# Coordination Sequence:
#
# PCOD8310546 Si02
#       8
#     8   4   8   8   8   8   2   2
#     4  11  24  42  67 106 138 187 234 294 371 430
#     4  10  21  44  66  90 140 189 226 272 382 444
#     4  11  21  45  67  90 137 187 219 290 365 420
#     4  12  23  44  67  98 135 177 240 291 345 426
#     4  11  23  44  69  92 142 188 227 286 359 445
#     4  12  25  38  71 107 138 175 237 308 358 423
#     4  12  26  44  72 100 126 196 244 282 332 430
#     4  12  20  36  64 106 132 176 216 280 374 416
#
# _framework density 21.728982999999999
#
# number of rings (size 3 to 8) (size 9 to 14) (size 15 to 20)
#    0.000    0.667    6.667    3.000    0.000    6.333 
#    0.000    0.000    0.000    1.000    0.000    0.000 
#    0.000    0.000    0.000    0.000    0.000    0.000 
#
# Total GULP energy -594696.640099 kJ/mol
# GULP energy per Si atom -12389.513335 kJ/mol
# Density = 2.167953 g / cm^3
# Si number density = 21.728983 Si / 1000 Ang^3
#
#
#
# Elastic Constant Matrix: (Units=GPa)
#
#
# Indices 1 2 3 4 5 6 
#
# 1 102.0551 41.6336 18.8267 0.0000 0.0000 0.0000
# 2 41.6336 102.0550 18.8268 0.0000 0.0000 0.0000
# 3 18.8267 18.8268 64.1223 0.0000 0.0000 0.0000
# 4 0.0000 0.0000 0.0000 28.9998 0.0000 0.0000
# 5 0.0000 0.0000 0.0000 0.0000 29.0001 0.0000
# 6 0.0000 0.0000 0.0000 0.0000 0.0000 35.6497
#
#
#
# Elastic Compliance Matrix: (Units=1/GPa)
#
#
# Indices 1 2 3 4 5 6 
#
# 1 0.012045 -0.004505 -0.002214 0.000000 0.000000 0.000000
# 2 -0.004505 0.012045 -0.002214 0.000000 0.000000 0.000000
# 3 -0.002214 -0.002214 0.016895 0.000000 0.000000 0.000000
# 4 0.000000 0.000000 0.000000 0.034483 0.000000 0.000000
# 5 0.000000 0.000000 0.000000 0.000000 0.034483 0.000000
# 6 0.000000 0.000000 0.000000 0.000000 0.000000 0.028051
#
#
# Mechanical properties :
#
#
# Convention : Reuss Voigt Hill
#
# Bulk Modulus (GPa) = 43.25341 47.42296 45.33819
# Shear Modulus (GPa) = 30.56728 31.32626 30.94677
#
# Velocity S-wave (km/s) = 3.75474 3.80107 3.77797
# Velocity P-wave (km/s) = 6.22467 6.41376 6.31992
#
# Compressibility (1/GPa) = 0.02311956
#
# Stress axis : x y z
#
# Youngs Moduli (GPa) = 83.02208 83.02191 59.18876
#
# Poissons Ratio (x) = 0.37405 0.13102
# Poissons Ratio (y) = 0.37405 0.13103
# Poissons Ratio (z) = 0.18378 0.18379
#
# Static dielectric constant tensor:
#      x y z
#    x 4.119710 0.000000 0.000000 
#    y 0.000000 4.119710 0.000000 
#    z 0.000000 0.000000 3.709750 
# 
# 
# High freq. dielectric constant tensor:
#      x y z
#    x 1.852940 0.000000 0.000000 
#    y 0.000000 1.852940 0.000000 
#    z 0.000000 0.000000 1.845800 
# 
# From -- ./inp_files/3392.got.cif
#   From: 2010.03.12/outbox.cif.g09.slc.cpg/sg118_2_cif.got.tgz:3392.got - 2010.04.14 02:21:17.
