data_PCOD8310807
_publ_section_title
;
Structure prediction by ZEFSAII (Michael W. Deem and Ramdas Pophale) SiO2 
 PCOD8310807
Probable space group: I -4 M 2
;
_chemical_formula_sum "Si O2"
_cell_formula_units_Z 88
_cell_length_a 17.490070
_cell_length_b 17.490070
_cell_length_c 16.349717
_cell_angle_alpha 90.000000
_cell_angle_beta 90.000000
_cell_angle_gamma 90.000000
_cell_volume 5001.420099
_symmetry_space_group_name_H-M "I -4 M 2"
_symmetry_group_IT_number 119
_symmetry_cell_setting 'tetragonal'
loop_
_space_group_symop_operation_xyz
x,y,z
y,-x,-z
-x,-y,z
-y,x,-z
y,x,-z
-y,-x,-z
-x,y,z
x,-y,z
1/2+x,1/2+y,1/2+z
1/2+y,1/2-x,1/2-z
1/2-x,1/2-y,1/2+z
1/2-y,1/2+x,1/2-z
1/2+y,1/2+x,1/2-z
1/2-y,1/2-x,1/2-z
1/2-x,1/2+y,1/2+z
1/2+x,1/2-y,1/2+z
loop_
_atom_site_type_symbol
_atom_site_label
_atom_site_fract_x
_atom_site_fract_y
_atom_site_fract_z
Si Si1 0.585281 0.912897 0.479806
Si Si2 0.408716 0.685689 0.846629
Si Si3 0.695958 0.795678 0.937449
Si Si4 0.915491 0.326438 0.816015
Si Si5 0.692643 0.697116 0.300450
Si Si6 0.587689 0.587689 0.000000
O O1 0.500000 0.909788 0.518303
O O2 0.636692 0.847065 0.517660
O O3 0.581258 0.889804 0.385901
O O4 0.617849 0.000000 0.488479
O O5 0.500000 0.693518 0.837261
O O6 0.370725 0.762759 0.879397
O O7 0.372706 0.664753 0.757860
O O8 0.383282 0.624391 0.915457
O O9 0.761370 0.832803 0.880033
O O10 0.733180 0.733180 0.000000
O O11 0.860391 0.360391 0.750000
O O12 0.879845 0.243344 0.837491
O O13 0.000000 0.311402 0.781619
O O14 0.746627 0.753374 0.250000
O O15 0.607103 0.500000 0.988642
#
# Coordination Sequence:
#
# PCOD8310807 Si02
#       6
#    16  16  16  16  16   8
#     4  10  21  35  53  80 109 139 180 229 281 336
#     4  10  20  34  53  78 106 140 182 223 272 329
#     4  11  19  35  55  78 106 143 185 228 275 328
#     4  10  19  32  49  74 107 142 178 221 276 335
#     4   9  20  34  50  75 107 139 181 228 270 329
#     4   9  18  32  50  76 110 140 174 224 275 324
#
# _framework density 17.595002000000001
#
# number of rings (size 3 to 8) (size 9 to 14) (size 15 to 20)
#    0.000    2.091    2.727    1.091    0.000    2.364 
#    0.000    0.000    0.000    0.000    0.000    8.909 
#    0.000    0.364    0.000    0.000    0.000    0.000 
#
# Total GULP energy -545087.109897 kJ/mol
# GULP energy per Si atom -12388.343407 kJ/mol
# Density = 1.755496 g / cm^3
# Si number density = 17.595002 Si / 1000 Ang^3
#
#
#
# Elastic Constant Matrix: (Units=GPa)
#
#
# Indices 1 2 3 4 5 6 
#
# 1 46.4855 96.9863 41.2284 0.0000 0.0000 0.0000
# 2 96.9863 46.4830 41.2275 0.0000 0.0000 0.0000
# 3 41.2284 41.2275 73.2142 0.0000 0.0000 0.0000
# 4 0.0000 0.0000 0.0000 15.3035 0.0000 0.0000
# 5 0.0000 0.0000 0.0000 0.0000 15.3043 0.0000
# 6 0.0000 0.0000 0.0000 0.0000 0.0000 27.9538
#
#
#
# Elastic Compliance Matrix: (Units=1/GPa)
#
#
# Indices 1 2 3 4 5 6 
#
# 1 -0.004748 0.015053 -0.005803 0.000000 0.000000 0.000000
# 2 0.015053 -0.004748 -0.005803 0.000000 0.000000 0.000000
# 3 -0.005803 -0.005803 0.020194 0.000000 0.000000 0.000000
# 4 0.000000 0.000000 0.000000 0.065345 0.000000 0.000000
# 5 0.000000 0.000000 0.000000 0.000000 0.065341 0.000000
# 6 0.000000 0.000000 0.000000 0.000000 0.000000 0.035773
#
#
# Mechanical properties :
#
#
# Convention : Reuss Voigt Hill
#
# Bulk Modulus (GPa) = 56.84260 58.34080 57.59170
# Shear Modulus (GPa) = 28.38865 10.82836 19.60851
#
# Velocity S-wave (km/s) = 4.02113 2.48346 3.34194
# Velocity P-wave (km/s) = 7.34409 6.43840 6.90611
#
# Compressibility (1/GPa) = 0.01759244
#
# Stress axis : x y z
#
# Youngs Moduli (GPa) = -210.62191 -210.60846 49.51954
#
# Poissons Ratio (x) = 3.17033 0.28736
# Poissons Ratio (y) = 3.17053 0.28736
# Poissons Ratio (z) = -1.22223 -1.22217
#
# Static dielectric constant tensor:
#      x y z
#    x 3.329800 0.000000 0.000000 
#    y 0.000000 3.329790 0.000000 
#    z 0.000000 0.000000 3.299150 
# 
# 
# High freq. dielectric constant tensor:
#      x y z
#    x 1.674180 0.000000 0.000000 
#    y 0.000000 1.674180 0.000000 
#    z 0.000000 0.000000 1.672200 
# 
# From -- ./inp_files/5379.got.cif
#   From: 2010.03.12/outbox.cif.g09.slc.cpg/sg119_3_cif.got.tgz:5379.got - 2010.04.14 02:25:26.
