data_PCOD8310328
_publ_section_title
;
Structure prediction by ZEFSAII (Michael W. Deem and Ramdas Pophale) SiO2 
 PCOD8310328
Probable space group: P -4 B 2
;
_chemical_formula_sum "Si O2"
_cell_formula_units_Z 58
_cell_length_a 17.859687
_cell_length_b 17.859687
_cell_length_c 8.790146
_cell_angle_alpha 90.000000
_cell_angle_beta 90.000000
_cell_angle_gamma 90.000000
_cell_volume 2803.778979
_symmetry_space_group_name_H-M "P -4 B 2"
_symmetry_group_IT_number 117
_symmetry_cell_setting 'tetragonal'
loop_
_space_group_symop_operation_xyz
x,y,z
y,-x,-z
-x,-y,z
-y,x,-z
1/2+y,1/2+x,-z
1/2-y,1/2-x,-z
1/2-x,1/2+y,z
1/2+x,1/2-y,z
loop_
_atom_site_type_symbol
_atom_site_label
_atom_site_fract_x
_atom_site_fract_y
_atom_site_fract_z
Si Si1 0.641461 0.114878 0.172433
Si Si2 0.368945 0.420954 0.858520
Si Si3 0.062090 0.799167 0.675799
Si Si4 0.441222 0.310295 0.328241
Si Si5 0.500000 0.500000 0.000000
Si Si6 0.536106 0.866058 0.688058
Si Si7 0.493942 0.147951 0.346675
Si Si8 0.600445 0.307115 0.815346
O O1 0.575879 0.153985 0.270296
O O2 0.725879 0.136206 0.226387
O O3 0.633060 0.025411 0.180402
O O4 0.637394 0.137394 0.000000
O O5 0.374830 0.341352 0.774053
O O6 0.342653 0.482844 0.740163
O O7 0.454429 0.440090 0.902137
O O8 0.314115 0.413529 0.002893
O O9 0.067131 0.830790 0.504883
O O10 0.083382 0.711164 0.692380
O O11 0.977915 0.815665 0.729659
O O12 0.445843 0.221350 0.311973
O O13 0.370554 0.341596 0.236066
O O14 0.493613 0.867231 0.525347
O O15 0.583174 0.940712 0.718939
#
# Coordination Sequence:
#
# PCOD8310328 Si02
#       8
#     8   8   8   8   2   8   8   8
#     4  11  23  39  62  91 125 161 209 257 300 373
#     4  12  20  37  60  87 126 170 206 252 319 375
#     4  10  21  38  64  94 120 160 214 261 307 366
#     4  11  22  38  63  90 127 161 209 263 303 374
#     4  12  20  32  62  80 112 176 214 236 304 384
#     4   9  21  41  67  89 124 158 212 263 309 367
#     4  10  21  42  64  91 120 169 205 256 320 364
#     4  11  22  40  58  90 129 162 203 256 312 373
#
# _framework density 20.686367000000001
#
# number of rings (size 3 to 8) (size 9 to 14) (size 15 to 20)
#    0.000    1.379    2.759    2.483    0.000    3.310 
#    4.966    2.759   12.138    0.000    0.000    0.000 
#    0.000    0.000    0.000    0.000    0.000    0.000 
#
# Total GULP energy -719059.595918 kJ/mol
# GULP energy per Si atom -12397.579240 kJ/mol
# Density = 2.063928 g / cm^3
# Si number density = 20.686367 Si / 1000 Ang^3
#
#
#
# Elastic Constant Matrix: (Units=GPa)
#
#
# Indices 1 2 3 4 5 6 
#
# 1 89.8858 31.3656 19.1521 0.0000 0.0000 0.0000
# 2 31.3656 89.8858 19.1521 0.0000 0.0000 0.0000
# 3 19.1521 19.1521 67.6607 0.0000 0.0000 0.0000
# 4 0.0000 0.0000 0.0000 27.4138 0.0000 0.0000
# 5 0.0000 0.0000 0.0000 0.0000 27.4138 0.0000
# 6 0.0000 0.0000 0.0000 0.0000 0.0000 16.0497
#
#
#
# Elastic Compliance Matrix: (Units=1/GPa)
#
#
# Indices 1 2 3 4 5 6 
#
# 1 0.013073 -0.004015 -0.002564 0.000000 0.000000 0.000000
# 2 -0.004015 0.013073 -0.002564 0.000000 0.000000 0.000000
# 3 -0.002564 -0.002564 0.016231 0.000000 0.000000 0.000000
# 4 0.000000 0.000000 0.000000 0.036478 0.000000 0.000000
# 5 0.000000 0.000000 0.000000 0.000000 0.036478 0.000000
# 6 0.000000 0.000000 0.000000 0.000000 0.000000 0.062307
#
#
# Mechanical properties :
#
#
# Convention : Reuss Voigt Hill
#
# Bulk Modulus (GPa) = 41.51016 42.97468 42.24242
# Shear Modulus (GPa) = 24.51522 26.02628 25.27075
#
# Velocity S-wave (km/s) = 3.44625 3.55087 3.49895
# Velocity P-wave (km/s) = 5.99546 6.13442 6.06533
#
# Compressibility (1/GPa) = 0.02409049
#
# Stress axis : x y z
#
# Youngs Moduli (GPa) = 76.49537 76.49537 61.61035
#
# Poissons Ratio (x) = 0.30716 0.15795
# Poissons Ratio (y) = 0.30716 0.15795
# Poissons Ratio (z) = 0.19612 0.19612
#
# Static dielectric constant tensor:
#      x y z
#    x 3.823900 0.000000 0.000000 
#    y 0.000000 3.823900 0.000000 
#    z 0.000000 0.000000 3.827720 
# 
# 
# High freq. dielectric constant tensor:
#      x y z
#    x 1.809290 0.000000 0.000000 
#    y 0.000000 1.809290 0.000000 
#    z 0.000000 0.000000 1.809970 
# 
# From -- ./inp_files/2055.got.cif
#   From: 2010.03.12/outbox.cif.g09.slc.cpg/sg117_2_cif.got.tgz:2055.got - 2010.04.14 02:19:01.
