data_PCOD8310979
_publ_section_title
;
Structure prediction by ZEFSAII (Michael W. Deem and Ramdas Pophale) SiO2 
 PCOD8310979
Probable space group: I -4 M 2
;
_chemical_formula_sum "Si O2"
_cell_formula_units_Z 80
_cell_length_a 13.096806
_cell_length_b 13.096806
_cell_length_c 25.181202
_cell_angle_alpha 90.000000
_cell_angle_beta 90.000000
_cell_angle_gamma 90.000000
_cell_volume 4319.239099
_symmetry_space_group_name_H-M "I -4 M 2"
_symmetry_group_IT_number 119
_symmetry_cell_setting 'tetragonal'
loop_
_space_group_symop_operation_xyz
x,y,z
y,-x,-z
-x,-y,z
-y,x,-z
y,x,-z
-y,-x,-z
-x,y,z
x,-y,z
1/2+x,1/2+y,1/2+z
1/2+y,1/2-x,1/2-z
1/2-x,1/2-y,1/2+z
1/2-y,1/2+x,1/2-z
1/2+y,1/2+x,1/2-z
1/2-y,1/2-x,1/2-z
1/2-x,1/2+y,1/2+z
1/2+x,1/2-y,1/2+z
loop_
_atom_site_type_symbol
_atom_site_label
_atom_site_fract_x
_atom_site_fract_y
_atom_site_fract_z
Si Si1 0.807402 0.210699 0.892050
Si Si2 0.382705 0.885064 0.463639
Si Si3 0.879835 0.000000 0.781097
Si Si4 0.000000 0.880446 0.099715
Si Si5 0.113964 0.382484 0.413377
Si Si6 0.881487 0.776822 0.774883
O O1 0.815210 0.308888 0.929090
O O2 0.687207 0.192654 0.879715
O O3 0.872161 0.226465 0.838665
O O4 0.841363 0.107663 0.924997
O O5 0.500000 0.854334 0.455749
O O6 0.351881 0.878386 0.524962
O O7 0.363244 0.000000 0.442861
O O8 0.835723 0.000000 0.840380
O O9 0.848440 0.891299 0.753607
O O10 0.000000 0.000000 0.786777
O O11 0.000000 0.000000 0.094303
O O12 0.147247 0.500000 0.405507
O O13 0.000000 0.365715 0.391841
O O14 0.809168 0.690833 0.750000
O O15 0.000000 0.753667 0.760285
#
# Coordination Sequence:
#
# PCOD8310979 Si02
#       6
#    16  16   8   8  16  16
#     4  11  18  32  54  78 105 140 180 222 267 320
#     4   9  18  31  49  74 108 146 178 212 259 319
#     4   7  14  32  52  68  98 138 170 200 258 324
#     4   9  16  26  47  77 103 133 164 212 270 324
#     4   9  18  33  51  75 107 142 180 218 261 315
#     4  10  21  36  55  80 108 139 173 220 272 325
#
# _framework density 18.521778999999999
#
# number of rings (size 3 to 8) (size 9 to 14) (size 15 to 20)
#    0.000    2.600    1.000    4.800    0.000    1.000 
#    1.800    0.000    0.000    0.900    0.000    2.800 
#    0.000    0.000    0.000    0.000    0.000    0.000 
#
# Total GULP energy -495545.055956 kJ/mol
# GULP energy per Si atom -12388.626399 kJ/mol
# Density = 1.847962 g / cm^3
# Si number density = 18.521779 Si / 1000 Ang^3
#
#
#
# Elastic Constant Matrix: (Units=GPa)
#
#
# Indices 1 2 3 4 5 6 
#
# 1 106.2510 50.1928 16.0400 0.0000 0.0000 0.0000
# 2 50.1928 106.2513 16.0403 0.0000 0.0000 0.0000
# 3 16.0400 16.0403 17.1055 0.0000 0.0000 0.0000
# 4 0.0000 0.0000 0.0000 23.7261 0.0000 0.0000
# 5 0.0000 0.0000 0.0000 0.0000 23.7261 0.0000
# 6 0.0000 0.0000 0.0000 0.0000 0.0000 35.4319
#
#
#
# Elastic Compliance Matrix: (Units=1/GPa)
#
#
# Indices 1 2 3 4 5 6 
#
# 1 0.012876 -0.004962 -0.007421 0.000000 0.000000 0.000000
# 2 -0.004962 0.012876 -0.007421 0.000000 0.000000 0.000000
# 3 -0.007421 -0.007421 0.072378 0.000000 0.000000 0.000000
# 4 0.000000 0.000000 0.000000 0.042148 0.000000 0.000000
# 5 0.000000 0.000000 0.000000 0.000000 0.042148 0.000000
# 6 0.000000 0.000000 0.000000 0.000000 0.000000 0.028223
#
#
# Mechanical properties :
#
#
# Convention : Reuss Voigt Hill
#
# Bulk Modulus (GPa) = 17.08757 43.79488 30.44122
# Shear Modulus (GPa) = 18.53467 26.39913 22.46690
#
# Velocity S-wave (km/s) = 3.16681 3.77941 3.48659
# Velocity P-wave (km/s) = 4.75576 6.53771 5.71660
#
# Compressibility (1/GPa) = 0.05852209
#
# Stress axis : x y z
#
# Youngs Moduli (GPa) = 77.66305 77.66269 13.81633
#
# Poissons Ratio (x) = 0.38539 0.10253
# Poissons Ratio (y) = 0.38539 0.10253
# Poissons Ratio (z) = 0.57631 0.57634
#
# Static dielectric constant tensor:
#      x y z
#    x 3.517950 0.000000 0.000000 
#    y 0.000000 3.517950 0.000000 
#    z 0.000000 0.000000 2.915680 
# 
# 
# High freq. dielectric constant tensor:
#      x y z
#    x 1.720440 0.000000 0.000000 
#    y 0.000000 1.720440 0.000000 
#    z 0.000000 0.000000 1.666540 
# 
# From -- ./inp_files/10157.got.cif
#   From: 2010.03.12/outbox.cif.g09.slc.cpg/sg119_6_cif.got.tgz:10157.got - 2010.04.14 02:25:26.
