data_PCOD8310803
_publ_section_title
;
Structure prediction by ZEFSAII (Michael W. Deem and Ramdas Pophale) SiO2 
 PCOD8310803
Probable space group: I -4 M 2
;
_chemical_formula_sum "Si O2"
_cell_formula_units_Z 96
_cell_length_a 23.654807
_cell_length_b 23.654807
_cell_length_c 11.258421
_cell_angle_alpha 90.000000
_cell_angle_beta 90.000000
_cell_angle_gamma 90.000000
_cell_volume 6299.648279
_symmetry_space_group_name_H-M "I -4 M 2"
_symmetry_group_IT_number 119
_symmetry_cell_setting 'tetragonal'
loop_
_space_group_symop_operation_xyz
x,y,z
y,-x,-z
-x,-y,z
-y,x,-z
y,x,-z
-y,-x,-z
-x,y,z
x,-y,z
1/2+x,1/2+y,1/2+z
1/2+y,1/2-x,1/2-z
1/2-x,1/2-y,1/2+z
1/2-y,1/2+x,1/2-z
1/2+y,1/2+x,1/2-z
1/2-y,1/2-x,1/2-z
1/2-x,1/2+y,1/2+z
1/2+x,1/2-y,1/2+z
loop_
_atom_site_type_symbol
_atom_site_label
_atom_site_fract_x
_atom_site_fract_y
_atom_site_fract_z
Si Si1 0.151614 0.435314 0.694247
Si Si2 0.743014 0.351250 0.004552
Si Si3 0.360841 0.199067 0.495758
Si Si4 0.820677 0.862424 0.112043
Si Si5 0.340896 0.247822 0.734967
Si Si6 0.773789 0.936119 0.304369
O O1 0.131091 0.500000 0.686351
O O2 0.101258 0.398743 0.750000
O O3 0.166849 0.414170 0.561257
O O4 0.208060 0.429729 0.772028
O O5 0.750829 0.373993 0.139669
O O6 0.704206 0.295795 0.000000
O O7 0.805547 0.336270 0.959875
O O8 0.715223 0.399030 0.921685
O O9 0.348972 0.260426 0.443594
O O10 0.371797 0.207385 0.637434
O O11 0.838089 0.812380 0.198248
O O12 0.815073 0.917981 0.194678
O O13 0.865459 0.865459 0.000000
O O14 0.277416 0.222585 0.750000
O O15 0.789899 0.000000 0.335224
#
# Coordination Sequence:
#
# PCOD8310803 Si02
#       6
#    16  16  16  16  16  16
#     4  10  19  32  48  64  91 129 168 210 245 278
#     4  11  17  26  46  68  95 128 157 195 241 300
#     4   9  17  27  41  66  96 117 156 200 243 287
#     4   9  16  26  42  64  92 121 154 188 230 283
#     4   9  16  24  40  69  92 117 152 195 236 287
#     4  10  20  30  43  67 101 131 155 191 248 294
#
# _framework density 15.238946
#
# number of rings (size 3 to 8) (size 9 to 14) (size 15 to 20)
#    0.000    2.333    3.333    2.500    0.000    0.167 
#    0.000    0.833    0.000    1.000    0.000    0.000 
#    0.000    2.000    0.000    0.000    0.000    0.000 
#
# Total GULP energy -594712.177051 kJ/mol
# GULP energy per Si atom -12389.837022 kJ/mol
# Density = 1.520426 g / cm^3
# Si number density = 15.238946 Si / 1000 Ang^3
#
#
#
# Elastic Constant Matrix: (Units=GPa)
#
#
# Indices 1 2 3 4 5 6 
#
# 1 55.8843 28.1596 33.4081 0.0000 0.0000 0.0000
# 2 28.1596 55.8878 33.4077 0.0000 0.0000 0.0000
# 3 33.4081 33.4077 109.3101 0.0000 0.0000 0.0000
# 4 0.0000 0.0000 0.0000 17.5382 0.0000 0.0000
# 5 0.0000 0.0000 0.0000 0.0000 17.5379 0.0000
# 6 0.0000 0.0000 0.0000 0.0000 0.0000 13.3947
#
#
#
# Elastic Compliance Matrix: (Units=1/GPa)
#
#
# Indices 1 2 3 4 5 6 
#
# 1 0.025893 -0.010175 -0.004804 0.000000 0.000000 0.000000
# 2 -0.010175 0.025891 -0.004803 0.000000 0.000000 0.000000
# 3 -0.004804 -0.004803 0.012084 0.000000 0.000000 0.000000
# 4 0.000000 0.000000 0.000000 0.057018 0.000000 0.000000
# 5 0.000000 0.000000 0.000000 0.000000 0.057019 0.000000
# 6 0.000000 0.000000 0.000000 0.000000 0.000000 0.074656
#
#
# Mechanical properties :
#
#
# Convention : Reuss Voigt Hill
#
# Bulk Modulus (GPa) = 41.14467 45.67032 43.40749
# Shear Modulus (GPa) = 16.65405 18.10128 17.37767
#
# Velocity S-wave (km/s) = 3.30943 3.45023 3.38056
# Velocity P-wave (km/s) = 6.45456 6.77545 6.61695
#
# Compressibility (1/GPa) = 0.02430449
#
# Stress axis : x y z
#
# Youngs Moduli (GPa) = 38.62058 38.62376 82.75096
#
# Poissons Ratio (x) = 0.39299 0.39753
# Poissons Ratio (y) = 0.39296 0.39747
# Poissons Ratio (z) = 0.18553 0.18552
#
# Static dielectric constant tensor:
#      x y z
#    x 2.672130 0.000000 0.000000 
#    y 0.000000 2.672130 0.000000 
#    z 0.000000 0.000000 3.318560 
# 
# 
# High freq. dielectric constant tensor:
#      x y z
#    x 1.547150 0.000000 0.000000 
#    y 0.000000 1.547150 0.000000 
#    z 0.000000 0.000000 1.601680 
# 
# From -- ./inp_files/4168.got.cif
#   From: 2010.03.12/outbox.cif.g09.slc.cpg/sg119_3_cif.got.tgz:4168.got - 2010.04.14 02:25:26.
