data_PCOD8310093
_publ_section_title
;
Structure prediction by ZEFSAII (Michael W. Deem and Ramdas Pophale) SiO2 
 PCOD8310093
Probable space group: P -4 C 2
;
_chemical_formula_sum "Si O2"
_cell_formula_units_Z 64
_cell_length_a 11.309101
_cell_length_b 11.309101
_cell_length_c 24.311155
_cell_angle_alpha 90.000000
_cell_angle_beta 90.000000
_cell_angle_gamma 90.000000
_cell_volume 3109.293777
_symmetry_space_group_name_H-M "P -4 C 2"
_symmetry_group_IT_number 116
_symmetry_cell_setting 'tetragonal'
loop_
_space_group_symop_operation_xyz
x,y,z
y,-x,-z
-x,-y,z
-y,x,-z
y,x,1/2-z
-y,-x,1/2-z
-x,y,1/2+z
x,-y,1/2+z
loop_
_atom_site_type_symbol
_atom_site_label
_atom_site_fract_x
_atom_site_fract_y
_atom_site_fract_z
Si Si1 0.089721 0.404743 0.949394
Si Si2 0.014211 0.814654 0.515408
Si Si3 0.146396 0.694415 0.334749
Si Si4 0.103842 0.725785 0.623467
Si Si5 0.140382 0.510340 0.557956
Si Si6 0.863425 0.508658 0.257061
Si Si7 0.884452 0.762227 0.295231
Si Si8 0.642334 0.861490 0.844904
O O1 0.013865 0.311000 0.985016
O O2 0.152927 0.341307 0.898920
O O3 0.000000 0.500000 0.923162
O O4 0.179005 0.472267 0.993445
O O5 0.028141 0.803434 0.580714
O O6 0.889348 0.876728 0.507798
O O7 0.194653 0.582900 0.300291
O O8 0.238746 0.799234 0.325424
O O9 0.019646 0.743567 0.313967
O O10 0.179879 0.626694 0.591546
O O11 0.199223 0.808878 0.652187
O O12 0.003660 0.664757 0.662470
O O13 0.181520 0.394720 0.592876
O O14 0.000000 0.500000 0.557142
O O15 0.825138 0.643701 0.268948
O O16 0.829893 0.467480 0.195357
O O17 0.000000 0.500000 0.270063
O O18 0.867416 0.867416 0.250000
#
# Coordination Sequence:
#
# PCOD8310093 Si02
#       8
#     8   8   8   8   8   8   8   8
#     4  10  19  34  53  79 116 153 196 237 276 340
#     4  10  20  33  51  81 119 153 181 225 292 357
#     4  11  23  36  56  85 118 153 189 240 298 347
#     4  10  19  33  56  83 111 146 189 233 284 347
#     4   8  17  33  57  82 108 151 197 234 278 343
#     4  10  21  38  56  77 109 152 198 235 275 339
#     4  11  22  37  58  85 115 151 192 239 293 353
#     4  11  20  37  60  85 115 150 192 241 294 347
#
# _framework density 20.583452999999999
#
# number of rings (size 3 to 8) (size 9 to 14) (size 15 to 20)
#    0.000    1.875    0.000    7.125    0.000    1.500 
#    0.000    3.125    0.000    5.250    0.000    0.000 
#    0.000    4.500    0.000    0.000    0.000    0.000 
#
# Total GULP energy -793021.441136 kJ/mol
# GULP energy per Si atom -12390.960018 kJ/mol
# Density = 2.053660 g / cm^3
# Si number density = 20.583453 Si / 1000 Ang^3
#
#
#
# Elastic Constant Matrix: (Units=GPa)
#
#
# Indices 1 2 3 4 5 6 
#
# 1 72.6413 28.8163 27.7596 0.0000 0.0000 0.0000
# 2 28.8163 72.6413 27.7596 0.0000 0.0000 0.0000
# 3 27.7596 27.7596 108.8791 0.0000 0.0000 0.0000
# 4 0.0000 0.0000 0.0000 31.8047 0.0000 0.0000
# 5 0.0000 0.0000 0.0000 0.0000 31.8047 0.0000
# 6 0.0000 0.0000 0.0000 0.0000 0.0000 13.0005
#
#
#
# Elastic Compliance Matrix: (Units=1/GPa)
#
#
# Indices 1 2 3 4 5 6 
#
# 1 0.017136 -0.005682 -0.002920 0.000000 0.000000 0.000000
# 2 -0.005682 0.017136 -0.002920 0.000000 0.000000 0.000000
# 3 -0.002920 -0.002920 0.010674 0.000000 0.000000 0.000000
# 4 0.000000 0.000000 0.000000 0.031442 0.000000 0.000000
# 5 0.000000 0.000000 0.000000 0.000000 0.031442 0.000000
# 6 0.000000 0.000000 0.000000 0.000000 0.000000 0.076920
#
#
# Mechanical properties :
#
#
# Convention : Reuss Voigt Hill
#
# Bulk Modulus (GPa) = 45.66021 46.98143 46.32082
# Shear Modulus (GPa) = 23.24551 26.64372 24.94462
#
# Velocity S-wave (km/s) = 3.36420 3.60171 3.48498
# Velocity P-wave (km/s) = 6.10914 6.33805 6.22465
#
# Compressibility (1/GPa) = 0.02190091
#
# Stress axis : x y z
#
# Youngs Moduli (GPa) = 58.35591 58.35591 93.68857
#
# Poissons Ratio (x) = 0.33157 0.27361
# Poissons Ratio (y) = 0.33157 0.27361
# Poissons Ratio (z) = 0.17042 0.17042
#
# Static dielectric constant tensor:
#      x y z
#    x 3.642680 0.000000 0.000000 
#    y 0.000000 3.642680 0.000000 
#    z 0.000000 0.000000 4.193830 
# 
# 
# High freq. dielectric constant tensor:
#      x y z
#    x 1.776640 0.000000 0.000000 
#    y 0.000000 1.776640 0.000000 
#    z 0.000000 0.000000 1.828590 
# 
# From -- ./inp_files/4659.got.cif
#   From: 2010.03.12/outbox.cif.g09.slc.cpg/sg116_3_cif.got.tgz:4659.got - 2010.04.14 02:15:44.
