data_PCOD8310917
_publ_section_title
;
Structure prediction by ZEFSAII (Michael W. Deem and Ramdas Pophale) SiO2 
 PCOD8310917
Probable space group: I -4 M 2
;
_chemical_formula_sum "Si O2"
_cell_formula_units_Z 32
_cell_length_a 14.693028
_cell_length_b 14.693028
_cell_length_c 7.596977
_cell_angle_alpha 90.000000
_cell_angle_beta 90.000000
_cell_angle_gamma 90.000000
_cell_volume 1640.073925
_symmetry_space_group_name_H-M "I -4 M 2"
_symmetry_group_IT_number 119
_symmetry_cell_setting 'tetragonal'
loop_
_space_group_symop_operation_xyz
x,y,z
y,-x,-z
-x,-y,z
-y,x,-z
y,x,-z
-y,-x,-z
-x,y,z
x,-y,z
1/2+x,1/2+y,1/2+z
1/2+y,1/2-x,1/2-z
1/2-x,1/2-y,1/2+z
1/2-y,1/2+x,1/2-z
1/2+y,1/2+x,1/2-z
1/2-y,1/2-x,1/2-z
1/2-x,1/2+y,1/2+z
1/2+x,1/2-y,1/2+z
loop_
_atom_site_type_symbol
_atom_site_label
_atom_site_fract_x
_atom_site_fract_y
_atom_site_fract_z
Si Si1 0.795068 0.601483 0.605347
Si Si2 0.099204 0.900797 0.000000
Si Si3 0.394980 0.105021 0.750000
O O1 0.832140 0.500000 0.641813
O O2 0.831166 0.668835 0.750000
O O3 0.685700 0.604971 0.628448
O O4 0.829037 0.632065 0.411710
O O5 0.000000 0.895190 0.099237
O O6 0.500000 0.120767 0.806371
#
# Coordination Sequence:
#
# PCOD8310917 Si02
#       3
#    16   8   8
#     4  10  20  34  57  84 110 145 184 226 276 328
#     4   9  20  38  56  78 112 151 188 226 268 319
#     4   9  18  32  52  84 120 144 171 222 284 336
#
# _framework density 19.511316999999998
#
# number of rings (size 3 to 8) (size 9 to 14) (size 15 to 20)
#    0.000    2.500    0.000    1.500    3.500    2.500 
#    0.000    0.000    0.000    3.000    0.000   14.000 
#    0.000    0.000    0.000    0.000    0.000    0.000 
#
# Total GULP energy -198215.156061 kJ/mol
# GULP energy per Si atom -12388.447254 kJ/mol
# Density = 1.946691 g / cm^3
# Si number density = 19.511317 Si / 1000 Ang^3
#
#
#
# Elastic Constant Matrix: (Units=GPa)
#
#
# Indices 1 2 3 4 5 6 
#
# 1 128.3019 66.2097 64.2662 0.0000 0.0000 0.0000
# 2 66.2097 128.3022 64.2615 0.0000 0.0000 0.0000
# 3 64.2662 64.2615 93.7127 0.0000 0.0000 0.0000
# 4 0.0000 0.0000 0.0000 14.8140 0.0000 0.0000
# 5 0.0000 0.0000 0.0000 0.0000 14.8153 0.0000
# 6 0.0000 0.0000 0.0000 0.0000 0.0000 25.9415
#
#
#
# Elastic Compliance Matrix: (Units=1/GPa)
#
#
# Indices 1 2 3 4 5 6 
#
# 1 0.012753 -0.003352 -0.006447 0.000000 0.000000 0.000000
# 2 -0.003352 0.012752 -0.006446 0.000000 0.000000 0.000000
# 3 -0.006447 -0.006446 0.019513 0.000000 0.000000 0.000000
# 4 0.000000 0.000000 0.000000 0.067504 0.000000 0.000000
# 5 0.000000 0.000000 0.000000 0.000000 0.067498 0.000000
# 6 0.000000 0.000000 0.000000 0.000000 0.000000 0.038548
#
#
# Mechanical properties :
#
#
# Convention : Reuss Voigt Hill
#
# Bulk Modulus (GPa) = 79.82381 82.19907 81.01144
# Shear Modulus (GPa) = 19.58982 21.48613 20.53797
#
# Velocity S-wave (km/s) = 3.17207 3.32205 3.24793
# Velocity P-wave (km/s) = 7.37675 7.54554 7.46162
#
# Compressibility (1/GPa) = 0.01252759
#
# Stress axis : x y z
#
# Youngs Moduli (GPa) = 78.41008 78.41631 51.24897
#
# Poissons Ratio (x) = 0.26286 0.33042
# Poissons Ratio (y) = 0.26284 0.33035
# Poissons Ratio (z) = 0.50554 0.50547
#
# Static dielectric constant tensor:
#      x y z
#    x 3.873180 0.000000 0.000000 
#    y 0.000000 3.873220 0.000000 
#    z 0.000000 0.000000 3.051530 
# 
# 
# High freq. dielectric constant tensor:
#      x y z
#    x 1.778170 0.000000 0.000000 
#    y 0.000000 1.778170 0.000000 
#    z 0.000000 0.000000 1.699280 
# 
# From -- ./inp_files/1363.got.cif
#   From: 2010.03.12/outbox.cif.g09.slc.cpg/sg119_1_cif.got.tgz:1363.got - 2010.04.14 02:25:26.
