data_PCOD8310206
_publ_section_title
;
Structure prediction by ZEFSAII (Michael W. Deem and Ramdas Pophale) SiO2 
 PCOD8310206
Probable space group: P -4 C 2
;
_chemical_formula_sum "Si O2"
_cell_formula_units_Z 40
_cell_length_a 14.714888
_cell_length_b 14.714888
_cell_length_c 8.663262
_cell_angle_alpha 90.000000
_cell_angle_beta 90.000000
_cell_angle_gamma 90.000000
_cell_volume 1875.838178
_symmetry_space_group_name_H-M "P -4 C 2"
_symmetry_group_IT_number 116
_symmetry_cell_setting 'tetragonal'
loop_
_space_group_symop_operation_xyz
x,y,z
y,-x,-z
-x,-y,z
-y,x,-z
y,x,1/2-z
-y,-x,1/2-z
-x,y,1/2+z
x,-y,1/2+z
loop_
_atom_site_type_symbol
_atom_site_label
_atom_site_fract_x
_atom_site_fract_y
_atom_site_fract_z
Si Si1 0.216370 0.114468 0.025791
Si Si2 0.184538 0.592817 0.979942
Si Si3 0.912552 0.556682 0.172993
Si Si4 0.566060 0.613637 0.927650
Si Si5 0.934879 0.240925 0.621468
O O1 0.224319 0.081743 0.200491
O O2 0.144223 0.196481 0.015585
O O3 0.312634 0.146017 0.957205
O O4 0.189014 0.027857 0.922956
O O5 0.138933 0.505348 0.052673
O O6 0.290012 0.601182 0.016643
O O7 0.162448 0.582943 0.799617
O O8 0.942315 0.650430 0.087600
O O9 0.000000 0.500000 0.237363
O O10 0.592335 0.592335 0.750000
O O11 0.610776 0.542428 0.047496
#
# Coordination Sequence:
#
# PCOD8310206 Si02
#       5
#     8   8   8   8   8
#     4  10  23  44  64  94 129 168 217 273 330 401
#     4  11  24  40  65  98 130 173 226 274 333 398
#     4  11  22  40  66  96 134 173 217 281 338 397
#     4  11  24  44  65  93 135 179 226 274 334 403
#     4  10  23  42  66  93 131 170 213 271 338 391
#
# _framework density 21.323801
#
# number of rings (size 3 to 8) (size 9 to 14) (size 15 to 20)
#    0.000    1.400    2.000    3.000    5.600    1.200 
#    7.200    2.000    0.000    0.000    0.000    0.000 
#    0.000    0.000    0.000    0.000    0.000    0.000 
#
# Total GULP energy -495876.581582 kJ/mol
# GULP energy per Si atom -12396.914540 kJ/mol
# Density = 2.127527 g / cm^3
# Si number density = 21.323801 Si / 1000 Ang^3
#
#
#
# Elastic Constant Matrix: (Units=GPa)
#
#
# Indices 1 2 3 4 5 6 
#
# 1 144.6805 52.5521 39.9922 0.0000 0.0000 0.0000
# 2 52.5521 144.6805 39.9922 0.0000 0.0000 0.0000
# 3 39.9922 39.9922 55.6723 0.0000 0.0000 0.0000
# 4 0.0000 0.0000 0.0000 30.7697 0.0000 0.0000
# 5 0.0000 0.0000 0.0000 0.0000 30.7697 0.0000
# 6 0.0000 0.0000 0.0000 0.0000 0.0000 27.6029
#
#
#
# Elastic Compliance Matrix: (Units=1/GPa)
#
#
# Indices 1 2 3 4 5 6 
#
# 1 0.009004 -0.001850 -0.005139 0.000000 0.000000 0.000000
# 2 -0.001850 0.009004 -0.005139 0.000000 0.000000 0.000000
# 3 -0.005139 -0.005139 0.025346 0.000000 0.000000 0.000000
# 4 0.000000 0.000000 0.000000 0.032499 0.000000 0.000000
# 5 0.000000 0.000000 0.000000 0.000000 0.032499 0.000000
# 6 0.000000 0.000000 0.000000 0.000000 0.000000 0.036228
#
#
# Mechanical properties :
#
#
# Convention : Reuss Voigt Hill
#
# Bulk Modulus (GPa) = 52.36338 67.78960 60.07649
# Shear Modulus (GPa) = 28.53801 31.99490 30.26646
#
# Velocity S-wave (km/s) = 3.66227 3.87774 3.77155
# Velocity P-wave (km/s) = 6.51863 7.20477 6.87028
#
# Compressibility (1/GPa) = 0.01909732
#
# Stress axis : x y z
#
# Youngs Moduli (GPa) = 111.05718 111.05718 39.45407
#
# Poissons Ratio (x) = 0.20546 0.20277
# Poissons Ratio (y) = 0.20546 0.20277
# Poissons Ratio (z) = 0.57076 0.57076
#
# Static dielectric constant tensor:
#      x y z
#    x 4.154570 0.000000 0.000000 
#    y 0.000000 4.154570 0.000000 
#    z 0.000000 0.000000 3.617230 
# 
# 
# High freq. dielectric constant tensor:
#      x y z
#    x 1.845930 0.000000 0.000000 
#    y 0.000000 1.845930 0.000000 
#    z 0.000000 0.000000 1.822830 
# 
# From -- ./inp_files/795.got.cif
#   From: 2010.03.12/outbox.cif.g09.slc.cpg/sg116_1_cif.got.tgz:795.got - 2010.04.14 02:15:44.
