data_PCOD8310028
_publ_section_title
;
Structure prediction by ZEFSAII (Michael W. Deem and Ramdas Pophale) SiO2 
 PCOD8310028
Probable space group: P -4 M 2
;
_chemical_formula_sum "Si O2"
_cell_formula_units_Z 28
_cell_length_a 9.869246
_cell_length_b 9.869246
_cell_length_c 18.082505
_cell_angle_alpha 90.000000
_cell_angle_beta 90.000000
_cell_angle_gamma 90.000000
_cell_volume 1761.272452
_symmetry_space_group_name_H-M "P -4 M 2"
_symmetry_group_IT_number 115
_symmetry_cell_setting 'tetragonal'
loop_
_space_group_symop_operation_xyz
x,y,z
y,-x,-z
-x,-y,z
-y,x,-z
y,x,-z
-y,-x,-z
-x,y,z
x,-y,z
loop_
_atom_site_type_symbol
_atom_site_label
_atom_site_fract_x
_atom_site_fract_y
_atom_site_fract_z
Si Si1 0.157893 0.157893 0.500000
Si Si2 0.160989 0.349272 0.630834
Si Si3 0.650821 0.661424 0.918272
Si Si4 0.338982 0.150825 0.206115
O O1 0.212181 0.241724 0.570417
O O2 0.000000 0.185393 0.484211
O O3 0.218002 0.500000 0.612403
O O4 0.208788 0.300984 0.712449
O O5 0.000000 0.355418 0.631824
O O6 0.500000 0.719595 0.903903
O O7 0.646402 0.500000 0.913787
O O8 0.750738 0.723230 0.856363
O O9 0.703538 0.703538 0.000000
O O10 0.500000 0.144334 0.199467
O O11 0.278524 0.000000 0.194252
#
# Coordination Sequence:
#
# PCOD8310028 Si02
#       4
#     4   8   8   8
#     4   9  16  26  42  61  76  94 126 161 186 216
#     4   8  14  25  40  57  77 100 125 154 188 223
#     4   8  13  21  34  53  75  96 119 150 186 218
#     4   8  13  22  37  54  70  93 126 155 177 211
#
# _framework density 15.897596
#
# number of rings (size 3 to 8) (size 9 to 14) (size 15 to 20)
#    0.000    3.857    0.000    2.571    0.000    0.000 
#    0.000    1.429    0.000    3.857    0.000    0.000 
#    0.000    0.000    0.000    0.000    0.000    0.000 
#
# Total GULP energy -346924.995986 kJ/mol
# GULP energy per Si atom -12390.178428 kJ/mol
# Density = 1.586141 g / cm^3
# Si number density = 15.897596 Si / 1000 Ang^3
#
#
#
# Elastic Constant Matrix: (Units=GPa)
#
#
# Indices 1 2 3 4 5 6 
#
# 1 44.7029 20.1928 55.4923 0.0000 0.0000 0.0000
# 2 20.1928 44.7029 55.4923 0.0000 0.0000 0.0000
# 3 55.4923 55.4923 173.3938 0.0000 0.0000 0.0000
# 4 0.0000 0.0000 0.0000 18.8071 0.0000 0.0000
# 5 0.0000 0.0000 0.0000 0.0000 18.8071 0.0000
# 6 0.0000 0.0000 0.0000 0.0000 0.0000 7.4130
#
#
#
# Elastic Compliance Matrix: (Units=1/GPa)
#
#
# Indices 1 2 3 4 5 6 
#
# 1 0.037420 -0.003379 -0.010894 0.000000 0.000000 0.000000
# 2 -0.003379 0.037420 -0.010894 0.000000 0.000000 0.000000
# 3 -0.010894 -0.010894 0.012740 0.000000 0.000000 0.000000
# 4 0.000000 0.000000 0.000000 0.053171 0.000000 0.000000
# 5 0.000000 0.000000 0.000000 0.000000 0.053171 0.000000
# 6 0.000000 0.000000 0.000000 0.000000 0.000000 0.134898
#
#
# Mechanical properties :
#
#
# Convention : Reuss Voigt Hill
#
# Bulk Modulus (GPa) = 26.84953 58.35048 42.60001
# Shear Modulus (GPa) = 12.76903 17.78025 15.27464
#
# Velocity S-wave (km/s) = 2.83716 3.34791 3.10306
# Velocity P-wave (km/s) = 5.25912 7.19224 6.30027
#
# Compressibility (1/GPa) = 0.03724460
#
# Stress axis : x y z
#
# Youngs Moduli (GPa) = 26.72364 26.72364 78.49106
#
# Poissons Ratio (x) = 0.09031 0.85510
# Poissons Ratio (y) = 0.09031 0.85510
# Poissons Ratio (z) = 0.29113 0.29113
#
# Static dielectric constant tensor:
#      x y z
#    x 2.840870 0.000000 0.000000 
#    y 0.000000 2.840870 0.000000 
#    z 0.000000 0.000000 3.480380 
# 
# 
# High freq. dielectric constant tensor:
#      x y z
#    x 1.565760 0.000000 0.000000 
#    y 0.000000 1.565760 0.000000 
#    z 0.000000 0.000000 1.625850 
# 
# From -- ./inp_files/2413.got.cif
#   From: 2010.03.12/outbox.cif.g09.slc.cpg/sg115_2_cif.got.tgz:2413.got - 2010.04.14 02:11:21.
