data_PCOD8310082
_publ_section_title
;
Structure prediction by ZEFSAII (Michael W. Deem and Ramdas Pophale) SiO2 
 PCOD8310082
Probable space group: P -4 C 2
;
_chemical_formula_sum "Si O2"
_cell_formula_units_Z 64
_cell_length_a 17.858817
_cell_length_b 17.858817
_cell_length_c 11.689588
_cell_angle_alpha 90.000000
_cell_angle_beta 90.000000
_cell_angle_gamma 90.000000
_cell_volume 3728.246157
_symmetry_space_group_name_H-M "P -4 C 2"
_symmetry_group_IT_number 116
_symmetry_cell_setting 'tetragonal'
loop_
_space_group_symop_operation_xyz
x,y,z
y,-x,-z
-x,-y,z
-y,x,-z
y,x,1/2-z
-y,-x,1/2-z
-x,y,1/2+z
x,-y,1/2+z
loop_
_atom_site_type_symbol
_atom_site_label
_atom_site_fract_x
_atom_site_fract_y
_atom_site_fract_z
Si Si1 0.285611 0.162140 0.734693
Si Si2 0.402773 0.283932 0.782426
Si Si3 0.440237 0.173845 0.397344
Si Si4 0.573710 0.696837 0.244297
Si Si5 0.075962 0.342951 0.564158
Si Si6 0.783710 0.417907 0.980498
Si Si7 0.540742 0.927314 0.751499
Si Si8 0.342965 0.078028 0.548165
O O1 0.218617 0.218617 0.750000
O O2 0.366857 0.205657 0.735956
O O3 0.282853 0.101921 0.839195
O O4 0.274065 0.121312 0.610727
O O5 0.352426 0.352426 0.750000
O O6 0.483769 0.307896 0.734117
O O7 0.404322 0.275713 0.918605
O O8 0.405808 0.253239 0.356238
O O9 0.496768 0.185965 0.504422
O O10 0.484622 0.141164 0.284823
O O11 0.372670 0.119938 0.434961
O O12 0.616138 0.616138 0.250000
O O13 0.602003 0.740246 0.133456
O O14 0.146080 0.360867 0.482266
O O15 0.050981 0.417920 0.630393
O O16 0.005652 0.317057 0.486365
O O17 0.596198 0.912214 0.648017
O O18 0.500000 0.000000 0.706065
#
# Coordination Sequence:
#
# PCOD8310082 Si02
#       8
#     8   8   8   8   8   8   8   8
#     4   9  19  36  54  74 103 141 176 208 257 316
#     4   9  19  37  55  67  88 127 183 227 262 317
#     4  10  20  33  46  70  99 133 168 201 267 333
#     4  11  23  34  47  71  96 127 175 228 272 308
#     4   9  19  31  47  78  99 129 169 202 243 311
#     4   9  19  33  49  68  97 128 156 210 270 314
#     4  10  19  28  45  75 106 128 161 207 256 312
#     4  11  20  29  51  73 101 138 165 208 247 306
#
# _framework density 17.166248
#
# number of rings (size 3 to 8) (size 9 to 14) (size 15 to 20)
#    0.000    2.250    1.250    3.750    5.250    5.250 
#    0.000    0.000    0.000    3.000    0.000    0.000 
#    0.000    1.500    0.000    0.000    0.000    0.000 
#
# Total GULP energy -792860.132471 kJ/mol
# GULP energy per Si atom -12388.439570 kJ/mol
# Density = 1.712718 g / cm^3
# Si number density = 17.166248 Si / 1000 Ang^3
#
#
#
# Elastic Constant Matrix: (Units=GPa)
#
#
# Indices 1 2 3 4 5 6 
#
# 1 74.6831 35.5181 29.7483 0.0000 0.0000 0.0000
# 2 35.5181 74.6831 29.7483 0.0000 0.0000 0.0000
# 3 29.7483 29.7483 55.9329 0.0000 0.0000 0.0000
# 4 0.0000 0.0000 0.0000 20.0489 0.0000 0.0000
# 5 0.0000 0.0000 0.0000 0.0000 20.0489 0.0000
# 6 0.0000 0.0000 0.0000 0.0000 0.0000 18.5784
#
#
#
# Elastic Compliance Matrix: (Units=1/GPa)
#
#
# Indices 1 2 3 4 5 6 
#
# 1 0.019131 -0.006402 -0.006770 0.000000 0.000000 0.000000
# 2 -0.006402 0.019131 -0.006770 0.000000 0.000000 0.000000
# 3 -0.006770 -0.006770 0.025080 0.000000 0.000000 0.000000
# 4 0.000000 0.000000 0.000000 0.049878 0.000000 0.000000
# 5 0.000000 0.000000 0.000000 0.000000 0.049878 0.000000
# 6 0.000000 0.000000 0.000000 0.000000 0.000000 0.053826
#
#
# Mechanical properties :
#
#
# Convention : Reuss Voigt Hill
#
# Bulk Modulus (GPa) = 42.62919 43.92541 43.27730
# Shear Modulus (GPa) = 18.89440 19.08754 18.99097
#
# Velocity S-wave (km/s) = 3.32124 3.33817 3.32971
# Velocity P-wave (km/s) = 6.29242 6.36409 6.32835
#
# Compressibility (1/GPa) = 0.02345810
#
# Stress axis : x y z
#
# Youngs Moduli (GPa) = 52.27039 52.27039 39.87207
#
# Poissons Ratio (x) = 0.33462 0.26995
# Poissons Ratio (y) = 0.33462 0.26995
# Poissons Ratio (z) = 0.35389 0.35389
#
# Static dielectric constant tensor:
#      x y z
#    x 3.145740 0.000000 0.000000 
#    y 0.000000 3.145740 0.000000 
#    z 0.000000 0.000000 3.273360 
# 
# 
# High freq. dielectric constant tensor:
#      x y z
#    x 1.634070 0.000000 0.000000 
#    y 0.000000 1.634070 0.000000 
#    z 0.000000 0.000000 1.667390 
# 
# From -- ./inp_files/2086.got.cif
#   From: 2010.03.12/outbox.cif.g09.slc.cpg/sg116_2_cif.got.tgz:2086.got - 2010.04.14 02:15:44.
