data_PCOD8310625
_publ_section_title
;
Structure prediction by ZEFSAII (Michael W. Deem and Ramdas Pophale) SiO2 
 PCOD8310625
Probable space group: P -4 N 2
;
_chemical_formula_sum "Si O2"
_cell_formula_units_Z 44
_cell_length_a 8.873401
_cell_length_b 8.873401
_cell_length_c 26.650864
_cell_angle_alpha 90.000000
_cell_angle_beta 90.000000
_cell_angle_gamma 90.000000
_cell_volume 2098.415616
_symmetry_space_group_name_H-M "P -4 N 2"
_symmetry_group_IT_number 118
_symmetry_cell_setting 'tetragonal'
loop_
_space_group_symop_operation_xyz
x,y,z
y,-x,-z
-x,-y,z
-y,x,-z
1/2+y,1/2+x,1/2-z
1/2-y,1/2-x,1/2-z
1/2-x,1/2+y,1/2+z
1/2+x,1/2-y,1/2+z
loop_
_atom_site_type_symbol
_atom_site_label
_atom_site_fract_x
_atom_site_fract_y
_atom_site_fract_z
Si Si1 0.469402 0.171627 0.620108
Si Si2 0.332549 0.536647 0.792685
Si Si3 0.866232 0.193620 0.819915
Si Si4 0.238481 0.017443 0.990273
Si Si5 0.176723 0.334866 0.639521
Si Si6 0.500000 0.000000 0.437410
O O1 0.543048 0.291427 0.658375
O O2 0.530424 0.197866 0.564019
O O3 0.291935 0.205324 0.622633
O O4 0.500000 0.000000 0.637046
O O5 0.500000 0.500000 0.812911
O O6 0.270715 0.688683 0.817601
O O7 0.337203 0.555501 0.733177
O O8 0.219335 0.402294 0.808800
O O9 0.000187 0.248666 0.855639
O O10 0.370290 0.067457 0.027283
O O11 0.156454 0.875287 0.015831
O O12 0.052541 0.357166 0.596031
#
# Coordination Sequence:
#
# PCOD8310625 Si02
#       6
#     8   8   8   8   8   4
#     4  12  25  43  67  99 138 181 224 286 352 414
#     4  11  23  42  64  97 136 175 224 287 346 408
#     4  11  24  42  67  98 131 179 233 275 342 419
#     4  11  24  41  67  96 134 175 225 281 336 411
#     4  12  23  42  68  96 132 178 225 287 335 410
#     4  12  22  42  65 102 126 169 230 280 330 410
#
# _framework density 20.9682
#
# number of rings (size 3 to 8) (size 9 to 14) (size 15 to 20)
#    0.000    0.545    4.545    4.364    2.545    1.455 
#    0.000    5.455    0.000    0.000    0.000    0.000 
#    0.000    0.000    0.000    0.000    0.000    0.000 
#
# Total GULP energy -545776.081908 kJ/mol
# GULP energy per Si atom -12404.001862 kJ/mol
# Density = 2.092048 g / cm^3
# Si number density = 20.968200 Si / 1000 Ang^3
#
#
#
# Elastic Constant Matrix: (Units=GPa)
#
#
# Indices 1 2 3 4 5 6 
#
# 1 117.6428 55.3922 42.2071 0.0000 0.0000 0.0000
# 2 55.3922 117.6428 42.2071 0.0000 0.0000 0.0000
# 3 42.2071 42.2071 110.7408 0.0000 0.0000 0.0000
# 4 0.0000 0.0000 0.0000 33.4526 0.0000 0.0000
# 5 0.0000 0.0000 0.0000 0.0000 33.4526 0.0000
# 6 0.0000 0.0000 0.0000 0.0000 0.0000 42.0554
#
#
#
# Elastic Compliance Matrix: (Units=1/GPa)
#
#
# Indices 1 2 3 4 5 6 
#
# 1 0.011582 -0.004482 -0.002706 0.000000 0.000000 0.000000
# 2 -0.004482 0.011582 -0.002706 0.000000 0.000000 0.000000
# 3 -0.002706 -0.002706 0.011093 0.000000 0.000000 0.000000
# 4 0.000000 0.000000 0.000000 0.029893 0.000000 0.000000
# 5 0.000000 0.000000 0.000000 0.000000 0.029893 0.000000
# 6 0.000000 0.000000 0.000000 0.000000 0.000000 0.023778
#
#
# Mechanical properties :
#
#
# Convention : Reuss Voigt Hill
#
# Bulk Modulus (GPa) = 69.11817 69.51547 69.31682
# Shear Modulus (GPa) = 35.10481 35.54012 35.32246
#
# Velocity S-wave (km/s) = 4.09613 4.12145 4.10881
# Velocity P-wave (km/s) = 7.44352 7.47484 7.45919
#
# Compressibility (1/GPa) = 0.01446798
#
# Stress axis : x y z
#
# Youngs Moduli (GPa) = 86.34360 86.34360 90.15035
#
# Poissons Ratio (x) = 0.38703 0.24392
# Poissons Ratio (y) = 0.38703 0.24392
# Poissons Ratio (z) = 0.23362 0.23362
#
# Static dielectric constant tensor:
#      x y z
#    x 3.780440 0.000000 0.000000 
#    y 0.000000 3.780440 0.000000 
#    z 0.000000 0.000000 3.741710 
# 
# 
# High freq. dielectric constant tensor:
#      x y z
#    x 1.821380 0.000000 0.000000 
#    y 0.000000 1.821380 0.000000 
#    z 0.000000 0.000000 1.825380 
# 
# From -- ./inp_files/6768.got.cif
#   From: 2010.03.12/outbox.cif.g09.slc.cpg/sg118_4_cif.got.tgz:6768.got - 2010.04.14 02:21:17.
