data_PCOD8310246
_publ_section_title
;
Structure prediction by ZEFSAII (Michael W. Deem and Ramdas Pophale) SiO2 
 PCOD8310246
Probable space group: P -4 C 2
;
_chemical_formula_sum "Si O2"
_cell_formula_units_Z 40
_cell_length_a 8.968255
_cell_length_b 8.968255
_cell_length_c 22.483943
_cell_angle_alpha 90.000000
_cell_angle_beta 90.000000
_cell_angle_gamma 90.000000
_cell_volume 1808.374491
_symmetry_space_group_name_H-M "P -4 C 2"
_symmetry_group_IT_number 116
_symmetry_cell_setting 'tetragonal'
loop_
_space_group_symop_operation_xyz
x,y,z
y,-x,-z
-x,-y,z
-y,x,-z
y,x,1/2-z
-y,-x,1/2-z
-x,y,1/2+z
x,-y,1/2+z
loop_
_atom_site_type_symbol
_atom_site_label
_atom_site_fract_x
_atom_site_fract_y
_atom_site_fract_z
Si Si1 0.905218 0.634186 0.117634
Si Si2 0.595512 0.857527 0.612047
Si Si3 0.787365 0.126809 0.998883
Si Si4 0.103272 0.130674 0.680166
Si Si5 0.369123 0.386865 0.316202
O O1 0.763330 0.573831 0.153105
O O2 0.000000 0.500000 0.089718
O O3 0.021226 0.719008 0.160697
O O4 0.828903 0.727239 0.065311
O O5 0.677423 0.807408 0.550292
O O6 0.729724 0.889693 0.657056
O O7 0.475990 0.750791 0.644126
O O8 0.500000 0.000000 0.595341
O O9 0.947605 0.203368 0.003015
O O10 0.117214 0.117214 0.750000
O O11 0.000000 0.000000 0.653186
O O12 0.500000 0.500000 0.308066
O O13 0.326180 0.326180 0.250000
#
# Coordination Sequence:
#
# PCOD8310246 Si02
#       5
#     8   8   8   8   8
#     4  12  26  45  72 105 141 193 244 301 370 445
#     4  12  25  44  73 107 142 194 241 308 377 447
#     4  11  23  45  74 105 143 184 245 311 371 445
#     4  11  25  42  70 106 140 183 247 305 364 445
#     4  11  28  48  70 104 151 194 238 302 379 456
#
# _framework density 22.119311
#
# number of rings (size 3 to 8) (size 9 to 14) (size 15 to 20)
#    0.000    0.600    2.000    5.400   11.200    0.000 
#    0.000    0.000    0.000    0.000    0.000    0.000 
#    0.000    0.000    0.000    0.000    0.000    0.000 
#
# Total GULP energy -495663.711877 kJ/mol
# GULP energy per Si atom -12391.592797 kJ/mol
# Density = 2.206897 g / cm^3
# Si number density = 22.119311 Si / 1000 Ang^3
#
#
#
# Elastic Constant Matrix: (Units=GPa)
#
#
# Indices 1 2 3 4 5 6 
#
# 1 83.3124 13.1723 26.5352 0.0000 0.0000 0.0000
# 2 13.1723 83.3124 26.5352 0.0000 0.0000 0.0000
# 3 26.5352 26.5352 128.2644 0.0000 0.0000 0.0000
# 4 0.0000 0.0000 0.0000 33.7790 0.0000 0.0000
# 5 0.0000 0.0000 0.0000 0.0000 33.7790 0.0000
# 6 0.0000 0.0000 0.0000 0.0000 0.0000 42.3548
#
#
#
# Elastic Compliance Matrix: (Units=1/GPa)
#
#
# Indices 1 2 3 4 5 6 
#
# 1 0.012976 -0.001281 -0.002419 0.000000 0.000000 0.000000
# 2 -0.001281 0.012976 -0.002419 0.000000 0.000000 0.000000
# 3 -0.002419 -0.002419 0.008797 0.000000 0.000000 0.000000
# 4 0.000000 0.000000 0.000000 0.029604 0.000000 0.000000
# 5 0.000000 0.000000 0.000000 0.000000 0.029604 0.000000
# 6 0.000000 0.000000 0.000000 0.000000 0.000000 0.023610
#
#
# Mechanical properties :
#
#
# Convention : Reuss Voigt Hill
#
# Bulk Modulus (GPa) = 44.42501 47.48609 45.95555
# Shear Modulus (GPa) = 36.41353 37.22563 36.81958
#
# Velocity S-wave (km/s) = 4.06178 4.10682 4.08436
# Velocity P-wave (km/s) = 6.49040 6.63346 6.56232
#
# Compressibility (1/GPa) = 0.02250984
#
# Stress axis : x y z
#
# Youngs Moduli (GPa) = 77.06434 77.06434 113.66896
#
# Poissons Ratio (x) = 0.09872 0.27502
# Poissons Ratio (y) = 0.09872 0.27502
# Poissons Ratio (z) = 0.18646 0.18646
#
# Static dielectric constant tensor:
#      x y z
#    x 3.873820 0.000000 0.000000 
#    y 0.000000 3.873820 0.000000 
#    z 0.000000 0.000000 4.279200 
# 
# 
# High freq. dielectric constant tensor:
#      x y z
#    x 1.874100 0.000000 0.000000 
#    y 0.000000 1.874100 0.000000 
#    z 0.000000 0.000000 1.888150 
# 
# From -- ./inp_files/4402.got.cif
#   From: 2010.03.12/outbox.cif.g09.slc.cpg/sg116_3_cif.got.tgz:4402.got - 2010.04.14 02:15:44.
