data_PCOD8310221
_publ_section_title
;
Structure prediction by ZEFSAII (Michael W. Deem and Ramdas Pophale) SiO2 
 PCOD8310221
Probable space group: P -4 C 2
;
_chemical_formula_sum "Si O2"
_cell_formula_units_Z 34
_cell_length_a 11.142366
_cell_length_b 11.142366
_cell_length_c 11.416021
_cell_angle_alpha 90.000000
_cell_angle_beta 90.000000
_cell_angle_gamma 90.000000
_cell_volume 1417.325493
_symmetry_space_group_name_H-M "P -4 C 2"
_symmetry_group_IT_number 116
_symmetry_cell_setting 'tetragonal'
loop_
_space_group_symop_operation_xyz
x,y,z
y,-x,-z
-x,-y,z
-y,x,-z
y,x,1/2-z
-y,-x,1/2-z
-x,y,1/2+z
x,-y,1/2+z
loop_
_atom_site_type_symbol
_atom_site_label
_atom_site_fract_x
_atom_site_fract_y
_atom_site_fract_z
Si Si1 0.000000 0.000000 0.500000
Si Si2 0.207821 0.929223 0.650683
Si Si3 0.408443 0.100810 0.644919
Si Si4 0.526169 0.691555 0.820307
Si Si5 0.305436 0.290906 0.471806
O O1 0.120489 0.010696 0.574051
O O2 0.131924 0.868077 0.750000
O O3 0.273187 0.828146 0.574515
O O4 0.300678 0.025286 0.704934
O O5 0.465078 0.188943 0.741324
O O6 0.360691 0.172592 0.531862
O O7 0.500000 0.000000 0.599019
O O8 0.576707 0.576707 0.750000
O O9 0.388762 0.669747 0.860918
O O10 0.600255 0.706826 0.939066
#
# Coordination Sequence:
#
# PCOD8310221 Si02
#       5
#     2   8   8   8   8
#     4  12  26  44  64 102 144 184 238 296 360 422
#     4  12  26  41  70 103 144 191 242 296 360 426
#     4  11  24  44  72 103 141 190 243 296 356 440
#     4  10  25  46  73 102 141 185 241 302 367 435
#     4  11  24  46  71 104 142 191 237 301 364 435
#
# _framework density 23.988842000000002
#
# number of rings (size 3 to 8) (size 9 to 14) (size 15 to 20)
#    0.000    0.941    2.353    3.176    3.294    8.941 
#    0.000    5.882    0.000    0.000    0.000    0.000 
#    0.000    0.000    0.000    0.000    0.000    0.000 
#
# Total GULP energy -421699.846776 kJ/mol
# GULP energy per Si atom -12402.936670 kJ/mol
# Density = 2.393424 g / cm^3
# Si number density = 23.988842 Si / 1000 Ang^3
#
#
#
# Elastic Constant Matrix: (Units=GPa)
#
#
# Indices 1 2 3 4 5 6 
#
# 1 79.9339 22.6927 5.4409 0.0000 0.0000 0.0000
# 2 22.6927 79.9340 5.4413 0.0000 0.0000 0.0000
# 3 5.4409 5.4413 75.3719 0.0000 0.0000 0.0000
# 4 0.0000 0.0000 0.0000 -6.5534 0.0000 0.0000
# 5 0.0000 0.0000 0.0000 0.0000 -6.4724 0.0000
# 6 0.0000 0.0000 0.0000 0.0000 0.0000 52.5039
#
#
#
# Elastic Compliance Matrix: (Units=1/GPa)
#
#
# Indices 1 2 3 4 5 6 
#
# 1 0.013645 -0.003825 -0.000709 0.000000 0.000000 0.000000
# 2 -0.003825 0.013645 -0.000709 0.000000 0.000000 0.000000
# 3 -0.000709 -0.000709 0.013370 0.000000 0.000000 0.000000
# 4 0.000000 0.000000 0.000000 -0.152593 0.000000 0.000000
# 5 0.000000 0.000000 0.000000 0.000000 -0.154501 0.000000
# 6 0.000000 0.000000 0.000000 0.000000 0.000000 0.019046
#
#
# Mechanical properties :
#
#
# Convention : Reuss Voigt Hill
#
# Bulk Modulus (GPa) = 33.14227 33.59883 33.37055
# Shear Modulus (GPa) = -22.04141 21.33995 -0.35073
#
# Velocity S-wave (km/s) = -3.03449 2.98582 -0.38278
# Velocity P-wave (km/s) = 1.25227 5.09149 3.70752
#
# Compressibility (1/GPa) = 0.03017295
#
# Stress axis : x y z
#
# Youngs Moduli (GPa) = 73.28920 73.28926 74.79490
#
# Poissons Ratio (x) = 0.28036 0.05301
# Poissons Ratio (y) = 0.28036 0.05302
# Poissons Ratio (z) = 0.05195 0.05195
#
# Static dielectric constant tensor:
#      x y z
#    x 4.561660 0.000000 0.000000 
#    y 0.000000 4.561790 0.000000 
#    z 0.000000 0.000000 4.329390 
# 
# 
# High freq. dielectric constant tensor:
#      x y z
#    x 1.969680 0.000000 0.000000 
#    y 0.000000 1.969680 0.000000 
#    z 0.000000 0.000000 1.947950 
# 
# From -- ./inp_files/1590.got.cif
#   From: 2010.03.12/outbox.cif.g09.slc.cpg/sg116_1_cif.got.tgz:1590.got - 2010.04.14 02:15:44.
