data_PCOD8310753
_publ_section_title
;
Structure prediction by ZEFSAII (Michael W. Deem and Ramdas Pophale) SiO2 
 PCOD8310753
Probable space group: I -4 M 2
;
_chemical_formula_sum "Si O2"
_cell_formula_units_Z 104
_cell_length_a 18.397656
_cell_length_b 18.397656
_cell_length_c 16.886489
_cell_angle_alpha 90.000000
_cell_angle_beta 90.000000
_cell_angle_gamma 90.000000
_cell_volume 5715.633194
_symmetry_space_group_name_H-M "I -4 M 2"
_symmetry_group_IT_number 119
_symmetry_cell_setting 'tetragonal'
loop_
_space_group_symop_operation_xyz
x,y,z
y,-x,-z
-x,-y,z
-y,x,-z
y,x,-z
-y,-x,-z
-x,y,z
x,-y,z
1/2+x,1/2+y,1/2+z
1/2+y,1/2-x,1/2-z
1/2-x,1/2-y,1/2+z
1/2-y,1/2+x,1/2-z
1/2+y,1/2+x,1/2-z
1/2-y,1/2-x,1/2-z
1/2-x,1/2+y,1/2+z
1/2+x,1/2-y,1/2+z
loop_
_atom_site_type_symbol
_atom_site_label
_atom_site_fract_x
_atom_site_fract_y
_atom_site_fract_z
Si Si1 0.083784 0.300241 0.240865
Si Si2 0.708687 0.174993 0.053385
Si Si3 0.416865 0.822287 0.308825
Si Si4 0.174705 0.174705 0.500000
Si Si5 0.163201 0.085696 0.656566
Si Si6 0.651506 0.582049 0.699777
Si Si7 0.784822 0.146407 0.899403
O O1 0.124425 0.375576 0.250000
O O2 0.105485 0.242608 0.308675
O O3 0.104277 0.270867 0.155035
O O4 0.000000 0.319036 0.244179
O O5 0.663034 0.116868 0.103491
O O6 0.765523 0.218059 0.111229
O O7 0.659297 0.238710 0.015224
O O8 0.759275 0.130478 0.989861
O O9 0.500000 0.848423 0.309325
O O10 0.371902 0.871902 0.250000
O O11 0.410239 0.737895 0.285610
O O12 0.150065 0.126773 0.574260
O O13 0.102660 0.111721 0.718780
O O14 0.154926 0.000000 0.642423
O O15 0.630807 0.500000 0.676711
O O16 0.623347 0.633125 0.627128
#
# Coordination Sequence:
#
# PCOD8310753 Si02
#       7
#    16  16  16   8  16  16  16
#     4  10  19  32  50  72 100 133 170 210 254 306
#     4   9  17  31  53  78 101 129 168 214 258 306
#     4  10  20  34  54  79 106 137 173 213 257 310
#     4  10  18  32  52  71 100 136 176 221 268 312
#     4  10  21  34  50  74 102 134 173 218 262 306
#     4   9  18  33  53  77 105 138 174 211 259 321
#     4   8  16  30  50  76 101 127 162 210 258 298
#
# _framework density 18.195709999999998
#
# number of rings (size 3 to 8) (size 9 to 14) (size 15 to 20)
#    0.000    2.769    0.000    2.769    0.000    6.154 
#    0.000    3.077    0.000    1.846    0.000    2.154 
#    0.000    9.846    0.000    0.000    0.000    0.000 
#
# Total GULP energy -644285.341195 kJ/mol
# GULP energy per Si atom -12390.102715 kJ/mol
# Density = 1.815430 g / cm^3
# Si number density = 18.195710 Si / 1000 Ang^3
#
#
#
# Elastic Constant Matrix: (Units=GPa)
#
#
# Indices 1 2 3 4 5 6 
#
# 1 60.5357 67.0720 51.2338 0.0000 0.0000 0.0000
# 2 67.0720 60.5336 51.2305 0.0000 0.0000 0.0000
# 3 51.2338 51.2305 124.2912 0.0000 0.0000 0.0000
# 4 0.0000 0.0000 0.0000 13.8861 0.0000 0.0000
# 5 0.0000 0.0000 0.0000 0.0000 13.8851 0.0000
# 6 0.0000 0.0000 0.0000 0.0000 0.0000 21.2721
#
#
#
# Elastic Compliance Matrix: (Units=1/GPa)
#
#
# Indices 1 2 3 4 5 6 
#
# 1 -0.070627 0.082340 -0.004826 0.000000 0.000000 0.000000
# 2 0.082340 -0.070625 -0.004831 0.000000 0.000000 0.000000
# 3 -0.004826 -0.004831 0.012026 0.000000 0.000000 0.000000
# 4 0.000000 0.000000 0.000000 0.072015 0.000000 0.000000
# 5 0.000000 0.000000 0.000000 0.000000 0.072019 0.000000
# 6 0.000000 0.000000 0.000000 0.000000 0.000000 0.047010
#
#
# Mechanical properties :
#
#
# Convention : Reuss Voigt Hill
#
# Bulk Modulus (GPa) = 61.95780 64.93703 63.44741
# Shear Modulus (GPa) = -63.96481 14.86360 -24.55061
#
# Velocity S-wave (km/s) = -5.93550 2.86120 -3.67720
# Velocity P-wave (km/s) = 3.58452 6.83234 4.11291
#
# Compressibility (1/GPa) = 0.01614002
#
# Stress axis : x y z
#
# Youngs Moduli (GPa) = -14.15898 -14.15921 83.15325
#
# Poissons Ratio (x) = 1.16586 0.40130
# Poissons Ratio (y) = 1.16584 0.40167
# Poissons Ratio (z) = -0.06833 -0.06840
#
# Static dielectric constant tensor:
#      x y z
#    x 3.321980 0.000000 0.000000 
#    y 0.000000 3.321970 0.000000 
#    z 0.000000 0.000000 3.545510 
# 
# 
# High freq. dielectric constant tensor:
#      x y z
#    x 1.687430 0.000000 0.000000 
#    y 0.000000 1.687430 0.000000 
#    z 0.000000 0.000000 1.705540 
# 
# From -- ./inp_files/6747.got.cif
#   From: 2010.03.12/outbox.cif.g09.slc.cpg/sg119_4_cif.got.tgz:6747.got - 2010.04.14 02:25:26.
