data_PCOD8310562
_publ_section_title
;
Structure prediction by ZEFSAII (Michael W. Deem and Ramdas Pophale) SiO2 
 PCOD8310562
Probable space group: P -4 N 2
;
_chemical_formula_sum "Si O2"
_cell_formula_units_Z 40
_cell_length_a 18.642142
_cell_length_b 18.642142
_cell_length_c 4.874530
_cell_angle_alpha 90.000000
_cell_angle_beta 90.000000
_cell_angle_gamma 90.000000
_cell_volume 1694.042771
_symmetry_space_group_name_H-M "P -4 N 2"
_symmetry_group_IT_number 118
_symmetry_cell_setting 'tetragonal'
loop_
_space_group_symop_operation_xyz
x,y,z
y,-x,-z
-x,-y,z
-y,x,-z
1/2+y,1/2+x,1/2-z
1/2-y,1/2-x,1/2-z
1/2-x,1/2+y,1/2+z
1/2+x,1/2-y,1/2+z
loop_
_atom_site_type_symbol
_atom_site_label
_atom_site_fract_x
_atom_site_fract_y
_atom_site_fract_z
Si Si1 0.049798 0.667330 0.232170
Si Si2 0.118155 0.734853 0.721889
Si Si3 0.101794 0.952588 0.057030
Si Si4 0.166404 0.889441 0.584127
Si Si5 0.604668 0.172761 0.986381
O O1 0.091780 0.591780 0.250000
O O2 0.086552 0.726451 0.421124
O O3 0.970117 0.650937 0.340059
O O4 0.056863 0.704531 0.931623
O O5 0.190816 0.690816 0.750000
O O6 0.140229 0.817341 0.738583
O O7 0.167756 0.945012 0.840616
O O8 0.112539 0.915082 0.348625
O O9 0.035958 0.914108 0.897132
O O10 0.243708 0.889017 0.435820
O O11 0.622437 0.122437 0.250000
O O12 0.663440 0.163440 0.750000
#
# Coordination Sequence:
#
# PCOD8310562 Si02
#       5
#     8   8   8   8   8
#     4  10  23  44  71 101 138 189 242 292 347 427
#     4  10  22  41  67 101 138 174 231 288 347 422
#     4  11  26  45  65 101 142 181 232 282 344 427
#     4  12  25  41  74 100 140 185 229 287 360 422
#     4  12  27  46  69 105 147 186 240 302 367 435
#
# _framework density 23.612154
#
# number of rings (size 3 to 8) (size 9 to 14) (size 15 to 20)
#    0.000    1.000    0.000    5.400    8.400    4.400 
#    0.000    1.000    0.000    0.000    0.000    0.000 
#    0.000    0.000    0.000    0.000    0.000    0.000 
#
# Total GULP energy -495830.902008 kJ/mol
# GULP energy per Si atom -12395.772550 kJ/mol
# Density = 2.355841 g / cm^3
# Si number density = 23.612154 Si / 1000 Ang^3
#
#
#
# Elastic Constant Matrix: (Units=GPa)
#
#
# Indices 1 2 3 4 5 6 
#
# 1 69.2691 67.6215 31.6148 0.0000 0.0000 0.0000
# 2 67.6215 69.2691 31.6148 0.0000 0.0000 0.0000
# 3 31.6148 31.6148 126.1446 0.0000 0.0000 0.0000
# 4 0.0000 0.0000 0.0000 26.0921 0.0000 0.0000
# 5 0.0000 0.0000 0.0000 0.0000 26.0921 0.0000
# 6 0.0000 0.0000 0.0000 0.0000 0.0000 23.2780
#
#
#
# Elastic Compliance Matrix: (Units=1/GPa)
#
#
# Indices 1 2 3 4 5 6 
#
# 1 0.307612 -0.299350 -0.002071 0.000000 0.000000 0.000000
# 2 -0.299350 0.307612 -0.002071 0.000000 0.000000 0.000000
# 3 -0.002071 -0.002071 0.008965 0.000000 0.000000 0.000000
# 4 0.000000 0.000000 0.000000 0.038326 0.000000 0.000000
# 5 0.000000 0.000000 0.000000 0.000000 0.038326 0.000000
# 6 0.000000 0.000000 0.000000 0.000000 0.000000 0.042959
#
#
# Mechanical properties :
#
#
# Convention : Reuss Voigt Hill
#
# Bulk Modulus (GPa) = 58.11886 58.48723 58.30304
# Shear Modulus (GPa) = 3.68591 24.01455 13.85023
#
# Velocity S-wave (km/s) = 1.25076 3.19257 2.42455
# Velocity P-wave (km/s) = 5.17236 6.19788 5.70820
#
# Compressibility (1/GPa) = 0.01720612
#
# Stress axis : x y z
#
# Youngs Moduli (GPa) = 3.25085 3.25085 111.54168
#
# Poissons Ratio (x) = 0.97314 0.23095
# Poissons Ratio (y) = 0.97314 0.23095
# Poissons Ratio (z) = 0.00673 0.00673
#
# Static dielectric constant tensor:
#      x y z
#    x 4.351220 0.000000 0.000000 
#    y 0.000000 4.351220 0.000000 
#    z 0.000000 0.000000 4.410220 
# 
# 
# High freq. dielectric constant tensor:
#      x y z
#    x 1.936270 0.000000 0.000000 
#    y 0.000000 1.936270 0.000000 
#    z 0.000000 0.000000 1.949610 
# 
# From -- ./inp_files/607.got.cif
#   From: 2010.03.12/outbox.cif.g09.slc.cpg/sg118_1_cif.got.tgz:607.got - 2010.04.14 02:21:17.
