data_PCOD8310357
_publ_section_title
;
Structure prediction by ZEFSAII (Michael W. Deem and Ramdas Pophale) SiO2 
 PCOD8310357
Probable space group: P -4 B 2
;
_chemical_formula_sum "Si O2"
_cell_formula_units_Z 48
_cell_length_a 21.060794
_cell_length_b 21.060794
_cell_length_c 5.019484
_cell_angle_alpha 90.000000
_cell_angle_beta 90.000000
_cell_angle_gamma 90.000000
_cell_volume 2226.427485
_symmetry_space_group_name_H-M "P -4 B 2"
_symmetry_group_IT_number 117
_symmetry_cell_setting 'tetragonal'
loop_
_space_group_symop_operation_xyz
x,y,z
y,-x,-z
-x,-y,z
-y,x,-z
1/2+y,1/2+x,-z
1/2-y,1/2-x,-z
1/2-x,1/2+y,z
1/2+x,1/2-y,z
loop_
_atom_site_type_symbol
_atom_site_label
_atom_site_fract_x
_atom_site_fract_y
_atom_site_fract_z
Si Si1 0.798082 0.642230 0.752735
Si Si2 0.590788 0.455705 0.945401
Si Si3 0.415741 0.179982 0.899862
Si Si4 0.785850 0.495389 0.598378
Si Si5 0.185522 0.772741 0.677025
Si Si6 0.336555 0.567085 0.450365
O O1 0.818226 0.681775 0.500000
O O2 0.799563 0.569429 0.653926
O O3 0.729156 0.673802 0.828477
O O4 0.846518 0.653483 0.000000
O O5 0.602538 0.441316 0.636072
O O6 0.530196 0.416834 0.031163
O O7 0.647694 0.434477 0.137004
O O8 0.458738 0.171962 0.629198
O O9 0.357810 0.230179 0.874300
O O10 0.387548 0.112453 0.000000
O O11 0.462406 0.205768 0.121057
O O12 0.712807 0.489463 0.509351
O O13 0.225634 0.725634 0.500000
O O14 0.136264 0.808352 0.482372
#
# Coordination Sequence:
#
# PCOD8310357 Si02
#       6
#     8   8   8   8   8   8
#     4  11  25  43  66  96 136 179 209 263 330 403
#     4  11  25  41  59  86 125 174 223 265 317 373
#     4  11  21  41  69  97 129 163 217 279 324 379
#     4  11  24  41  64 101 127 168 219 261 337 389
#     4  10  23  42  66  97 131 169 218 270 334 383
#     4  11  23  41  64  94 122 172 214 278 321 381
#
# _framework density 21.559203
#
# number of rings (size 3 to 8) (size 9 to 14) (size 15 to 20)
#    0.000    1.167    0.000    7.000    4.667    6.667 
#    0.000    0.000    0.000    7.500    0.000    0.000 
#    0.000    0.000    0.000    0.000    0.000    0.000 
#
# Total GULP energy -594848.327893 kJ/mol
# GULP energy per Si atom -12392.673498 kJ/mol
# Density = 2.151013 g / cm^3
# Si number density = 21.559203 Si / 1000 Ang^3
#
#
#
# Elastic Constant Matrix: (Units=GPa)
#
#
# Indices 1 2 3 4 5 6 
#
# 1 -189.0681 357.7747 34.7284 0.0000 0.0000 0.0000
# 2 357.7747 -189.0935 34.7491 0.0000 0.0000 0.0000
# 3 34.7284 34.7491 105.5927 0.0000 0.0000 0.0000
# 4 0.0000 0.0000 0.0000 37.1323 0.0000 0.0000
# 5 0.0000 0.0000 0.0000 0.0000 37.1297 0.0000
# 6 0.0000 0.0000 0.0000 0.0000 0.0000 34.3392
#
#
#
# Elastic Compliance Matrix: (Units=1/GPa)
#
#
# Indices 1 2 3 4 5 6 
#
# 1 0.002514 0.004343 -0.002256 0.000000 0.000000 0.000000
# 2 0.004343 0.002514 -0.002256 0.000000 0.000000 0.000000
# 3 -0.002256 -0.002256 0.010955 0.000000 0.000000 0.000000
# 4 0.000000 0.000000 0.000000 0.026931 0.000000 0.000000
# 5 0.000000 0.000000 0.000000 0.000000 0.026933 0.000000
# 6 0.000000 0.000000 0.000000 0.000000 0.000000 0.029121
#
#
# Mechanical properties :
#
#
# Convention : Reuss Voigt Hill
#
# Bulk Modulus (GPa) = 63.91750 64.65949 64.28849
# Shear Modulus (GPa) = 47.83750 -24.93450 11.45150
#
# Velocity S-wave (km/s) = 4.71562 -3.40451 2.30720
# Velocity P-wave (km/s) = 7.70462 3.82131 6.08127
#
# Compressibility (1/GPa) = 0.01564517
#
# Stress axis : x y z
#
# Youngs Moduli (GPa) = 397.70604 397.78339 91.28534
#
# Poissons Ratio (x) = -1.72750 0.20595
# Poissons Ratio (y) = -1.72716 0.20590
# Poissons Ratio (z) = 0.89728 0.89724
#
# Static dielectric constant tensor:
#      x y z
#    x 3.885270 0.000000 0.000000 
#    y 0.000000 3.885380 0.000000 
#    z 0.000000 0.000000 4.017350 
# 
# 
# High freq. dielectric constant tensor:
#      x y z
#    x 1.842650 0.000000 0.000000 
#    y 0.000000 1.842650 0.000000 
#    z 0.000000 0.000000 1.857500 
# 
# From -- ./inp_files/817.got.cif
#   From: 2010.03.12/outbox.cif.g09.slc.cpg/sg117_1_cif.got.tgz:817.got - 2010.04.14 02:19:01.
