data_PCOD8310895
_publ_section_title
;
Structure prediction by ZEFSAII (Michael W. Deem and Ramdas Pophale) SiO2 
 PCOD8310895
Probable space group: I -4 M 2
;
_chemical_formula_sum "Si O2"
_cell_formula_units_Z 88
_cell_length_a 14.731093
_cell_length_b 14.731093
_cell_length_c 21.627803
_cell_angle_alpha 90.000000
_cell_angle_beta 90.000000
_cell_angle_gamma 90.000000
_cell_volume 4693.343574
_symmetry_space_group_name_H-M "I -4 M 2"
_symmetry_group_IT_number 119
_symmetry_cell_setting 'tetragonal'
loop_
_space_group_symop_operation_xyz
x,y,z
y,-x,-z
-x,-y,z
-y,x,-z
y,x,-z
-y,-x,-z
-x,y,z
x,-y,z
1/2+x,1/2+y,1/2+z
1/2+y,1/2-x,1/2-z
1/2-x,1/2-y,1/2+z
1/2-y,1/2+x,1/2-z
1/2+y,1/2+x,1/2-z
1/2-y,1/2-x,1/2-z
1/2-x,1/2+y,1/2+z
1/2+x,1/2-y,1/2+z
loop_
_atom_site_type_symbol
_atom_site_label
_atom_site_fract_x
_atom_site_fract_y
_atom_site_fract_z
Si Si1 0.896371 0.261055 0.218133
Si Si2 0.895163 0.604838 0.750000
Si Si3 0.271797 0.898935 0.046065
Si Si4 0.101474 0.896454 0.310937
Si Si5 0.895074 0.284666 0.629651
Si Si6 0.602990 0.700148 0.584590
O O1 0.837614 0.337614 0.250000
O O2 0.881464 0.164256 0.250781
O O3 0.866772 0.251791 0.146811
O O4 0.000000 0.292962 0.223404
O O5 0.877436 0.500000 0.733440
O O6 0.863502 0.664860 0.692105
O O7 0.339540 0.823032 0.071922
O O8 0.170154 0.883869 0.072309
O O9 0.303294 0.000000 0.065574
O O10 0.271767 0.889527 0.971753
O O11 0.176895 0.875187 0.363356
O O12 0.000000 0.880018 0.338554
O O13 0.113327 0.000000 0.288282
O O14 0.000000 0.304671 0.616290
O O15 0.500000 0.662457 0.590837
#
# Coordination Sequence:
#
# PCOD8310895 Si02
#       6
#    16   8  16  16  16  16
#     4  10  20  35  55  77 104 136 172 218 267 312
#     4   9  18  30  44  72 112 144 173 212 262 324
#     4  10  20  34  54  77 108 147 179 214 263 322
#     4   9  19  34  52  79 112 142 175 218 268 320
#     4  10  20  33  53  80 110 144 181 220 268 324
#     4   9  20  36  52  76 107 139 179 223 264 312
#
# _framework density 18.749957999999999
#
# number of rings (size 3 to 8) (size 9 to 14) (size 15 to 20)
#    0.000    2.455    0.000    1.636    3.818    2.364 
#    0.000    4.545    0.000    7.636    0.000    0.000 
#    0.000    5.818    0.000    0.000    0.000    0.000 
#
# Total GULP energy -545583.918560 kJ/mol
# GULP energy per Si atom -12399.634513 kJ/mol
# Density = 1.870728 g / cm^3
# Si number density = 18.749958 Si / 1000 Ang^3
#
#
#
# Elastic Constant Matrix: (Units=GPa)
#
#
# Indices 1 2 3 4 5 6 
#
# 1 93.4813 53.7838 56.7253 0.0000 0.0000 0.0000
# 2 53.7838 93.4807 56.7255 0.0000 0.0000 0.0000
# 3 56.7253 56.7255 107.3356 0.0000 0.0000 0.0000
# 4 0.0000 0.0000 0.0000 25.0377 0.0000 0.0000
# 5 0.0000 0.0000 0.0000 0.0000 25.0377 0.0000
# 6 0.0000 0.0000 0.0000 0.0000 0.0000 29.0664
#
#
#
# Elastic Compliance Matrix: (Units=1/GPa)
#
#
# Indices 1 2 3 4 5 6 
#
# 1 0.018322 -0.006868 -0.006053 0.000000 0.000000 0.000000
# 2 -0.006868 0.018322 -0.006053 0.000000 0.000000 0.000000
# 3 -0.006053 -0.006053 0.015715 0.000000 0.000000 0.000000
# 4 0.000000 0.000000 0.000000 0.039940 0.000000 0.000000
# 5 0.000000 0.000000 0.000000 0.000000 0.039940 0.000000
# 6 0.000000 0.000000 0.000000 0.000000 0.000000 0.034404
#
#
# Mechanical properties :
#
#
# Convention : Reuss Voigt Hill
#
# Bulk Modulus (GPa) = 69.39872 69.86298 69.63085
# Shear Modulus (GPa) = 23.87828 24.29922 24.08875
#
# Velocity S-wave (km/s) = 3.57250 3.60385 3.58821
# Velocity P-wave (km/s) = 7.35596 7.39312 7.37456
#
# Compressibility (1/GPa) = 0.01440949
#
# Stress axis : x y z
#
# Youngs Moduli (GPa) = 54.57893 54.57822 63.63505
#
# Poissons Ratio (x) = 0.37487 0.38519
# Poissons Ratio (y) = 0.37487 0.38520
# Poissons Ratio (z) = 0.33037 0.33038
#
# Static dielectric constant tensor:
#      x y z
#    x 3.486340 0.000000 0.000000 
#    y 0.000000 3.486350 0.000000 
#    z 0.000000 0.000000 3.367780 
# 
# 
# High freq. dielectric constant tensor:
#      x y z
#    x 1.727560 0.000000 0.000000 
#    y 0.000000 1.727560 0.000000 
#    z 0.000000 0.000000 1.711030 
# 
# From -- ./inp_files/7690.got.cif
#   From: 2010.03.12/outbox.cif.g09.slc.cpg/sg119_4_cif.got.tgz:7690.got - 2010.04.14 02:25:26.
