data_PCOD8310959
_publ_section_title
;
Structure prediction by ZEFSAII (Michael W. Deem and Ramdas Pophale) SiO2 
 PCOD8310959
Probable space group: I -4 M 2
;
_chemical_formula_sum "Si O2"
_cell_formula_units_Z 58
_cell_length_a 11.833611
_cell_length_b 11.833611
_cell_length_c 18.060877
_cell_angle_alpha 90.000000
_cell_angle_beta 90.000000
_cell_angle_gamma 90.000000
_cell_volume 2529.143158
_symmetry_space_group_name_H-M "I -4 M 2"
_symmetry_group_IT_number 119
_symmetry_cell_setting 'tetragonal'
loop_
_space_group_symop_operation_xyz
x,y,z
y,-x,-z
-x,-y,z
-y,x,-z
y,x,-z
-y,-x,-z
-x,y,z
x,-y,z
1/2+x,1/2+y,1/2+z
1/2+y,1/2-x,1/2-z
1/2-x,1/2-y,1/2+z
1/2-y,1/2+x,1/2-z
1/2+y,1/2+x,1/2-z
1/2-y,1/2-x,1/2-z
1/2-x,1/2+y,1/2+z
1/2+x,1/2-y,1/2+z
loop_
_atom_site_type_symbol
_atom_site_label
_atom_site_fract_x
_atom_site_fract_y
_atom_site_fract_z
Si Si1 0.000000 0.000000 0.500000
Si Si2 0.877029 0.122972 0.000000
Si Si3 0.368663 0.000000 0.591449
Si Si4 0.247034 0.000000 0.434913
Si Si5 0.373900 0.168945 0.329660
Si Si6 0.625995 0.760308 0.642678
O O1 0.110575 0.000000 0.445693
O O2 0.864398 0.222919 0.057653
O O3 0.000000 0.132539 0.960402
O O4 0.339964 0.892279 0.643190
O O5 0.500000 0.000000 0.568375
O O6 0.296998 0.000000 0.516869
O O7 0.290902 0.107718 0.388032
O O8 0.500000 0.176617 0.364802
O O9 0.389457 0.110544 0.250000
O O10 0.318703 0.290585 0.310676
O O11 0.500000 0.742036 0.674245
#
# Coordination Sequence:
#
# PCOD8310959 Si02
#       6
#     2   8   8   8  16  16
#     4  12  28  48  76 120 140 200 220 310 392 416
#     4   9  16  29  54  87 124 161 210 282 346 396
#     4  10  20  38  68 102 136 186 230 292 369 417
#     4  12  24  44  72 102 146 176 236 288 350 445
#     4  12  25  44  66  95 132 184 239 291 349 425
#     4  10  21  38  61  95 134 172 228 285 349 430
#
# _framework density 22.932668
#
# number of rings (size 3 to 8) (size 9 to 14) (size 15 to 20)
#    0.000    1.241    1.379    5.379    0.000    3.862 
#    4.966    0.000    0.000    0.000    0.000    0.000 
#    0.000    0.000    0.000    0.000    0.000    0.000 
#
# Total GULP energy -359408.898261 kJ/mol
# GULP energy per Si atom -12393.410285 kJ/mol
# Density = 2.288047 g / cm^3
# Si number density = 22.932668 Si / 1000 Ang^3
#
#
#
# Elastic Constant Matrix: (Units=GPa)
#
#
# Indices 1 2 3 4 5 6 
#
# 1 163.4476 65.7082 23.0301 0.0000 0.0000 0.0000
# 2 65.7082 163.4466 23.0305 0.0000 0.0000 0.0000
# 3 23.0301 23.0305 41.0390 0.0000 0.0000 0.0000
# 4 0.0000 0.0000 0.0000 22.8224 0.0000 0.0000
# 5 0.0000 0.0000 0.0000 0.0000 22.8220 0.0000
# 6 0.0000 0.0000 0.0000 0.0000 0.0000 36.0966
#
#
#
# Elastic Compliance Matrix: (Units=1/GPa)
#
#
# Indices 1 2 3 4 5 6 
#
# 1 0.007575 -0.002656 -0.002760 0.000000 0.000000 0.000000
# 2 -0.002656 0.007575 -0.002760 0.000000 0.000000 0.000000
# 3 -0.002760 -0.002760 0.027465 0.000000 0.000000 0.000000
# 4 0.000000 0.000000 0.000000 0.043817 0.000000 0.000000
# 5 0.000000 0.000000 0.000000 0.000000 0.043817 0.000000
# 6 0.000000 0.000000 0.000000 0.000000 0.000000 0.027703
#
#
# Mechanical properties :
#
#
# Convention : Reuss Voigt Hill
#
# Bulk Modulus (GPa) = 38.07874 65.71900 51.89887
# Shear Modulus (GPa) = 27.31344 33.42583 30.36963
#
# Velocity S-wave (km/s) = 3.45487 3.82195 3.64304
# Velocity P-wave (km/s) = 5.70574 6.94233 6.35419
#
# Compressibility (1/GPa) = 0.02626138
#
# Stress axis : x y z
#
# Youngs Moduli (GPa) = 132.01373 132.01247 36.40983
#
# Poissons Ratio (x) = 0.35067 0.10050
# Poissons Ratio (y) = 0.35067 0.10050
# Poissons Ratio (z) = 0.36438 0.36440
#
# Static dielectric constant tensor:
#      x y z
#    x 4.483170 0.000000 0.000000 
#    y 0.000000 4.483170 0.000000 
#    z 0.000000 0.000000 3.596950 
# 
# 
# High freq. dielectric constant tensor:
#      x y z
#    x 1.919930 0.000000 0.000000 
#    y 0.000000 1.919930 0.000000 
#    z 0.000000 0.000000 1.870600 
# 
# From -- ./inp_files/7446.got.cif
#   From: 2010.03.12/outbox.cif.g09.slc.cpg/sg119_4_cif.got.tgz:7446.got - 2010.04.14 02:25:26.
