data_PCOD8310775
_publ_section_title
;
Structure prediction by ZEFSAII (Michael W. Deem and Ramdas Pophale) SiO2 
 PCOD8310775
Probable space group: I -4 M 2
;
_chemical_formula_sum "Si O2"
_cell_formula_units_Z 80
_cell_length_a 13.521069
_cell_length_b 13.521069
_cell_length_c 26.993737
_cell_angle_alpha 90.000000
_cell_angle_beta 90.000000
_cell_angle_gamma 90.000000
_cell_volume 4934.976289
_symmetry_space_group_name_H-M "I -4 M 2"
_symmetry_group_IT_number 119
_symmetry_cell_setting 'tetragonal'
loop_
_space_group_symop_operation_xyz
x,y,z
y,-x,-z
-x,-y,z
-y,x,-z
y,x,-z
-y,-x,-z
-x,y,z
x,-y,z
1/2+x,1/2+y,1/2+z
1/2+y,1/2-x,1/2-z
1/2-x,1/2-y,1/2+z
1/2-y,1/2+x,1/2-z
1/2+y,1/2+x,1/2-z
1/2-y,1/2-x,1/2-z
1/2-x,1/2+y,1/2+z
1/2+x,1/2-y,1/2+z
loop_
_atom_site_type_symbol
_atom_site_label
_atom_site_fract_x
_atom_site_fract_y
_atom_site_fract_z
Si Si1 0.886034 0.293145 0.296674
Si Si2 0.802506 0.117419 0.550705
Si Si3 0.891769 0.617002 0.103226
Si Si4 0.308054 0.386011 0.849790
Si Si5 0.883755 0.391966 0.694736
O O1 0.818115 0.318115 0.250000
O O2 0.846440 0.359342 0.342411
O O3 0.875617 0.178545 0.312706
O O4 0.000000 0.315589 0.283713
O O5 0.831474 0.168526 0.500000
O O6 0.689085 0.148470 0.562323
O O7 0.873300 0.158646 0.593640
O O8 0.816289 0.000000 0.546997
O O9 0.896240 0.500000 0.105020
O O10 0.000000 0.661211 0.089735
O O11 0.320911 0.500000 0.834143
O O12 0.193159 0.350849 0.843908
O O13 0.835104 0.500000 0.682036
O O14 0.855228 0.355228 0.750000
O O15 0.000000 0.406156 0.692584
#
# Coordination Sequence:
#
# PCOD8310775 Si02
#       5
#    16  16  16  16  16
#     4  10  19  29  44  67  92 119 151 183 220 269
#     4  10  20  32  46  64  87 117 150 182 221 270
#     4   8  15  29  47  65  86 111 139 177 223 263
#     4  10  19  30  45  66  92 120 152 188 223 264
#     4   8  14  26  44  64  88 119 149 178 218 264
#
# _framework density 16.210816999999999
#
# number of rings (size 3 to 8) (size 9 to 14) (size 15 to 20)
#    0.000    2.800    0.000    4.200    0.000    3.600 
#    0.000    1.000    0.000    4.800    0.000    0.000 
#    0.000   15.600    0.000    0.000    0.000    0.000 
#
# Total GULP energy -495713.025930 kJ/mol
# GULP energy per Si atom -12392.825648 kJ/mol
# Density = 1.617392 g / cm^3
# Si number density = 16.210817 Si / 1000 Ang^3
#
#
#
# Elastic Constant Matrix: (Units=GPa)
#
#
# Indices 1 2 3 4 5 6 
#
# 1 82.6687 24.6306 45.8544 0.0000 0.0000 0.0000
# 2 24.6306 82.6683 45.8543 0.0000 0.0000 0.0000
# 3 45.8544 45.8543 118.1061 0.0000 0.0000 0.0000
# 4 0.0000 0.0000 0.0000 17.0307 0.0000 0.0000
# 5 0.0000 0.0000 0.0000 0.0000 17.0318 0.0000
# 6 0.0000 0.0000 0.0000 0.0000 0.0000 15.4068
#
#
#
# Elastic Compliance Matrix: (Units=1/GPa)
#
#
# Indices 1 2 3 4 5 6 
#
# 1 0.015589 -0.001641 -0.005415 0.000000 0.000000 0.000000
# 2 -0.001641 0.015589 -0.005415 0.000000 0.000000 0.000000
# 3 -0.005415 -0.005415 0.012672 0.000000 0.000000 0.000000
# 4 0.000000 0.000000 0.000000 0.058718 0.000000 0.000000
# 5 0.000000 0.000000 0.000000 0.000000 0.058714 0.000000
# 6 0.000000 0.000000 0.000000 0.000000 0.000000 0.064906
#
#
# Mechanical properties :
#
#
# Convention : Reuss Voigt Hill
#
# Bulk Modulus (GPa) = 52.89045 57.34688 55.11866
# Shear Modulus (GPa) = 19.42250 21.03412 20.22831
#
# Velocity S-wave (km/s) = 3.46514 3.60604 3.53629
# Velocity P-wave (km/s) = 6.97905 7.26571 7.12382
#
# Compressibility (1/GPa) = 0.01890701
#
# Stress axis : x y z
#
# Youngs Moduli (GPa) = 64.14709 64.14677 78.91424
#
# Poissons Ratio (x) = 0.10526 0.42735
# Poissons Ratio (y) = 0.10526 0.42735
# Poissons Ratio (z) = 0.34738 0.34738
#
# Static dielectric constant tensor:
#      x y z
#    x 3.319900 0.000000 0.000000 
#    y 0.000000 3.319900 0.000000 
#    z 0.000000 0.000000 2.962810 
# 
# 
# High freq. dielectric constant tensor:
#      x y z
#    x 1.612260 0.000000 0.000000 
#    y 0.000000 1.612260 0.000000 
#    z 0.000000 0.000000 1.607780 
# 
# From -- ./inp_files/8607.got.cif
#   From: 2010.03.12/outbox.cif.g09.slc.cpg/sg119_5_cif.got.tgz:8607.got - 2010.04.14 02:25:26.
