data_PCOD8310313
_publ_section_title
;
Structure prediction by ZEFSAII (Michael W. Deem and Ramdas Pophale) SiO2 
 PCOD8310313
Probable space group: P -4 B 2
;
_chemical_formula_sum "Si O2"
_cell_formula_units_Z 48
_cell_length_a 14.160218
_cell_length_b 14.160218
_cell_length_c 11.583442
_cell_angle_alpha 90.000000
_cell_angle_beta 90.000000
_cell_angle_gamma 90.000000
_cell_volume 2322.616502
_symmetry_space_group_name_H-M "P -4 B 2"
_symmetry_group_IT_number 117
_symmetry_cell_setting 'tetragonal'
loop_
_space_group_symop_operation_xyz
x,y,z
y,-x,-z
-x,-y,z
-y,x,-z
1/2+y,1/2+x,-z
1/2-y,1/2-x,-z
1/2-x,1/2+y,z
1/2+x,1/2-y,z
loop_
_atom_site_type_symbol
_atom_site_label
_atom_site_fract_x
_atom_site_fract_y
_atom_site_fract_z
Si Si1 0.191793 0.335331 0.754548
Si Si2 0.638371 0.796677 0.729270
Si Si3 0.599179 0.021786 0.378574
Si Si4 0.811408 0.478454 0.861998
Si Si5 0.065684 0.808215 0.930167
Si Si6 0.000000 0.000000 0.000000
Si Si7 0.500000 0.000000 0.000000
Si Si8 0.220613 0.279388 0.000000
O O1 0.277762 0.276447 0.694368
O O2 0.098580 0.330869 0.676307
O O3 0.219867 0.446129 0.764281
O O4 0.161204 0.302846 0.884137
O O5 0.578646 0.842315 0.622058
O O6 0.692311 0.875171 0.805726
O O7 0.558473 0.745451 0.807872
O O8 0.563770 0.063770 0.500000
O O9 0.500000 0.000000 0.309395
O O10 0.739054 0.493380 0.967296
O O11 0.912957 0.500020 0.913598
O O12 0.173760 0.802660 0.966426
O O13 0.028615 0.914634 0.914994
#
# Coordination Sequence:
#
# PCOD8310313 Si02
#       8
#     8   8   8   8   8   2   2   4
#     4  11  23  38  63 100 131 175 223 279 351 418
#     4  11  22  41  66  95 135 176 226 294 344 409
#     4  11  25  47  69  95 128 170 237 301 348 409
#     4  12  20  35  59  96 132 180 231 271 337 424
#     4  11  21  39  54  91 140 185 220 264 341 421
#     4  12  28  32  56  92 148 206 220 268 344 428
#     4  12  20  32  60  88 132 194 236 264 326 396
#     4  10  20  38  59  89 139 167 218 268 317 435
#
# _framework density 20.666346999999998
#
# number of rings (size 3 to 8) (size 9 to 14) (size 15 to 20)
#    0.000    0.833    6.667    3.500    4.667    0.000 
#    3.000    0.000    0.000    0.000    0.000    0.000 
#    0.000    0.000    0.000    0.000    0.000    0.000 
#
# Total GULP energy -594626.354305 kJ/mol
# GULP energy per Si atom -12388.049048 kJ/mol
# Density = 2.061931 g / cm^3
# Si number density = 20.666347 Si / 1000 Ang^3
#
#
#
# Elastic Constant Matrix: (Units=GPa)
#
#
# Indices 1 2 3 4 5 6 
#
# 1 117.2091 57.0540 30.0828 0.0000 0.0000 0.0000
# 2 57.0540 117.2090 30.0828 0.0000 0.0000 0.0000
# 3 30.0828 30.0828 71.2858 0.0000 0.0000 0.0000
# 4 0.0000 0.0000 0.0000 19.4948 0.0000 0.0000
# 5 0.0000 0.0000 0.0000 0.0000 19.4929 0.0000
# 6 0.0000 0.0000 0.0000 0.0000 0.0000 51.6551
#
#
#
# Elastic Compliance Matrix: (Units=1/GPa)
#
#
# Indices 1 2 3 4 5 6 
#
# 1 0.011670 -0.004953 -0.002835 0.000000 0.000000 0.000000
# 2 -0.004953 0.011670 -0.002835 0.000000 0.000000 0.000000
# 3 -0.002835 -0.002835 0.016420 0.000000 0.000000 0.000000
# 4 0.000000 0.000000 0.000000 0.051296 0.000000 0.000000
# 5 0.000000 0.000000 0.000000 0.000000 0.051301 0.000000
# 6 0.000000 0.000000 0.000000 0.000000 0.000000 0.019359
#
#
# Mechanical properties :
#
#
# Convention : Reuss Voigt Hill
#
# Bulk Modulus (GPa) = 54.00686 60.01591 57.01138
# Shear Modulus (GPa) = 26.43627 30.69418 28.56522
#
# Velocity S-wave (km/s) = 3.58046 3.85804 3.72184
# Velocity P-wave (km/s) = 6.57894 6.99639 6.79087
#
# Compressibility (1/GPa) = 0.01851617
#
# Stress axis : x y z
#
# Youngs Moduli (GPa) = 85.68676 85.68673 60.89951
#
# Poissons Ratio (x) = 0.42443 0.17263
# Poissons Ratio (y) = 0.42443 0.17263
# Poissons Ratio (z) = 0.24289 0.24289
#
# Static dielectric constant tensor:
#      x y z
#    x 4.270650 0.000000 0.000000 
#    y 0.000000 4.270750 0.000000 
#    z 0.000000 0.000000 3.784270 
# 
# 
# High freq. dielectric constant tensor:
#      x y z
#    x 1.817300 0.000000 0.000000 
#    y 0.000000 1.817300 0.000000 
#    z 0.000000 0.000000 1.759600 
# 
# From -- ./inp_files/2830.got.cif
#   From: 2010.03.12/outbox.cif.g09.slc.cpg/sg117_2_cif.got.tgz:2830.got - 2010.04.14 02:19:01.
