data_PCOD8310608
_publ_section_title
;
Structure prediction by ZEFSAII (Michael W. Deem and Ramdas Pophale) SiO2 
 PCOD8310608
Probable space group: P -4 N 2
;
_chemical_formula_sum "Si O2"
_cell_formula_units_Z 40
_cell_length_a 8.816022
_cell_length_b 8.816022
_cell_length_c 23.071552
_cell_angle_alpha 90.000000
_cell_angle_beta 90.000000
_cell_angle_gamma 90.000000
_cell_volume 1793.172792
_symmetry_space_group_name_H-M "P -4 N 2"
_symmetry_group_IT_number 118
_symmetry_cell_setting 'tetragonal'
loop_
_space_group_symop_operation_xyz
x,y,z
y,-x,-z
-x,-y,z
-y,x,-z
1/2+y,1/2+x,1/2-z
1/2-y,1/2-x,1/2-z
1/2-x,1/2+y,1/2+z
1/2+x,1/2-y,1/2+z
loop_
_atom_site_type_symbol
_atom_site_label
_atom_site_fract_x
_atom_site_fract_y
_atom_site_fract_z
Si Si1 0.688420 0.839868 0.614092
Si Si2 0.240049 0.069597 0.495257
Si Si3 0.329013 0.456486 0.309380
Si Si4 0.022151 0.333289 0.625746
Si Si5 0.617996 0.310796 0.819409
O O1 0.647427 0.869398 0.546317
O O2 0.549514 0.797383 0.655167
O O3 0.800735 0.696456 0.616873
O O4 0.760791 0.999595 0.632455
O O5 0.330352 0.071311 0.434675
O O6 0.098527 0.182620 0.490219
O O7 0.500000 0.500000 0.329493
O O8 0.312014 0.477497 0.240312
O O9 0.275668 0.285420 0.320998
O O10 0.974454 0.190814 0.666737
O O11 0.000000 0.500000 0.654065
#
# Coordination Sequence:
#
# PCOD8310608 Si02
#       5
#     8   8   8   8   8
#     4  11  21  39  65  91 124 172 222 279 332 403
#     4   9  18  36  62  91 123 167 218 273 333 410
#     4  11  24  41  62  92 131 169 219 281 339 394
#     4  11  22  38  63  93 131 167 221 278 340 406
#     4  11  23  41  64  92 128 174 221 270 334 418
#
# _framework density 22.306832
#
# number of rings (size 3 to 8) (size 9 to 14) (size 15 to 20)
#    0.000    1.400    2.000    4.200    0.000    3.200 
#    0.000    6.000    0.000    0.000    0.000    0.000 
#    0.000    0.000    0.000    0.000    0.000    0.000 
#
# Total GULP energy -495688.334660 kJ/mol
# GULP energy per Si atom -12392.208367 kJ/mol
# Density = 2.225606 g / cm^3
# Si number density = 22.306832 Si / 1000 Ang^3
#
#
#
# Elastic Constant Matrix: (Units=GPa)
#
#
# Indices 1 2 3 4 5 6 
#
# 1 75.0043 6.8543 16.2131 0.0000 0.0000 0.0000
# 2 6.8543 75.0043 16.2131 0.0000 0.0000 0.0000
# 3 16.2131 16.2131 117.7430 0.0000 0.0000 0.0000
# 4 0.0000 0.0000 0.0000 32.5531 0.0000 0.0000
# 5 0.0000 0.0000 0.0000 0.0000 32.5531 0.0000
# 6 0.0000 0.0000 0.0000 0.0000 0.0000 36.2262
#
#
#
# Elastic Compliance Matrix: (Units=1/GPa)
#
#
# Indices 1 2 3 4 5 6 
#
# 1 0.013797 -0.000876 -0.001779 0.000000 0.000000 0.000000
# 2 -0.000876 0.013797 -0.001779 0.000000 0.000000 0.000000
# 3 -0.001779 -0.001779 0.008983 0.000000 0.000000 0.000000
# 4 0.000000 0.000000 0.000000 0.030719 0.000000 0.000000
# 5 0.000000 0.000000 0.000000 0.000000 0.030719 0.000000
# 6 0.000000 0.000000 0.000000 0.000000 0.000000 0.027604
#
#
# Mechanical properties :
#
#
# Convention : Reuss Voigt Hill
#
# Bulk Modulus (GPa) = 36.09042 38.47917 37.28479
# Shear Modulus (GPa) = 34.78859 35.49791 35.14325
#
# Velocity S-wave (km/s) = 3.95340 3.99350 3.97350
# Velocity P-wave (km/s) = 6.08714 6.20898 6.14836
#
# Compressibility (1/GPa) = 0.02770819
#
# Stress axis : x y z
#
# Youngs Moduli (GPa) = 72.47825 72.47825 111.32064
#
# Poissons Ratio (x) = 0.06351 0.19806
# Poissons Ratio (y) = 0.06351 0.19806
# Poissons Ratio (z) = 0.12895 0.12895
#
# Static dielectric constant tensor:
#      x y z
#    x 3.833010 0.000000 0.000000 
#    y 0.000000 3.833010 0.000000 
#    z 0.000000 0.000000 4.115550 
# 
# 
# High freq. dielectric constant tensor:
#      x y z
#    x 1.868520 0.000000 0.000000 
#    y 0.000000 1.868520 0.000000 
#    z 0.000000 0.000000 1.879520 
# 
# From -- ./inp_files/5993.got.cif
#   From: 2010.03.12/outbox.cif.g09.slc.cpg/sg118_3_cif.got.tgz:5993.got - 2010.04.14 02:21:17.
