data_PCOD8310745
_publ_section_title
;
Structure prediction by ZEFSAII (Michael W. Deem and Ramdas Pophale) SiO2 
 PCOD8310745
Probable space group: I -4 M 2
;
_chemical_formula_sum "Si O2"
_cell_formula_units_Z 128
_cell_length_a 17.940187
_cell_length_b 17.940187
_cell_length_c 23.878623
_cell_angle_alpha 90.000000
_cell_angle_beta 90.000000
_cell_angle_gamma 90.000000
_cell_volume 7685.342205
_symmetry_space_group_name_H-M "I -4 M 2"
_symmetry_group_IT_number 119
_symmetry_cell_setting 'tetragonal'
loop_
_space_group_symop_operation_xyz
x,y,z
y,-x,-z
-x,-y,z
-y,x,-z
y,x,-z
-y,-x,-z
-x,y,z
x,-y,z
1/2+x,1/2+y,1/2+z
1/2+y,1/2-x,1/2-z
1/2-x,1/2-y,1/2+z
1/2-y,1/2+x,1/2-z
1/2+y,1/2+x,1/2-z
1/2-y,1/2-x,1/2-z
1/2-x,1/2+y,1/2+z
1/2+x,1/2-y,1/2+z
loop_
_atom_site_type_symbol
_atom_site_label
_atom_site_fract_x
_atom_site_fract_y
_atom_site_fract_z
Si Si1 0.085645 0.199919 0.820276
Si Si2 0.736747 0.208471 0.940423
Si Si3 0.084718 0.357847 0.192749
Si Si4 0.196794 0.413694 0.777822
Si Si5 0.822926 0.329791 0.617582
Si Si6 0.416329 0.917190 0.032466
Si Si7 0.704063 0.586042 0.364302
Si Si8 0.653922 0.917272 0.581121
O O1 0.100674 0.225804 0.755974
O O2 0.103793 0.272628 0.857524
O O3 0.133616 0.127601 0.836673
O O4 0.000000 0.177824 0.829850
O O5 0.761047 0.269500 0.895551
O O6 0.768366 0.127217 0.921291
O O7 0.646791 0.212265 0.937475
O O8 0.771719 0.228282 0.000000
O O9 0.128647 0.371354 0.250000
O O10 0.089158 0.270054 0.180884
O O11 0.121244 0.404492 0.142584
O O12 0.000000 0.384948 0.199612
O O13 0.176475 0.500000 0.778753
O O14 0.127222 0.372779 0.750000
O O15 0.204513 0.383937 0.840739
O O16 0.861540 0.358574 0.561177
O O17 0.500000 0.901547 0.053934
O O18 0.391368 0.000000 0.049505
O O19 0.412581 0.911400 0.965171
O O20 0.683395 0.500000 0.378662
O O21 0.691317 0.000000 0.579587
#
# Coordination Sequence:
#
# PCOD8310745 Si02
#       8
#    16  16  16  16  16  16  16  16
#     4   9  18  32  50  71  96 127 167 207 250 295
#     4  10  19  35  51  73 100 133 171 207 251 299
#     4  10  20  33  50  73 101 133 167 202 246 305
#     4   9  18  31  48  73 102 134 165 200 249 302
#     4  10  18  31  50  70  98 131 170 208 243 297
#     4  10  19  29  44  69 101 133 164 201 247 300
#     4   9  20  35  52  74  99 129 168 211 256 299
#     4  10  20  33  49  71 102 132 167 208 250 300
#
# _framework density 16.655082
#
# number of rings (size 3 to 8) (size 9 to 14) (size 15 to 20)
#    0.000    2.375    1.250    1.500    0.000    6.250 
#    0.000    0.625    0.000    0.000    0.000    0.000 
#    0.000    3.750    0.000    0.000    0.000    0.000 
#
# Total GULP energy -793314.894604 kJ/mol
# GULP energy per Si atom -12395.545228 kJ/mol
# Density = 1.661717 g / cm^3
# Si number density = 16.655082 Si / 1000 Ang^3
#
#
#
# Elastic Constant Matrix: (Units=GPa)
#
#
# Indices 1 2 3 4 5 6 
#
# 1 104.2546 51.3595 39.1615 0.0000 0.0000 0.0000
# 2 51.3595 104.2554 39.1618 0.0000 0.0000 0.0000
# 3 39.1615 39.1618 101.4249 0.0000 0.0000 0.0000
# 4 0.0000 0.0000 0.0000 22.0659 0.0000 0.0000
# 5 0.0000 0.0000 0.0000 0.0000 22.0658 0.0000
# 6 0.0000 0.0000 0.0000 0.0000 0.0000 22.1202
#
#
#
# Elastic Compliance Matrix: (Units=1/GPa)
#
#
# Indices 1 2 3 4 5 6 
#
# 1 0.013441 -0.005464 -0.003080 0.000000 0.000000 0.000000
# 2 -0.005464 0.013441 -0.003080 0.000000 0.000000 0.000000
# 3 -0.003080 -0.003080 0.012238 0.000000 0.000000 0.000000
# 4 0.000000 0.000000 0.000000 0.045319 0.000000 0.000000
# 5 0.000000 0.000000 0.000000 0.000000 0.045319 0.000000
# 6 0.000000 0.000000 0.000000 0.000000 0.000000 0.045208
#
#
# Mechanical properties :
#
#
# Convention : Reuss Voigt Hill
#
# Bulk Modulus (GPa) = 63.00695 63.25562 63.13128
# Shear Modulus (GPa) = 24.56969 25.26719 24.91844
#
# Velocity S-wave (km/s) = 3.84501 3.89920 3.87220
# Velocity P-wave (km/s) = 7.59109 7.63767 7.61442
#
# Compressibility (1/GPa) = 0.01587127
#
# Stress axis : x y z
#
# Youngs Moduli (GPa) = 74.40058 74.40102 81.71419
#
# Poissons Ratio (x) = 0.40656 0.25166
# Poissons Ratio (y) = 0.40656 0.25166
# Poissons Ratio (z) = 0.22913 0.22914
#
# Static dielectric constant tensor:
#      x y z
#    x 3.099360 0.000000 0.000000 
#    y 0.000000 3.099360 0.000000 
#    z 0.000000 0.000000 3.198250 
# 
# 
# High freq. dielectric constant tensor:
#      x y z
#    x 1.631910 0.000000 0.000000 
#    y 0.000000 1.631910 0.000000 
#    z 0.000000 0.000000 1.646700 
# 
# From -- ./inp_files/9014.got.cif
#   From: 2010.03.12/outbox.cif.g09.slc.cpg/sg119_5_cif.got.tgz:9014.got - 2010.04.14 02:25:26.
