data_PCOD8310723
_publ_section_title
;
Structure prediction by ZEFSAII (Michael W. Deem and Ramdas Pophale) SiO2 
 PCOD8310723
Probable space group: I -4 M 2
;
_chemical_formula_sum "Si O2"
_cell_formula_units_Z 112
_cell_length_a 14.503356
_cell_length_b 14.503356
_cell_length_c 35.684869
_cell_angle_alpha 90.000000
_cell_angle_beta 90.000000
_cell_angle_gamma 90.000000
_cell_volume 7506.217103
_symmetry_space_group_name_H-M "I -4 M 2"
_symmetry_group_IT_number 119
_symmetry_cell_setting 'tetragonal'
loop_
_space_group_symop_operation_xyz
x,y,z
y,-x,-z
-x,-y,z
-y,x,-z
y,x,-z
-y,-x,-z
-x,y,z
x,-y,z
1/2+x,1/2+y,1/2+z
1/2+y,1/2-x,1/2-z
1/2-x,1/2-y,1/2+z
1/2-y,1/2+x,1/2-z
1/2+y,1/2+x,1/2-z
1/2-y,1/2-x,1/2-z
1/2-x,1/2+y,1/2+z
1/2+x,1/2-y,1/2+z
loop_
_atom_site_type_symbol
_atom_site_label
_atom_site_fract_x
_atom_site_fract_y
_atom_site_fract_z
Si Si1 0.897522 0.704181 0.988932
Si Si2 0.399625 0.603938 0.450645
Si Si3 0.106603 0.287514 0.361741
Si Si4 0.106851 0.218938 0.530657
Si Si5 0.895213 0.101908 0.395337
Si Si6 0.710574 0.897114 0.923759
Si Si7 0.603120 0.109759 0.709033
O O1 0.890081 0.813266 0.980681
O O2 0.822853 0.645744 0.965792
O O3 0.000000 0.667274 0.978849
O O4 0.876252 0.688881 0.032816
O O5 0.500000 0.609000 0.431043
O O6 0.386952 0.500000 0.469664
O O7 0.321382 0.614468 0.418676
O O8 0.120601 0.176889 0.362379
O O9 0.157712 0.326230 0.397957
O O10 0.148079 0.328729 0.323217
O O11 0.000000 0.315651 0.365211
O O12 0.162350 0.162350 0.500000
O O13 0.122415 0.172710 0.570655
O O14 0.000000 0.220622 0.519180
O O15 0.000000 0.109256 0.410564
O O16 0.876646 0.000000 0.378443
O O17 0.678707 0.000000 0.912699
O O18 0.500000 0.148394 0.701371
O O19 0.640904 0.140904 0.750000
O O20 0.600263 0.000000 0.709100
#
# Coordination Sequence:
#
# PCOD8310723 Si02
#       7
#    16  16  16  16  16  16  16
#     4  10  20  31  42  58  81 107 137 175 218 259
#     4   9  17  29  44  59  76 103 141 181 213 242
#     4  10  18  28  43  60  81 108 131 156 197 241
#     4  11  21  32  45  58  76 105 142 180 215 249
#     4   9  18  30  42  58  78 101 136 178 208 231
#     4  10  19  27  37  57  81 103 131 166 203 245
#     4   8  14  25  41  62  86 107 126 147 174 221
#
# _framework density 14.920965000000001
#
# number of rings (size 3 to 8) (size 9 to 14) (size 15 to 20)
#    0.000    2.429    0.000    4.286    0.000    5.286 
#    0.000    5.714    0.000    0.000    0.000    1.000 
#    0.000    5.714    0.000    0.000    0.000    0.000 
#
# Total GULP energy -693905.340865 kJ/mol
# GULP energy per Si atom -12391.166801 kJ/mol
# Density = 1.488700 g / cm^3
# Si number density = 14.920965 Si / 1000 Ang^3
#
#
#
# Elastic Constant Matrix: (Units=GPa)
#
#
# Indices 1 2 3 4 5 6 
#
# 1 81.2749 42.4748 42.1510 0.0000 0.0000 0.0000
# 2 42.4748 81.2749 42.1510 0.0000 0.0000 0.0000
# 3 42.1510 42.1510 75.6865 0.0000 0.0000 0.0000
# 4 0.0000 0.0000 0.0000 13.7673 0.0000 0.0000
# 5 0.0000 0.0000 0.0000 0.0000 13.7673 0.0000
# 6 0.0000 0.0000 0.0000 0.0000 0.0000 20.7018
#
#
#
# Elastic Compliance Matrix: (Units=1/GPa)
#
#
# Indices 1 2 3 4 5 6 
#
# 1 0.019397 -0.006376 -0.007251 0.000000 0.000000 0.000000
# 2 -0.006376 0.019397 -0.007251 0.000000 0.000000 0.000000
# 3 -0.007251 -0.007251 0.021289 0.000000 0.000000 0.000000
# 4 0.000000 0.000000 0.000000 0.072636 0.000000 0.000000
# 5 0.000000 0.000000 0.000000 0.000000 0.072636 0.000000
# 6 0.000000 0.000000 0.000000 0.000000 0.000000 0.048305
#
#
# Mechanical properties :
#
#
# Convention : Reuss Voigt Hill
#
# Bulk Modulus (GPa) = 54.57040 54.64332 54.60686
# Shear Modulus (GPa) = 16.58228 17.07791 16.83009
#
# Velocity S-wave (km/s) = 3.33729 3.38680 3.36214
# Velocity P-wave (km/s) = 7.17652 7.21077 7.19367
#
# Compressibility (1/GPa) = 0.01832495
#
# Stress axis : x y z
#
# Youngs Moduli (GPa) = 51.55457 51.55457 46.97197
#
# Poissons Ratio (x) = 0.32872 0.34061
# Poissons Ratio (y) = 0.32872 0.34061
# Poissons Ratio (z) = 0.37385 0.37385
#
# Static dielectric constant tensor:
#      x y z
#    x 3.050920 0.000000 0.000000 
#    y 0.000000 3.050920 0.000000 
#    z 0.000000 0.000000 2.678930 
# 
# 
# High freq. dielectric constant tensor:
#      x y z
#    x 1.572840 0.000000 0.000000 
#    y 0.000000 1.572840 0.000000 
#    z 0.000000 0.000000 1.521410 
# 
# From -- ./inp_files/10446.got.cif
#   From: 2010.03.12/outbox.cif.g09.slc.cpg/sg119_6_cif.got.tgz:10446.got - 2010.04.14 02:25:26.
