data_PCOD8310767
_publ_section_title
;
Structure prediction by ZEFSAII (Michael W. Deem and Ramdas Pophale) SiO2 
 PCOD8310767
Probable space group: I -4 M 2
;
_chemical_formula_sum "Si O2"
_cell_formula_units_Z 50
_cell_length_a 11.316758
_cell_length_b 11.316758
_cell_length_c 19.455446
_cell_angle_alpha 90.000000
_cell_angle_beta 90.000000
_cell_angle_gamma 90.000000
_cell_volume 2491.639740
_symmetry_space_group_name_H-M "I -4 M 2"
_symmetry_group_IT_number 119
_symmetry_cell_setting 'tetragonal'
loop_
_space_group_symop_operation_xyz
x,y,z
y,-x,-z
-x,-y,z
-y,x,-z
y,x,-z
-y,-x,-z
-x,y,z
x,-y,z
1/2+x,1/2+y,1/2+z
1/2+y,1/2-x,1/2-z
1/2-x,1/2-y,1/2+z
1/2-y,1/2+x,1/2-z
1/2+y,1/2+x,1/2-z
1/2-y,1/2-x,1/2-z
1/2-x,1/2+y,1/2+z
1/2+x,1/2-y,1/2+z
loop_
_atom_site_type_symbol
_atom_site_label
_atom_site_fract_x
_atom_site_fract_y
_atom_site_fract_z
Si Si1 0.255419 0.361801 0.183389
Si Si2 0.000000 0.246950 0.704555
Si Si3 0.864258 0.766602 0.066391
Si Si4 0.630902 0.500000 0.653629
Si Si5 0.500000 0.000000 0.250000
O O1 0.263026 0.500000 0.198535
O O2 0.198739 0.301262 0.250000
O O3 0.385029 0.309011 0.169177
O O4 0.178550 0.340326 0.114838
O O5 0.000000 0.224825 0.786040
O O6 0.000000 0.388433 0.697981
O O7 0.850547 0.886545 0.107791
O O8 0.000000 0.744481 0.044357
O O9 0.779892 0.779892 0.000000
O O10 0.500000 0.500000 0.686827
#
# Coordination Sequence:
#
# PCOD8310767 Si02
#       5
#    16   8  16   8   2
#     4  12  25  42  67  97 134 176 221 269 328 394
#     4  12  22  42  68 102 132 167 212 273 341 393
#     4  11  22  39  65  94 130 171 219 276 333 389
#     4  10  18  34  64  98 128 165 213 266 333 391
#     4  12  20  36  68 100 136 148 208 272 326 396
#
# _framework density 20.067107
#
# number of rings (size 3 to 8) (size 9 to 14) (size 15 to 20)
#    0.000    0.640    6.400    2.400    0.000    2.240 
#    2.880    0.000    0.000    0.000    0.000    0.000 
#    0.000    0.000    0.000    0.000    0.000    0.000 
#
# Total GULP energy -310084.595925 kJ/mol
# GULP energy per Si atom -12403.383837 kJ/mol
# Density = 2.002143 g / cm^3
# Si number density = 20.067107 Si / 1000 Ang^3
#
#
#
# Elastic Constant Matrix: (Units=GPa)
#
#
# Indices 1 2 3 4 5 6 
#
# 1 113.0502 33.8580 23.1866 0.0000 0.0000 0.0000
# 2 33.8580 113.0518 23.1865 0.0000 0.0000 0.0000
# 3 23.1866 23.1865 93.9896 0.0000 0.0000 0.0000
# 4 0.0000 0.0000 0.0000 15.4040 0.0000 0.0000
# 5 0.0000 0.0000 0.0000 0.0000 15.4045 0.0000
# 6 0.0000 0.0000 0.0000 0.0000 0.0000 35.2505
#
#
#
# Elastic Compliance Matrix: (Units=1/GPa)
#
#
# Indices 1 2 3 4 5 6 
#
# 1 0.010005 -0.002623 -0.001821 0.000000 0.000000 0.000000
# 2 -0.002623 0.010004 -0.001821 0.000000 0.000000 0.000000
# 3 -0.001821 -0.001821 0.011538 0.000000 0.000000 0.000000
# 4 0.000000 0.000000 0.000000 0.064918 0.000000 0.000000
# 5 0.000000 0.000000 0.000000 0.000000 0.064916 0.000000
# 6 0.000000 0.000000 0.000000 0.000000 0.000000 0.028368
#
#
# Mechanical properties :
#
#
# Convention : Reuss Voigt Hill
#
# Bulk Modulus (GPa) = 52.58354 53.39486 52.98920
# Shear Modulus (GPa) = 23.96718 29.20249 26.58483
#
# Velocity S-wave (km/s) = 3.45969 3.81890 3.64372
# Velocity P-wave (km/s) = 6.49769 6.79053 6.64572
#
# Compressibility (1/GPa) = 0.01901736
#
# Stress axis : x y z
#
# Youngs Moduli (GPa) = 99.95353 99.95512 86.67057
#
# Poissons Ratio (x) = 0.26216 0.15783
# Poissons Ratio (y) = 0.26216 0.15783
# Poissons Ratio (z) = 0.18202 0.18202
#
# Static dielectric constant tensor:
#      x y z
#    x 3.828140 0.000000 0.000000 
#    y 0.000000 3.828140 0.000000 
#    z 0.000000 0.000000 3.502400 
# 
# 
# High freq. dielectric constant tensor:
#      x y z
#    x 1.788210 0.000000 0.000000 
#    y 0.000000 1.788210 0.000000 
#    z 0.000000 0.000000 1.762150 
# 
# From -- ./inp_files/7169.got.cif
#   From: 2010.03.12/outbox.cif.g09.slc.cpg/sg119_4_cif.got.tgz:7169.got - 2010.04.14 02:25:26.
