data_PCOD8310307
_publ_section_title
;
Structure prediction by ZEFSAII (Michael W. Deem and Ramdas Pophale) SiO2 
 PCOD8310307
Probable space group: P -4 B 2
;
_chemical_formula_sum "Si O2"
_cell_formula_units_Z 34
_cell_length_a 13.956503
_cell_length_b 13.956503
_cell_length_c 8.789043
_cell_angle_alpha 90.000000
_cell_angle_beta 90.000000
_cell_angle_gamma 90.000000
_cell_volume 1711.964741
_symmetry_space_group_name_H-M "P -4 B 2"
_symmetry_group_IT_number 117
_symmetry_cell_setting 'tetragonal'
loop_
_space_group_symop_operation_xyz
x,y,z
y,-x,-z
-x,-y,z
-y,x,-z
1/2+y,1/2+x,-z
1/2-y,1/2-x,-z
1/2-x,1/2+y,z
1/2+x,1/2-y,z
loop_
_atom_site_type_symbol
_atom_site_label
_atom_site_fract_x
_atom_site_fract_y
_atom_site_fract_z
Si Si1 0.769351 0.593192 0.428077
Si Si2 0.750076 0.892192 0.933578
Si Si3 0.000000 0.000000 0.500000
Si Si4 0.579717 0.690237 0.404252
Si Si5 0.096636 0.264303 0.930194
O O1 0.867096 0.632905 0.500000
O O2 0.682731 0.664559 0.478609
O O3 0.755432 0.483826 0.483613
O O4 0.777376 0.592366 0.248632
O O5 0.751385 0.906648 0.751708
O O6 0.836020 0.822791 0.983053
O O7 0.651263 0.848738 0.000000
O O8 0.764250 0.993823 0.009701
O O9 0.912686 0.973857 0.614532
O O10 0.136368 0.363633 0.000000
#
# Coordination Sequence:
#
# PCOD8310307 Si02
#       5
#     8   8   2   8   8
#     4  10  20  35  57  81 110 147 185 230 277 330
#     4  10  22  38  57  83 114 150 189 234 288 341
#     4   8  16  32  56  86 112 140 188 234 280 328
#     4   9  19  34  55  82 111 144 184 232 280 332
#     4  10  22  38  58  85 116 151 190 234 285 339
#
# _framework density 19.860222
#
# number of rings (size 3 to 8) (size 9 to 14) (size 15 to 20)
#    0.000    2.353    0.000    1.412    0.000   14.118 
#    0.000    0.000    0.000    4.941    0.000    0.000 
#    0.000    0.000    0.000    0.000    0.000    0.000 
#
# Total GULP energy -421483.021406 kJ/mol
# GULP energy per Si atom -12396.559453 kJ/mol
# Density = 1.981502 g / cm^3
# Si number density = 19.860222 Si / 1000 Ang^3
#
#
#
# Elastic Constant Matrix: (Units=GPa)
#
#
# Indices 1 2 3 4 5 6 
#
# 1 71.2037 28.6554 39.0702 0.0000 0.0000 0.0000
# 2 28.6554 71.1943 39.0697 0.0000 0.0000 0.0000
# 3 39.0702 39.0697 88.4844 0.0000 0.0000 0.0000
# 4 0.0000 0.0000 0.0000 30.5191 0.0000 0.0000
# 5 0.0000 0.0000 0.0000 0.0000 30.5209 0.0000
# 6 0.0000 0.0000 0.0000 0.0000 0.0000 22.8576
#
#
#
# Elastic Compliance Matrix: (Units=1/GPa)
#
#
# Indices 1 2 3 4 5 6 
#
# 1 0.019402 -0.004102 -0.006756 0.000000 0.000000 0.000000
# 2 -0.004102 0.019405 -0.006757 0.000000 0.000000 0.000000
# 3 -0.006756 -0.006757 0.017268 0.000000 0.000000 0.000000
# 4 0.000000 0.000000 0.000000 0.032766 0.000000 0.000000
# 5 0.000000 0.000000 0.000000 0.000000 0.032764 0.000000
# 6 0.000000 0.000000 0.000000 0.000000 0.000000 0.043749
#
#
# Mechanical properties :
#
#
# Convention : Reuss Voigt Hill
#
# Bulk Modulus (GPa) = 47.97139 49.38589 48.67864
# Shear Modulus (GPa) = 24.09258 25.05200 24.57229
#
# Velocity S-wave (km/s) = 3.48675 3.55549 3.52129
# Velocity P-wave (km/s) = 6.35742 6.46344 6.41065
#
# Compressibility (1/GPa) = 0.02084576
#
# Stress axis : x y z
#
# Youngs Moduli (GPa) = 51.54134 51.53273 57.91066
#
# Poissons Ratio (x) = 0.21138 0.39123
# Poissons Ratio (y) = 0.21141 0.39131
# Poissons Ratio (z) = 0.34820 0.34821
#
# Static dielectric constant tensor:
#      x y z
#    x 3.695810 0.000000 0.000000 
#    y 0.000000 3.695820 0.000000 
#    z 0.000000 0.000000 3.703940 
# 
# 
# High freq. dielectric constant tensor:
#      x y z
#    x 1.773160 0.000000 0.000000 
#    y 0.000000 1.773160 0.000000 
#    z 0.000000 0.000000 1.766140 
# 
# From -- ./inp_files/1501.got.cif
#   From: 2010.03.12/outbox.cif.g09.slc.cpg/sg117_1_cif.got.tgz:1501.got - 2010.04.14 02:19:01.
