data_PCOD8310089
_publ_section_title
;
Structure prediction by ZEFSAII (Michael W. Deem and Ramdas Pophale) SiO2 
 PCOD8310089
Probable space group: P -4 C 2
;
_chemical_formula_sum "Si O2"
_cell_formula_units_Z 64
_cell_length_a 11.630060
_cell_length_b 11.630060
_cell_length_c 24.841460
_cell_angle_alpha 90.000000
_cell_angle_beta 90.000000
_cell_angle_gamma 90.000000
_cell_volume 3360.013540
_symmetry_space_group_name_H-M "P -4 C 2"
_symmetry_group_IT_number 116
_symmetry_cell_setting 'tetragonal'
loop_
_space_group_symop_operation_xyz
x,y,z
y,-x,-z
-x,-y,z
-y,x,-z
y,x,1/2-z
-y,-x,1/2-z
-x,y,1/2+z
x,-y,1/2+z
loop_
_atom_site_type_symbol
_atom_site_label
_atom_site_fract_x
_atom_site_fract_y
_atom_site_fract_z
Si Si1 0.433855 0.337856 0.804235
Si Si2 0.304495 0.508940 0.874174
Si Si3 0.656779 0.897249 0.395325
Si Si4 0.631030 0.594616 0.024804
Si Si5 0.938999 0.179480 0.503589
Si Si6 0.402683 0.152477 0.885290
Si Si7 0.691809 0.777071 0.558331
Si Si8 0.698330 0.712568 0.308269
O O1 0.364067 0.364067 0.750000
O O2 0.406934 0.438513 0.846710
O O3 0.392607 0.216043 0.827902
O O4 0.569188 0.330639 0.796033
O O5 0.358847 0.596764 0.917415
O O6 0.216758 0.417187 0.901111
O O7 0.240196 0.597214 0.833172
O O8 0.746695 0.916873 0.442991
O O9 0.533138 0.837074 0.411006
O O10 0.712902 0.820506 0.348035
O O11 0.628041 0.021928 0.371642
O O12 0.632093 0.456340 0.024261
O O13 0.748608 0.649183 0.002952
O O14 0.902886 0.252701 0.450183
O O15 0.069457 0.144546 0.494307
O O16 0.311997 0.208583 0.925740
O O17 0.749549 0.749549 0.250000
#
# Coordination Sequence:
#
# PCOD8310089 Si02
#       8
#     8   8   8   8   8   8   8   8
#     4  10  19  31  54  82 116 151 191 237 275 342
#     4  10  20  29  48  81 118 145 183 228 286 342
#     4  10  21  39  60  83 115 151 194 235 283 353
#     4   9  19  27  44  77 119 152 176 216 277 349
#     4  11  23  41  64  83 109 154 202 244 285 341
#     4   9  20  36  59  83 111 152 188 228 287 341
#     4  10  20  34  53  81 115 144 186 229 281 344
#     4  11  21  32  55  83 118 156 192 232 289 346
#
# _framework density 19.047543000000001
#
# number of rings (size 3 to 8) (size 9 to 14) (size 15 to 20)
#    0.000    2.000    2.500    1.125   14.000    0.000 
#    0.000    0.000    5.500    0.000    0.000    0.000 
#    0.000    0.000    0.000    0.000    0.000    0.000 
#
# Total GULP energy -792906.638934 kJ/mol
# GULP energy per Si atom -12389.166233 kJ/mol
# Density = 1.900419 g / cm^3
# Si number density = 19.047543 Si / 1000 Ang^3
#
#
#
# Elastic Constant Matrix: (Units=GPa)
#
#
# Indices 1 2 3 4 5 6 
#
# 1 70.6922 36.8810 38.9723 0.0000 0.0000 0.0000
# 2 36.8810 70.6922 38.9723 0.0000 0.0000 0.0000
# 3 38.9723 38.9723 100.6572 0.0000 0.0000 0.0000
# 4 0.0000 0.0000 0.0000 20.6412 0.0000 0.0000
# 5 0.0000 0.0000 0.0000 0.0000 20.6412 0.0000
# 6 0.0000 0.0000 0.0000 0.0000 0.0000 21.6814
#
#
#
# Elastic Compliance Matrix: (Units=1/GPa)
#
#
# Indices 1 2 3 4 5 6 
#
# 1 0.021248 -0.008328 -0.005003 0.000000 0.000000 0.000000
# 2 -0.008328 0.021248 -0.005003 0.000000 0.000000 0.000000
# 3 -0.005003 -0.005003 0.013809 0.000000 0.000000 0.000000
# 4 0.000000 0.000000 0.000000 0.048447 0.000000 0.000000
# 5 0.000000 0.000000 0.000000 0.000000 0.048447 0.000000
# 6 0.000000 0.000000 0.000000 0.000000 0.000000 0.046122
#
#
# Mechanical properties :
#
#
# Convention : Reuss Voigt Hill
#
# Bulk Modulus (GPa) = 50.91773 52.41028 51.66400
# Shear Modulus (GPa) = 20.61571 21.07385 20.84478
#
# Velocity S-wave (km/s) = 3.29345 3.32984 3.31169
# Velocity P-wave (km/s) = 6.42280 6.50838 6.46573
#
# Compressibility (1/GPa) = 0.01963953
#
# Stress axis : x y z
#
# Youngs Moduli (GPa) = 47.06239 47.06239 72.41899
#
# Poissons Ratio (x) = 0.39192 0.36229
# Poissons Ratio (y) = 0.39192 0.36229
# Poissons Ratio (z) = 0.23544 0.23544
#
# Static dielectric constant tensor:
#      x y z
#    x 3.482340 0.000000 0.000000 
#    y 0.000000 3.482340 0.000000 
#    z 0.000000 0.000000 3.475890 
# 
# 
# High freq. dielectric constant tensor:
#      x y z
#    x 1.726190 0.000000 0.000000 
#    y 0.000000 1.726190 0.000000 
#    z 0.000000 0.000000 1.735950 
# 
# From -- ./inp_files/4655.got.cif
#   From: 2010.03.12/outbox.cif.g09.slc.cpg/sg116_3_cif.got.tgz:4655.got - 2010.04.14 02:15:44.
