data_PCOD8310429
_publ_section_title
;
Structure prediction by ZEFSAII (Michael W. Deem and Ramdas Pophale) SiO2 
 PCOD8310429
Probable space group: P -4 N 2
;
_chemical_formula_sum "Si O2"
_cell_formula_units_Z 56
_cell_length_a 19.302272
_cell_length_b 19.302272
_cell_length_c 9.377991
_cell_angle_alpha 90.000000
_cell_angle_beta 90.000000
_cell_angle_gamma 90.000000
_cell_volume 3494.030358
_symmetry_space_group_name_H-M "P -4 N 2"
_symmetry_group_IT_number 118
_symmetry_cell_setting 'tetragonal'
loop_
_space_group_symop_operation_xyz
x,y,z
y,-x,-z
-x,-y,z
-y,x,-z
1/2+y,1/2+x,1/2-z
1/2-y,1/2-x,1/2-z
1/2-x,1/2+y,1/2+z
1/2+x,1/2-y,1/2+z
loop_
_atom_site_type_symbol
_atom_site_label
_atom_site_fract_x
_atom_site_fract_y
_atom_site_fract_z
Si Si1 0.762700 0.622777 0.915703
Si Si2 0.842941 0.234884 0.081384
Si Si3 0.444974 0.055026 0.580653
Si Si4 0.014820 0.707506 0.418937
Si Si5 0.234883 0.157059 0.581383
Si Si6 0.514820 0.792494 0.581062
Si Si7 0.377223 0.762700 0.415702
O O1 0.692024 0.662128 0.963360
O O2 0.760456 0.602627 0.750000
O O3 0.828532 0.671468 0.947779
O O4 0.765931 0.554276 0.008329
O O5 0.838769 0.242125 0.250000
O O6 0.798542 0.298542 0.015420
O O7 0.807976 0.162128 0.036640
O O8 0.922851 0.241029 0.032990
O O9 0.444980 0.055021 0.750000
O O10 0.466272 0.130796 0.525266
O O11 0.500000 0.000000 0.519132
O O12 0.369205 0.033729 0.525268
O O13 0.003392 0.707924 0.250000
O O14 0.077149 0.758971 0.467010
O O15 0.445724 0.765930 0.508328
#
# Coordination Sequence:
#
# PCOD8310429 Si02
#       7
#     8   8   8   8   8   8   8
#     4   9  18  31  46  65  93 124 151 181 225 277
#     4   8  14  28  48  66  85 118 159 189 217 266
#     4   9  16  24  39  67  97 117 137 176 225 268
#     4  10  17  28  48  70  90 115 153 193 226 261
#     4   8  14  28  48  66  85 118 159 189 217 266
#     4  10  17  28  48  70  90 115 153 193 226 261
#     4   9  18  31  46  65  93 124 151 181 225 277
#
# _framework density 16.027336999999999
#
# number of rings (size 3 to 8) (size 9 to 14) (size 15 to 20)
#    0.000    3.000    1.429    2.571    0.000    1.714 
#    0.000    2.143    0.000    5.143    0.000    6.000 
#    0.000    0.000    0.000    0.000    0.000    0.000 
#
# Total GULP energy -694027.073256 kJ/mol
# GULP energy per Si atom -12393.340594 kJ/mol
# Density = 1.599086 g / cm^3
# Si number density = 16.027337 Si / 1000 Ang^3
#
#
#
# Elastic Constant Matrix: (Units=GPa)
#
#
# Indices 1 2 3 4 5 6 
#
# 1 128.4834 94.1426 38.4903 0.0000 0.0000 0.0000
# 2 94.1426 128.4832 38.4901 0.0000 0.0000 0.0000
# 3 38.4903 38.4901 30.0698 0.0000 0.0000 0.0000
# 4 0.0000 0.0000 0.0000 21.6696 0.0000 0.0000
# 5 0.0000 0.0000 0.0000 0.0000 21.6696 0.0000
# 6 0.0000 0.0000 0.0000 0.0000 0.0000 26.7839
#
#
#
# Elastic Compliance Matrix: (Units=1/GPa)
#
#
# Indices 1 2 3 4 5 6 
#
# 1 0.018589 -0.010531 -0.010316 0.000000 0.000000 0.000000
# 2 -0.010531 0.018589 -0.010315 0.000000 0.000000 0.000000
# 3 -0.010316 -0.010315 0.059664 0.000000 0.000000 0.000000
# 4 0.000000 0.000000 0.000000 0.046148 0.000000 0.000000
# 5 0.000000 0.000000 0.000000 0.000000 0.046148 0.000000
# 6 0.000000 0.000000 0.000000 0.000000 0.000000 0.037336
#
#
# Mechanical properties :
#
#
# Convention : Reuss Voigt Hill
#
# Bulk Modulus (GPa) = 28.96884 69.92027 49.44456
# Shear Modulus (GPa) = 16.64984 21.75219 19.20101
#
# Velocity S-wave (km/s) = 3.22660 3.68801 3.46499
# Velocity P-wave (km/s) = 5.65643 7.86483 6.85021
#
# Compressibility (1/GPa) = 0.03451984
#
# Stress axis : x y z
#
# Youngs Moduli (GPa) = 53.79403 53.79434 16.76052
#
# Poissons Ratio (x) = 0.56649 0.17289
# Poissons Ratio (y) = 0.56649 0.17289
# Poissons Ratio (z) = 0.55492 0.55490
#
# Static dielectric constant tensor:
#      x y z
#    x 3.200390 0.000000 0.000000 
#    y 0.000000 3.200400 0.000000 
#    z 0.000000 0.000000 2.597000 
# 
# 
# High freq. dielectric constant tensor:
#      x y z
#    x 1.614250 0.000000 0.000000 
#    y 0.000000 1.614250 0.000000 
#    z 0.000000 0.000000 1.571870 
# 
# From -- ./inp_files/3487.got.cif
#   From: 2010.03.12/outbox.cif.g09.slc.cpg/sg118_2_cif.got.tgz:3487.got - 2010.04.14 02:21:17.
