data_PCOD8310433
_publ_section_title
;
Structure prediction by ZEFSAII (Michael W. Deem and Ramdas Pophale) SiO2 
 PCOD8310433
Probable space group: P -4 N 2
;
_chemical_formula_sum "Si O2"
_cell_formula_units_Z 60
_cell_length_a 14.253170
_cell_length_b 14.253170
_cell_length_c 13.110265
_cell_angle_alpha 90.000000
_cell_angle_beta 90.000000
_cell_angle_gamma 90.000000
_cell_volume 2663.387765
_symmetry_space_group_name_H-M "P -4 N 2"
_symmetry_group_IT_number 118
_symmetry_cell_setting 'tetragonal'
loop_
_space_group_symop_operation_xyz
x,y,z
y,-x,-z
-x,-y,z
-y,x,-z
1/2+y,1/2+x,1/2-z
1/2-y,1/2-x,1/2-z
1/2-x,1/2+y,1/2+z
1/2+x,1/2-y,1/2+z
loop_
_atom_site_type_symbol
_atom_site_label
_atom_site_fract_x
_atom_site_fract_y
_atom_site_fract_z
Si Si1 0.802467 0.938617 0.134976
Si Si2 0.395434 0.477847 0.249222
Si Si3 0.102705 0.528077 0.962188
Si Si4 0.213984 0.678746 0.477615
Si Si5 0.143832 0.181238 0.808413
Si Si6 0.861224 0.154663 0.583312
Si Si7 0.126450 0.626450 0.750000
Si Si8 0.067051 0.223934 0.599152
O O1 0.908489 0.906136 0.155106
O O2 0.775996 0.905394 0.021888
O O3 0.735443 0.894634 0.223801
O O4 0.796934 0.050981 0.127065
O O5 0.500000 0.500000 0.205194
O O6 0.342776 0.571169 0.284253
O O7 0.331433 0.426537 0.162568
O O8 0.143844 0.606944 0.040188
O O9 0.093166 0.567463 0.847599
O O10 0.174766 0.439295 0.958512
O O11 0.000000 0.500000 0.002338
O O12 0.263784 0.714454 0.372850
O O13 0.209881 0.757065 0.569357
O O14 0.129671 0.235976 0.701171
O O15 0.858688 0.111997 0.469005
O O16 0.961754 0.190547 0.622921
#
# Coordination Sequence:
#
# PCOD8310433 Si02
#       8
#     8   8   8   8   8   8   4   8
#     4  10  19  36  61  85 136 167 215 261 329 399
#     4  10  19  36  60  94 123 166 214 262 327 394
#     4  10  21  41  63  90 127 175 225 279 339 403
#     4  10  25  39  58  90 135 176 211 272 336 401
#     4  11  22  39  60  97 127 169 218 272 332 400
#     4  11  22  40  62  95 126 166 210 276 338 399
#     4  10  17  36  62  90 122 174 220 279 332 390
#     4  11  22  39  65  96 127 164 217 276 342 388
#
# _framework density 22.527698999999998
#
# number of rings (size 3 to 8) (size 9 to 14) (size 15 to 20)
#    0.000    1.600    4.000    2.600    1.867    2.667 
#    2.400    0.000    0.000    0.000    0.000    8.400 
#    0.000    0.000    0.000    0.000    0.000    0.000 
#
# Total GULP energy -743470.913914 kJ/mol
# GULP energy per Si atom -12391.181899 kJ/mol
# Density = 2.247643 g / cm^3
# Si number density = 22.527699 Si / 1000 Ang^3
#
#
#
# Elastic Constant Matrix: (Units=GPa)
#
#
# Indices 1 2 3 4 5 6 
#
# 1 99.7471 47.1825 31.5019 0.0000 0.0000 0.0000
# 2 47.1825 99.7471 31.5019 0.0000 0.0000 0.0000
# 3 31.5019 31.5019 76.7541 0.0000 0.0000 0.0000
# 4 0.0000 0.0000 0.0000 26.5701 0.0000 0.0000
# 5 0.0000 0.0000 0.0000 0.0000 26.5701 0.0000
# 6 0.0000 0.0000 0.0000 0.0000 0.0000 27.4256
#
#
#
# Elastic Compliance Matrix: (Units=1/GPa)
#
#
# Indices 1 2 3 4 5 6 
#
# 1 0.013642 -0.005382 -0.003390 0.000000 0.000000 0.000000
# 2 -0.005382 0.013642 -0.003390 0.000000 0.000000 0.000000
# 3 -0.003390 -0.003390 0.015811 0.000000 0.000000 0.000000
# 4 0.000000 0.000000 0.000000 0.037636 0.000000 0.000000
# 5 0.000000 0.000000 0.000000 0.000000 0.037636 0.000000
# 6 0.000000 0.000000 0.000000 0.000000 0.000000 0.036462
#
#
# Mechanical properties :
#
#
# Convention : Reuss Voigt Hill
#
# Bulk Modulus (GPa) = 53.27466 55.18010 54.22738
# Shear Modulus (GPa) = 26.96704 27.18393 27.07548
#
# Velocity S-wave (km/s) = 3.46361 3.47751 3.47057
# Velocity P-wave (km/s) = 6.30042 6.37743 6.33904
#
# Compressibility (1/GPa) = 0.01877065
#
# Stress axis : x y z
#
# Youngs Moduli (GPa) = 73.30349 73.30349 63.24591
#
# Poissons Ratio (x) = 0.39454 0.21440
# Poissons Ratio (y) = 0.39454 0.21440
# Poissons Ratio (z) = 0.24850 0.24850
#
# Static dielectric constant tensor:
#      x y z
#    x 4.236990 0.000000 0.000000 
#    y 0.000000 4.236990 0.000000 
#    z 0.000000 0.000000 3.802390 
# 
# 
# High freq. dielectric constant tensor:
#      x y z
#    x 1.882800 0.000000 0.000000 
#    y 0.000000 1.882800 0.000000 
#    z 0.000000 0.000000 1.863860 
# 
# From -- ./inp_files/4318.got.cif
#   From: 2010.03.12/outbox.cif.g09.slc.cpg/sg118_3_cif.got.tgz:4318.got - 2010.04.14 02:21:17.
