data_PCOD8310847
_publ_section_title
;
Structure prediction by ZEFSAII (Michael W. Deem and Ramdas Pophale) SiO2 
 PCOD8310847
Probable space group: I -4 M 2
;
_chemical_formula_sum "Si O2"
_cell_formula_units_Z 104
_cell_length_a 18.181508
_cell_length_b 18.181508
_cell_length_c 17.352719
_cell_angle_alpha 90.000000
_cell_angle_beta 90.000000
_cell_angle_gamma 90.000000
_cell_volume 5736.240308
_symmetry_space_group_name_H-M "I -4 M 2"
_symmetry_group_IT_number 119
_symmetry_cell_setting 'tetragonal'
loop_
_space_group_symop_operation_xyz
x,y,z
y,-x,-z
-x,-y,z
-y,x,-z
y,x,-z
-y,-x,-z
-x,y,z
x,-y,z
1/2+x,1/2+y,1/2+z
1/2+y,1/2-x,1/2-z
1/2-x,1/2-y,1/2+z
1/2-y,1/2+x,1/2-z
1/2+y,1/2+x,1/2-z
1/2-y,1/2-x,1/2-z
1/2-x,1/2+y,1/2+z
1/2+x,1/2-y,1/2+z
loop_
_atom_site_type_symbol
_atom_site_label
_atom_site_fract_x
_atom_site_fract_y
_atom_site_fract_z
Si Si1 0.842264 0.209429 0.828980
Si Si2 0.696578 0.082215 0.056632
Si Si3 0.416793 0.786519 0.866379
Si Si4 0.789502 0.180493 0.342211
Si Si5 0.415100 0.084901 0.750000
Si Si6 0.678074 0.413824 0.442358
Si Si7 0.584478 0.204680 0.047619
O O1 0.910764 0.245964 0.872952
O O2 0.861910 0.213701 0.739075
O O3 0.768554 0.254006 0.848901
O O4 0.828208 0.126681 0.859817
O O5 0.626019 0.131734 0.075416
O O6 0.666631 0.000000 0.051764
O O7 0.741216 0.103379 0.978708
O O8 0.500000 0.766302 0.845311
O O9 0.369748 0.716113 0.843102
O O10 0.394529 0.861769 0.821582
O O11 0.406387 0.795974 0.956743
O O12 0.775565 0.122568 0.411673
O O13 0.500000 0.096649 0.723592
O O14 0.615284 0.384717 0.500000
O O15 0.666294 0.500000 0.428773
O O16 0.500000 0.201613 0.073584
#
# Coordination Sequence:
#
# PCOD8310847 Si02
#       7
#    16  16  16  16   8  16  16
#     4   9  18  31  50  73  97 132 170 205 248 295
#     4   9  18  32  50  74 104 133 162 201 249 303
#     4  10  20  33  51  76 104 135 170 203 242 295
#     4  10  19  34  52  70  97 128 167 216 255 289
#     4   9  18  32  50  78 118 150 164 187 236 298
#     4   9  17  30  49  75 107 139 167 197 241 300
#     4  10  21  35  52  73  96 129 170 209 252 299
#
# _framework density 18.130343
#
# number of rings (size 3 to 8) (size 9 to 14) (size 15 to 20)
#    0.000    2.538    0.000    2.308    0.000    4.769 
#    0.000    5.385    0.000    0.462    0.000    8.615 
#    0.000    0.000    0.000    0.000    0.000    0.000 
#
# Total GULP energy -644590.993435 kJ/mol
# GULP energy per Si atom -12395.980643 kJ/mol
# Density = 1.808908 g / cm^3
# Si number density = 18.130343 Si / 1000 Ang^3
#
#
#
# Elastic Constant Matrix: (Units=GPa)
#
#
# Indices 1 2 3 4 5 6 
#
# 1 81.9267 31.0018 39.9347 0.0000 0.0000 0.0000
# 2 31.0018 81.9262 39.9354 0.0000 0.0000 0.0000
# 3 39.9347 39.9354 102.7783 0.0000 0.0000 0.0000
# 4 0.0000 0.0000 0.0000 25.0306 0.0000 0.0000
# 5 0.0000 0.0000 0.0000 0.0000 25.0304 0.0000
# 6 0.0000 0.0000 0.0000 0.0000 0.0000 23.3225
#
#
#
# Elastic Compliance Matrix: (Units=1/GPa)
#
#
# Indices 1 2 3 4 5 6 
#
# 1 0.015924 -0.003713 -0.004744 0.000000 0.000000 0.000000
# 2 -0.003713 0.015924 -0.004745 0.000000 0.000000 0.000000
# 3 -0.004744 -0.004745 0.013417 0.000000 0.000000 0.000000
# 4 0.000000 0.000000 0.000000 0.039951 0.000000 0.000000
# 5 0.000000 0.000000 0.000000 0.000000 0.039951 0.000000
# 6 0.000000 0.000000 0.000000 0.000000 0.000000 0.042877
#
#
# Mechanical properties :
#
#
# Convention : Reuss Voigt Hill
#
# Bulk Modulus (GPa) = 53.02199 54.26389 53.64294
# Shear Modulus (GPa) = 24.90844 25.06065 24.98455
#
# Velocity S-wave (km/s) = 3.71057 3.72189 3.71624
# Velocity P-wave (km/s) = 6.90407 6.96167 6.93293
#
# Compressibility (1/GPa) = 0.01886010
#
# Stress axis : x y z
#
# Youngs Moduli (GPa) = 62.79937 62.79837 74.53357
#
# Poissons Ratio (x) = 0.23317 0.35362
# Poissons Ratio (y) = 0.23317 0.35364
# Poissons Ratio (z) = 0.29795 0.29796
#
# Static dielectric constant tensor:
#      x y z
#    x 3.288080 0.000000 0.000000 
#    y 0.000000 3.288100 0.000000 
#    z 0.000000 0.000000 3.395490 
# 
# 
# High freq. dielectric constant tensor:
#      x y z
#    x 1.691180 0.000000 0.000000 
#    y 0.000000 1.691180 0.000000 
#    z 0.000000 0.000000 1.702420 
# 
# From -- ./inp_files/6733.got.cif
#   From: 2010.03.12/outbox.cif.g09.slc.cpg/sg119_4_cif.got.tgz:6733.got - 2010.04.14 02:25:26.
