data_PCOD8310996
_publ_section_title
;
Structure prediction by ZEFSAII (Michael W. Deem and Ramdas Pophale) SiO2 
 PCOD8310996
Probable space group: I -4 M 2
;
_chemical_formula_sum "Si O2"
_cell_formula_units_Z 48
_cell_length_a 21.620251
_cell_length_b 21.620251
_cell_length_c 4.923157
_cell_angle_alpha 90.000000
_cell_angle_beta 90.000000
_cell_angle_gamma 90.000000
_cell_volume 2301.257139
_symmetry_space_group_name_H-M "I -4 M 2"
_symmetry_group_IT_number 119
_symmetry_cell_setting 'tetragonal'
loop_
_space_group_symop_operation_xyz
x,y,z
y,-x,-z
-x,-y,z
-y,x,-z
y,x,-z
-y,-x,-z
-x,y,z
x,-y,z
1/2+x,1/2+y,1/2+z
1/2+y,1/2-x,1/2-z
1/2-x,1/2-y,1/2+z
1/2-y,1/2+x,1/2-z
1/2+y,1/2+x,1/2-z
1/2-y,1/2-x,1/2-z
1/2-x,1/2+y,1/2+z
1/2+x,1/2-y,1/2+z
loop_
_atom_site_type_symbol
_atom_site_label
_atom_site_fract_x
_atom_site_fract_y
_atom_site_fract_z
Si Si1 0.930754 0.069247 0.500000
Si Si2 0.126478 0.126478 0.000000
Si Si3 0.170944 0.569182 0.222523
Si Si4 0.069485 0.753378 0.767859
O O1 0.884168 0.079269 0.751061
O O2 0.000000 0.079453 0.610162
O O3 0.194233 0.116667 0.128014
O O4 0.151265 0.500000 0.128677
O O5 0.110776 0.610776 0.250000
O O6 0.198762 0.567285 0.519390
O O7 0.222811 0.594774 0.011436
O O8 0.000000 0.781383 0.725070
#
# Coordination Sequence:
#
# PCOD8310996 Si02
#       4
#     8   8  16  16
#     4  11  22  34  52  81 114 149 200 265 312 345
#     4  12  22  37  58  81 114 163 206 241 296 362
#     4  10  21  39  62  88 118 150 189 241 300 360
#     4  10  21  37  58  85 117 154 196 242 291 349
#
# _framework density 20.858162
#
# number of rings (size 3 to 8) (size 9 to 14) (size 15 to 20)
#    0.000    1.500    0.000    6.000    0.000    4.333 
#    0.000    3.333    0.000    6.000    0.000    0.000 
#    0.000    0.000    0.000    0.000    0.000    0.000 
#
# Total GULP energy -297574.625396 kJ/mol
# GULP energy per Si atom -12398.942725 kJ/mol
# Density = 2.081069 g / cm^3
# Si number density = 20.858162 Si / 1000 Ang^3
#
#
#
# Elastic Constant Matrix: (Units=GPa)
#
#
# Indices 1 2 3 4 5 6 
#
# 1 95.3891 61.2436 14.0326 0.0000 0.0000 0.0000
# 2 61.2436 95.3888 14.0328 0.0000 0.0000 0.0000
# 3 14.0326 14.0328 89.0318 0.0000 0.0000 0.0000
# 4 0.0000 0.0000 0.0000 34.3297 0.0000 0.0000
# 5 0.0000 0.0000 0.0000 0.0000 34.3296 0.0000
# 6 0.0000 0.0000 0.0000 0.0000 0.0000 35.5007
#
#
#
# Elastic Compliance Matrix: (Units=1/GPa)
#
#
# Indices 1 2 3 4 5 6 
#
# 1 0.017928 -0.011358 -0.001035 0.000000 0.000000 0.000000
# 2 -0.011358 0.017928 -0.001036 0.000000 0.000000 0.000000
# 3 -0.001035 -0.001036 0.011558 0.000000 0.000000 0.000000
# 4 0.000000 0.000000 0.000000 0.029129 0.000000 0.000000
# 5 0.000000 0.000000 0.000000 0.000000 0.029129 0.000000
# 6 0.000000 0.000000 0.000000 0.000000 0.000000 0.028168
#
#
# Mechanical properties :
#
#
# Convention : Reuss Voigt Hill
#
# Bulk Modulus (GPa) = 48.64728 50.93642 49.79185
# Shear Modulus (GPa) = 29.84138 33.53207 31.68672
#
# Velocity S-wave (km/s) = 3.78654 4.01387 3.90186
# Velocity P-wave (km/s) = 6.51849 6.77900 6.65002
#
# Compressibility (1/GPa) = 0.02055613
#
# Stress axis : x y z
#
# Youngs Moduli (GPa) = 55.77809 55.77786 86.51740
#
# Poissons Ratio (x) = 0.63354 0.08959
# Poissons Ratio (y) = 0.63354 0.08959
# Poissons Ratio (z) = 0.05776 0.05776
#
# Static dielectric constant tensor:
#      x y z
#    x 3.601700 0.000000 0.000000 
#    y 0.000000 3.601730 0.000000 
#    z 0.000000 0.000000 4.058520 
# 
# 
# High freq. dielectric constant tensor:
#      x y z
#    x 1.797560 0.000000 0.000000 
#    y 0.000000 1.797560 0.000000 
#    z 0.000000 0.000000 1.840980 
# 
# From -- ./inp_files/518.got.cif
#   From: 2010.03.12/outbox.cif.g09.slc.cpg/sg119_1_cif.got.tgz:518.got - 2010.04.14 02:25:26.
