data_PCOD8310532
_publ_section_title
;
Structure prediction by ZEFSAII (Michael W. Deem and Ramdas Pophale) SiO2 
 PCOD8310532
Probable space group: P -4 N 2
;
_chemical_formula_sum "Si O2"
_cell_formula_units_Z 40
_cell_length_a 15.145792
_cell_length_b 15.145792
_cell_length_c 8.377224
_cell_angle_alpha 90.000000
_cell_angle_beta 90.000000
_cell_angle_gamma 90.000000
_cell_volume 1921.693428
_symmetry_space_group_name_H-M "P -4 N 2"
_symmetry_group_IT_number 118
_symmetry_cell_setting 'tetragonal'
loop_
_space_group_symop_operation_xyz
x,y,z
y,-x,-z
-x,-y,z
-y,x,-z
1/2+y,1/2+x,1/2-z
1/2-y,1/2-x,1/2-z
1/2-x,1/2+y,1/2+z
1/2+x,1/2-y,1/2+z
loop_
_atom_site_type_symbol
_atom_site_label
_atom_site_fract_x
_atom_site_fract_y
_atom_site_fract_z
Si Si1 0.468829 0.263450 0.057153
Si Si2 0.182857 0.871956 0.651580
Si Si3 0.887222 0.349193 0.071426
Si Si4 0.949912 0.669987 0.843453
Si Si5 0.276574 0.307931 0.475927
O O1 0.413297 0.354019 0.074600
O O2 0.511309 0.243894 0.227271
O O3 0.537331 0.276656 0.913267
O O4 0.409472 0.178155 0.028711
O O5 0.241080 0.788582 0.608647
O O6 0.178621 0.873369 0.844877
O O7 0.888967 0.388967 0.250000
O O8 0.852388 0.247563 0.069919
O O9 0.983295 0.355067 0.987388
O O10 0.919155 0.580846 0.750000
O O11 0.862525 0.717081 0.904716
#
# Coordination Sequence:
#
# PCOD8310532 Si02
#       5
#     8   8   8   8   8
#     4  11  23  41  66  97 132 176 218 282 337 397
#     4  10  21  41  64  93 132 173 226 271 335 407
#     4  11  24  42  67  99 136 178 223 277 344 409
#     4  12  23  42  68 103 131 172 227 283 338 403
#     4  10  21  40  66  94 131 176 223 267 333 420
#
# _framework density 20.814975
#
# number of rings (size 3 to 8) (size 9 to 14) (size 15 to 20)
#    0.000    1.200    4.000    2.400    2.800    2.000 
#    0.000    1.000    0.000    0.600    0.000    0.000 
#    0.000    0.000    0.000    0.000    0.000    0.000 
#
# Total GULP energy -495877.984881 kJ/mol
# GULP energy per Si atom -12396.949622 kJ/mol
# Density = 2.076760 g / cm^3
# Si number density = 20.814975 Si / 1000 Ang^3
#
#
#
# Elastic Constant Matrix: (Units=GPa)
#
#
# Indices 1 2 3 4 5 6 
#
# 1 94.7269 36.2852 39.1722 0.0000 0.0000 0.0000
# 2 36.2852 94.7272 39.1719 0.0000 0.0000 0.0000
# 3 39.1722 39.1719 121.1663 0.0000 0.0000 0.0000
# 4 0.0000 0.0000 0.0000 28.3747 0.0000 0.0000
# 5 0.0000 0.0000 0.0000 0.0000 28.3746 0.0000
# 6 0.0000 0.0000 0.0000 0.0000 0.0000 27.3348
#
#
#
# Elastic Compliance Matrix: (Units=1/GPa)
#
#
# Indices 1 2 3 4 5 6 
#
# 1 0.013287 -0.003824 -0.003059 0.000000 0.000000 0.000000
# 2 -0.003824 0.013287 -0.003059 0.000000 0.000000 0.000000
# 3 -0.003059 -0.003059 0.010231 0.000000 0.000000 0.000000
# 4 0.000000 0.000000 0.000000 0.035243 0.000000 0.000000
# 5 0.000000 0.000000 0.000000 0.000000 0.035243 0.000000
# 6 0.000000 0.000000 0.000000 0.000000 0.000000 0.036583
#
#
# Mechanical properties :
#
#
# Convention : Reuss Voigt Hill
#
# Bulk Modulus (GPa) = 59.10445 59.98657 59.54551
# Shear Modulus (GPa) = 29.51631 29.88289 29.69960
#
# Velocity S-wave (km/s) = 3.76976 3.79310 3.78145
# Velocity P-wave (km/s) = 6.88513 6.93289 6.90905
#
# Compressibility (1/GPa) = 0.01691920
#
# Stress axis : x y z
#
# Youngs Moduli (GPa) = 75.26370 75.26408 97.74183
#
# Poissons Ratio (x) = 0.28784 0.29900
# Poissons Ratio (y) = 0.28784 0.29899
# Poissons Ratio (z) = 0.23024 0.23023
#
# Static dielectric constant tensor:
#      x y z
#    x 3.781250 0.000000 0.000000 
#    y 0.000000 3.781250 0.000000 
#    z 0.000000 0.000000 3.917350 
# 
# 
# High freq. dielectric constant tensor:
#      x y z
#    x 1.806340 0.000000 0.000000 
#    y 0.000000 1.806340 0.000000 
#    z 0.000000 0.000000 1.824680 
# 
# From -- ./inp_files/1857.got.cif
#   From: 2010.03.12/outbox.cif.g09.slc.cpg/sg118_1_cif.got.tgz:1857.got - 2010.04.14 02:21:17.
