data_PCOD8310059
_publ_section_title
;
Structure prediction by ZEFSAII (Michael W. Deem and Ramdas Pophale) SiO2 
 PCOD8310059
Probable space group: P -4 C 2
;
_chemical_formula_sum "Si O2"
_cell_formula_units_Z 40
_cell_length_a 20.285560
_cell_length_b 20.285560
_cell_length_c 5.222537
_cell_angle_alpha 90.000000
_cell_angle_beta 90.000000
_cell_angle_gamma 90.000000
_cell_volume 2149.094576
_symmetry_space_group_name_H-M "P -4 C 2"
_symmetry_group_IT_number 116
_symmetry_cell_setting 'tetragonal'
loop_
_space_group_symop_operation_xyz
x,y,z
y,-x,-z
-x,-y,z
-y,x,-z
y,x,1/2-z
-y,-x,1/2-z
-x,y,1/2+z
x,-y,1/2+z
loop_
_atom_site_type_symbol
_atom_site_label
_atom_site_fract_x
_atom_site_fract_y
_atom_site_fract_z
Si Si1 0.846263 0.956302 0.770015
Si Si2 0.848232 0.739245 0.779049
Si Si3 0.471572 0.765588 0.762023
Si Si4 0.472142 0.911987 0.768389
Si Si5 0.653712 0.841163 0.220739
O O1 0.908515 0.908515 0.750000
O O2 0.778042 0.916750 0.745407
O O3 0.849227 0.010265 0.547419
O O4 0.787424 0.787424 0.750000
O O5 0.843559 0.684371 0.560667
O O6 0.842839 0.708682 0.061373
O O7 0.503082 0.727586 0.516999
O O8 0.505544 0.838541 0.776367
O O9 0.391814 0.774764 0.746123
O O10 0.503397 0.949787 0.523622
O O11 0.392666 0.906120 0.752312
#
# Coordination Sequence:
#
# PCOD8310059 Si02
#       5
#     8   8   8   8   8
#     4  11  24  42  61  79  97 114 141 187 235 286
#     4  11  22  33  47  70  98 125 150 178 224 290
#     4   8  13  22  38  63  91 115 153 197 225 243
#     4   8  13  22  38  63  91 115 153 197 225 243
#     4  10  16  28  45  64  96 129 150 181 230 266
#
# _framework density 18.612489
#
# number of rings (size 3 to 8) (size 9 to 14) (size 15 to 20)
#    1.200    1.200    0.000    4.800    0.000    4.400 
#    0.000    0.000    0.000    0.000    0.000    0.000 
#    0.000  224.000    0.000    0.000    0.000    0.000 
#
# Total GULP energy -495535.772268 kJ/mol
# GULP energy per Si atom -12388.394307 kJ/mol
# Density = 1.857013 g / cm^3
# Si number density = 18.612489 Si / 1000 Ang^3
#
#
#
# Elastic Constant Matrix: (Units=GPa)
#
#
# Indices 1 2 3 4 5 6 
#
# 1 57.0547 16.3295 10.2485 0.0000 0.0000 0.0000
# 2 16.3295 57.0547 10.2485 0.0000 0.0000 0.0000
# 3 10.2485 10.2485 122.4185 0.0000 0.0000 0.0000
# 4 0.0000 0.0000 0.0000 22.0835 0.0000 0.0000
# 5 0.0000 0.0000 0.0000 0.0000 22.0835 0.0000
# 6 0.0000 0.0000 0.0000 0.0000 0.0000 -1.3202
#
#
#
# Elastic Compliance Matrix: (Units=1/GPa)
#
#
# Indices 1 2 3 4 5 6 
#
# 1 0.019254 -0.005301 -0.001168 0.000000 0.000000 0.000000
# 2 -0.005301 0.019254 -0.001168 0.000000 0.000000 0.000000
# 3 -0.001168 -0.001168 0.008364 0.000000 0.000000 0.000000
# 4 0.000000 0.000000 0.000000 0.045283 0.000000 0.000000
# 5 0.000000 0.000000 0.000000 0.000000 0.045283 0.000000
# 6 0.000000 0.000000 0.000000 0.000000 0.000000 -0.757448
#
#
# Mechanical properties :
#
#
# Convention : Reuss Voigt Hill
#
# Bulk Modulus (GPa) = 31.64741 34.46456 33.05599
# Shear Modulus (GPa) = -8.41463 21.88276 6.73406
#
# Velocity S-wave (km/s) = -2.12856 3.43257 1.90418
# Velocity P-wave (km/s) = 3.31650 5.85382 4.75743
#
# Compressibility (1/GPa) = 0.03159816
#
# Stress axis : x y z
#
# Youngs Moduli (GPa) = 51.93728 51.93728 119.55595
#
# Poissons Ratio (x) = 0.27531 0.13966
# Poissons Ratio (y) = 0.27531 0.13966
# Poissons Ratio (z) = 0.06067 0.06067
#
# Static dielectric constant tensor:
#      x y z
#    x 3.067990 0.000000 0.000000 
#    y 0.000000 3.067990 0.000000 
#    z 0.000000 0.000000 4.187950 
# 
# 
# High freq. dielectric constant tensor:
#      x y z
#    x 1.684150 0.000000 0.000000 
#    y 0.000000 1.684150 0.000000 
#    z 0.000000 0.000000 1.756670 
# 
# From -- ./inp_files/154.got.cif
#   From: 2010.03.12/outbox.cif.g09.slc.cpg/sg116_1_cif.got.tgz:154.got - 2010.04.14 02:15:44.
