data_PCOD8310207
_publ_section_title
;
Structure prediction by ZEFSAII (Michael W. Deem and Ramdas Pophale) SiO2 
 PCOD8310207
Probable space group: P -4 C 2
;
_chemical_formula_sum "Si O2"
_cell_formula_units_Z 34
_cell_length_a 11.252061
_cell_length_b 11.252061
_cell_length_c 12.002759
_cell_angle_alpha 90.000000
_cell_angle_beta 90.000000
_cell_angle_gamma 90.000000
_cell_volume 1519.655835
_symmetry_space_group_name_H-M "P -4 C 2"
_symmetry_group_IT_number 116
_symmetry_cell_setting 'tetragonal'
loop_
_space_group_symop_operation_xyz
x,y,z
y,-x,-z
-x,-y,z
-y,x,-z
y,x,1/2-z
-y,-x,1/2-z
-x,y,1/2+z
x,-y,1/2+z
loop_
_atom_site_type_symbol
_atom_site_label
_atom_site_fract_x
_atom_site_fract_y
_atom_site_fract_z
Si Si1 0.370613 0.033329 0.840847
Si Si2 0.356269 0.306695 0.876329
Si Si3 0.174389 0.965008 0.667659
Si Si4 0.500000 0.500000 0.500000
Si Si5 0.237859 0.140301 0.495089
O O1 0.380203 0.167286 0.883221
O O2 0.500000 0.000000 0.799046
O O3 0.287585 0.010168 0.735411
O O4 0.326674 0.957209 0.945764
O O5 0.345512 0.345512 0.750000
O O6 0.234873 0.324640 0.945846
O O7 0.461699 0.386274 0.927018
O O8 0.063189 0.936812 0.750000
O O9 0.201967 0.843894 0.599269
O O10 0.147602 0.075462 0.584038
#
# Coordination Sequence:
#
# PCOD8310207 Si02
#       5
#     8   8   8   2   8
#     4  11  24  44  72 102 140 189 237 292 351 426
#     4  12  25  48  72 102 140 185 244 294 356 417
#     4  10  23  42  67 107 141 184 227 279 359 432
#     4  12  30  48  72  98 136 196 246 308 344 406
#     4  11  22  45  68 106 148 179 227 291 358 427
#
# _framework density 22.373488999999999
#
# number of rings (size 3 to 8) (size 9 to 14) (size 15 to 20)
#    0.000    0.941    4.706    1.765    0.000    3.294 
#    4.235    4.706    0.000    0.000    0.000    0.000 
#    0.000    0.000    0.000    0.000    0.000    0.000 
#
# Total GULP energy -421509.479152 kJ/mol
# GULP energy per Si atom -12397.337622 kJ/mol
# Density = 2.232257 g / cm^3
# Si number density = 22.373489 Si / 1000 Ang^3
#
#
#
# Elastic Constant Matrix: (Units=GPa)
#
#
# Indices 1 2 3 4 5 6 
#
# 1 120.4378 71.0152 53.5373 0.0000 0.0000 0.0000
# 2 71.0152 120.4366 53.5372 0.0000 0.0000 0.0000
# 3 53.5373 53.5372 123.9296 0.0000 0.0000 0.0000
# 4 0.0000 0.0000 0.0000 24.4869 0.0000 0.0000
# 5 0.0000 0.0000 0.0000 0.0000 24.4867 0.0000
# 6 0.0000 0.0000 0.0000 0.0000 0.0000 41.6356
#
#
#
# Elastic Compliance Matrix: (Units=1/GPa)
#
#
# Indices 1 2 3 4 5 6 
#
# 1 0.013560 -0.006673 -0.002975 0.000000 0.000000 0.000000
# 2 -0.006673 0.013561 -0.002975 0.000000 0.000000 0.000000
# 3 -0.002975 -0.002975 0.010640 0.000000 0.000000 0.000000
# 4 0.000000 0.000000 0.000000 0.040838 0.000000 0.000000
# 5 0.000000 0.000000 0.000000 0.000000 0.040839 0.000000
# 6 0.000000 0.000000 0.000000 0.000000 0.000000 0.024018
#
#
# Mechanical properties :
#
#
# Convention : Reuss Voigt Hill
#
# Bulk Modulus (GPa) = 79.91622 80.10926 80.01274
# Shear Modulus (GPa) = 28.92277 30.56945 29.74611
#
# Velocity S-wave (km/s) = 3.59935 3.70039 3.65022
# Velocity P-wave (km/s) = 7.28495 7.35801 7.32157
#
# Compressibility (1/GPa) = 0.01251310
#
# Stress axis : x y z
#
# Youngs Moduli (GPa) = 73.74371 73.74292 93.98753
#
# Poissons Ratio (x) = 0.49211 0.27964
# Poissons Ratio (y) = 0.49212 0.27964
# Poissons Ratio (z) = 0.21941 0.21941
#
# Static dielectric constant tensor:
#      x y z
#    x 3.842690 0.000000 0.000000 
#    y 0.000000 3.842690 0.000000 
#    z 0.000000 0.000000 4.321640 
# 
# 
# High freq. dielectric constant tensor:
#      x y z
#    x 1.877130 0.000000 0.000000 
#    y 0.000000 1.877130 0.000000 
#    z 0.000000 0.000000 1.900340 
# 
# From -- ./inp_files/1609.got.cif
#   From: 2010.03.12/outbox.cif.g09.slc.cpg/sg116_1_cif.got.tgz:1609.got - 2010.04.14 02:15:44.
