data_PCOD8310922
_publ_section_title
;
Structure prediction by ZEFSAII (Michael W. Deem and Ramdas Pophale) SiO2 
 PCOD8310922
Probable space group: I -4 M 2
;
_chemical_formula_sum "Si O2"
_cell_formula_units_Z 96
_cell_length_a 19.213211
_cell_length_b 19.213211
_cell_length_c 14.399291
_cell_angle_alpha 90.000000
_cell_angle_beta 90.000000
_cell_angle_gamma 90.000000
_cell_volume 5315.461942
_symmetry_space_group_name_H-M "I -4 M 2"
_symmetry_group_IT_number 119
_symmetry_cell_setting 'tetragonal'
loop_
_space_group_symop_operation_xyz
x,y,z
y,-x,-z
-x,-y,z
-y,x,-z
y,x,-z
-y,-x,-z
-x,y,z
x,-y,z
1/2+x,1/2+y,1/2+z
1/2+y,1/2-x,1/2-z
1/2-x,1/2-y,1/2+z
1/2-y,1/2+x,1/2-z
1/2+y,1/2+x,1/2-z
1/2-y,1/2-x,1/2-z
1/2-x,1/2+y,1/2+z
1/2+x,1/2-y,1/2+z
loop_
_atom_site_type_symbol
_atom_site_label
_atom_site_fract_x
_atom_site_fract_y
_atom_site_fract_z
Si Si1 0.308291 0.580866 0.346353
Si Si2 0.201752 0.418975 0.500001
Si Si3 0.419134 0.691710 0.346350
Si Si4 0.181298 0.417030 0.000000
Si Si5 0.150129 0.737944 0.315287
Si Si6 0.762055 0.650131 0.815288
O O1 0.324505 0.500000 0.361196
O O2 0.244144 0.606893 0.410054
O O3 0.377529 0.622472 0.375330
O O4 0.287305 0.597271 0.241078
O O5 0.193984 0.500000 0.500000
O O6 0.244143 0.393107 0.589950
O O7 0.122921 0.391940 0.500000
O O8 0.500000 0.675495 0.361192
O O9 0.402728 0.712693 0.241075
O O10 0.170187 0.500000 0.999998
O O11 0.220310 0.392495 0.092536
O O12 0.220310 0.392492 0.907466
O O13 0.172156 0.672156 0.250000
O O14 0.220160 0.779838 0.342906
O O15 0.827843 0.672158 0.750000
#
# Coordination Sequence:
#
# PCOD8310922 Si02
#       6
#    16  16  16  16  16  16
#     4  10  20  35  56  83 114 148 186 232 286 340
#     4  10  21  36  54  75 107 147 190 233 281 341
#     4  10  20  35  56  83 114 148 186 232 286 340
#     4  12  23  36  57  84 115 145 186 239 289 337
#     4  10  20  35  58  84 110 145 192 237 279 336
#     4  10  20  35  58  84 110 145 192 237 279 336
#
# _framework density 18.060518999999999
#
# number of rings (size 3 to 8) (size 9 to 14) (size 15 to 20)
#    0.000    1.667    3.333    2.000    0.000    2.000 
#    0.000    0.000    0.000    3.000    0.000    0.000 
#    0.000   12.000    0.000    0.000    0.000    0.000 
#
# Total GULP energy -595029.077556 kJ/mol
# GULP energy per Si atom -12396.439116 kJ/mol
# Density = 1.801941 g / cm^3
# Si number density = 18.060519 Si / 1000 Ang^3
#
#
#
# Elastic Constant Matrix: (Units=GPa)
#
#
# Indices 1 2 3 4 5 6 
#
# 1 109.5420 55.6091 50.6984 0.0000 0.0000 0.0000
# 2 55.6091 109.5427 50.6985 0.0000 0.0000 0.0000
# 3 50.6984 50.6985 120.4232 0.0000 0.0000 0.0000
# 4 0.0000 0.0000 0.0000 92.7170 0.0000 0.0000
# 5 0.0000 0.0000 0.0000 0.0000 92.8658 0.0000
# 6 0.0000 0.0000 0.0000 0.0000 0.0000 27.1211
#
#
#
# Elastic Compliance Matrix: (Units=1/GPa)
#
#
# Indices 1 2 3 4 5 6 
#
# 1 0.013354 -0.005188 -0.003438 0.000000 0.000000 0.000000
# 2 -0.005188 0.013354 -0.003438 0.000000 0.000000 0.000000
# 3 -0.003438 -0.003438 0.011199 0.000000 0.000000 0.000000
# 4 0.000000 0.000000 0.000000 0.010786 0.000000 0.000000
# 5 0.000000 0.000000 0.000000 0.000000 0.010768 0.000000
# 6 0.000000 0.000000 0.000000 0.000000 0.000000 0.036872
#
#
# Mechanical properties :
#
#
# Convention : Reuss Voigt Hill
#
# Bulk Modulus (GPa) = 72.57434 72.61332 72.59383
# Shear Modulus (GPa) = 39.98365 54.70758 47.34561
#
# Velocity S-wave (km/s) = 4.71028 5.50972 5.12561
# Velocity P-wave (km/s) = 8.35784 8.98715 8.67820
#
# Compressibility (1/GPa) = 0.01377897
#
# Stress axis : x y z
#
# Youngs Moduli (GPa) = 74.88599 74.88656 89.29614
#
# Poissons Ratio (x) = 0.38850 0.30698
# Poissons Ratio (y) = 0.38850 0.30698
# Poissons Ratio (z) = 0.25744 0.25744
#
# Static dielectric constant tensor:
#      x y z
#    x 3.230970 0.000000 0.000000 
#    y 0.000000 3.230970 0.000000 
#    z 0.000000 0.000000 4.425720 
# 
# 
# High freq. dielectric constant tensor:
#      x y z
#    x 1.690010 0.000000 0.000000 
#    y 0.000000 1.690010 0.000000 
#    z 0.000000 0.000000 1.713540 
# 
# From -- ./inp_files/4180.got.cif
#   From: 2010.03.12/outbox.cif.g09.slc.cpg/sg119_3_cif.got.tgz:4180.got - 2010.04.14 02:25:26.
