data_PCOD8310981
_publ_section_title
;
Structure prediction by ZEFSAII (Michael W. Deem and Ramdas Pophale) SiO2 
 PCOD8310981
Probable space group: I -4 M 2
;
_chemical_formula_sum "Si O2"
_cell_formula_units_Z 80
_cell_length_a 12.519205
_cell_length_b 12.519205
_cell_length_c 27.192276
_cell_angle_alpha 90.000000
_cell_angle_beta 90.000000
_cell_angle_gamma 90.000000
_cell_volume 4261.858846
_symmetry_space_group_name_H-M "I -4 M 2"
_symmetry_group_IT_number 119
_symmetry_cell_setting 'tetragonal'
loop_
_space_group_symop_operation_xyz
x,y,z
y,-x,-z
-x,-y,z
-y,x,-z
y,x,-z
-y,-x,-z
-x,y,z
x,-y,z
1/2+x,1/2+y,1/2+z
1/2+y,1/2-x,1/2-z
1/2-x,1/2-y,1/2+z
1/2-y,1/2+x,1/2-z
1/2+y,1/2+x,1/2-z
1/2-y,1/2-x,1/2-z
1/2-x,1/2+y,1/2+z
1/2+x,1/2-y,1/2+z
loop_
_atom_site_type_symbol
_atom_site_label
_atom_site_fract_x
_atom_site_fract_y
_atom_site_fract_z
Si Si1 0.784457 0.624140 0.023437
Si Si2 0.376305 0.268499 0.866600
Si Si3 0.000000 0.625972 0.862612
Si Si4 0.500000 0.376357 0.157157
Si Si5 0.177323 0.257539 0.803050
Si Si6 0.000000 0.626826 0.973505
Si Si7 0.377138 0.500000 0.734440
O O1 0.766894 0.500000 0.011051
O O2 0.790030 0.642104 0.081982
O O3 0.685653 0.685653 0.000000
O O4 0.894846 0.669401 0.001421
O O5 0.500000 0.253173 0.848504
O O6 0.346489 0.394125 0.873421
O O7 0.291930 0.223735 0.826517
O O8 0.109549 0.661970 0.836845
O O9 0.000000 0.500000 0.863458
O O10 0.000000 0.671609 0.918151
O O11 0.500000 0.500000 0.167880
O O12 0.500000 0.320194 0.211252
O O13 0.190145 0.309856 0.750000
O O14 0.105902 0.152065 0.796118
O O15 0.000000 0.500000 0.974928
O O16 0.500000 0.500000 0.742727
#
# Coordination Sequence:
#
# PCOD8310981 Si02
#       7
#    16  16   8   8  16   8   8
#     4  10  21  36  60  88 118 151 194 244 300 357
#     4  10  21  36  56  85 117 153 190 239 300 360
#     4  10  23  33  54  83 119 152 191 236 293 350
#     4   9  17  31  53  77 114 150 182 222 302 351
#     4  11  22  34  56  86 116 154 201 240 291 361
#     4   9  19  41  59  79 114 160 192 232 293 359
#     4  10  21  39  56  79 115 162 193 244 298 362
#
# _framework density 18.771151
#
# number of rings (size 3 to 8) (size 9 to 14) (size 15 to 20)
#    0.000    2.000    2.000    1.200    5.600    0.200 
#    1.800    0.000    0.000    0.300    0.000    1.400 
#    0.000    0.000    0.000    0.000    0.000    0.000 
#
# Total GULP energy -495812.943840 kJ/mol
# GULP energy per Si atom -12395.323596 kJ/mol
# Density = 1.872843 g / cm^3
# Si number density = 18.771151 Si / 1000 Ang^3
#
#
#
# Elastic Constant Matrix: (Units=GPa)
#
#
# Indices 1 2 3 4 5 6 
#
# 1 86.3122 38.7335 56.5796 0.0000 0.0000 0.0000
# 2 38.7335 86.3121 56.5796 0.0000 0.0000 0.0000
# 3 56.5796 56.5796 136.5036 0.0000 0.0000 0.0000
# 4 0.0000 0.0000 0.0000 29.7988 0.0000 0.0000
# 5 0.0000 0.0000 0.0000 0.0000 29.7987 0.0000
# 6 0.0000 0.0000 0.0000 0.0000 0.0000 14.4737
#
#
#
# Elastic Compliance Matrix: (Units=1/GPa)
#
#
# Indices 1 2 3 4 5 6 
#
# 1 0.016907 -0.004110 -0.005304 0.000000 0.000000 0.000000
# 2 -0.004110 0.016908 -0.005304 0.000000 0.000000 0.000000
# 3 -0.005304 -0.005304 0.011723 0.000000 0.000000 0.000000
# 4 0.000000 0.000000 0.000000 0.033558 0.000000 0.000000
# 5 0.000000 0.000000 0.000000 0.000000 0.033559 0.000000
# 6 0.000000 0.000000 0.000000 0.000000 0.000000 0.069091
#
#
# Mechanical properties :
#
#
# Convention : Reuss Voigt Hill
#
# Bulk Modulus (GPa) = 62.11149 68.10150 65.10650
# Shear Modulus (GPa) = 23.08932 25.29659 24.19295
#
# Velocity S-wave (km/s) = 3.51100 3.67499 3.59393
# Velocity P-wave (km/s) = 7.04250 7.37333 7.20982
#
# Compressibility (1/GPa) = 0.01610008
#
# Stress axis : x y z
#
# Youngs Moduli (GPa) = 59.14535 59.14525 85.30231
#
# Poissons Ratio (x) = 0.24311 0.45247
# Poissons Ratio (y) = 0.24311 0.45247
# Poissons Ratio (z) = 0.31373 0.31373
#
# Static dielectric constant tensor:
#      x y z
#    x 3.413950 0.000000 0.000000 
#    y 0.000000 3.413950 0.000000 
#    z 0.000000 0.000000 3.578560 
# 
# 
# High freq. dielectric constant tensor:
#      x y z
#    x 1.715770 0.000000 0.000000 
#    y 0.000000 1.715770 0.000000 
#    z 0.000000 0.000000 1.733370 
# 
# From -- ./inp_files/10221.got.cif
#   From: 2010.03.12/outbox.cif.g09.slc.cpg/sg119_6_cif.got.tgz:10221.got - 2010.04.14 02:25:26.
