data_PCOD8310533
_publ_section_title
;
Structure prediction by ZEFSAII (Michael W. Deem and Ramdas Pophale) SiO2 
 PCOD8310533
Probable space group: P -4 N 2
;
_chemical_formula_sum "Si O2"
_cell_formula_units_Z 48
_cell_length_a 8.200718
_cell_length_b 8.200718
_cell_length_c 31.877239
_cell_angle_alpha 90.000000
_cell_angle_beta 90.000000
_cell_angle_gamma 90.000000
_cell_volume 2143.800928
_symmetry_space_group_name_H-M "P -4 N 2"
_symmetry_group_IT_number 118
_symmetry_cell_setting 'tetragonal'
loop_
_space_group_symop_operation_xyz
x,y,z
y,-x,-z
-x,-y,z
-y,x,-z
1/2+y,1/2+x,1/2-z
1/2-y,1/2-x,1/2-z
1/2-x,1/2+y,1/2+z
1/2+x,1/2-y,1/2+z
loop_
_atom_site_type_symbol
_atom_site_label
_atom_site_fract_x
_atom_site_fract_y
_atom_site_fract_z
Si Si1 0.737608 0.402344 0.421818
Si Si2 0.670951 0.815388 0.335594
Si Si3 0.252238 0.089346 0.503068
Si Si4 0.326861 0.855714 0.297691
Si Si5 0.398699 0.251671 0.427038
Si Si6 0.469286 0.180014 0.672354
O O1 0.877684 0.337299 0.452470
O O2 0.590839 0.272278 0.418554
O O3 0.674616 0.573557 0.439801
O O4 0.814087 0.422374 0.376239
O O5 0.481370 0.829326 0.326814
O O6 0.693524 0.818728 0.385916
O O7 0.723384 0.637415 0.317686
O O8 0.760692 0.974749 0.314401
O O9 0.375752 0.126571 0.465145
O O10 0.098016 0.205862 0.497153
O O11 0.382032 0.882032 0.250000
O O12 0.227073 0.688667 0.300478
O O13 0.500000 0.000000 0.687337
#
# Coordination Sequence:
#
# PCOD8310533 Si02
#       6
#     8   8   8   8   8   8
#     4  10  22  41  65  90 128 172 229 275 333 401
#     4  10  22  44  73 101 136 184 233 288 344 415
#     4  11  26  39  56  95 135 173 222 286 338 408
#     4  11  24  47  74 105 137 183 237 286 350 424
#     4  10  21  40  67  93 123 175 227 275 339 400
#     4  11  25  45  69 105 142 182 224 290 354 424
#
# _framework density 22.390138
#
# number of rings (size 3 to 8) (size 9 to 14) (size 15 to 20)
#    0.000    1.500    1.667    2.500    7.000    4.333 
#    9.000    0.000    0.000    0.000    0.000    0.000 
#    0.000    0.000    0.000    0.000    0.000    0.000 
#
# Total GULP energy -595058.870495 kJ/mol
# GULP energy per Si atom -12397.059802 kJ/mol
# Density = 2.233918 g / cm^3
# Si number density = 22.390138 Si / 1000 Ang^3
#
#
#
# Elastic Constant Matrix: (Units=GPa)
#
#
# Indices 1 2 3 4 5 6 
#
# 1 104.9814 43.7637 28.8585 0.0000 0.0000 0.0000
# 2 43.7637 104.9814 28.8585 0.0000 0.0000 0.0000
# 3 28.8585 28.8585 95.2875 0.0000 0.0000 0.0000
# 4 0.0000 0.0000 0.0000 -3.8753 0.0000 0.0000
# 5 0.0000 0.0000 0.0000 0.0000 -3.8753 0.0000
# 6 0.0000 0.0000 0.0000 0.0000 0.0000 31.1709
#
#
#
# Elastic Compliance Matrix: (Units=1/GPa)
#
#
# Indices 1 2 3 4 5 6 
#
# 1 0.011977 -0.004358 -0.002307 0.000000 0.000000 0.000000
# 2 -0.004358 0.011977 -0.002307 0.000000 0.000000 0.000000
# 3 -0.002307 -0.002307 0.011892 0.000000 0.000000 0.000000
# 4 0.000000 0.000000 0.000000 -0.258047 0.000000 0.000000
# 5 0.000000 0.000000 0.000000 0.000000 -0.258047 0.000000
# 6 0.000000 0.000000 0.000000 0.000000 0.000000 0.032081
#
#
# Mechanical properties :
#
#
# Convention : Reuss Voigt Hill
#
# Bulk Modulus (GPa) = 55.86735 56.46797 56.16766
# Shear Modulus (GPa) = -11.78539 18.26872 3.24166
#
# Velocity S-wave (km/s) = -2.29675 2.85954 1.20455
# Velocity P-wave (km/s) = 4.23940 6.01477 5.20336
#
# Compressibility (1/GPa) = 0.01789954
#
# Stress axis : x y z
#
# Youngs Moduli (GPa) = 83.49577 83.49577 84.08971
#
# Poissons Ratio (x) = 0.36392 0.19401
# Poissons Ratio (y) = 0.36392 0.19401
# Poissons Ratio (z) = 0.19264 0.19264
#
# Static dielectric constant tensor:
#      x y z
#    x 4.536200 0.000000 0.000000 
#    y 0.000000 4.536200 0.000000 
#    z 0.000000 0.000000 3.833480 
# 
# 
# High freq. dielectric constant tensor:
#      x y z
#    x 1.881730 0.000000 0.000000 
#    y 0.000000 1.881730 0.000000 
#    z 0.000000 0.000000 1.879110 
# 
# From -- ./inp_files/6839.got.cif
#   From: 2010.03.12/outbox.cif.g09.slc.cpg/sg118_4_cif.got.tgz:6839.got - 2010.04.14 02:21:17.
