data_PCOD8310574
_publ_section_title
;
Structure prediction by ZEFSAII (Michael W. Deem and Ramdas Pophale) SiO2 
 PCOD8310574
Probable space group: P -4 N 2
;
_chemical_formula_sum "Si O2"
_cell_formula_units_Z 40
_cell_length_a 8.479921
_cell_length_b 8.479921
_cell_length_c 22.586776
_cell_angle_alpha 90.000000
_cell_angle_beta 90.000000
_cell_angle_gamma 90.000000
_cell_volume 1624.193834
_symmetry_space_group_name_H-M "P -4 N 2"
_symmetry_group_IT_number 118
_symmetry_cell_setting 'tetragonal'
loop_
_space_group_symop_operation_xyz
x,y,z
y,-x,-z
-x,-y,z
-y,x,-z
1/2+y,1/2+x,1/2-z
1/2-y,1/2-x,1/2-z
1/2-x,1/2+y,1/2+z
1/2+x,1/2-y,1/2+z
loop_
_atom_site_type_symbol
_atom_site_label
_atom_site_fract_x
_atom_site_fract_y
_atom_site_fract_z
Si Si1 0.371466 0.194173 0.893872
Si Si2 0.599473 0.839480 0.019363
Si Si3 0.405492 0.657776 0.587092
Si Si4 0.170653 0.252191 0.314331
Si Si5 0.472872 0.814952 0.140420
O O1 0.511441 0.193252 0.846664
O O2 0.228192 0.287810 0.861960
O O3 0.310813 0.020788 0.914594
O O4 0.427797 0.260263 0.958491
O O5 0.790112 0.857761 0.029878
O O6 0.537870 0.749465 0.077426
O O7 0.500000 0.000000 0.017902
O O8 0.500000 0.500000 0.592343
O O9 0.307536 0.677128 0.647876
O O10 0.169140 0.330861 0.250000
O O11 0.203402 0.062325 0.310947
O O12 0.500000 0.000000 0.152573
#
# Coordination Sequence:
#
# PCOD8310574 Si02
#       5
#     8   8   8   8   8
#     4  12  25  42  71 110 147 197 263 322 403 470
#     4  10  23  40  64 101 153 198 242 321 392 484
#     4  11  25  42  69 105 143 204 259 318 403 473
#     4  11  26  49  71 102 152 200 259 331 393 479
#     4  10  24  46  71 106 150 197 256 313 401 477
#
# _framework density 24.627600999999999
#
# number of rings (size 3 to 8) (size 9 to 14) (size 15 to 20)
#    0.000    1.200    0.000    6.000   14.000    3.600 
#    0.000    2.000    0.000    0.000    0.000    0.000 
#    0.000    0.000    0.000    0.000    0.000    0.000 
#
# Total GULP energy -495533.853545 kJ/mol
# GULP energy per Si atom -12388.346339 kJ/mol
# Density = 2.457155 g / cm^3
# Si number density = 24.627601 Si / 1000 Ang^3
#
#
#
# Elastic Constant Matrix: (Units=GPa)
#
#
# Indices 1 2 3 4 5 6 
#
# 1 126.1380 47.2444 49.6794 0.0000 0.0000 0.0000
# 2 47.2444 126.1378 49.6792 0.0000 0.0000 0.0000
# 3 49.6794 49.6792 149.8193 0.0000 0.0000 0.0000
# 4 0.0000 0.0000 0.0000 29.0655 0.0000 0.0000
# 5 0.0000 0.0000 0.0000 0.0000 29.0656 0.0000
# 6 0.0000 0.0000 0.0000 0.0000 0.0000 44.0580
#
#
#
# Elastic Compliance Matrix: (Units=1/GPa)
#
#
# Indices 1 2 3 4 5 6 
#
# 1 0.009898 -0.002777 -0.002361 0.000000 0.000000 0.000000
# 2 -0.002777 0.009898 -0.002361 0.000000 0.000000 0.000000
# 3 -0.002361 -0.002361 0.008241 0.000000 0.000000 0.000000
# 4 0.000000 0.000000 0.000000 0.034405 0.000000 0.000000
# 5 0.000000 0.000000 0.000000 0.000000 0.034405 0.000000
# 6 0.000000 0.000000 0.000000 0.000000 0.000000 0.022697
#
#
# Mechanical properties :
#
#
# Convention : Reuss Voigt Hill
#
# Bulk Modulus (GPa) = 76.70312 77.25568 76.97940
# Shear Modulus (GPa) = 35.99995 37.47064 36.73530
#
# Velocity S-wave (km/s) = 3.82746 3.90486 3.86635
# Velocity P-wave (km/s) = 7.12358 7.19501 7.15939
#
# Compressibility (1/GPa) = 0.01303728
#
# Stress axis : x y z
#
# Youngs Moduli (GPa) = 101.03046 101.03038 121.35006
#
# Poissons Ratio (x) = 0.28059 0.28653
# Poissons Ratio (y) = 0.28059 0.28653
# Poissons Ratio (z) = 0.23855 0.23855
#
# Static dielectric constant tensor:
#      x y z
#    x 4.568680 0.000000 0.000000 
#    y 0.000000 4.568680 0.000000 
#    z 0.000000 0.000000 4.467790 
# 
# 
# High freq. dielectric constant tensor:
#      x y z
#    x 1.981130 0.000000 0.000000 
#    y 0.000000 1.981130 0.000000 
#    z 0.000000 0.000000 1.956790 
# 
# From -- ./inp_files/6044.got.cif
#   From: 2010.03.12/outbox.cif.g09.slc.cpg/sg118_4_cif.got.tgz:6044.got - 2010.04.14 02:21:17.
