data_PCOD8310782
_publ_section_title
;
Structure prediction by ZEFSAII (Michael W. Deem and Ramdas Pophale) SiO2 
 PCOD8310782
Probable space group: I -4 M 2
;
_chemical_formula_sum "Si O2"
_cell_formula_units_Z 88
_cell_length_a 14.283577
_cell_length_b 14.283577
_cell_length_c 27.558010
_cell_angle_alpha 90.000000
_cell_angle_beta 90.000000
_cell_angle_gamma 90.000000
_cell_volume 5622.400961
_symmetry_space_group_name_H-M "I -4 M 2"
_symmetry_group_IT_number 119
_symmetry_cell_setting 'tetragonal'
loop_
_space_group_symop_operation_xyz
x,y,z
y,-x,-z
-x,-y,z
-y,x,-z
y,x,-z
-y,-x,-z
-x,y,z
x,-y,z
1/2+x,1/2+y,1/2+z
1/2+y,1/2-x,1/2-z
1/2-x,1/2-y,1/2+z
1/2-y,1/2+x,1/2-z
1/2+y,1/2+x,1/2-z
1/2-y,1/2-x,1/2-z
1/2-x,1/2+y,1/2+z
1/2+x,1/2-y,1/2+z
loop_
_atom_site_type_symbol
_atom_site_label
_atom_site_fract_x
_atom_site_fract_y
_atom_site_fract_z
Si Si1 0.395600 0.611215 0.811650
Si Si2 0.392463 0.250869 0.266882
Si Si3 0.609302 0.764863 0.378724
Si Si4 0.110460 0.221257 0.596335
Si Si5 0.390889 0.390889 0.000000
Si Si6 0.610904 0.602322 0.446964
O O1 0.500000 0.654429 0.809867
O O2 0.402027 0.500000 0.813305
O O3 0.340343 0.645074 0.763425
O O4 0.343322 0.648377 0.859783
O O5 0.500000 0.234427 0.254251
O O6 0.342914 0.157087 0.250000
O O7 0.375063 0.265265 0.323476
O O8 0.500000 0.789953 0.389004
O O9 0.673837 0.850029 0.396708
O O10 0.646511 0.674572 0.407284
O O11 0.140108 0.172901 0.545637
O O12 0.000000 0.231444 0.599030
O O13 0.374622 0.500000 0.013214
O O14 0.640311 0.640311 0.500000
O O15 0.500000 0.593171 0.445412
O O16 0.655572 0.500000 0.436386
#
# Coordination Sequence:
#
# PCOD8310782 Si02
#       6
#    16  16  16  16   8  16
#     4   9  17  30  48  67  89 119 152 190 234 270
#     4  10  19  31  44  64  94 124 154 185 218 266
#     4  10  20  30  45  69  97 126 153 185 226 275
#     4  10  19  31  47  68  95 124 155 190 227 273
#     4   9  18  32  50  70  90 117 156 200 242 275
#     4   8  15  29  47  66  89 117 149 185 226 270
#
# _framework density 15.651676
#
# number of rings (size 3 to 8) (size 9 to 14) (size 15 to 20)
#    0.000    2.636    1.818    1.091    1.273    3.455 
#    0.000    5.455    0.000    0.000    0.000    0.000 
#    0.000    4.000    0.000    0.000    0.000    0.000 
#
# Total GULP energy -545385.979416 kJ/mol
# GULP energy per Si atom -12395.135896 kJ/mol
# Density = 1.561605 g / cm^3
# Si number density = 15.651676 Si / 1000 Ang^3
#
#
#
# Elastic Constant Matrix: (Units=GPa)
#
#
# Indices 1 2 3 4 5 6 
#
# 1 64.2882 44.4992 52.2353 0.0000 0.0000 0.0000
# 2 44.4992 64.2912 52.2340 0.0000 0.0000 0.0000
# 3 52.2353 52.2340 127.7454 0.0000 0.0000 0.0000
# 4 0.0000 0.0000 0.0000 24.5042 0.0000 0.0000
# 5 0.0000 0.0000 0.0000 0.0000 24.5036 0.0000
# 6 0.0000 0.0000 0.0000 0.0000 0.0000 15.0834
#
#
#
# Elastic Compliance Matrix: (Units=1/GPa)
#
#
# Indices 1 2 3 4 5 6 
#
# 1 0.032834 -0.017697 -0.006190 0.000000 0.000000 0.000000
# 2 -0.017697 0.032831 -0.006188 0.000000 0.000000 0.000000
# 3 -0.006190 -0.006188 0.012889 0.000000 0.000000 0.000000
# 4 0.000000 0.000000 0.000000 0.040809 0.000000 0.000000
# 5 0.000000 0.000000 0.000000 0.000000 0.040810 0.000000
# 6 0.000000 0.000000 0.000000 0.000000 0.000000 0.066298
#
#
# Mechanical properties :
#
#
# Convention : Reuss Voigt Hill
#
# Bulk Modulus (GPa) = 54.33439 61.58464 57.95952
# Shear Modulus (GPa) = 17.07913 19.97533 18.52723
#
# Velocity S-wave (km/s) = 3.30692 3.57633 3.44426
# Velocity P-wave (km/s) = 7.02645 7.51571 7.27520
#
# Compressibility (1/GPa) = 0.01840455
#
# Stress axis : x y z
#
# Youngs Moduli (GPa) = 30.45650 30.45938 77.58483
#
# Poissons Ratio (x) = 0.53904 0.48022
# Poissons Ratio (y) = 0.53899 0.48008
# Poissons Ratio (z) = 0.18851 0.18848
#
# Static dielectric constant tensor:
#      x y z
#    x 3.046690 0.000000 0.000000 
#    y 0.000000 3.046690 0.000000 
#    z 0.000000 0.000000 3.310460 
# 
# 
# High freq. dielectric constant tensor:
#      x y z
#    x 1.577440 0.000000 0.000000 
#    y 0.000000 1.577440 0.000000 
#    z 0.000000 0.000000 1.617390 
# 
# From -- ./inp_files/8673.got.cif
#   From: 2010.03.12/outbox.cif.g09.slc.cpg/sg119_5_cif.got.tgz:8673.got - 2010.04.14 02:25:26.
