data_PCOD8310004
_publ_section_title
;
Structure prediction by ZEFSAII (Michael W. Deem and Ramdas Pophale) SiO2 
 PCOD8310004
Probable space group: P -4 M 2
;
_chemical_formula_sum "Si O2"
_cell_formula_units_Z 44
_cell_length_a 9.523740
_cell_length_b 9.523740
_cell_length_c 28.589687
_cell_angle_alpha 90.000000
_cell_angle_beta 90.000000
_cell_angle_gamma 90.000000
_cell_volume 2593.131029
_symmetry_space_group_name_H-M "P -4 M 2"
_symmetry_group_IT_number 115
_symmetry_cell_setting 'tetragonal'
loop_
_space_group_symop_operation_xyz
x,y,z
y,-x,-z
-x,-y,z
-y,x,-z
y,x,-z
-y,-x,-z
-x,y,z
x,-y,z
loop_
_atom_site_type_symbol
_atom_site_label
_atom_site_fract_x
_atom_site_fract_y
_atom_site_fract_z
Si Si1 0.154114 0.165696 0.319107
Si Si2 0.343205 0.833033 0.237132
Si Si3 0.162967 0.834665 0.575527
Si Si4 0.832223 0.843798 0.948874
Si Si5 0.333730 0.333730 0.500000
Si Si6 0.833183 0.342688 0.865664
O O1 0.251791 0.233771 0.279030
O O2 0.209892 0.197396 0.371183
O O3 0.000000 0.232051 0.312826
O O4 0.144965 0.000000 0.312118
O O5 0.500000 0.773848 0.242896
O O6 0.283943 0.789586 0.185766
O O7 0.345043 0.000000 0.241269
O O8 0.265479 0.739310 0.545046
O O9 0.000000 0.803105 0.563188
O O10 0.192898 0.000000 0.567410
O O11 0.767330 0.750233 0.907212
O O12 0.000000 0.845834 0.947457
O O13 0.772981 0.000000 0.941162
O O14 0.785345 0.785345 0.000000
O O15 0.303287 0.500000 0.500985
O O16 0.775322 0.500000 0.871625
O O17 0.000000 0.342467 0.869805
#
# Coordination Sequence:
#
# PCOD8310004 Si02
#       6
#     8   8   8   8   4   8
#     4   8  14  24  38  58  83 108 136 172 209 246
#     4   8  13  20  30  47  73 104 135 164 197 243
#     4   9  18  33  52  72  93 119 152 186 221 266
#     4   8  13  20  29  42  62  90 124 159 196 242
#     4  11  24  37  48  68  96 121 150 189 226 262
#     4   8  13  20  29  43  67  99 131 162 198 241
#
# _framework density 16.967904000000001
#
# number of rings (size 3 to 8) (size 9 to 14) (size 15 to 20)
#    0.000    3.545    0.000    3.273    0.000    3.636 
#    0.000    5.455    0.000    0.000    0.000    0.000 
#    0.000    1.818    0.000   13.091    0.000   19.636 
#
# Total GULP energy -545107.147753 kJ/mol
# GULP energy per Si atom -12388.798813 kJ/mol
# Density = 1.692928 g / cm^3
# Si number density = 16.967904 Si / 1000 Ang^3
#
#
#
# Elastic Constant Matrix: (Units=GPa)
#
#
# Indices 1 2 3 4 5 6 
#
# 1 54.9301 31.0067 59.0606 0.0000 0.0000 0.0000
# 2 31.0067 54.9301 59.0606 0.0000 0.0000 0.0000
# 3 59.0606 59.0606 180.0097 0.0000 0.0000 0.0000
# 4 0.0000 0.0000 0.0000 3.2789 0.0000 0.0000
# 5 0.0000 0.0000 0.0000 0.0000 3.2789 0.0000
# 6 0.0000 0.0000 0.0000 0.0000 0.0000 11.7552
#
#
#
# Elastic Compliance Matrix: (Units=1/GPa)
#
#
# Indices 1 2 3 4 5 6 
#
# 1 0.031497 -0.010303 -0.006954 0.000000 0.000000 0.000000
# 2 -0.010303 0.031497 -0.006954 0.000000 0.000000 0.000000
# 3 -0.006954 -0.006954 0.010118 0.000000 0.000000 0.000000
# 4 0.000000 0.000000 0.000000 0.304982 0.000000 0.000000
# 5 0.000000 0.000000 0.000000 0.000000 0.304982 0.000000
# 6 0.000000 0.000000 0.000000 0.000000 0.000000 0.085068
#
#
# Mechanical properties :
#
#
# Convention : Reuss Voigt Hill
#
# Bulk Modulus (GPa) = 40.49873 65.34731 52.92302
# Shear Modulus (GPa) = 6.06210 13.04539 9.55375
#
# Velocity S-wave (km/s) = 1.89221 2.77578 2.37544
# Velocity P-wave (km/s) = 5.35664 6.99065 6.22747
#
# Compressibility (1/GPa) = 0.02469213
#
# Stress axis : x y z
#
# Youngs Moduli (GPa) = 31.74861 31.74861 98.83006
#
# Poissons Ratio (x) = 0.32710 0.68726
# Poissons Ratio (y) = 0.32710 0.68726
# Poissons Ratio (z) = 0.22078 0.22078
#
# Static dielectric constant tensor:
#      x y z
#    x 2.926380 0.000000 0.000000 
#    y 0.000000 2.926380 0.000000 
#    z 0.000000 0.000000 3.613570 
# 
# 
# High freq. dielectric constant tensor:
#      x y z
#    x 1.607460 0.000000 0.000000 
#    y 0.000000 1.607460 0.000000 
#    z 0.000000 0.000000 1.677660 
# 
# From -- ./inp_files/5793.got.cif
#   From: 2010.03.12/outbox.cif.g09.slc.cpg/sg115_3_cif.got.tgz:5793.got - 2010.04.14 02:11:21.
