data_PCOD8310232
_publ_section_title
;
Structure prediction by ZEFSAII (Michael W. Deem and Ramdas Pophale) SiO2 
 PCOD8310232
Probable space group: P -4 C 2
;
_chemical_formula_sum "Si O2"
_cell_formula_units_Z 34
_cell_length_a 13.833652
_cell_length_b 13.833652
_cell_length_c 9.114539
_cell_angle_alpha 90.000000
_cell_angle_beta 90.000000
_cell_angle_gamma 90.000000
_cell_volume 1744.248669
_symmetry_space_group_name_H-M "P -4 C 2"
_symmetry_group_IT_number 116
_symmetry_cell_setting 'tetragonal'
loop_
_space_group_symop_operation_xyz
x,y,z
y,-x,-z
-x,-y,z
-y,x,-z
y,x,1/2-z
-y,-x,1/2-z
-x,y,1/2+z
x,-y,1/2+z
loop_
_atom_site_type_symbol
_atom_site_label
_atom_site_fract_x
_atom_site_fract_y
_atom_site_fract_z
Si Si1 0.000000 0.000000 0.500000
Si Si2 0.594269 0.752587 0.236460
Si Si3 0.811473 0.930216 0.646168
Si Si4 0.106807 0.256288 0.178657
Si Si5 0.518773 0.345095 0.476344
O O1 0.092123 0.012103 0.603169
O O2 0.687399 0.687399 0.250000
O O3 0.633633 0.857247 0.286880
O O4 0.506135 0.706759 0.325982
O O5 0.555122 0.746272 0.071638
O O6 0.838450 0.838450 0.750000
O O7 0.756095 0.897502 0.498314
O O8 0.748150 0.001285 0.747553
O O9 0.175064 0.175064 0.250000
O O10 0.424534 0.397333 0.546536
#
# Coordination Sequence:
#
# PCOD8310232 Si02
#       5
#     2   8   8   8   8
#     4  12  18  28  54  80  98 140 178 220 262 308
#     4   9  19  32  53  81 110 136 168 224 272 314
#     4  12  20  32  54  78 108 145 183 224 268 315
#     4  11  20  34  50  79 112 138 181 228 270 315
#     4   9  16  32  57  84 106 132 170 213 269 332
#
# _framework density 19.492632
#
# number of rings (size 3 to 8) (size 9 to 14) (size 15 to 20)
#    0.000    1.647    4.706    1.059    0.000    2.824 
#    0.000    9.412    0.000    4.235    0.000    0.000 
#    0.000    0.000    0.000    0.000    0.000    0.000 
#
# Total GULP energy -421257.872716 kJ/mol
# GULP energy per Si atom -12389.937433 kJ/mol
# Density = 1.944827 g / cm^3
# Si number density = 19.492632 Si / 1000 Ang^3
#
#
#
# Elastic Constant Matrix: (Units=GPa)
#
#
# Indices 1 2 3 4 5 6 
#
# 1 53.0813 40.4424 35.6511 0.0000 0.0000 0.0000
# 2 40.4424 53.0813 35.6511 0.0000 0.0000 0.0000
# 3 35.6511 35.6511 107.0394 0.0000 0.0000 0.0000
# 4 0.0000 0.0000 0.0000 5.0987 0.0000 0.0000
# 5 0.0000 0.0000 0.0000 0.0000 5.0987 0.0000
# 6 0.0000 0.0000 0.0000 0.0000 0.0000 35.1599
#
#
#
# Elastic Compliance Matrix: (Units=1/GPa)
#
#
# Indices 1 2 3 4 5 6 
#
# 1 0.046726 -0.032395 -0.004773 0.000000 0.000000 0.000000
# 2 -0.032395 0.046726 -0.004773 0.000000 0.000000 0.000000
# 3 -0.004773 -0.004773 0.012522 0.000000 0.000000 0.000000
# 4 0.000000 0.000000 0.000000 0.196129 0.000000 0.000000
# 5 0.000000 0.000000 0.000000 0.000000 0.196129 0.000000
# 6 0.000000 0.000000 0.000000 0.000000 0.000000 0.028441
#
#
# Mechanical properties :
#
#
# Convention : Reuss Voigt Hill
#
# Bulk Modulus (GPa) = 45.26551 48.52127 46.89339
# Shear Modulus (GPa) = 8.09164 15.83528 11.96346
#
# Velocity S-wave (km/s) = 2.03964 2.85331 2.48007
# Velocity P-wave (km/s) = 5.36834 5.98342 5.68421
#
# Compressibility (1/GPa) = 0.02209188
#
# Stress axis : x y z
#
# Youngs Moduli (GPa) = 21.40119 21.40119 79.85906
#
# Poissons Ratio (x) = 0.69328 0.38120
# Poissons Ratio (y) = 0.69328 0.38120
# Poissons Ratio (z) = 0.10216 0.10216
#
# Static dielectric constant tensor:
#      x y z
#    x 3.546590 0.000000 0.000000 
#    y 0.000000 3.546590 0.000000 
#    z 0.000000 0.000000 4.097090 
# 
# 
# High freq. dielectric constant tensor:
#      x y z
#    x 1.727720 0.000000 0.000000 
#    y 0.000000 1.727720 0.000000 
#    z 0.000000 0.000000 1.771240 
# 
# From -- ./inp_files/658.got.cif
#   From: 2010.03.12/outbox.cif.g09.slc.cpg/sg116_1_cif.got.tgz:658.got - 2010.04.14 02:15:44.
