data_PCOD8310010
_publ_section_title
;
Structure prediction by ZEFSAII (Michael W. Deem and Ramdas Pophale) SiO2 
 PCOD8310010
Probable space group: P -4 M 2
;
_chemical_formula_sum "Si O2"
_cell_formula_units_Z 48
_cell_length_a 9.272434
_cell_length_b 9.272434
_cell_length_c 31.102205
_cell_angle_alpha 90.000000
_cell_angle_beta 90.000000
_cell_angle_gamma 90.000000
_cell_volume 2674.106386
_symmetry_space_group_name_H-M "P -4 M 2"
_symmetry_group_IT_number 115
_symmetry_cell_setting 'tetragonal'
loop_
_space_group_symop_operation_xyz
x,y,z
y,-x,-z
-x,-y,z
-y,x,-z
y,x,-z
-y,-x,-z
-x,y,z
x,-y,z
loop_
_atom_site_type_symbol
_atom_site_label
_atom_site_fract_x
_atom_site_fract_y
_atom_site_fract_z
Si Si1 0.827986 0.160675 0.046757
Si Si2 0.169740 0.669887 0.461677
Si Si3 0.841238 0.670895 0.708009
Si Si4 0.332351 0.332246 0.211302
Si Si5 0.169690 0.667532 0.611727
Si Si6 0.832540 0.331910 0.128348
O O1 0.768862 0.259341 0.085297
O O2 0.000000 0.158183 0.046472
O O3 0.766999 0.000000 0.054219
O O4 0.777888 0.222113 0.000000
O O5 0.251686 0.748315 0.500000
O O6 0.201672 0.500000 0.463720
O O7 0.229596 0.733985 0.417452
O O8 0.000000 0.701492 0.465299
O O9 0.848178 0.500000 0.710773
O O10 0.738091 0.731934 0.745282
O O11 0.786906 0.712107 0.660357
O O12 0.000000 0.736179 0.715737
O O13 0.500000 0.296819 0.205300
O O14 0.301866 0.500000 0.216036
O O15 0.249998 0.269159 0.169841
O O16 0.206220 0.500000 0.602432
O O17 0.000000 0.694203 0.603489
O O18 0.802973 0.500000 0.123324
O O19 0.000000 0.295760 0.134399
#
# Coordination Sequence:
#
# PCOD8310010 Si02
#       6
#     8   8   8   8   8   8
#     4   8  14  26  44  63  82 107 141 180 221 267
#     4  11  24  39  55  78 106 135 169 207 246 290
#     4   8  15  29  49  72  97 124 155 193 234 274
#     4   9  17  29  45  65  90 121 155 187 222 269
#     4   9  18  34  56  80 104 131 165 204 246 293
#     4   9  17  29  44  62  86 116 147 181 224 270
#
# _framework density 17.949922999999998
#
# number of rings (size 3 to 8) (size 9 to 14) (size 15 to 20)
#    0.000    3.000    0.000    2.500    0.000    5.000 
#    0.000    3.333    0.000    4.000    0.000    0.000 
#    0.000    0.000    0.000    0.000    0.000    0.000 
#
# Total GULP energy -594983.469594 kJ/mol
# GULP energy per Si atom -12395.488950 kJ/mol
# Density = 1.790907 g / cm^3
# Si number density = 17.949923 Si / 1000 Ang^3
#
#
#
# Elastic Constant Matrix: (Units=GPa)
#
#
# Indices 1 2 3 4 5 6 
#
# 1 63.9310 44.8525 69.2305 0.0000 0.0000 0.0000
# 2 44.8525 63.9315 69.2307 0.0000 0.0000 0.0000
# 3 69.2305 69.2307 194.7679 0.0000 0.0000 0.0000
# 4 0.0000 0.0000 0.0000 33.8392 0.0000 0.0000
# 5 0.0000 0.0000 0.0000 0.0000 33.8391 0.0000
# 6 0.0000 0.0000 0.0000 0.0000 0.0000 19.6966
#
#
#
# Elastic Compliance Matrix: (Units=1/GPa)
#
#
# Indices 1 2 3 4 5 6 
#
# 1 0.034601 -0.017813 -0.005967 0.000000 0.000000 0.000000
# 2 -0.017813 0.034601 -0.005967 0.000000 0.000000 0.000000
# 3 -0.005967 -0.005967 0.009376 0.000000 0.000000 0.000000
# 4 0.000000 0.000000 0.000000 0.029552 0.000000 0.000000
# 5 0.000000 0.000000 0.000000 0.000000 0.029552 0.000000
# 6 0.000000 0.000000 0.000000 0.000000 0.000000 0.050770
#
#
# Mechanical properties :
#
#
# Convention : Reuss Voigt Hill
#
# Bulk Modulus (GPa) = 52.40279 76.58419 64.49349
# Shear Modulus (GPa) = 19.66119 26.76277 23.21198
#
# Velocity S-wave (km/s) = 3.31318 3.86550 3.59994
# Velocity P-wave (km/s) = 6.62521 7.91712 7.29980
#
# Compressibility (1/GPa) = 0.01908295
#
# Stress axis : x y z
#
# Youngs Moduli (GPa) = 28.90081 28.90101 106.65045
#
# Poissons Ratio (x) = 0.51482 0.63641
# Poissons Ratio (y) = 0.51482 0.63640
# Poissons Ratio (z) = 0.17246 0.17246
#
# Static dielectric constant tensor:
#      x y z
#    x 3.181600 0.000000 0.000000 
#    y 0.000000 3.181600 0.000000 
#    z 0.000000 0.000000 3.805310 
# 
# 
# High freq. dielectric constant tensor:
#      x y z
#    x 1.671360 0.000000 0.000000 
#    y 0.000000 1.671360 0.000000 
#    z 0.000000 0.000000 1.715180 
# 
# From -- ./inp_files/6107.got.cif
#   From: 2010.03.12/outbox.cif.g09.slc.cpg/sg115_4_cif.got.tgz:6107.got - 2010.04.14 02:11:21.
