data_PCOD8310652
_publ_section_title
;
Structure prediction by ZEFSAII (Michael W. Deem and Ramdas Pophale) SiO2 
 PCOD8310652
Probable space group: P -4 N 2
;
_chemical_formula_sum "Si O2"
_cell_formula_units_Z 34
_cell_length_a 11.791518
_cell_length_b 11.791518
_cell_length_c 9.941775
_cell_angle_alpha 90.000000
_cell_angle_beta 90.000000
_cell_angle_gamma 90.000000
_cell_volume 1382.303369
_symmetry_space_group_name_H-M "P -4 N 2"
_symmetry_group_IT_number 118
_symmetry_cell_setting 'tetragonal'
loop_
_space_group_symop_operation_xyz
x,y,z
y,-x,-z
-x,-y,z
-y,x,-z
1/2+y,1/2+x,1/2-z
1/2-y,1/2-x,1/2-z
1/2-x,1/2+y,1/2+z
1/2+x,1/2-y,1/2+z
loop_
_atom_site_type_symbol
_atom_site_label
_atom_site_fract_x
_atom_site_fract_y
_atom_site_fract_z
Si Si1 0.624247 0.460897 0.286189
Si Si2 0.500000 0.500000 0.000000
Si Si3 0.099589 0.573882 0.593470
Si Si4 0.597392 0.274343 0.504281
Si Si5 0.811913 0.844364 0.517009
O O1 0.500000 0.500000 0.229170
O O2 0.614218 0.390241 0.423742
O O3 0.698063 0.569102 0.337681
O O4 0.677593 0.378914 0.174229
O O5 0.576077 0.394066 0.935740
O O6 0.081471 0.581471 0.750000
O O7 0.216198 0.511212 0.563433
O O8 0.096294 0.699572 0.535868
O O9 0.000000 0.500000 0.525216
O O10 0.708634 0.194145 0.498376
#
# Coordination Sequence:
#
# PCOD8310652 Si02
#       5
#     8   2   8   8   8
#     4  12  23  46  79 116 156 211 273 334 414 510
#     4  12  28  44  68 114 156 204 260 340 422 472
#     4  11  27  48  76 110 156 211 271 333 410 490
#     4  12  24  47  77 110 154 213 264 333 420 486
#     4  12  27  47  78 113 161 207 273 344 407 502
#
# _framework density 24.596623999999998
#
# number of rings (size 3 to 8) (size 9 to 14) (size 15 to 20)
#    0.000    0.235    5.882    2.118    9.882    1.882 
#    0.000    4.706    0.000    0.000    0.000    0.000 
#    0.000    0.000    0.000    0.000    0.000    0.000 
#
# Total GULP energy -421349.933674 kJ/mol
# GULP energy per Si atom -12392.645108 kJ/mol
# Density = 2.454064 g / cm^3
# Si number density = 24.596624 Si / 1000 Ang^3
#
#
#
# Elastic Constant Matrix: (Units=GPa)
#
#
# Indices 1 2 3 4 5 6 
#
# 1 117.5356 74.9878 38.2131 0.0000 0.0000 0.0000
# 2 74.9878 117.5356 38.2131 0.0000 0.0000 0.0000
# 3 38.2131 38.2131 111.0444 0.0000 0.0000 0.0000
# 4 0.0000 0.0000 0.0000 37.9735 0.0000 0.0000
# 5 0.0000 0.0000 0.0000 0.0000 37.9735 0.0000
# 6 0.0000 0.0000 0.0000 0.0000 0.0000 50.9447
#
#
#
# Elastic Compliance Matrix: (Units=1/GPa)
#
#
# Indices 1 2 3 4 5 6 
#
# 1 0.014759 -0.008743 -0.002070 0.000000 0.000000 0.000000
# 2 -0.008743 0.014759 -0.002070 0.000000 0.000000 0.000000
# 3 -0.002070 -0.002070 0.010430 0.000000 0.000000 0.000000
# 4 0.000000 0.000000 0.000000 0.026334 0.000000 0.000000
# 5 0.000000 0.000000 0.000000 0.000000 0.026334 0.000000
# 6 0.000000 0.000000 0.000000 0.000000 0.000000 0.019629
#
#
# Mechanical properties :
#
#
# Convention : Reuss Voigt Hill
#
# Bulk Modulus (GPa) = 70.51565 72.10484 71.31024
# Shear Modulus (GPa) = 35.02830 38.35844 36.69337
#
# Velocity S-wave (km/s) = 3.77783 3.95334 3.86658
# Velocity P-wave (km/s) = 6.91089 7.08640 6.99920
#
# Compressibility (1/GPa) = 0.01418125
#
# Stress axis : x y z
#
# Youngs Moduli (GPa) = 67.75305 67.75305 95.87493
#
# Poissons Ratio (x) = 0.59240 0.19849
# Poissons Ratio (y) = 0.59240 0.19849
# Poissons Ratio (z) = 0.14027 0.14027
#
# Static dielectric constant tensor:
#      x y z
#    x 4.907600 0.000000 0.000000 
#    y 0.000000 4.907600 0.000000 
#    z 0.000000 0.000000 4.557150 
# 
# 
# High freq. dielectric constant tensor:
#      x y z
#    x 1.997940 0.000000 0.000000 
#    y 0.000000 1.997940 0.000000 
#    z 0.000000 0.000000 1.979830 
# 
# From -- ./inp_files/2944.got.cif
#   From: 2010.03.12/outbox.cif.g09.slc.cpg/sg118_2_cif.got.tgz:2944.got - 2010.04.14 02:21:17.
