data_PCOD8310249
_publ_section_title
;
Structure prediction by ZEFSAII (Michael W. Deem and Ramdas Pophale) SiO2 
 PCOD8310249
Probable space group: P -4 C 2
;
_chemical_formula_sum "Si O2"
_cell_formula_units_Z 34
_cell_length_a 9.300914
_cell_length_b 9.300914
_cell_length_c 17.424633
_cell_angle_alpha 90.000000
_cell_angle_beta 90.000000
_cell_angle_gamma 90.000000
_cell_volume 1507.352748
_symmetry_space_group_name_H-M "P -4 C 2"
_symmetry_group_IT_number 116
_symmetry_cell_setting 'tetragonal'
loop_
_space_group_symop_operation_xyz
x,y,z
y,-x,-z
-x,-y,z
-y,x,-z
y,x,1/2-z
-y,-x,1/2-z
-x,y,1/2+z
x,-y,1/2+z
loop_
_atom_site_type_symbol
_atom_site_label
_atom_site_fract_x
_atom_site_fract_y
_atom_site_fract_z
Si Si1 0.000000 0.000000 0.500000
Si Si2 0.651974 0.052088 0.801148
Si Si3 0.283339 0.138239 0.138054
Si Si4 0.849973 0.827449 0.610993
Si Si5 0.620979 0.305508 0.498322
O O1 0.021651 0.147394 0.548991
O O2 0.726139 0.179494 0.848102
O O3 0.623730 0.104653 0.714223
O O4 0.500000 0.000000 0.836875
O O5 0.760159 0.915185 0.810555
O O6 0.379493 0.185264 0.065824
O O7 0.204801 0.988544 0.122712
O O8 0.735343 0.717450 0.575280
O O9 0.457503 0.320984 0.469296
#
# Coordination Sequence:
#
# PCOD8310249 Si02
#       5
#     2   8   8   8   8
#     4  12  20  36  66 104 128 168 226 288 344 392
#     4  11  24  41  66  99 143 184 226 287 364 421
#     4  11  24  43  66 102 139 177 239 291 345 434
#     4  12  21  41  68  99 135 178 228 294 351 413
#     4  11  26  45  70 101 141 186 237 295 360 431
#
# _framework density 22.556099
#
# number of rings (size 3 to 8) (size 9 to 14) (size 15 to 20)
#    0.000    0.706    4.706    2.118    3.294    1.882 
#    0.000    0.000    0.000    2.824    0.000    0.000 
#    0.000    0.000    0.000    0.000    0.000    0.000 
#
# Total GULP energy -421256.170674 kJ/mol
# GULP energy per Si atom -12389.887373 kJ/mol
# Density = 2.250476 g / cm^3
# Si number density = 22.556099 Si / 1000 Ang^3
#
#
#
# Elastic Constant Matrix: (Units=GPa)
#
#
# Indices 1 2 3 4 5 6 
#
# 1 103.5858 35.4009 17.6107 0.0000 0.0000 0.0000
# 2 35.4009 103.5858 17.6107 0.0000 0.0000 0.0000
# 3 17.6107 17.6107 56.2422 0.0000 0.0000 0.0000
# 4 0.0000 0.0000 0.0000 28.1269 0.0000 0.0000
# 5 0.0000 0.0000 0.0000 0.0000 28.1269 0.0000
# 6 0.0000 0.0000 0.0000 0.0000 0.0000 39.5937
#
#
#
# Elastic Compliance Matrix: (Units=1/GPa)
#
#
# Indices 1 2 3 4 5 6 
#
# 1 0.011241 -0.003425 -0.002447 0.000000 0.000000 0.000000
# 2 -0.003425 0.011241 -0.002447 0.000000 0.000000 0.000000
# 3 -0.002447 -0.002447 0.019313 0.000000 0.000000 0.000000
# 4 0.000000 0.000000 0.000000 0.035553 0.000000 0.000000
# 5 0.000000 0.000000 0.000000 0.000000 0.035553 0.000000
# 6 0.000000 0.000000 0.000000 0.000000 0.000000 0.025257
#
#
# Mechanical properties :
#
#
# Convention : Reuss Voigt Hill
#
# Bulk Modulus (GPa) = 39.75426 44.96205 42.35815
# Shear Modulus (GPa) = 30.64085 32.02225 31.33155
#
# Velocity S-wave (km/s) = 3.68969 3.77194 3.73104
# Velocity P-wave (km/s) = 5.98453 6.24073 6.11397
#
# Compressibility (1/GPa) = 0.02515454
#
# Stress axis : x y z
#
# Youngs Moduli (GPa) = 88.96370 88.96370 51.77934
#
# Poissons Ratio (x) = 0.30474 0.12671
# Poissons Ratio (y) = 0.30474 0.12671
# Poissons Ratio (z) = 0.21770 0.21770
#
# Static dielectric constant tensor:
#      x y z
#    x 4.012770 0.000000 0.000000 
#    y 0.000000 4.012770 0.000000 
#    z 0.000000 0.000000 4.391150 
# 
# 
# High freq. dielectric constant tensor:
#      x y z
#    x 1.886150 0.000000 0.000000 
#    y 0.000000 1.886150 0.000000 
#    z 0.000000 0.000000 1.884620 
# 
# From -- ./inp_files/3880.got.cif
#   From: 2010.03.12/outbox.cif.g09.slc.cpg/sg116_2_cif.got.tgz:3880.got - 2010.04.14 02:15:44.
