data_PCOD8310101
_publ_section_title
;
Structure prediction by ZEFSAII (Michael W. Deem and Ramdas Pophale) SiO2 
 PCOD8310101
Probable space group: P -4 C 2
;
_chemical_formula_sum "Si O2"
_cell_formula_units_Z 56
_cell_length_a 11.966369
_cell_length_b 11.966369
_cell_length_c 20.242767
_cell_angle_alpha 90.000000
_cell_angle_beta 90.000000
_cell_angle_gamma 90.000000
_cell_volume 2898.642516
_symmetry_space_group_name_H-M "P -4 C 2"
_symmetry_group_IT_number 116
_symmetry_cell_setting 'tetragonal'
loop_
_space_group_symop_operation_xyz
x,y,z
y,-x,-z
-x,-y,z
-y,x,-z
y,x,1/2-z
-y,-x,1/2-z
-x,y,1/2+z
x,-y,1/2+z
loop_
_atom_site_type_symbol
_atom_site_label
_atom_site_fract_x
_atom_site_fract_y
_atom_site_fract_z
Si Si1 0.372336 0.000001 0.214561
Si Si2 0.368573 0.239118 0.552901
Si Si3 0.245611 0.212379 0.678425
Si Si4 0.754389 0.212381 0.678425
Si Si5 0.264098 0.000000 0.848190
Si Si6 0.630654 0.000000 0.492239
Si Si7 0.631427 0.239118 0.552901
O O1 0.311017 0.901600 0.177933
O O2 0.500000 0.000000 0.192518
O O3 0.311018 0.098402 0.177933
O O4 0.364750 0.000000 0.294399
O O5 0.301900 0.279861 0.618516
O O6 0.334937 0.112170 0.531855
O O7 0.500000 0.249889 0.564673
O O8 0.329717 0.329717 0.500000
O O9 0.269007 0.269007 0.750000
O O10 0.112572 0.192965 0.666035
O O11 0.730993 0.269008 0.750000
O O12 0.887428 0.192965 0.666035
O O13 0.698100 0.279862 0.618516
O O14 0.307726 0.000000 0.922161
O O15 0.500000 0.000000 0.477120
O O16 0.665063 0.112170 0.531855
#
# Coordination Sequence:
#
# PCOD8310101 Si02
#       7
#     8   8   8   8   8   8   8
#     4  10  20  35  57  86 123 161 206 252 301 366
#     4  11  22  38  61  88 121 159 204 253 306 368
#     4  10  21  37  59  88 121 159 202 250 306 363
#     4  10  21  37  59  88 121 159 202 250 306 363
#     4  10  19  35  58  87 121 154 203 254 306 357
#     4  10  20  36  61  87 114 155 202 248 296 361
#     4  11  22  38  61  88 121 159 204 253 306 368
#
# _framework density 19.319389000000001
#
# number of rings (size 3 to 8) (size 9 to 14) (size 15 to 20)
#    0.000    1.714    2.857    2.143    0.000    2.000 
#    0.000    4.286    0.000    0.429    0.000    0.000 
#    0.000    0.000    0.000    0.000    0.000    0.000 
#
# Total GULP energy -693931.306564 kJ/mol
# GULP energy per Si atom -12391.630474 kJ/mol
# Density = 1.927542 g / cm^3
# Si number density = 19.319389 Si / 1000 Ang^3
#
#
#
# Elastic Constant Matrix: (Units=GPa)
#
#
# Indices 1 2 3 4 5 6 
#
# 1 106.6698 40.3053 42.6198 0.0000 0.0000 0.0000
# 2 40.3053 106.6695 42.6198 0.0000 0.0000 0.0000
# 3 42.6198 42.6198 154.2937 0.0000 0.0000 0.0000
# 4 0.0000 0.0000 0.0000 21.4140 0.0000 0.0000
# 5 0.0000 0.0000 0.0000 0.0000 21.4140 0.0000
# 6 0.0000 0.0000 0.0000 0.0000 0.0000 24.9006
#
#
#
# Elastic Compliance Matrix: (Units=1/GPa)
#
#
# Indices 1 2 3 4 5 6 
#
# 1 0.011585 -0.003483 -0.002238 0.000000 0.000000 0.000000
# 2 -0.003483 0.011585 -0.002238 0.000000 0.000000 0.000000
# 3 -0.002238 -0.002238 0.007717 0.000000 0.000000 0.000000
# 4 0.000000 0.000000 0.000000 0.046698 0.000000 0.000000
# 5 0.000000 0.000000 0.000000 0.000000 0.046699 0.000000
# 6 0.000000 0.000000 0.000000 0.000000 0.000000 0.040160
#
#
# Mechanical properties :
#
#
# Convention : Reuss Voigt Hill
#
# Bulk Modulus (GPa) = 66.80301 68.74698 67.77499
# Shear Modulus (GPa) = 26.97567 29.68491 28.33029
#
# Velocity S-wave (km/s) = 3.74076 3.92412 3.83354
# Velocity P-wave (km/s) = 7.30144 7.49622 7.39947
#
# Compressibility (1/GPa) = 0.01496939
#
# Stress axis : x y z
#
# Youngs Moduli (GPa) = 86.31819 86.31794 129.57583
#
# Poissons Ratio (x) = 0.30067 0.28998
# Poissons Ratio (y) = 0.30067 0.28998
# Poissons Ratio (z) = 0.19317 0.19317
#
# Static dielectric constant tensor:
#      x y z
#    x 3.384680 0.000000 0.000000 
#    y 0.000000 3.384680 0.000000 
#    z 0.000000 0.000000 3.869530 
# 
# 
# High freq. dielectric constant tensor:
#      x y z
#    x 1.735180 0.000000 0.000000 
#    y 0.000000 1.735180 0.000000 
#    z 0.000000 0.000000 1.781500 
# 
# From -- ./inp_files/4126.got.cif
#   From: 2010.03.12/outbox.cif.g09.slc.cpg/sg116_3_cif.got.tgz:4126.got - 2010.04.14 02:15:44.
