data_PCOD8310064
_publ_section_title
;
Structure prediction by ZEFSAII (Michael W. Deem and Ramdas Pophale) SiO2 
 PCOD8310064
Probable space group: P -4 C 2
;
_chemical_formula_sum "Si O2"
_cell_formula_units_Z 40
_cell_length_a 16.115035
_cell_length_b 16.115035
_cell_length_c 8.967789
_cell_angle_alpha 90.000000
_cell_angle_beta 90.000000
_cell_angle_gamma 90.000000
_cell_volume 2328.884163
_symmetry_space_group_name_H-M "P -4 C 2"
_symmetry_group_IT_number 116
_symmetry_cell_setting 'tetragonal'
loop_
_space_group_symop_operation_xyz
x,y,z
y,-x,-z
-x,-y,z
-y,x,-z
y,x,1/2-z
-y,-x,1/2-z
-x,y,1/2+z
x,-y,1/2+z
loop_
_atom_site_type_symbol
_atom_site_label
_atom_site_fract_x
_atom_site_fract_y
_atom_site_fract_z
Si Si1 0.545678 0.100794 0.512570
Si Si2 0.348401 0.112338 0.491862
Si Si3 0.290334 0.606526 0.549454
Si Si4 0.559487 0.278535 0.614056
Si Si5 0.007690 0.631395 0.249143
O O1 0.447704 0.103203 0.493050
O O2 0.583774 0.190431 0.545424
O O3 0.583170 0.069782 0.358426
O O4 0.566967 0.041114 0.648336
O O5 0.331601 0.211486 0.484526
O O6 0.312540 0.067373 0.641942
O O7 0.315179 0.060046 0.347360
O O8 0.302291 0.534791 0.427053
O O9 0.374945 0.657481 0.545894
O O10 0.275132 0.563309 0.708019
#
# Coordination Sequence:
#
# PCOD8310064 Si02
#       5
#     8   8   8   8   8
#     4  10  17  27  44  68  90 116 141 184 223 283
#     4  10  17  27  44  68  90 116 141 184 223 283
#     4  10  22  37  50  65  88 120 161 205 242 272
#     4  10  22  37  50  65  88 120 161 205 242 272
#     4  10  17  26  44  68  94 112 140 173 230 277
#
# _framework density 17.175608
#
# number of rings (size 3 to 8) (size 9 to 14) (size 15 to 20)
#    0.000    2.000    2.000    4.800    8.400    1.200 
#    0.000    2.000    0.000    0.000    0.000    0.000 
#    0.000    0.000    0.000    0.000    0.000   70.000 
#
# Total GULP energy -495616.196211 kJ/mol
# GULP energy per Si atom -12390.404905 kJ/mol
# Density = 1.713652 g / cm^3
# Si number density = 17.175608 Si / 1000 Ang^3
#
#
#
# Elastic Constant Matrix: (Units=GPa)
#
#
# Indices 1 2 3 4 5 6 
#
# 1 52.8781 23.8898 22.1023 0.0000 0.0000 0.0000
# 2 23.8898 52.8781 22.1023 0.0000 0.0000 0.0000
# 3 22.1023 22.1023 95.4634 0.0000 0.0000 0.0000
# 4 0.0000 0.0000 0.0000 18.5321 0.0000 0.0000
# 5 0.0000 0.0000 0.0000 0.0000 18.5321 0.0000
# 6 0.0000 0.0000 0.0000 0.0000 0.0000 0.4584
#
#
#
# Elastic Compliance Matrix: (Units=1/GPa)
#
#
# Indices 1 2 3 4 5 6 
#
# 1 0.024763 -0.009733 -0.003480 0.000000 0.000000 0.000000
# 2 -0.009733 0.024763 -0.003480 0.000000 0.000000 0.000000
# 3 -0.003480 -0.003480 0.012087 0.000000 0.000000 0.000000
# 4 0.000000 0.000000 0.000000 0.053960 0.000000 0.000000
# 5 0.000000 0.000000 0.000000 0.000000 0.053960 0.000000
# 6 0.000000 0.000000 0.000000 0.000000 0.000000 2.181331
#
#
# Mechanical properties :
#
#
# Convention : Reuss Voigt Hill
#
# Bulk Modulus (GPa) = 35.42671 37.48980 36.45826
# Shear Modulus (GPa) = 2.08885 16.37955 9.23420
#
# Velocity S-wave (km/s) = 1.10400 3.09148 2.32121
# Velocity P-wave (km/s) = 4.72187 5.88368 5.33450
#
# Compressibility (1/GPa) = 0.02822729
#
# Stress axis : x y z
#
# Youngs Moduli (GPa) = 40.38221 40.38221 82.73641
#
# Poissons Ratio (x) = 0.39305 0.28791
# Poissons Ratio (y) = 0.39305 0.28791
# Poissons Ratio (z) = 0.14052 0.14052
#
# Static dielectric constant tensor:
#      x y z
#    x 3.208790 0.000000 0.000000 
#    y 0.000000 3.208790 0.000000 
#    z 0.000000 0.000000 3.716490 
# 
# 
# High freq. dielectric constant tensor:
#      x y z
#    x 1.623550 0.000000 0.000000 
#    y 0.000000 1.623550 0.000000 
#    z 0.000000 0.000000 1.690350 
# 
# From -- ./inp_files/897.got.cif
#   From: 2010.03.12/outbox.cif.g09.slc.cpg/sg116_1_cif.got.tgz:897.got - 2010.04.14 02:15:44.
