data_PCOD8310927
_publ_section_title
;
Structure prediction by ZEFSAII (Michael W. Deem and Ramdas Pophale) SiO2 
 PCOD8310927
Probable space group: I -4 M 2
;
_chemical_formula_sum "Si O2"
_cell_formula_units_Z 84
_cell_length_a 14.101406
_cell_length_b 14.101406
_cell_length_c 23.439794
_cell_angle_alpha 90.000000
_cell_angle_beta 90.000000
_cell_angle_gamma 90.000000
_cell_volume 4660.994861
_symmetry_space_group_name_H-M "I -4 M 2"
_symmetry_group_IT_number 119
_symmetry_cell_setting 'tetragonal'
loop_
_space_group_symop_operation_xyz
x,y,z
y,-x,-z
-x,-y,z
-y,x,-z
y,x,-z
-y,-x,-z
-x,y,z
x,-y,z
1/2+x,1/2+y,1/2+z
1/2+y,1/2-x,1/2-z
1/2-x,1/2-y,1/2+z
1/2-y,1/2+x,1/2-z
1/2+y,1/2+x,1/2-z
1/2-y,1/2-x,1/2-z
1/2-x,1/2+y,1/2+z
1/2+x,1/2-y,1/2+z
loop_
_atom_site_type_symbol
_atom_site_label
_atom_site_fract_x
_atom_site_fract_y
_atom_site_fract_z
Si Si1 0.184414 0.712902 0.845985
Si Si2 0.390097 0.000000 0.107056
Si Si3 0.195781 0.894728 0.262470
Si Si4 0.831453 0.500000 0.478915
Si Si5 0.000000 0.500000 0.392284
Si Si6 0.702015 0.796971 0.550792
Si Si7 0.708146 0.000000 0.604568
Si Si8 0.606297 0.500000 0.183795
O O1 0.167530 0.781740 0.792587
O O2 0.254556 0.633127 0.822058
O O3 0.233707 0.774912 0.894465
O O4 0.091222 0.662259 0.868565
O O5 0.500000 0.000000 0.125957
O O6 0.383929 0.000000 0.039208
O O7 0.085393 0.885947 0.272642
O O8 0.229729 0.000000 0.247839
O O9 0.769601 0.404240 0.470868
O O10 0.907237 0.500000 0.429448
O O11 0.000000 0.395073 0.360220
O O12 0.775234 0.775234 0.500000
O O13 0.711298 0.908388 0.563974
O O14 0.803168 0.000000 0.642157
O O15 0.500000 0.500000 0.153475
#
# Coordination Sequence:
#
# PCOD8310927 Si02
#       8
#    16   8  16   8   4  16   8   8
#     4  11  22  37  60  84 117 153 194 246 296 348
#     4  12  22  36  59  87 117 157 200 244 299 362
#     4  10  21  39  57  85 114 151 193 240 293 355
#     4  10  20  35  58  87 119 154 198 237 299 345
#     4   8  18  34  60  82 119 153 194 248 286 352
#     4  11  22  38  61  88 121 159 197 251 293 359
#     4  10  20  40  57  88 119 161 203 241 306 349
#     4  10  20  37  63  82 117 157 193 240 298 360
#
# _framework density 18.021902999999998
#
# number of rings (size 3 to 8) (size 9 to 14) (size 15 to 20)
#    0.000    1.524    5.238    0.571    0.000    0.762 
#    3.429    0.000    0.000    2.571    0.000    0.000 
#    0.000    0.000    0.000    0.000    0.000    0.000 
#
# Total GULP energy -520461.442124 kJ/mol
# GULP energy per Si atom -12391.939098 kJ/mol
# Density = 1.798088 g / cm^3
# Si number density = 18.021903 Si / 1000 Ang^3
#
#
#
# Elastic Constant Matrix: (Units=GPa)
#
#
# Indices 1 2 3 4 5 6 
#
# 1 124.5849 47.8844 39.1966 0.0000 0.0000 0.0000
# 2 47.8844 124.5849 39.1966 0.0000 0.0000 0.0000
# 3 39.1966 39.1966 80.3700 0.0000 0.0000 0.0000
# 4 0.0000 0.0000 0.0000 34.4535 0.0000 0.0000
# 5 0.0000 0.0000 0.0000 0.0000 34.4535 0.0000
# 6 0.0000 0.0000 0.0000 0.0000 0.0000 17.0444
#
#
#
# Elastic Compliance Matrix: (Units=1/GPa)
#
#
# Indices 1 2 3 4 5 6 
#
# 1 0.010244 -0.002794 -0.003633 0.000000 0.000000 0.000000
# 2 -0.002794 0.010244 -0.003633 0.000000 0.000000 0.000000
# 3 -0.003633 -0.003633 0.015986 0.000000 0.000000 0.000000
# 4 0.000000 0.000000 0.000000 0.029025 0.000000 0.000000
# 5 0.000000 0.000000 0.000000 0.000000 0.029025 0.000000
# 6 0.000000 0.000000 0.000000 0.000000 0.000000 0.058670
#
#
# Mechanical properties :
#
#
# Convention : Reuss Voigt Hill
#
# Bulk Modulus (GPa) = 61.15201 64.67726 62.91463
# Shear Modulus (GPa) = 27.96971 30.74109 29.35540
#
# Velocity S-wave (km/s) = 3.94380 4.13457 4.04031
# Velocity P-wave (km/s) = 7.39890 7.66544 7.53335
#
# Compressibility (1/GPa) = 0.01635269
#
# Stress axis : x y z
#
# Youngs Moduli (GPa) = 97.62170 97.62170 62.55376
#
# Poissons Ratio (x) = 0.27276 0.22727
# Poissons Ratio (y) = 0.27276 0.22727
# Poissons Ratio (z) = 0.35467 0.35467
#
# Static dielectric constant tensor:
#      x y z
#    x 3.664040 0.000000 0.000000 
#    y 0.000000 3.664040 0.000000 
#    z 0.000000 0.000000 3.197460 
# 
# 
# High freq. dielectric constant tensor:
#      x y z
#    x 1.708490 0.000000 0.000000 
#    y 0.000000 1.708490 0.000000 
#    z 0.000000 0.000000 1.685740 
# 
# From -- ./inp_files/7749.got.cif
#   From: 2010.03.12/outbox.cif.g09.slc.cpg/sg119_4_cif.got.tgz:7749.got - 2010.04.14 02:25:26.
