data_PCOD8310783
_publ_section_title
;
Structure prediction by ZEFSAII (Michael W. Deem and Ramdas Pophale) SiO2 
 PCOD8310783
Probable space group: I -4 M 2
;
_chemical_formula_sum "Si O2"
_cell_formula_units_Z 96
_cell_length_a 23.194541
_cell_length_b 23.194541
_cell_length_c 10.446561
_cell_angle_alpha 90.000000
_cell_angle_beta 90.000000
_cell_angle_gamma 90.000000
_cell_volume 5620.111215
_symmetry_space_group_name_H-M "I -4 M 2"
_symmetry_group_IT_number 119
_symmetry_cell_setting 'tetragonal'
loop_
_space_group_symop_operation_xyz
x,y,z
y,-x,-z
-x,-y,z
-y,x,-z
y,x,-z
-y,-x,-z
-x,y,z
x,-y,z
1/2+x,1/2+y,1/2+z
1/2+y,1/2-x,1/2-z
1/2-x,1/2-y,1/2+z
1/2-y,1/2+x,1/2-z
1/2+y,1/2+x,1/2-z
1/2-y,1/2-x,1/2-z
1/2-x,1/2+y,1/2+z
1/2+x,1/2-y,1/2+z
loop_
_atom_site_type_symbol
_atom_site_label
_atom_site_fract_x
_atom_site_fract_y
_atom_site_fract_z
Si Si1 0.787899 0.563649 0.476022
Si Si2 0.330273 0.729391 0.610245
Si Si3 0.935723 0.690095 0.485102
Si Si4 0.260930 0.327968 0.101829
Si Si5 0.659658 0.066118 0.238241
Si Si6 0.563133 0.088145 0.608900
O O1 0.761406 0.500000 0.489819
O O2 0.740699 0.602424 0.407995
O O3 0.804564 0.589031 0.615938
O O4 0.842917 0.564219 0.382818
O O5 0.316720 0.683281 0.500000
O O6 0.321111 0.709734 0.757659
O O7 0.293402 0.786451 0.583124
O O8 0.891395 0.732740 0.413863
O O9 0.926216 0.699437 0.636776
O O10 0.931876 0.620538 0.465095
O O11 0.000000 0.709674 0.444005
O O12 0.311061 0.311061 0.000000
O O13 0.600737 0.100737 0.250000
O O14 0.642158 0.000000 0.213760
O O15 0.500000 0.069654 0.547329
O O16 0.563103 0.063103 0.750000
#
# Coordination Sequence:
#
# PCOD8310783 Si02
#       6
#    16  16  16  16  16  16
#     4  10  20  34  52  71  99 131 168 216 260 305
#     4  10  20  34  54  75  97 130 171 208 257 311
#     4  11  22  34  52  73  99 133 172 215 263 312
#     4  10  21  36  52  74 101 129 168 215 260 305
#     4  10  19  31  47  67  93 131 171 210 254 298
#     4  11  21  33  47  66  95 133 176 219 259 298
#
# _framework density 17.081513000000001
#
# number of rings (size 3 to 8) (size 9 to 14) (size 15 to 20)
#    0.000    1.667    3.333    1.500    2.333    3.333 
#    0.000    1.667    0.000    0.000    0.000    0.000 
#    0.000    0.667    0.000    3.000    0.000    0.000 
#
# Total GULP energy -594753.651030 kJ/mol
# GULP energy per Si atom -12390.701063 kJ/mol
# Density = 1.704264 g / cm^3
# Si number density = 17.081513 Si / 1000 Ang^3
#
#
#
# Elastic Constant Matrix: (Units=GPa)
#
#
# Indices 1 2 3 4 5 6 
#
# 1 64.1093 36.3899 32.9424 0.0000 0.0000 0.0000
# 2 36.3899 64.1106 32.9432 0.0000 0.0000 0.0000
# 3 32.9424 32.9432 100.5882 0.0000 0.0000 0.0000
# 4 0.0000 0.0000 0.0000 22.2981 0.0000 0.0000
# 5 0.0000 0.0000 0.0000 0.0000 22.2982 0.0000
# 6 0.0000 0.0000 0.0000 0.0000 0.0000 21.7466
#
#
#
# Elastic Compliance Matrix: (Units=1/GPa)
#
#
# Indices 1 2 3 4 5 6 
#
# 1 0.024373 -0.011702 -0.004150 0.000000 0.000000 0.000000
# 2 -0.011702 0.024373 -0.004150 0.000000 0.000000 0.000000
# 3 -0.004150 -0.004150 0.012660 0.000000 0.000000 0.000000
# 4 0.000000 0.000000 0.000000 0.044847 0.000000 0.000000
# 5 0.000000 0.000000 0.000000 0.000000 0.044847 0.000000
# 6 0.000000 0.000000 0.000000 0.000000 0.000000 0.045984
#
#
# Mechanical properties :
#
#
# Convention : Reuss Voigt Hill
#
# Bulk Modulus (GPa) = 46.72401 48.15102 47.43752
# Shear Modulus (GPa) = 20.47335 21.70409 21.08872
#
# Velocity S-wave (km/s) = 3.46579 3.56844 3.51749
# Velocity P-wave (km/s) = 6.59003 6.72522 6.65797
#
# Compressibility (1/GPa) = 0.02140227
#
# Stress axis : x y z
#
# Youngs Moduli (GPa) = 41.02903 41.02961 78.99157
#
# Poissons Ratio (x) = 0.48013 0.32778
# Poissons Ratio (y) = 0.48013 0.32780
# Poissons Ratio (z) = 0.17025 0.17026
#
# Static dielectric constant tensor:
#      x y z
#    x 2.957890 0.000000 0.000000 
#    y 0.000000 2.957890 0.000000 
#    z 0.000000 0.000000 3.614420 
# 
# 
# High freq. dielectric constant tensor:
#      x y z
#    x 1.621830 0.000000 0.000000 
#    y 0.000000 1.621830 0.000000 
#    z 0.000000 0.000000 1.681510 
# 
# From -- ./inp_files/4187.got.cif
#   From: 2010.03.12/outbox.cif.g09.slc.cpg/sg119_3_cif.got.tgz:4187.got - 2010.04.14 02:25:26.
