data_PCOD8310777
_publ_section_title
;
Structure prediction by ZEFSAII (Michael W. Deem and Ramdas Pophale) SiO2 
 PCOD8310777
Probable space group: I -4 M 2
;
_chemical_formula_sum "Si O2"
_cell_formula_units_Z 88
_cell_length_a 31.433752
_cell_length_b 31.433752
_cell_length_c 5.182952
_cell_angle_alpha 90.000000
_cell_angle_beta 90.000000
_cell_angle_gamma 90.000000
_cell_volume 5121.175176
_symmetry_space_group_name_H-M "I -4 M 2"
_symmetry_group_IT_number 119
_symmetry_cell_setting 'tetragonal'
loop_
_space_group_symop_operation_xyz
x,y,z
y,-x,-z
-x,-y,z
-y,x,-z
y,x,-z
-y,-x,-z
-x,y,z
x,-y,z
1/2+x,1/2+y,1/2+z
1/2+y,1/2-x,1/2-z
1/2-x,1/2-y,1/2+z
1/2-y,1/2+x,1/2-z
1/2+y,1/2+x,1/2-z
1/2-y,1/2-x,1/2-z
1/2-x,1/2+y,1/2+z
1/2+x,1/2-y,1/2+z
loop_
_atom_site_type_symbol
_atom_site_label
_atom_site_fract_x
_atom_site_fract_y
_atom_site_fract_z
Si Si1 0.128651 0.049766 0.202561
Si Si2 0.048251 0.951750 0.500000
Si Si3 0.270423 0.950289 0.740608
Si Si4 0.087483 0.587483 0.750000
Si Si5 0.324639 0.550950 0.205143
Si Si6 0.048690 0.548690 0.250000
Si Si7 0.050164 0.678006 0.751436
O O1 0.078527 0.058801 0.256307
O O2 0.155737 0.068685 0.440685
O O3 0.137431 0.000000 0.191319
O O4 0.145797 0.069868 0.936248
O O5 0.000000 0.944346 0.400041
O O6 0.223106 0.930590 0.730888
O O7 0.300288 0.932836 0.511024
O O8 0.266224 0.000000 0.692544
O O9 0.289971 0.939705 0.016891
O O10 0.060182 0.575843 0.499520
O O11 0.078348 0.636606 0.806360
O O12 0.324961 0.500000 0.213140
O O13 0.057546 0.500000 0.321498
O O14 0.000000 0.666255 0.741212
#
# Coordination Sequence:
#
# PCOD8310777 Si02
#       7
#    16   8  16   8  16   8  16
#     4   9  17  28  43  62  84 115 154 192 228 259
#     4   9  18  32  46  64  96 136 174 206 228 250
#     4   9  17  29  45  63  81 102 135 182 231 275
#     4  12  22  33  46  62  86 112 144 184 225 274
#     4   9  16  28  45  63  81 103 141 192 234 269
#     4  11  22  34  46  58  76 110 154 194 225 250
#     4  10  19  30  44  62  83 109 140 176 223 273
#
# _framework density 17.183554999999998
#
# number of rings (size 3 to 8) (size 9 to 14) (size 15 to 20)
#    0.000    2.364    0.000    3.818    0.000    7.273 
#    0.000    2.727    0.000    7.636    0.000    0.000 
#    0.000    0.000    0.000    0.000    0.000   50.909 
#
# Total GULP energy -545498.936937 kJ/mol
# GULP energy per Si atom -12397.703112 kJ/mol
# Density = 1.714444 g / cm^3
# Si number density = 17.183555 Si / 1000 Ang^3
#
#
#
# Elastic Constant Matrix: (Units=GPa)
#
#
# Indices 1 2 3 4 5 6 
#
# 1 144.7625 -63.6412 11.1236 0.0000 0.0000 0.0000
# 2 -63.6412 144.7722 11.1247 0.0000 0.0000 0.0000
# 3 11.1236 11.1247 91.0445 0.0000 0.0000 0.0000
# 4 0.0000 0.0000 0.0000 20.5187 0.0000 0.0000
# 5 0.0000 0.0000 0.0000 0.0000 20.5191 0.0000
# 6 0.0000 0.0000 0.0000 0.0000 0.0000 4.7518
#
#
#
# Elastic Compliance Matrix: (Units=1/GPa)
#
#
# Indices 1 2 3 4 5 6 
#
# 1 0.008776 0.003978 -0.001558 0.000000 0.000000 0.000000
# 2 0.003978 0.008776 -0.001558 0.000000 0.000000 0.000000
# 3 -0.001558 -0.001558 0.011364 0.000000 0.000000 0.000000
# 4 0.000000 0.000000 0.000000 0.048736 0.000000 0.000000
# 5 0.000000 0.000000 0.000000 0.000000 0.048735 0.000000
# 6 0.000000 0.000000 0.000000 0.000000 0.000000 0.210448
#
#
# Mechanical properties :
#
#
# Convention : Reuss Voigt Hill
#
# Bulk Modulus (GPa) = 32.63829 33.08817 32.86323
# Shear Modulus (GPa) = 14.47907 37.28939 25.88423
#
# Velocity S-wave (km/s) = 2.90593 4.66345 3.88537
# Velocity P-wave (km/s) = 5.50403 6.94942 6.26853
#
# Compressibility (1/GPa) = 0.03063886
#
# Stress axis : x y z
#
# Youngs Moduli (GPa) = 113.94269 113.95026 87.99379
#
# Poissons Ratio (x) = -0.45327 0.13712
# Poissons Ratio (y) = -0.45324 0.13712
# Poissons Ratio (z) = 0.17756 0.17757
#
# Static dielectric constant tensor:
#      x y z
#    x 3.015520 0.000000 0.000000 
#    y 0.000000 3.015500 0.000000 
#    z 0.000000 0.000000 3.409020 
# 
# 
# High freq. dielectric constant tensor:
#      x y z
#    x 1.624350 0.000000 0.000000 
#    y 0.000000 1.624350 0.000000 
#    z 0.000000 0.000000 1.686510 
# 
# From -- ./inp_files/1151.got.cif
#   From: 2010.03.12/outbox.cif.g09.slc.cpg/sg119_1_cif.got.tgz:1151.got - 2010.04.14 02:25:26.
