data_PCOD8310519
_publ_section_title
;
Structure prediction by ZEFSAII (Michael W. Deem and Ramdas Pophale) SiO2 
 PCOD8310519
Probable space group: P -4 N 2
;
_chemical_formula_sum "Si O2"
_cell_formula_units_Z 28
_cell_length_a 12.728742
_cell_length_b 12.728742
_cell_length_c 9.145404
_cell_angle_alpha 90.000000
_cell_angle_beta 90.000000
_cell_angle_gamma 90.000000
_cell_volume 1481.746339
_symmetry_space_group_name_H-M "P -4 N 2"
_symmetry_group_IT_number 118
_symmetry_cell_setting 'tetragonal'
loop_
_space_group_symop_operation_xyz
x,y,z
y,-x,-z
-x,-y,z
-y,x,-z
1/2+y,1/2+x,1/2-z
1/2-y,1/2-x,1/2-z
1/2-x,1/2+y,1/2+z
1/2+x,1/2-y,1/2+z
loop_
_atom_site_type_symbol
_atom_site_label
_atom_site_fract_x
_atom_site_fract_y
_atom_site_fract_z
Si Si1 0.345783 0.637962 0.660741
Si Si2 0.500000 0.500000 0.500000
Si Si3 0.001845 0.724400 0.634181
Si Si4 0.806829 0.794734 0.464600
Si Si5 0.500000 0.000000 0.250000
O O1 0.454893 0.594378 0.598344
O O2 0.270498 0.539372 0.707938
O O3 0.288304 0.710645 0.540106
O O4 0.367731 0.706222 0.807562
O O5 0.886784 0.767892 0.594198
O O6 0.998071 0.599301 0.642507
O O7 0.087890 0.759107 0.511585
#
# Coordination Sequence:
#
# PCOD8310519 Si02
#       5
#     8   2   8   8   2
#     4   9  22  40  51  94 119 149 207 250 292 378
#     4  12  24  32  62  80 128 156 192 254 316 336
#     4  10  21  37  65  84 120 160 202 252 308 366
#     4   9  20  39  59  85 122 150 207 253 292 374
#     4  12  20  40  64  94 116 164 208 244 326 376
#
# _framework density 18.896619999999999
#
# number of rings (size 3 to 8) (size 9 to 14) (size 15 to 20)
#    1.714    0.571    2.857    0.000    8.000    0.571 
#    0.000    0.000    0.000   10.286    0.000    0.000 
#    0.000    0.000    0.000    0.000    0.000    0.000 
#
# Total GULP energy -346875.012837 kJ/mol
# GULP energy per Si atom -12388.393316 kJ/mol
# Density = 1.885361 g / cm^3
# Si number density = 18.896620 Si / 1000 Ang^3
#
#
#
# Elastic Constant Matrix: (Units=GPa)
#
#
# Indices 1 2 3 4 5 6 
#
# 1 120.2456 49.9971 32.1019 0.0000 0.0000 0.0000
# 2 49.9971 120.2456 32.1019 0.0000 0.0000 0.0000
# 3 32.1019 32.1019 35.6815 0.0000 0.0000 0.0000
# 4 0.0000 0.0000 0.0000 30.6929 0.0000 0.0000
# 5 0.0000 0.0000 0.0000 0.0000 30.6929 0.0000
# 6 0.0000 0.0000 0.0000 0.0000 0.0000 42.2808
#
#
#
# Elastic Compliance Matrix: (Units=1/GPa)
#
#
# Indices 1 2 3 4 5 6 
#
# 1 0.011563 -0.002672 -0.007999 0.000000 0.000000 0.000000
# 2 -0.002672 0.011563 -0.007999 0.000000 0.000000 0.000000
# 3 -0.007999 -0.007999 0.042418 0.000000 0.000000 0.000000
# 4 0.000000 0.000000 0.000000 0.032581 0.000000 0.000000
# 5 0.000000 0.000000 0.000000 0.000000 0.032581 0.000000
# 6 0.000000 0.000000 0.000000 0.000000 0.000000 0.023651
#
#
# Mechanical properties :
#
#
# Convention : Reuss Voigt Hill
#
# Bulk Modulus (GPa) = 35.45507 56.06382 45.75944
# Shear Modulus (GPa) = 24.86356 31.53143 28.19749
#
# Velocity S-wave (km/s) = 3.63129 4.08932 3.86709
# Velocity P-wave (km/s) = 6.03200 7.21317 6.64887
#
# Compressibility (1/GPa) = 0.02820471
#
# Stress axis : x y z
#
# Youngs Moduli (GPa) = 86.48395 86.48395 23.57484
#
# Poissons Ratio (x) = 0.23112 0.18857
# Poissons Ratio (y) = 0.23112 0.18857
# Poissons Ratio (z) = 0.69175 0.69175
#
# Static dielectric constant tensor:
#      x y z
#    x 3.335030 0.000000 0.000000 
#    y 0.000000 3.335030 0.000000 
#    z 0.000000 0.000000 2.968750 
# 
# 
# High freq. dielectric constant tensor:
#      x y z
#    x 1.732670 0.000000 0.000000 
#    y 0.000000 1.732670 0.000000 
#    z 0.000000 0.000000 1.689490 
# 
# From -- ./inp_files/2809.got.cif
#   From: 2010.03.12/outbox.cif.g09.slc.cpg/sg118_2_cif.got.tgz:2809.got - 2010.04.14 02:21:17.
