data_PCOD8310301
_publ_section_title
;
Structure prediction by ZEFSAII (Michael W. Deem and Ramdas Pophale) SiO2 
 PCOD8310301
Probable space group: P -4 B 2
;
_chemical_formula_sum "Si O2"
_cell_formula_units_Z 32
_cell_length_a 11.906346
_cell_length_b 11.906346
_cell_length_c 11.767556
_cell_angle_alpha 90.000000
_cell_angle_beta 90.000000
_cell_angle_gamma 90.000000
_cell_volume 1668.181390
_symmetry_space_group_name_H-M "P -4 B 2"
_symmetry_group_IT_number 117
_symmetry_cell_setting 'tetragonal'
loop_
_space_group_symop_operation_xyz
x,y,z
y,-x,-z
-x,-y,z
-y,x,-z
1/2+y,1/2+x,-z
1/2-y,1/2-x,-z
1/2-x,1/2+y,z
1/2+x,1/2-y,z
loop_
_atom_site_type_symbol
_atom_site_label
_atom_site_fract_x
_atom_site_fract_y
_atom_site_fract_z
Si Si1 0.029826 0.661833 0.816545
Si Si2 0.117298 0.163116 0.165378
Si Si3 0.500000 0.000000 0.500000
Si Si4 0.500000 0.500000 0.000000
Si Si5 0.968053 0.650384 0.298268
Si Si6 0.140965 0.359036 0.000000
O O1 0.080308 0.784748 0.794286
O O2 0.122520 0.564993 0.794979
O O3 0.927821 0.640713 0.728111
O O4 0.983094 0.653958 0.945389
O O5 0.059585 0.217239 0.279604
O O6 0.166194 0.268081 0.096642
O O7 0.028309 0.102532 0.083547
O O8 0.384814 0.004975 0.574589
#
# Coordination Sequence:
#
# PCOD8310301 Si02
#       6
#     8   8   2   2   8   4
#     4   9  19  34  49  77 112 149 201 233 278 354
#     4  11  22  32  51  84 118 163 187 238 287 361
#     4   8  16  44  64  86 104 146 204 266 296 330
#     4  12  24  36  48  84 142 160 180 240 304 354
#     4   9  21  36  62  80 111 148 205 251 292 356
#     4  10  20  31  50  71 112 164 194 217 278 348
#
# _framework density 19.182566999999999
#
# number of rings (size 3 to 8) (size 9 to 14) (size 15 to 20)
#    0.000    2.500    2.500    0.000    3.500   10.000 
#    0.000    5.000    0.000    0.000    0.000    0.000 
#    0.000    0.000    0.000    0.000    0.000    0.000 
#
# Total GULP energy -396468.053961 kJ/mol
# GULP energy per Si atom -12389.626686 kJ/mol
# Density = 1.913891 g / cm^3
# Si number density = 19.182567 Si / 1000 Ang^3
#
#
#
# Elastic Constant Matrix: (Units=GPa)
#
#
# Indices 1 2 3 4 5 6 
#
# 1 85.2440 46.4186 41.0825 0.0000 0.0000 0.0000
# 2 46.4186 85.2443 41.0827 0.0000 0.0000 0.0000
# 3 41.0825 41.0827 101.7552 0.0000 0.0000 0.0000
# 4 0.0000 0.0000 0.0000 26.0833 0.0000 0.0000
# 5 0.0000 0.0000 0.0000 0.0000 26.0833 0.0000
# 6 0.0000 0.0000 0.0000 0.0000 0.0000 41.4327
#
#
#
# Elastic Compliance Matrix: (Units=1/GPa)
#
#
# Indices 1 2 3 4 5 6 
#
# 1 0.017955 -0.007801 -0.004099 0.000000 0.000000 0.000000
# 2 -0.007801 0.017955 -0.004099 0.000000 0.000000 0.000000
# 3 -0.004099 -0.004099 0.013138 0.000000 0.000000 0.000000
# 4 0.000000 0.000000 0.000000 0.038339 0.000000 0.000000
# 5 0.000000 0.000000 0.000000 0.000000 0.038339 0.000000
# 6 0.000000 0.000000 0.000000 0.000000 0.000000 0.024136
#
#
# Mechanical properties :
#
#
# Convention : Reuss Voigt Hill
#
# Bulk Modulus (GPa) = 58.66104 58.82348 58.74226
# Shear Modulus (GPa) = 26.66059 28.29716 27.47887
#
# Velocity S-wave (km/s) = 3.73209 3.84493 3.78893
# Velocity P-wave (km/s) = 7.01556 7.10232 7.05908
#
# Compressibility (1/GPa) = 0.01704709
#
# Stress axis : x y z
#
# Youngs Moduli (GPa) = 55.69533 55.69539 76.11727
#
# Poissons Ratio (x) = 0.43450 0.31203
# Poissons Ratio (y) = 0.43450 0.31203
# Poissons Ratio (z) = 0.22831 0.22831
#
# Static dielectric constant tensor:
#      x y z
#    x 3.533130 0.000000 0.000000 
#    y 0.000000 3.533120 0.000000 
#    z 0.000000 0.000000 3.414270 
# 
# 
# High freq. dielectric constant tensor:
#      x y z
#    x 1.734540 0.000000 0.000000 
#    y 0.000000 1.734540 0.000000 
#    z 0.000000 0.000000 1.718320 
# 
# From -- ./inp_files/2476.got.cif
#   From: 2010.03.12/outbox.cif.g09.slc.cpg/sg117_2_cif.got.tgz:2476.got - 2010.04.14 02:19:01.
