data_PCOD8310141
_publ_section_title
;
Structure prediction by ZEFSAII (Michael W. Deem and Ramdas Pophale) SiO2 
 PCOD8310141
Probable space group: P -4 C 2
;
_chemical_formula_sum "Si O2"
_cell_formula_units_Z 40
_cell_length_a 14.426349
_cell_length_b 14.426349
_cell_length_c 9.648535
_cell_angle_alpha 90.000000
_cell_angle_beta 90.000000
_cell_angle_gamma 90.000000
_cell_volume 2008.048719
_symmetry_space_group_name_H-M "P -4 C 2"
_symmetry_group_IT_number 116
_symmetry_cell_setting 'tetragonal'
loop_
_space_group_symop_operation_xyz
x,y,z
y,-x,-z
-x,-y,z
-y,x,-z
y,x,1/2-z
-y,-x,1/2-z
-x,y,1/2+z
x,-y,1/2+z
loop_
_atom_site_type_symbol
_atom_site_label
_atom_site_fract_x
_atom_site_fract_y
_atom_site_fract_z
Si Si1 0.989514 0.275848 0.221533
Si Si2 0.580343 0.407446 0.590182
Si Si3 0.685930 0.231076 0.528348
Si Si4 0.169481 0.169481 0.250000
Si Si5 0.398548 0.957293 0.533536
Si Si6 0.217282 0.217282 0.750000
O O1 0.993375 0.319002 0.069092
O O2 0.891763 0.233835 0.266346
O O3 0.061315 0.190083 0.223950
O O4 0.013515 0.364642 0.315277
O O5 0.488474 0.375939 0.505735
O O6 0.560546 0.439455 0.750000
O O7 0.649917 0.322900 0.600690
O O8 0.772785 0.195802 0.615066
O O9 0.602476 0.155105 0.522705
O O10 0.723901 0.256375 0.377552
O O11 0.500000 0.000000 0.502929
#
# Coordination Sequence:
#
# PCOD8310141 Si02
#       6
#     8   8   8   4   8   4
#     4  10  21  37  60  84 120 153 196 247 297 359
#     4  11  24  42  63  90 121 160 204 253 300 360
#     4  10  22  39  61  86 121 158 199 248 306 356
#     4  10  20  39  60  85 118 158 196 246 308 362
#     4  10  21  39  58  88 116 157 195 247 299 358
#     4  10  22  37  58  91 118 158 200 248 296 362
#
# _framework density 19.919836
#
# number of rings (size 3 to 8) (size 9 to 14) (size 15 to 20)
#    0.000    1.800    1.000    3.000    2.800    3.600 
#    3.600    0.000    0.000    7.200    0.000    0.000 
#    0.000    0.000    0.000    0.000    0.000    0.000 
#
# Total GULP energy -495797.445351 kJ/mol
# GULP energy per Si atom -12394.936134 kJ/mol
# Density = 1.987450 g / cm^3
# Si number density = 19.919836 Si / 1000 Ang^3
#
#
#
# Elastic Constant Matrix: (Units=GPa)
#
#
# Indices 1 2 3 4 5 6 
#
# 1 104.5591 27.6266 17.2799 0.0000 0.0000 0.0000
# 2 27.6266 104.5569 17.2791 0.0000 0.0000 0.0000
# 3 17.2799 17.2791 110.2993 0.0000 0.0000 0.0000
# 4 0.0000 0.0000 0.0000 24.5932 0.0000 0.0000
# 5 0.0000 0.0000 0.0000 0.0000 24.5930 0.0000
# 6 0.0000 0.0000 0.0000 0.0000 0.0000 33.2521
#
#
#
# Elastic Compliance Matrix: (Units=1/GPa)
#
#
# Indices 1 2 3 4 5 6 
#
# 1 0.010443 -0.002555 -0.001236 0.000000 0.000000 0.000000
# 2 -0.002555 0.010444 -0.001236 0.000000 0.000000 0.000000
# 3 -0.001236 -0.001236 0.009453 0.000000 0.000000 0.000000
# 4 0.000000 0.000000 0.000000 0.040662 0.000000 0.000000
# 5 0.000000 0.000000 0.000000 0.000000 0.040662 0.000000
# 6 0.000000 0.000000 0.000000 0.000000 0.000000 0.030073
#
#
# Mechanical properties :
#
#
# Convention : Reuss Voigt Hill
#
# Bulk Modulus (GPa) = 49.29300 49.30962 49.30131
# Shear Modulus (GPa) = 31.53521 33.63631 32.58576
#
# Velocity S-wave (km/s) = 3.98314 4.11370 4.04895
# Velocity P-wave (km/s) = 6.77889 6.88267 6.83097
#
# Compressibility (1/GPa) = 0.02028686
#
# Stress axis : x y z
#
# Youngs Moduli (GPa) = 95.75492 95.75310 105.78170
#
# Poissons Ratio (x) = 0.24467 0.13073
# Poissons Ratio (y) = 0.24467 0.13072
# Poissons Ratio (z) = 0.11833 0.11833
#
# Static dielectric constant tensor:
#      x y z
#    x 3.565900 0.000000 0.000000 
#    y 0.000000 3.565900 0.000000 
#    z 0.000000 0.000000 3.701210 
# 
# 
# High freq. dielectric constant tensor:
#      x y z
#    x 1.770820 0.000000 0.000000 
#    y 0.000000 1.770820 0.000000 
#    z 0.000000 0.000000 1.798630 
# 
# From -- ./inp_files/837.got.cif
#   From: 2010.03.12/outbox.cif.g09.slc.cpg/sg116_1_cif.got.tgz:837.got - 2010.04.14 02:15:44.
