data_PCOD8310017
_publ_section_title
;
Structure prediction by ZEFSAII (Michael W. Deem and Ramdas Pophale) SiO2 
 PCOD8310017
Probable space group: P -4 M 2
;
_chemical_formula_sum "Si O2"
_cell_formula_units_Z 40
_cell_length_a 14.396653
_cell_length_b 14.396653
_cell_length_c 8.940478
_cell_angle_alpha 90.000000
_cell_angle_beta 90.000000
_cell_angle_gamma 90.000000
_cell_volume 1853.035813
_symmetry_space_group_name_H-M "P -4 M 2"
_symmetry_group_IT_number 115
_symmetry_cell_setting 'tetragonal'
loop_
_space_group_symop_operation_xyz
x,y,z
y,-x,-z
-x,-y,z
-y,x,-z
y,x,-z
-y,-x,-z
-x,y,z
x,-y,z
loop_
_atom_site_type_symbol
_atom_site_label
_atom_site_fract_x
_atom_site_fract_y
_atom_site_fract_z
Si Si1 0.889758 0.396160 0.365389
Si Si2 0.606668 0.101339 0.958005
Si Si3 0.890285 0.233964 0.585199
Si Si4 0.392742 0.393525 0.326430
Si Si5 0.230424 0.295934 0.845174
O O1 0.849446 0.500000 0.400495
O O2 0.855994 0.356022 0.202238
O O3 0.856686 0.325462 0.493369
O O4 0.000000 0.400277 0.360920
O O5 0.500000 0.085330 0.923869
O O6 0.652550 0.000000 0.991244
O O7 0.616693 0.167775 0.101205
O O8 0.859923 0.140078 0.500000
O O9 0.833042 0.234082 0.738037
O O10 0.000000 0.232258 0.613628
O O11 0.372767 0.372767 0.500000
O O12 0.500000 0.376052 0.288496
O O13 0.366112 0.500000 0.288211
O O14 0.329564 0.326988 0.225988
O O15 0.240802 0.240802 0.000000
#
# Coordination Sequence:
#
# PCOD8310017 Si02
#       5
#     8   8   8   8   8
#     4   8  16  34  61  91 123 158 196 243 299 359
#     4   9  18  34  56  84 120 159 196 240 298 359
#     4  11  24  43  66  91 118 154 204 257 311 372
#     4   9  20  40  62  84 119 171 225 269 306 355
#     4  12  24  37  56  89 126 159 199 250 314 376
#
# _framework density 21.586198
#
# number of rings (size 3 to 8) (size 9 to 14) (size 15 to 20)
#    0.000    2.200    0.000    4.800    0.000    3.400 
#    0.000    9.000    0.000    0.000    0.000    0.000 
#    0.000    0.000    0.000    0.000    0.000    0.000 
#
# Total GULP energy -495762.974754 kJ/mol
# GULP energy per Si atom -12394.074369 kJ/mol
# Density = 2.153707 g / cm^3
# Si number density = 21.586198 Si / 1000 Ang^3
#
#
#
# Elastic Constant Matrix: (Units=GPa)
#
#
# Indices 1 2 3 4 5 6 
#
# 1 103.4325 38.5389 58.2339 0.0000 0.0000 0.0000
# 2 38.5389 103.4346 58.2346 0.0000 0.0000 0.0000
# 3 58.2339 58.2346 134.4146 0.0000 0.0000 0.0000
# 4 0.0000 0.0000 0.0000 34.8909 0.0000 0.0000
# 5 0.0000 0.0000 0.0000 0.0000 34.8904 0.0000
# 6 0.0000 0.0000 0.0000 0.0000 0.0000 24.8529
#
#
#
# Elastic Compliance Matrix: (Units=1/GPa)
#
#
# Indices 1 2 3 4 5 6 
#
# 1 0.013169 -0.002241 -0.004734 0.000000 0.000000 0.000000
# 2 -0.002241 0.013168 -0.004734 0.000000 0.000000 0.000000
# 3 -0.004734 -0.004734 0.011542 0.000000 0.000000 0.000000
# 4 0.000000 0.000000 0.000000 0.028661 0.000000 0.000000
# 5 0.000000 0.000000 0.000000 0.000000 0.028661 0.000000
# 6 0.000000 0.000000 0.000000 0.000000 0.000000 0.040237
#
#
# Mechanical properties :
#
#
# Convention : Reuss Voigt Hill
#
# Bulk Modulus (GPa) = 69.15771 72.36627 70.76199
# Shear Modulus (GPa) = 30.54807 31.34513 30.94660
#
# Velocity S-wave (km/s) = 3.76595 3.81477 3.79044
# Velocity P-wave (km/s) = 7.14264 7.28013 7.21172
#
# Compressibility (1/GPa) = 0.01445970
#
# Stress axis : x y z
#
# Youngs Moduli (GPa) = 75.93810 75.93958 86.64156
#
# Poissons Ratio (x) = 0.17019 0.41018
# Poissons Ratio (y) = 0.17019 0.41018
# Poissons Ratio (z) = 0.35951 0.35951
#
# Static dielectric constant tensor:
#      x y z
#    x 3.882530 0.000000 0.000000 
#    y 0.000000 3.882530 0.000000 
#    z 0.000000 0.000000 4.130810 
# 
# 
# High freq. dielectric constant tensor:
#      x y z
#    x 1.842390 0.000000 0.000000 
#    y 0.000000 1.842390 0.000000 
#    z 0.000000 0.000000 1.851760 
# 
# From -- ./inp_files/1590.got.cif
#   From: 2010.03.12/outbox.cif.g09.slc.cpg/sg115_1_cif.got.tgz:1590.got - 2010.04.14 02:11:21.
