data_PCOD8310079
_publ_section_title
;
Structure prediction by ZEFSAII (Michael W. Deem and Ramdas Pophale) SiO2 
 PCOD8310079
Probable space group: P -4 C 2
;
_chemical_formula_sum "Si O2"
_cell_formula_units_Z 56
_cell_length_a 12.808352
_cell_length_b 12.808352
_cell_length_c 19.403253
_cell_angle_alpha 90.000000
_cell_angle_beta 90.000000
_cell_angle_gamma 90.000000
_cell_volume 3183.178958
_symmetry_space_group_name_H-M "P -4 C 2"
_symmetry_group_IT_number 116
_symmetry_cell_setting 'tetragonal'
loop_
_space_group_symop_operation_xyz
x,y,z
y,-x,-z
-x,-y,z
-y,x,-z
y,x,1/2-z
-y,-x,1/2-z
-x,y,1/2+z
x,-y,1/2+z
loop_
_atom_site_type_symbol
_atom_site_label
_atom_site_fract_x
_atom_site_fract_y
_atom_site_fract_z
Si Si1 0.723123 0.406218 0.584097
Si Si2 0.093053 0.570815 0.395602
Si Si3 0.714729 0.093667 0.976271
Si Si4 0.755208 0.711985 0.828663
Si Si5 0.451615 0.604031 0.328384
Si Si6 0.571698 0.759477 0.024545
Si Si7 0.864407 0.751746 0.551214
O O1 0.840446 0.357593 0.578073
O O2 0.696168 0.461094 0.658386
O O3 0.700251 0.493907 0.526765
O O4 0.642854 0.315518 0.568992
O O5 0.058290 0.642765 0.459729
O O6 0.139068 0.644305 0.335404
O O7 0.182723 0.493128 0.417700
O O8 0.000000 0.500000 0.365827
O O9 0.762175 0.989619 0.941747
O O10 0.813484 0.161510 0.001252
O O11 0.741223 0.741223 0.750000
O O12 0.658046 0.644538 0.859711
O O13 0.764582 0.817703 0.872412
O O14 0.500000 0.500000 0.364766
O O15 0.426085 0.573916 0.250000
O O16 0.638086 0.840038 0.978804
#
# Coordination Sequence:
#
# PCOD8310079 Si02
#       7
#     8   8   8   8   8   8   8
#     4  10  20  30  46  78 105 141 176 211 264 323
#     4  10  18  33  54  74 104 141 175 221 275 319
#     4   9  20  32  54  82 107 131 175 229 293 318
#     4  10  21  36  51  76 111 146 185 218 257 329
#     4  10  20  33  48  68 106 150 182 214 251 304
#     4  10  19  29  49  78 107 134 172 219 267 319
#     4  10  18  36  54  81 108 136 170 236 281 327
#
# _framework density 17.592475
#
# number of rings (size 3 to 8) (size 9 to 14) (size 15 to 20)
#    0.000    2.143    2.857    1.714    2.000    0.286 
#    0.000    2.857    0.000    0.000    0.000    4.000 
#    0.000    0.000    0.000    0.000    0.000    0.000 
#
# Total GULP energy -693874.851536 kJ/mol
# GULP energy per Si atom -12390.622349 kJ/mol
# Density = 1.755243 g / cm^3
# Si number density = 17.592475 Si / 1000 Ang^3
#
#
#
# Elastic Constant Matrix: (Units=GPa)
#
#
# Indices 1 2 3 4 5 6 
#
# 1 103.9111 47.6593 43.2754 0.0000 0.0000 0.0000
# 2 47.6593 103.9110 43.2754 0.0000 0.0000 0.0000
# 3 43.2754 43.2754 78.7613 0.0000 0.0000 0.0000
# 4 0.0000 0.0000 0.0000 17.5484 0.0000 0.0000
# 5 0.0000 0.0000 0.0000 0.0000 17.5484 0.0000
# 6 0.0000 0.0000 0.0000 0.0000 0.0000 25.2392
#
#
#
# Elastic Compliance Matrix: (Units=1/GPa)
#
#
# Indices 1 2 3 4 5 6 
#
# 1 0.013696 -0.004082 -0.005282 0.000000 0.000000 0.000000
# 2 -0.004082 0.013696 -0.005282 0.000000 0.000000 0.000000
# 3 -0.005282 -0.005282 0.018501 0.000000 0.000000 0.000000
# 4 0.000000 0.000000 0.000000 0.056985 0.000000 0.000000
# 5 0.000000 0.000000 0.000000 0.000000 0.056985 0.000000
# 6 0.000000 0.000000 0.000000 0.000000 0.000000 0.039621
#
#
# Mechanical properties :
#
#
# Convention : Reuss Voigt Hill
#
# Bulk Modulus (GPa) = 60.24174 61.66706 60.95440
# Shear Modulus (GPa) = 21.33923 22.22541 21.78232
#
# Velocity S-wave (km/s) = 3.48656 3.55822 3.52257
# Velocity P-wave (km/s) = 7.10812 7.21182 7.16016
#
# Compressibility (1/GPa) = 0.01659979
#
# Stress axis : x y z
#
# Youngs Moduli (GPa) = 73.01613 73.01605 54.04985
#
# Poissons Ratio (x) = 0.29802 0.28551
# Poissons Ratio (y) = 0.29802 0.28551
# Poissons Ratio (z) = 0.38570 0.38570
#
# Static dielectric constant tensor:
#      x y z
#    x 3.644820 0.000000 0.000000 
#    y 0.000000 3.644820 0.000000 
#    z 0.000000 0.000000 2.921710 
# 
# 
# High freq. dielectric constant tensor:
#      x y z
#    x 1.681780 0.000000 0.000000 
#    y 0.000000 1.681780 0.000000 
#    z 0.000000 0.000000 1.642040 
# 
# From -- ./inp_files/4124.got.cif
#   From: 2010.03.12/outbox.cif.g09.slc.cpg/sg116_3_cif.got.tgz:4124.got - 2010.04.14 02:15:44.
