data_PCOD8310084
_publ_section_title
;
Structure prediction by ZEFSAII (Michael W. Deem and Ramdas Pophale) SiO2 
 PCOD8310084
Probable space group: P -4 C 2
;
_chemical_formula_sum "Si O2"
_cell_formula_units_Z 52
_cell_length_a 22.013252
_cell_length_b 22.013252
_cell_length_c 5.223536
_cell_angle_alpha 90.000000
_cell_angle_beta 90.000000
_cell_angle_gamma 90.000000
_cell_volume 2531.238122
_symmetry_space_group_name_H-M "P -4 C 2"
_symmetry_group_IT_number 116
_symmetry_cell_setting 'tetragonal'
loop_
_space_group_symop_operation_xyz
x,y,z
y,-x,-z
-x,-y,z
-y,x,-z
y,x,1/2-z
-y,-x,1/2-z
-x,y,1/2+z
x,-y,1/2+z
loop_
_atom_site_type_symbol
_atom_site_label
_atom_site_fract_x
_atom_site_fract_y
_atom_site_fract_z
Si Si1 0.365991 0.463495 0.297494
Si Si2 0.600612 0.032657 0.091773
Si Si3 0.758546 0.403109 0.817153
Si Si4 0.255122 0.167627 0.617812
Si Si5 0.032343 0.255493 0.947994
Si Si6 0.167801 0.388562 0.795236
Si Si7 0.275179 0.275179 0.250000
O O1 0.400573 0.400573 0.250000
O O2 0.384643 0.490095 0.572820
O O3 0.293802 0.452868 0.292289
O O4 0.672555 0.025936 0.064840
O O5 0.582432 0.102384 0.142547
O O6 0.573559 0.991619 0.322909
O O7 0.790370 0.398934 0.541877
O O8 0.727582 0.338688 0.904735
O O9 0.804516 0.422136 0.045621
O O10 0.196391 0.196391 0.750000
O O11 0.235218 0.102171 0.511941
O O12 0.316856 0.159938 0.785906
O O13 0.276407 0.213092 0.402080
O O14 0.005414 0.227950 0.685462
#
# Coordination Sequence:
#
# PCOD8310084 Si02
#       7
#     8   8   8   8   8   8   4
#     4  12  27  47  71  96 124 161 199 246 296 346
#     4   9  16  28  45  70 110 157 199 232 271 335
#     4  11  21  38  57  86 122 149 192 232 298 351
#     4  10  19  29  48  75 107 142 192 226 276 343
#     4   9  19  30  42  60  98 146 182 222 275 333
#     4  10  20  31  53  82 118 158 193 235 291 346
#     4  10  20  32  54  82 113 146 177 234 276 336
#
# _framework density 20.543303999999999
#
# number of rings (size 3 to 8) (size 9 to 14) (size 15 to 20)
#    0.000    1.846    2.308    2.308    2.154    4.615 
#    0.000    0.000    0.000    0.000    0.000    0.000 
#    0.000   44.923    0.000    0.000    0.000    0.000 
#
# Total GULP energy -644503.695032 kJ/mol
# GULP energy per Si atom -12394.301828 kJ/mol
# Density = 2.049655 g / cm^3
# Si number density = 20.543304 Si / 1000 Ang^3
#
#
#
# Elastic Constant Matrix: (Units=GPa)
#
#
# Indices 1 2 3 4 5 6 
#
# 1 108.3068 -41.1026 16.8867 0.0000 0.0000 0.0000
# 2 -41.1026 108.3068 16.8867 0.0000 0.0000 0.0000
# 3 16.8867 16.8867 121.1187 0.0000 0.0000 0.0000
# 4 0.0000 0.0000 0.0000 26.1450 0.0000 0.0000
# 5 0.0000 0.0000 0.0000 0.0000 26.1450 0.0000
# 6 0.0000 0.0000 0.0000 0.0000 0.0000 14.8675
#
#
#
# Elastic Compliance Matrix: (Units=1/GPa)
#
#
# Indices 1 2 3 4 5 6 
#
# 1 0.011347 0.004654 -0.002231 0.000000 0.000000 0.000000
# 2 0.004654 0.011347 -0.002231 0.000000 0.000000 0.000000
# 3 -0.002231 -0.002231 0.008878 0.000000 0.000000 0.000000
# 4 0.000000 0.000000 0.000000 0.038248 0.000000 0.000000
# 5 0.000000 0.000000 0.000000 0.000000 0.038248 0.000000
# 6 0.000000 0.000000 0.000000 0.000000 0.000000 0.067261
#
#
# Mechanical properties :
#
#
# Convention : Reuss Voigt Hill
#
# Bulk Modulus (GPa) = 31.29199 35.89712 33.59455
# Shear Modulus (GPa) = 26.93997 36.43559 31.68778
#
# Velocity S-wave (km/s) = 3.62522 4.21598 3.93171
# Velocity P-wave (km/s) = 5.72610 6.41959 6.08274
#
# Compressibility (1/GPa) = 0.03195706
#
# Stress axis : x y z
#
# Youngs Moduli (GPa) = 88.12832 88.12832 112.63233
#
# Poissons Ratio (x) = -0.41016 0.25127
# Poissons Ratio (y) = -0.41016 0.25127
# Poissons Ratio (z) = 0.19661 0.19661
#
# Static dielectric constant tensor:
#      x y z
#    x 2.933470 0.000000 0.000000 
#    y 0.000000 2.933470 0.000000 
#    z 0.000000 0.000000 3.397510 
# 
# 
# High freq. dielectric constant tensor:
#      x y z
#    x 1.782220 0.000000 0.000000 
#    y 0.000000 1.782220 0.000000 
#    z 0.000000 0.000000 1.805660 
# 
# From -- ./inp_files/198.got.cif
#   From: 2010.03.12/outbox.cif.g09.slc.cpg/sg116_1_cif.got.tgz:198.got - 2010.04.14 02:15:44.
