data_PCOD8310978
_publ_section_title
;
Structure prediction by ZEFSAII (Michael W. Deem and Ramdas Pophale) SiO2 
 PCOD8310978
Probable space group: I -4 M 2
;
_chemical_formula_sum "Si O2"
_cell_formula_units_Z 120
_cell_length_a 14.270203
_cell_length_b 14.270203
_cell_length_c 30.206965
_cell_angle_alpha 90.000000
_cell_angle_beta 90.000000
_cell_angle_gamma 90.000000
_cell_volume 6151.306892
_symmetry_space_group_name_H-M "I -4 M 2"
_symmetry_group_IT_number 119
_symmetry_cell_setting 'tetragonal'
loop_
_space_group_symop_operation_xyz
x,y,z
y,-x,-z
-x,-y,z
-y,x,-z
y,x,-z
-y,-x,-z
-x,y,z
x,-y,z
1/2+x,1/2+y,1/2+z
1/2+y,1/2-x,1/2-z
1/2-x,1/2-y,1/2+z
1/2-y,1/2+x,1/2-z
1/2+y,1/2+x,1/2-z
1/2-y,1/2-x,1/2-z
1/2-x,1/2+y,1/2+z
1/2+x,1/2-y,1/2+z
loop_
_atom_site_type_symbol
_atom_site_label
_atom_site_fract_x
_atom_site_fract_y
_atom_site_fract_z
Si Si1 0.602358 0.102358 0.250000
Si Si2 0.223540 0.111432 0.375711
Si Si3 0.104135 0.105736 0.292861
Si Si4 0.611631 0.698556 0.956615
Si Si5 0.209514 0.606827 0.659276
Si Si6 0.610426 0.897771 0.928455
Si Si7 0.896145 0.391060 0.329149
Si Si8 0.178596 0.782372 0.217257
O O1 0.500000 0.115539 0.228468
O O2 0.611233 0.169529 0.291504
O O3 0.174680 0.146572 0.330152
O O4 0.164612 0.152077 0.415862
O O5 0.330962 0.149996 0.375651
O O6 0.224832 0.000000 0.380004
O O7 0.103029 0.163459 0.247234
O O8 0.000000 0.107772 0.313228
O O9 0.135522 0.000000 0.281578
O O10 0.500000 0.685092 0.951086
O O11 0.638622 0.809793 0.959653
O O12 0.646592 0.646592 0.000000
O O13 0.219401 0.500000 0.641213
O O14 0.307528 0.659035 0.671071
O O15 0.500000 0.909209 0.927648
O O16 0.642814 0.872963 0.878704
O O17 0.652678 0.000000 0.943978
O O18 0.905441 0.500000 0.320196
O O19 0.823692 0.349995 0.294179
O O20 0.000000 0.344685 0.322563
O O21 0.269749 0.769749 0.250000
#
# Coordination Sequence:
#
# PCOD8310978 Si02
#       8
#     8  16  16  16  16  16  16  16
#     4   9  16  28  48  70  94 131 180 232 282 327
#     4  11  22  38  57  80 110 146 189 233 287 351
#     4  10  21  36  53  75 107 149 193 235 283 342
#     4  11  23  39  62  91 121 150 184 229 287 358
#     4  11  21  35  52  74 107 149 198 248 289 331
#     4   8  16  34  59  83 111 151 191 226 272 337
#     4   9  19  35  54  79 113 152 195 241 290 344
#     4  12  21  32  49  77 110 152 195 242 287 333
#
# _framework density 19.508049
#
# number of rings (size 3 to 8) (size 9 to 14) (size 15 to 20)
#    0.000    1.800    2.000    3.600    0.000    5.467 
#    0.000    1.333    0.000    1.600    0.000    0.000 
#    0.000    1.333    0.000    0.000    0.000    0.000 
#
# Total GULP energy -743322.674206 kJ/mol
# GULP energy per Si atom -12388.711237 kJ/mol
# Density = 1.946365 g / cm^3
# Si number density = 19.508049 Si / 1000 Ang^3
#
#
#
# Elastic Constant Matrix: (Units=GPa)
#
#
# Indices 1 2 3 4 5 6 
#
# 1 104.3575 34.9693 43.6651 0.0000 0.0000 0.0000
# 2 34.9693 104.3576 43.6651 0.0000 0.0000 0.0000
# 3 43.6651 43.6651 61.8643 0.0000 0.0000 0.0000
# 4 0.0000 0.0000 0.0000 26.0915 0.0000 0.0000
# 5 0.0000 0.0000 0.0000 0.0000 26.0915 0.0000
# 6 0.0000 0.0000 0.0000 0.0000 0.0000 23.6007
#
#
#
# Elastic Compliance Matrix: (Units=1/GPa)
#
#
# Indices 1 2 3 4 5 6 
#
# 1 0.013642 -0.000770 -0.009085 0.000000 0.000000 0.000000
# 2 -0.000770 0.013642 -0.009085 0.000000 0.000000 0.000000
# 3 -0.009085 -0.009085 0.028990 0.000000 0.000000 0.000000
# 4 0.000000 0.000000 0.000000 0.038327 0.000000 0.000000
# 5 0.000000 0.000000 0.000000 0.000000 0.038327 0.000000
# 6 0.000000 0.000000 0.000000 0.000000 0.000000 0.042372
#
#
# Mechanical properties :
#
#
# Convention : Reuss Voigt Hill
#
# Bulk Modulus (GPa) = 54.37039 57.24202 55.80621
# Shear Modulus (GPa) = 22.79874 25.04207 23.92040
#
# Velocity S-wave (km/s) = 3.42231 3.58673 3.50549
# Velocity P-wave (km/s) = 6.59906 6.82344 6.71219
#
# Compressibility (1/GPa) = 0.01839236
#
# Stress axis : x y z
#
# Youngs Moduli (GPa) = 73.30370 73.30370 34.49497
#
# Poissons Ratio (x) = 0.05643 0.31340
# Poissons Ratio (y) = 0.05643 0.31340
# Poissons Ratio (z) = 0.66599 0.66599
#
# Static dielectric constant tensor:
#      x y z
#    x 3.874910 0.000000 0.000000 
#    y 0.000000 3.874910 0.000000 
#    z 0.000000 0.000000 3.302870 
# 
# 
# High freq. dielectric constant tensor:
#      x y z
#    x 1.762610 0.000000 0.000000 
#    y 0.000000 1.762610 0.000000 
#    z 0.000000 0.000000 1.716330 
# 
# From -- ./inp_files/10540.got.cif
#   From: 2010.03.12/outbox.cif.g09.slc.cpg/sg119_6_cif.got.tgz:10540.got - 2010.04.14 02:25:26.
