data_PCOD8310560
_publ_section_title
;
Structure prediction by ZEFSAII (Michael W. Deem and Ramdas Pophale) SiO2 
 PCOD8310560
Probable space group: P -4 N 2
;
_chemical_formula_sum "Si O2"
_cell_formula_units_Z 64
_cell_length_a 11.874047
_cell_length_b 11.874047
_cell_length_c 23.897918
_cell_angle_alpha 90.000000
_cell_angle_beta 90.000000
_cell_angle_gamma 90.000000
_cell_volume 3369.438965
_symmetry_space_group_name_H-M "P -4 N 2"
_symmetry_group_IT_number 118
_symmetry_cell_setting 'tetragonal'
loop_
_space_group_symop_operation_xyz
x,y,z
y,-x,-z
-x,-y,z
-y,x,-z
1/2+y,1/2+x,1/2-z
1/2-y,1/2-x,1/2-z
1/2-x,1/2+y,1/2+z
1/2+x,1/2-y,1/2+z
loop_
_atom_site_type_symbol
_atom_site_label
_atom_site_fract_x
_atom_site_fract_y
_atom_site_fract_z
Si Si1 0.500000 0.633221 0.755676
Si Si2 0.365547 0.259309 0.201074
Si Si3 0.630859 0.500001 0.367753
Si Si4 0.865547 0.759308 0.701074
Si Si5 0.872728 0.625948 0.009725
Si Si6 0.786513 0.233778 0.911531
Si Si7 0.372728 0.125948 0.509725
Si Si8 0.286513 0.733777 0.411531
O O1 0.500000 0.500000 0.751441
O O2 0.387643 0.673091 0.787514
O O3 0.499999 0.688615 0.693737
O O4 0.612357 0.673092 0.787513
O O5 0.322840 0.177161 0.250000
O O6 0.500000 0.247269 0.196315
O O7 0.307798 0.223017 0.143720
O O8 0.500000 0.500000 0.357488
O O9 0.662281 0.611249 0.401277
O O10 0.662285 0.388754 0.401277
O O11 0.822842 0.677159 0.750000
O O12 0.807796 0.723017 0.643720
O O13 0.787223 0.666666 0.058286
O O14 0.836055 0.500000 0.993793
O O15 0.867697 0.701128 0.954025
O O16 1.000000 0.630149 0.032885
O O17 0.867697 0.298872 0.954025
O O18 0.287222 0.166665 0.558285
#
# Coordination Sequence:
#
# PCOD8310560 Si02
#       8
#     8   8   8   8   8   8   8   8
#     4   9  20  38  58  84 120 158 194 239 286 351
#     4  11  23  39  61  89 121 158 198 240 298 356
#     4  11  20  36  61  89 121 155 200 242 291 352
#     4  11  23  39  61  89 121 158 198 240 298 356
#     4  10  22  40  59  84 119 158 199 247 299 347
#     4  11  22  38  61  88 118 157 198 248 295 355
#     4  10  22  40  59  84 119 158 199 247 299 347
#     4  11  22  38  61  88 118 157 198 248 295 355
#
# _framework density 18.994261999999999
#
# number of rings (size 3 to 8) (size 9 to 14) (size 15 to 20)
#    0.000    1.500    3.750    1.500    1.750    1.250 
#    0.000    0.000    0.000    3.375    0.000    0.000 
#    0.000    0.000    0.000    0.000    0.000    0.000 
#
# Total GULP energy -793530.322037 kJ/mol
# GULP energy per Si atom -12398.911282 kJ/mol
# Density = 1.895103 g / cm^3
# Si number density = 18.994262 Si / 1000 Ang^3
#
#
#
# Elastic Constant Matrix: (Units=GPa)
#
#
# Indices 1 2 3 4 5 6 
#
# 1 106.6567 34.2976 42.4772 0.0000 0.0000 0.0000
# 2 34.2976 106.6568 42.4774 0.0000 0.0000 0.0000
# 3 42.4772 42.4774 127.0539 0.0000 0.0000 0.0000
# 4 0.0000 0.0000 0.0000 30.3055 0.0000 0.0000
# 5 0.0000 0.0000 0.0000 0.0000 30.3052 0.0000
# 6 0.0000 0.0000 0.0000 0.0000 0.0000 22.3514
#
#
#
# Elastic Compliance Matrix: (Units=1/GPa)
#
#
# Indices 1 2 3 4 5 6 
#
# 1 0.011352 -0.002468 -0.002970 0.000000 0.000000 0.000000
# 2 -0.002468 0.011352 -0.002970 0.000000 0.000000 0.000000
# 3 -0.002970 -0.002970 0.009857 0.000000 0.000000 0.000000
# 4 0.000000 0.000000 0.000000 0.032997 0.000000 0.000000
# 5 0.000000 0.000000 0.000000 0.000000 0.032998 0.000000
# 6 0.000000 0.000000 0.000000 0.000000 0.000000 0.044740
#
#
# Mechanical properties :
#
#
# Convention : Reuss Voigt Hill
#
# Bulk Modulus (GPa) = 63.51309 64.31910 63.91610
# Shear Modulus (GPa) = 30.23678 31.33343 30.78510
#
# Velocity S-wave (km/s) = 3.99418 4.06597 4.03023
# Velocity P-wave (km/s) = 7.40148 7.48189 7.44179
#
# Compressibility (1/GPa) = 0.01574479
#
# Stress axis : x y z
#
# Youngs Moduli (GPa) = 88.08738 88.08734 101.45245
#
# Poissons Ratio (x) = 0.21736 0.30135
# Poissons Ratio (y) = 0.21736 0.30136
# Poissons Ratio (z) = 0.26165 0.26166
#
# Static dielectric constant tensor:
#      x y z
#    x 3.478080 0.000000 0.000000 
#    y 0.000000 3.478080 0.000000 
#    z 0.000000 0.000000 3.622000 
# 
# 
# High freq. dielectric constant tensor:
#      x y z
#    x 1.737590 0.000000 0.000000 
#    y 0.000000 1.737590 0.000000 
#    z 0.000000 0.000000 1.746920 
# 
# From -- ./inp_files/6272.got.cif
#   From: 2010.03.12/outbox.cif.g09.slc.cpg/sg118_4_cif.got.tgz:6272.got - 2010.04.14 02:21:17.
