data_PCOD8310868
_publ_section_title
;
Structure prediction by ZEFSAII (Michael W. Deem and Ramdas Pophale) SiO2 
 PCOD8310868
Probable space group: I -4 M 2
;
_chemical_formula_sum "Si O2"
_cell_formula_units_Z 64
_cell_length_a 9.473613
_cell_length_b 9.473613
_cell_length_c 41.713971
_cell_angle_alpha 90.000000
_cell_angle_beta 90.000000
_cell_angle_gamma 90.000000
_cell_volume 3743.801503
_symmetry_space_group_name_H-M "I -4 M 2"
_symmetry_group_IT_number 119
_symmetry_cell_setting 'tetragonal'
loop_
_space_group_symop_operation_xyz
x,y,z
y,-x,-z
-x,-y,z
-y,x,-z
y,x,-z
-y,-x,-z
-x,y,z
x,-y,z
1/2+x,1/2+y,1/2+z
1/2+y,1/2-x,1/2-z
1/2-x,1/2-y,1/2+z
1/2-y,1/2+x,1/2-z
1/2+y,1/2+x,1/2-z
1/2-y,1/2-x,1/2-z
1/2-x,1/2+y,1/2+z
1/2+x,1/2-y,1/2+z
loop_
_atom_site_type_symbol
_atom_site_label
_atom_site_fract_x
_atom_site_fract_y
_atom_site_fract_z
Si Si1 0.167608 0.158724 0.157624
Si Si2 0.157873 0.167302 0.912978
Si Si3 0.665555 0.165935 0.973310
Si Si4 0.657109 0.831215 0.784939
O O1 0.220587 0.207977 0.122271
O O2 0.234490 0.251860 0.186052
O O3 0.000000 0.169889 0.159084
O O4 0.218233 0.000000 0.163620
O O5 0.270389 0.217493 0.939370
O O6 0.000000 0.225594 0.920903
O O7 0.150250 0.000000 0.912364
O O8 0.500000 0.200175 0.973521
O O9 0.694056 0.000000 0.979242
O O10 0.743835 0.256166 0.000000
O O11 0.500000 0.772367 0.789978
O O12 0.716791 0.783210 0.750000
O O13 0.656701 0.000000 0.785596
#
# Coordination Sequence:
#
# PCOD8310868 Si02
#       4
#    16  16  16  16
#     4   8  13  21  34  54  80 108 137 171 213 256
#     4   8  14  25  41  61  85 112 142 179 221 260
#     4  10  20  32  47  68  92 119 151 184 222 269
#     4   8  13  20  30  47  74 107 138 168 207 253
#
# _framework density 17.094925
#
# number of rings (size 3 to 8) (size 9 to 14) (size 15 to 20)
#    0.000    3.500    0.000    3.000    0.000    2.500 
#    0.000    5.000    0.000    0.000    0.000    1.750 
#    0.000    6.500    0.000    0.000    0.000    0.000 
#
# Total GULP energy -396449.877013 kJ/mol
# GULP energy per Si atom -12389.058657 kJ/mol
# Density = 1.705602 g / cm^3
# Si number density = 17.094925 Si / 1000 Ang^3
#
#
#
# Elastic Constant Matrix: (Units=GPa)
#
#
# Indices 1 2 3 4 5 6 
#
# 1 55.7304 30.5679 66.7982 0.0000 0.0000 0.0000
# 2 30.5679 55.7319 66.7980 0.0000 0.0000 0.0000
# 3 66.7982 66.7980 199.1808 0.0000 0.0000 0.0000
# 4 0.0000 0.0000 0.0000 18.3307 0.0000 0.0000
# 5 0.0000 0.0000 0.0000 0.0000 18.3308 0.0000
# 6 0.0000 0.0000 0.0000 0.0000 0.0000 10.6869
#
#
#
# Elastic Compliance Matrix: (Units=1/GPa)
#
#
# Indices 1 2 3 4 5 6 
#
# 1 0.031920 -0.007821 -0.008082 0.000000 0.000000 0.000000
# 2 -0.007821 0.031919 -0.008082 0.000000 0.000000 0.000000
# 3 -0.008082 -0.008082 0.010441 0.000000 0.000000 0.000000
# 4 0.000000 0.000000 0.000000 0.054553 0.000000 0.000000
# 5 0.000000 0.000000 0.000000 0.000000 0.054553 0.000000
# 6 0.000000 0.000000 0.000000 0.000000 0.000000 0.093573
#
#
# Mechanical properties :
#
#
# Convention : Reuss Voigt Hill
#
# Bulk Modulus (GPa) = 38.00620 70.99681 54.50151
# Shear Modulus (GPa) = 14.98356 19.23496 17.10926
#
# Velocity S-wave (km/s) = 2.96377 3.35802 3.16704
# Velocity P-wave (km/s) = 5.83032 7.52703 6.73234
#
# Compressibility (1/GPa) = 0.02631150
#
# Stress axis : x y z
#
# Youngs Moduli (GPa) = 31.32786 31.32943 95.77332
#
# Poissons Ratio (x) = 0.24502 0.77406
# Poissons Ratio (y) = 0.24501 0.77400
# Poissons Ratio (z) = 0.25320 0.25319
#
# Static dielectric constant tensor:
#      x y z
#    x 2.893370 0.000000 0.000000 
#    y 0.000000 2.893370 0.000000 
#    z 0.000000 0.000000 3.874350 
# 
# 
# High freq. dielectric constant tensor:
#      x y z
#    x 1.612580 0.000000 0.000000 
#    y 0.000000 1.612580 0.000000 
#    z 0.000000 0.000000 1.683060 
# 
# From -- ./inp_files/9970.got.cif
#   From: 2010.03.12/outbox.cif.g09.slc.cpg/sg119_5_cif.got.tgz:9970.got - 2010.04.14 02:25:26.
