data_PCOD8310309
_publ_section_title
;
Structure prediction by ZEFSAII (Michael W. Deem and Ramdas Pophale) SiO2 
 PCOD8310309
Probable space group: P -4 B 2
;
_chemical_formula_sum "Si O2"
_cell_formula_units_Z 48
_cell_length_a 16.556907
_cell_length_b 16.556907
_cell_length_c 9.413174
_cell_angle_alpha 90.000000
_cell_angle_beta 90.000000
_cell_angle_gamma 90.000000
_cell_volume 2580.444396
_symmetry_space_group_name_H-M "P -4 B 2"
_symmetry_group_IT_number 117
_symmetry_cell_setting 'tetragonal'
loop_
_space_group_symop_operation_xyz
x,y,z
y,-x,-z
-x,-y,z
-y,x,-z
1/2+y,1/2+x,-z
1/2-y,1/2-x,-z
1/2-x,1/2+y,z
1/2+x,1/2-y,z
loop_
_atom_site_type_symbol
_atom_site_label
_atom_site_fract_x
_atom_site_fract_y
_atom_site_fract_z
Si Si1 0.254698 0.973940 0.760594
Si Si2 0.773749 0.398678 0.007537
Si Si3 0.436453 0.935000 0.334015
Si Si4 0.020169 0.256608 0.759081
Si Si5 0.858610 0.766757 0.003683
Si Si6 0.006181 0.134969 0.497523
O O1 0.190888 0.000105 0.641401
O O2 0.343540 0.959653 0.700738
O O3 0.219335 0.895256 0.839549
O O4 0.261936 0.039142 0.882540
O O5 0.761434 0.433402 0.165519
O O6 0.711247 0.329058 0.976620
O O7 0.864296 0.364296 0.000000
O O8 0.443285 0.943285 0.500000
O O9 0.345573 0.952930 0.286425
O O10 0.500000 0.000000 0.265532
O O11 0.016202 0.194582 0.629732
O O12 0.080045 0.219910 0.875308
O O13 0.824615 0.675386 0.000000
O O14 0.083354 0.075846 0.488032
#
# Coordination Sequence:
#
# PCOD8310309 Si02
#       6
#     8   8   8   8   8   8
#     4  11  21  39  61  86 118 159 193 245 296 354
#     4  10  22  37  57  88 121 149 198 242 285 346
#     4  11  22  37  61  89 123 155 197 242 301 356
#     4  11  21  39  61  86 118 159 193 245 296 354
#     4  10  20  36  58  85 116 157 192 236 290 347
#     4  11  24  41  62  87 117 156 203 249 295 352
#
# _framework density 18.601448000000001
#
# number of rings (size 3 to 8) (size 9 to 14) (size 15 to 20)
#    0.000    1.333    3.333    3.000    0.000    0.000 
#    0.000    2.500    3.667    8.000    0.000    0.000 
#    0.000    0.000    0.000    0.000    0.000    0.000 
#
# Total GULP energy -595012.866181 kJ/mol
# GULP energy per Si atom -12396.101379 kJ/mol
# Density = 1.855911 g / cm^3
# Si number density = 18.601448 Si / 1000 Ang^3
#
#
#
# Elastic Constant Matrix: (Units=GPa)
#
#
# Indices 1 2 3 4 5 6 
#
# 1 89.4262 33.8547 25.4620 0.0000 0.0000 0.0000
# 2 33.8547 89.4276 25.4626 0.0000 0.0000 0.0000
# 3 25.4620 25.4626 92.2433 0.0000 0.0000 0.0000
# 4 0.0000 0.0000 0.0000 22.3577 0.0000 0.0000
# 5 0.0000 0.0000 0.0000 0.0000 22.3581 0.0000
# 6 0.0000 0.0000 0.0000 0.0000 0.0000 28.8986
#
#
#
# Elastic Compliance Matrix: (Units=1/GPa)
#
#
# Indices 1 2 3 4 5 6 
#
# 1 0.013575 -0.004420 -0.002527 0.000000 0.000000 0.000000
# 2 -0.004420 0.013575 -0.002527 0.000000 0.000000 0.000000
# 3 -0.002527 -0.002527 0.012236 0.000000 0.000000 0.000000
# 4 0.000000 0.000000 0.000000 0.044727 0.000000 0.000000
# 5 0.000000 0.000000 0.000000 0.000000 0.044726 0.000000
# 6 0.000000 0.000000 0.000000 0.000000 0.000000 0.034604
#
#
# Mechanical properties :
#
#
# Convention : Reuss Voigt Hill
#
# Bulk Modulus (GPa) = 48.92821 48.96177 48.94499
# Shear Modulus (GPa) = 26.42644 27.14407 26.78526
#
# Velocity S-wave (km/s) = 3.77326 3.82415 3.79879
# Velocity P-wave (km/s) = 6.73379 6.77329 6.75357
#
# Compressibility (1/GPa) = 0.02043811
#
# Stress axis : x y z
#
# Youngs Moduli (GPa) = 73.66424 73.66522 81.72549
#
# Poissons Ratio (x) = 0.32557 0.20654
# Poissons Ratio (y) = 0.32556 0.20654
# Poissons Ratio (z) = 0.18616 0.18617
#
# Static dielectric constant tensor:
#      x y z
#    x 3.703600 0.000000 0.000000 
#    y 0.000000 3.703610 0.000000 
#    z 0.000000 0.000000 3.551820 
# 
# 
# High freq. dielectric constant tensor:
#      x y z
#    x 1.732420 0.000000 0.000000 
#    y 0.000000 1.732420 0.000000 
#    z 0.000000 0.000000 1.732490 
# 
# From -- ./inp_files/1934.got.cif
#   From: 2010.03.12/outbox.cif.g09.slc.cpg/sg117_1_cif.got.tgz:1934.got - 2010.04.14 02:19:01.
