data_PCOD8310616
_publ_section_title
;
Structure prediction by ZEFSAII (Michael W. Deem and Ramdas Pophale) SiO2 
 PCOD8310616
Probable space group: P -4 N 2
;
_chemical_formula_sum "Si O2"
_cell_formula_units_Z 26
_cell_length_a 12.828565
_cell_length_b 12.828565
_cell_length_c 7.291343
_cell_angle_alpha 90.000000
_cell_angle_beta 90.000000
_cell_angle_gamma 90.000000
_cell_volume 1199.951483
_symmetry_space_group_name_H-M "P -4 N 2"
_symmetry_group_IT_number 118
_symmetry_cell_setting 'tetragonal'
loop_
_space_group_symop_operation_xyz
x,y,z
y,-x,-z
-x,-y,z
-y,x,-z
1/2+y,1/2+x,1/2-z
1/2-y,1/2-x,1/2-z
1/2-x,1/2+y,1/2+z
1/2+x,1/2-y,1/2+z
loop_
_atom_site_type_symbol
_atom_site_label
_atom_site_fract_x
_atom_site_fract_y
_atom_site_fract_z
Si Si1 0.226454 0.476119 0.843484
Si Si2 0.664880 0.536642 0.477590
Si Si3 0.188772 0.835791 0.641654
Si Si4 0.500000 0.000000 0.250000
O O1 0.242254 0.455921 0.625733
O O2 0.302654 0.570311 0.904657
O O3 0.104377 0.501128 0.875771
O O4 0.255899 0.370863 0.953849
O O5 0.620402 0.421237 0.462970
O O6 0.701781 0.564116 0.273570
O O7 0.239687 0.739687 0.750000
#
# Coordination Sequence:
#
# PCOD8310616 Si02
#       4
#     8   8   8   2
#     4  11  23  41  66  92 133 173 216 275 336 397
#     4   9  19  37  63  94 123 159 215 274 323 386
#     4  11  22  40  64  95 125 173 223 266 333 407
#     4  12  24  44  62  92 140 174 204 284 342 388
#
# _framework density 21.667542000000001
#
# number of rings (size 3 to 8) (size 9 to 14) (size 15 to 20)
#    0.000    1.538    1.538    3.692    0.000    3.077 
#    0.000    6.923    0.000    0.000    0.000    0.000 
#    0.000    0.000    0.000    0.000    0.000    0.000 
#
# Total GULP energy -322353.361868 kJ/mol
# GULP energy per Si atom -12398.206226 kJ/mol
# Density = 2.161823 g / cm^3
# Si number density = 21.667542 Si / 1000 Ang^3
#
#
#
# Elastic Constant Matrix: (Units=GPa)
#
#
# Indices 1 2 3 4 5 6 
#
# 1 90.3237 20.9190 35.7563 0.0000 0.0000 0.0000
# 2 20.9190 90.3237 35.7563 0.0000 0.0000 0.0000
# 3 35.7563 35.7563 63.9133 0.0000 0.0000 0.0000
# 4 0.0000 0.0000 0.0000 28.1212 0.0000 0.0000
# 5 0.0000 0.0000 0.0000 0.0000 28.1212 0.0000
# 6 0.0000 0.0000 0.0000 0.0000 0.0000 30.5188
#
#
#
# Elastic Compliance Matrix: (Units=1/GPa)
#
#
# Indices 1 2 3 4 5 6 
#
# 1 0.014223 -0.000185 -0.007854 0.000000 0.000000 0.000000
# 2 -0.000185 0.014223 -0.007854 0.000000 0.000000 0.000000
# 3 -0.007854 -0.007854 0.024434 0.000000 0.000000 0.000000
# 4 0.000000 0.000000 0.000000 0.035560 0.000000 0.000000
# 5 0.000000 0.000000 0.000000 0.000000 0.035560 0.000000
# 6 0.000000 0.000000 0.000000 0.000000 0.000000 0.032767
#
#
# Mechanical properties :
#
#
# Convention : Reuss Voigt Hill
#
# Bulk Modulus (GPa) = 47.40388 47.71377 47.55882
# Shear Modulus (GPa) = 25.56451 27.49419 26.52935
#
# Velocity S-wave (km/s) = 3.43863 3.56604 3.50291
# Velocity P-wave (km/s) = 6.13929 6.24694 6.19335
#
# Compressibility (1/GPa) = 0.02109532
#
# Stress axis : x y z
#
# Youngs Moduli (GPa) = 70.30791 70.30791 40.92721
#
# Poissons Ratio (x) = 0.01301 0.32143
# Poissons Ratio (y) = 0.01301 0.32143
# Poissons Ratio (z) = 0.55217 0.55217
#
# Static dielectric constant tensor:
#      x y z
#    x 3.879100 0.000000 0.000000 
#    y 0.000000 3.879100 0.000000 
#    z 0.000000 0.000000 3.900780 
# 
# 
# High freq. dielectric constant tensor:
#      x y z
#    x 1.853740 0.000000 0.000000 
#    y 0.000000 1.853740 0.000000 
#    z 0.000000 0.000000 1.834150 
# 
# From -- ./inp_files/323.got.cif
#   From: 2010.03.12/outbox.cif.g09.slc.cpg/sg118_1_cif.got.tgz:323.got - 2010.04.14 02:21:17.
