data_PCOD8310809
_publ_section_title
;
Structure prediction by ZEFSAII (Michael W. Deem and Ramdas Pophale) SiO2 
 PCOD8310809
Probable space group: I -4 M 2
;
_chemical_formula_sum "Si O2"
_cell_formula_units_Z 56
_cell_length_a 11.703841
_cell_length_b 11.703841
_cell_length_c 24.492052
_cell_angle_alpha 90.000000
_cell_angle_beta 90.000000
_cell_angle_gamma 90.000000
_cell_volume 3354.918691
_symmetry_space_group_name_H-M "I -4 M 2"
_symmetry_group_IT_number 119
_symmetry_cell_setting 'tetragonal'
loop_
_space_group_symop_operation_xyz
x,y,z
y,-x,-z
-x,-y,z
-y,x,-z
y,x,-z
-y,-x,-z
-x,y,z
x,-y,z
1/2+x,1/2+y,1/2+z
1/2+y,1/2-x,1/2-z
1/2-x,1/2-y,1/2+z
1/2-y,1/2+x,1/2-z
1/2+y,1/2+x,1/2-z
1/2-y,1/2-x,1/2-z
1/2-x,1/2+y,1/2+z
1/2+x,1/2-y,1/2+z
loop_
_atom_site_type_symbol
_atom_site_label
_atom_site_fract_x
_atom_site_fract_y
_atom_site_fract_z
Si Si1 0.709894 0.290107 0.000000
Si Si2 0.870263 0.000000 0.436487
Si Si3 0.866338 0.366783 0.410546
Si Si4 0.127414 0.000000 0.308187
Si Si5 0.748072 0.363942 0.200341
O O1 0.609755 0.300678 0.044130
O O2 0.826375 0.297912 0.035213
O O3 0.875679 0.000000 0.372563
O O4 0.000000 0.000000 0.459385
O O5 0.843500 0.500000 0.402077
O O6 0.819972 0.301704 0.356671
O O7 0.000000 0.339507 0.419694
O O8 0.187201 0.119350 0.290001
O O9 0.000000 0.000000 0.283695
O O10 0.743245 0.500000 0.197992
O O11 0.827101 0.327101 0.250000
#
# Coordination Sequence:
#
# PCOD8310809 Si02
#       5
#     8   8  16   8  16
#     4  12  17  28  50  75 104 130 156 200 250 293
#     4  11  16  24  47  79 101 121 158 204 251 286
#     4  10  20  31  47  75 105 132 163 200 246 295
#     4   9  18  30  48  76 100 126 166 203 240 287
#     4  10  19  32  51  74 101 130 162 203 247 291
#
# _framework density 16.69191
#
# number of rings (size 3 to 8) (size 9 to 14) (size 15 to 20)
#    0.000    1.714    5.714    0.857    0.000    1.429 
#    0.000    0.000    3.143    0.857    3.714    0.000 
#    0.000    0.000    0.000    0.000    0.000    0.000 
#
# Total GULP energy -346997.609867 kJ/mol
# GULP energy per Si atom -12392.771781 kJ/mol
# Density = 1.665392 g / cm^3
# Si number density = 16.691910 Si / 1000 Ang^3
#
#
#
# Elastic Constant Matrix: (Units=GPa)
#
#
# Indices 1 2 3 4 5 6 
#
# 1 58.4248 26.8509 26.9825 0.0000 0.0000 0.0000
# 2 26.8509 58.4247 26.9820 0.0000 0.0000 0.0000
# 3 26.9825 26.9820 78.4560 0.0000 0.0000 0.0000
# 4 0.0000 0.0000 0.0000 63.8735 0.0000 0.0000
# 5 0.0000 0.0000 0.0000 0.0000 63.8429 0.0000
# 6 0.0000 0.0000 0.0000 0.0000 0.0000 13.0797
#
#
#
# Elastic Compliance Matrix: (Units=1/GPa)
#
#
# Indices 1 2 3 4 5 6 
#
# 1 0.023330 -0.008341 -0.005155 0.000000 0.000000 0.000000
# 2 -0.008341 0.023330 -0.005155 0.000000 0.000000 0.000000
# 3 -0.005155 -0.005155 0.016292 0.000000 0.000000 0.000000
# 4 0.000000 0.000000 0.000000 0.015656 0.000000 0.000000
# 5 0.000000 0.000000 0.000000 0.000000 0.015663 0.000000
# 6 0.000000 0.000000 0.000000 0.000000 0.000000 0.076454
#
#
# Mechanical properties :
#
#
# Convention : Reuss Voigt Hill
#
# Bulk Modulus (GPa) = 38.98669 39.65957 39.32313
# Shear Modulus (GPa) = 23.08633 35.79189 29.43911
#
# Velocity S-wave (km/s) = 3.72302 4.63565 4.20417
# Velocity P-wave (km/s) = 6.47213 7.24318 6.86848
#
# Compressibility (1/GPa) = 0.02564978
#
# Stress axis : x y z
#
# Youngs Moduli (GPa) = 42.86266 42.86286 61.38099
#
# Poissons Ratio (x) = 0.35754 0.31642
# Poissons Ratio (y) = 0.35754 0.31640
# Poissons Ratio (z) = 0.22096 0.22095
#
# Static dielectric constant tensor:
#      x y z
#    x 2.500490 0.000000 0.000000 
#    y 0.000000 2.500060 0.000000 
#    z 0.000000 0.000000 3.070060 
# 
# 
# High freq. dielectric constant tensor:
#      x y z
#    x 1.614200 0.000000 0.000000 
#    y 0.000000 1.614200 0.000000 
#    z 0.000000 0.000000 1.649180 
# 
# From -- ./inp_files/7317.got.cif
#   From: 2010.03.12/outbox.cif.g09.slc.cpg/sg119_4_cif.got.tgz:7317.got - 2010.04.14 02:25:26.
