data_PCOD8310994
_publ_section_title
;
Structure prediction by ZEFSAII (Michael W. Deem and Ramdas Pophale) SiO2 
 PCOD8310994
Probable space group: I -4 M 2
;
_chemical_formula_sum "Si O2"
_cell_formula_units_Z 64
_cell_length_a 14.546772
_cell_length_b 14.546772
_cell_length_c 15.278744
_cell_angle_alpha 90.000000
_cell_angle_beta 90.000000
_cell_angle_gamma 90.000000
_cell_volume 3233.113255
_symmetry_space_group_name_H-M "I -4 M 2"
_symmetry_group_IT_number 119
_symmetry_cell_setting 'tetragonal'
loop_
_space_group_symop_operation_xyz
x,y,z
y,-x,-z
-x,-y,z
-y,x,-z
y,x,-z
-y,-x,-z
-x,y,z
x,-y,z
1/2+x,1/2+y,1/2+z
1/2+y,1/2-x,1/2-z
1/2-x,1/2-y,1/2+z
1/2-y,1/2+x,1/2-z
1/2+y,1/2+x,1/2-z
1/2-y,1/2-x,1/2-z
1/2-x,1/2+y,1/2+z
1/2+x,1/2-y,1/2+z
loop_
_atom_site_type_symbol
_atom_site_label
_atom_site_fract_x
_atom_site_fract_y
_atom_site_fract_z
Si Si1 0.287481 0.274279 0.594053
Si Si2 0.396308 0.104712 0.852749
Si Si3 0.896958 0.105003 0.226359
Si Si4 0.817674 0.104106 0.413210
O O1 0.317048 0.317048 0.500000
O O2 0.326999 0.170939 0.597074
O O3 0.323606 0.335076 0.673391
O O4 0.176275 0.266628 0.596327
O O5 0.500000 0.130771 0.879751
O O6 0.382099 0.117902 0.750000
O O7 0.374433 0.000000 0.879450
O O8 0.883498 0.117321 0.329529
O O9 0.000000 0.138722 0.203217
O O10 0.883064 0.000000 0.197617
O O11 0.877104 0.122897 0.500000
O O12 0.778307 0.000000 0.415421
#
# Coordination Sequence:
#
# PCOD8310994 Si02
#       4
#    16  16  16  16
#     4  11  23  35  53  79 112 153 188 220 262 320
#     4   9  18  34  58  85 108 132 169 224 289 343
#     4  10  21  37  58  83 111 145 184 227 275 325
#     4  10  21  37  58  84 112 142 179 229 287 337
#
# _framework density 19.795161
#
# number of rings (size 3 to 8) (size 9 to 14) (size 15 to 20)
#    0.000    2.000    0.000    4.500    0.000   10.250 
#    0.000    1.250    0.000    0.750    0.000    3.500 
#    0.000    0.000    0.000    0.000    0.000    0.000 
#
# Total GULP energy -396775.572945 kJ/mol
# GULP energy per Si atom -12399.236655 kJ/mol
# Density = 1.975011 g / cm^3
# Si number density = 19.795161 Si / 1000 Ang^3
#
#
#
# Elastic Constant Matrix: (Units=GPa)
#
#
# Indices 1 2 3 4 5 6 
#
# 1 99.3670 58.7370 58.4711 0.0000 0.0000 0.0000
# 2 58.7370 99.3667 58.4715 0.0000 0.0000 0.0000
# 3 58.4711 58.4715 113.1360 0.0000 0.0000 0.0000
# 4 0.0000 0.0000 0.0000 22.9635 0.0000 0.0000
# 5 0.0000 0.0000 0.0000 0.0000 22.9637 0.0000
# 6 0.0000 0.0000 0.0000 0.0000 0.0000 25.8234
#
#
#
# Elastic Compliance Matrix: (Units=1/GPa)
#
#
# Indices 1 2 3 4 5 6 
#
# 1 0.017426 -0.007187 -0.005292 0.000000 0.000000 0.000000
# 2 -0.007187 0.017426 -0.005292 0.000000 0.000000 0.000000
# 3 -0.005292 -0.005292 0.014309 0.000000 0.000000 0.000000
# 4 0.000000 0.000000 0.000000 0.043547 0.000000 0.000000
# 5 0.000000 0.000000 0.000000 0.000000 0.043547 0.000000
# 6 0.000000 0.000000 0.000000 0.000000 0.000000 0.038725
#
#
# Mechanical properties :
#
#
# Convention : Reuss Voigt Hill
#
# Bulk Modulus (GPa) = 73.42284 73.69210 73.55747
# Shear Modulus (GPa) = 23.24936 23.42945 23.33940
#
# Velocity S-wave (km/s) = 3.43081 3.44407 3.43745
# Velocity P-wave (km/s) = 7.27089 7.28860 7.27975
#
# Compressibility (1/GPa) = 0.01361974
#
# Stress axis : x y z
#
# Youngs Moduli (GPa) = 57.38657 57.38603 69.88728
#
# Poissons Ratio (x) = 0.41242 0.36982
# Poissons Ratio (y) = 0.41242 0.36983
# Poissons Ratio (z) = 0.30367 0.30368
#
# Static dielectric constant tensor:
#      x y z
#    x 3.608480 0.000000 0.000000 
#    y 0.000000 3.608470 0.000000 
#    z 0.000000 0.000000 3.580020 
# 
# 
# High freq. dielectric constant tensor:
#      x y z
#    x 1.766120 0.000000 0.000000 
#    y 0.000000 1.766120 0.000000 
#    z 0.000000 0.000000 1.771910 
# 
# From -- ./inp_files/5052.got.cif
#   From: 2010.03.12/outbox.cif.g09.slc.cpg/sg119_3_cif.got.tgz:5052.got - 2010.04.14 02:25:26.
