data_PCOD8310974
_publ_section_title
;
Structure prediction by ZEFSAII (Michael W. Deem and Ramdas Pophale) SiO2 
 PCOD8310974
Probable space group: I -4 M 2
;
_chemical_formula_sum "Si O2"
_cell_formula_units_Z 96
_cell_length_a 20.927671
_cell_length_b 20.927671
_cell_length_c 12.160517
_cell_angle_alpha 90.000000
_cell_angle_beta 90.000000
_cell_angle_gamma 90.000000
_cell_volume 5325.910177
_symmetry_space_group_name_H-M "I -4 M 2"
_symmetry_group_IT_number 119
_symmetry_cell_setting 'tetragonal'
loop_
_space_group_symop_operation_xyz
x,y,z
y,-x,-z
-x,-y,z
-y,x,-z
y,x,-z
-y,-x,-z
-x,y,z
x,-y,z
1/2+x,1/2+y,1/2+z
1/2+y,1/2-x,1/2-z
1/2-x,1/2-y,1/2+z
1/2-y,1/2+x,1/2-z
1/2+y,1/2+x,1/2-z
1/2-y,1/2-x,1/2-z
1/2-x,1/2+y,1/2+z
1/2+x,1/2-y,1/2+z
loop_
_atom_site_type_symbol
_atom_site_label
_atom_site_fract_x
_atom_site_fract_y
_atom_site_fract_z
Si Si1 0.075714 0.696409 0.011913
Si Si2 0.572993 0.674637 0.872711
Si Si3 0.154689 0.752716 0.204527
Si Si4 0.142680 0.740557 0.793939
Si Si5 0.075364 0.429681 0.128237
Si Si6 0.675685 0.572063 0.875085
O O1 0.112465 0.740555 0.097888
O O2 0.095026 0.622332 0.036232
O O3 0.000000 0.706791 0.024328
O O4 0.097412 0.717673 0.891917
O O5 0.500000 0.665287 0.835545
O O6 0.606800 0.728900 0.802003
O O7 0.609089 0.607934 0.853330
O O8 0.578224 0.697114 0.998584
O O9 0.191321 0.691321 0.250000
O O10 0.204491 0.807876 0.169421
O O11 0.179035 0.679035 0.750000
O O12 0.099149 0.766263 0.695616
O O13 0.105853 0.500000 0.101372
O O14 0.095793 0.404208 0.250000
O O15 0.000000 0.437585 0.131060
O O16 0.662111 0.500000 0.840011
#
# Coordination Sequence:
#
# PCOD8310974 Si02
#       6
#    16  16  16  16  16  16
#     4  11  21  34  55  80 105 133 174 221 267 318
#     4   9  18  33  55  83 111 138 174 223 274 324
#     4  10  21  35  55  79 106 139 178 225 272 313
#     4  10  22  37  53  73 106 148 185 216 255 315
#     4   8  15  30  50  72 100 129 160 207 266 316
#     4   9  18  34  55  79 110 145 178 217 267 322
#
# _framework density 18.025089000000001
#
# number of rings (size 3 to 8) (size 9 to 14) (size 15 to 20)
#    0.000    2.500    0.000    2.500    2.333    0.333 
#    0.000    4.167    0.000    0.000    0.000    0.000 
#    0.000   12.000    0.000    0.000    0.000    0.000 
#
# Total GULP energy -595108.987524 kJ/mol
# GULP energy per Si atom -12398.103907 kJ/mol
# Density = 1.798406 g / cm^3
# Si number density = 18.025089 Si / 1000 Ang^3
#
#
#
# Elastic Constant Matrix: (Units=GPa)
#
#
# Indices 1 2 3 4 5 6 
#
# 1 113.1917 32.4418 54.8491 0.0000 0.0000 0.0000
# 2 32.4418 113.1920 54.8492 0.0000 0.0000 0.0000
# 3 54.8491 54.8492 85.4183 0.0000 0.0000 0.0000
# 4 0.0000 0.0000 0.0000 32.0358 0.0000 0.0000
# 5 0.0000 0.0000 0.0000 0.0000 32.0357 0.0000
# 6 0.0000 0.0000 0.0000 0.0000 0.0000 20.5601
#
#
#
# Elastic Compliance Matrix: (Units=1/GPa)
#
#
# Indices 1 2 3 4 5 6 
#
# 1 0.012841 0.000458 -0.008540 0.000000 0.000000 0.000000
# 2 0.000458 0.012841 -0.008540 0.000000 0.000000 0.000000
# 3 -0.008540 -0.008540 0.022674 0.000000 0.000000 0.000000
# 4 0.000000 0.000000 0.000000 0.031215 0.000000 0.000000
# 5 0.000000 0.000000 0.000000 0.000000 0.031215 0.000000
# 6 0.000000 0.000000 0.000000 0.000000 0.000000 0.048638
#
#
# Mechanical properties :
#
#
# Convention : Reuss Voigt Hill
#
# Bulk Modulus (GPa) = 66.16544 66.23136 66.19840
# Shear Modulus (GPa) = 25.29006 28.23713 26.76359
#
# Velocity S-wave (km/s) = 3.74979 3.96226 3.85749
# Velocity P-wave (km/s) = 7.45218 7.59976 7.52633
#
# Compressibility (1/GPa) = 0.01511363
#
# Stress axis : x y z
#
# Youngs Moduli (GPa) = 77.87283 77.87296 44.10325
#
# Poissons Ratio (x) = -0.03563 0.37662
# Poissons Ratio (y) = -0.03563 0.37662
# Poissons Ratio (z) = 0.66500 0.66500
#
# Static dielectric constant tensor:
#      x y z
#    x 3.414260 0.000000 0.000000 
#    y 0.000000 3.414260 0.000000 
#    z 0.000000 0.000000 3.257160 
# 
# 
# High freq. dielectric constant tensor:
#      x y z
#    x 1.701140 0.000000 0.000000 
#    y 0.000000 1.701140 0.000000 
#    z 0.000000 0.000000 1.688640 
# 
# From -- ./inp_files/4188.got.cif
#   From: 2010.03.12/outbox.cif.g09.slc.cpg/sg119_3_cif.got.tgz:4188.got - 2010.04.14 02:25:26.
