data_PCOD8310880
_publ_section_title
;
Structure prediction by ZEFSAII (Michael W. Deem and Ramdas Pophale) SiO2 
 PCOD8310880
Probable space group: I -4 M 2
;
_chemical_formula_sum "Si O2"
_cell_formula_units_Z 46
_cell_length_a 10.054997
_cell_length_b 10.054997
_cell_length_c 24.427133
_cell_angle_alpha 90.000000
_cell_angle_beta 90.000000
_cell_angle_gamma 90.000000
_cell_volume 2469.655565
_symmetry_space_group_name_H-M "I -4 M 2"
_symmetry_group_IT_number 119
_symmetry_cell_setting 'tetragonal'
loop_
_space_group_symop_operation_xyz
x,y,z
y,-x,-z
-x,-y,z
-y,x,-z
y,x,-z
-y,-x,-z
-x,y,z
x,-y,z
1/2+x,1/2+y,1/2+z
1/2+y,1/2-x,1/2-z
1/2-x,1/2-y,1/2+z
1/2-y,1/2+x,1/2-z
1/2+y,1/2+x,1/2-z
1/2-y,1/2-x,1/2-z
1/2-x,1/2+y,1/2+z
1/2+x,1/2-y,1/2+z
loop_
_atom_site_type_symbol
_atom_site_label
_atom_site_fract_x
_atom_site_fract_y
_atom_site_fract_z
Si Si1 0.000000 0.279146 0.258246
Si Si2 0.500000 0.500000 0.689470
Si Si3 0.500000 0.500000 0.500000
Si Si4 0.653465 0.249068 0.054874
Si Si5 0.349086 0.500000 0.127943
Si Si6 0.000000 0.789388 0.905631
O O1 0.866384 0.366384 0.250000
O O2 0.000000 0.248898 0.321774
O O3 0.000000 0.138725 0.224249
O O4 0.370954 0.500000 0.650713
O O5 0.500000 0.373709 0.460897
O O6 0.500000 0.239273 0.037596
O O7 0.683471 0.375171 0.091198
O O8 0.694530 0.126963 0.092925
O O9 0.741644 0.258357 0.000000
O O10 0.500000 0.500000 0.149359
#
# Coordination Sequence:
#
# PCOD8310880 Si02
#       6
#     8   4   2  16   8   8
#     4  11  23  43  67  97 120 159 213 265 308 368
#     4  11  24  43  66  86 131 168 203 254 330 362
#     4  10  20  32  52  68 112 156 182 220 290 352
#     4  11  21  36  60  90 122 159 204 249 306 369
#     4  10  21  38  63  87 117 160 203 247 306 361
#     4  11  22  38  54  87 122 161 196 245 304 374
#
# _framework density 18.626079000000001
#
# number of rings (size 3 to 8) (size 9 to 14) (size 15 to 20)
#    0.000    1.217    4.348    2.609    0.000    0.000 
#    0.000    1.739    0.000    0.000    0.000    0.000 
#    0.000    0.000    0.000    0.000    0.000    0.000 
#
# Total GULP energy -285121.442444 kJ/mol
# GULP energy per Si atom -12396.584454 kJ/mol
# Density = 1.858369 g / cm^3
# Si number density = 18.626079 Si / 1000 Ang^3
#
#
#
# Elastic Constant Matrix: (Units=GPa)
#
#
# Indices 1 2 3 4 5 6 
#
# 1 128.6142 57.4062 56.1236 0.0000 0.0000 0.0000
# 2 57.4062 128.6143 56.1244 0.0000 0.0000 0.0000
# 3 56.1236 56.1244 60.5284 0.0000 0.0000 0.0000
# 4 0.0000 0.0000 0.0000 40.4242 0.0000 0.0000
# 5 0.0000 0.0000 0.0000 0.0000 40.4238 0.0000
# 6 0.0000 0.0000 0.0000 0.0000 0.0000 36.2411
#
#
#
# Elastic Compliance Matrix: (Units=1/GPa)
#
#
# Indices 1 2 3 4 5 6 
#
# 1 0.013124 -0.000920 -0.011316 0.000000 0.000000 0.000000
# 2 -0.000920 0.013124 -0.011316 0.000000 0.000000 0.000000
# 3 -0.011316 -0.011316 0.037506 0.000000 0.000000 0.000000
# 4 0.000000 0.000000 0.000000 0.024738 0.000000 0.000000
# 5 0.000000 0.000000 0.000000 0.000000 0.024738 0.000000
# 6 0.000000 0.000000 0.000000 0.000000 0.000000 0.027593
#
#
# Mechanical properties :
#
#
# Convention : Reuss Voigt Hill
#
# Bulk Modulus (GPa) = 60.05861 73.00726 66.53293
# Shear Modulus (GPa) = 25.84308 33.29136 29.56722
#
# Velocity S-wave (km/s) = 3.72891 4.23229 3.98855
# Velocity P-wave (km/s) = 7.13121 7.94761 7.55045
#
# Compressibility (1/GPa) = 0.01665040
#
# Stress axis : x y z
#
# Youngs Moduli (GPa) = 76.19888 76.19748 26.66223
#
# Poissons Ratio (x) = 0.07008 0.30170
# Poissons Ratio (y) = 0.07008 0.30171
# Poissons Ratio (z) = 0.86225 0.86226
#
# Static dielectric constant tensor:
#      x y z
#    x 3.481850 0.000000 0.000000 
#    y 0.000000 3.481850 0.000000 
#    z 0.000000 0.000000 3.345690 
# 
# 
# High freq. dielectric constant tensor:
#      x y z
#    x 1.732560 0.000000 0.000000 
#    y 0.000000 1.732560 0.000000 
#    z 0.000000 0.000000 1.725500 
# 
# From -- ./inp_files/9928.got.cif
#   From: 2010.03.12/outbox.cif.g09.slc.cpg/sg119_5_cif.got.tgz:9928.got - 2010.04.14 02:25:26.
