data_PCOD8310364
_publ_section_title
;
Structure prediction by ZEFSAII (Michael W. Deem and Ramdas Pophale) SiO2 
 PCOD8310364
Probable space group: P -4 B 2
;
_chemical_formula_sum "Si O2"
_cell_formula_units_Z 40
_cell_length_a 9.320097
_cell_length_b 9.320097
_cell_length_c 20.166840
_cell_angle_alpha 90.000000
_cell_angle_beta 90.000000
_cell_angle_gamma 90.000000
_cell_volume 1751.776586
_symmetry_space_group_name_H-M "P -4 B 2"
_symmetry_group_IT_number 117
_symmetry_cell_setting 'tetragonal'
loop_
_space_group_symop_operation_xyz
x,y,z
y,-x,-z
-x,-y,z
-y,x,-z
1/2+y,1/2+x,-z
1/2-y,1/2-x,-z
1/2-x,1/2+y,z
1/2+x,1/2-y,z
loop_
_atom_site_type_symbol
_atom_site_label
_atom_site_fract_x
_atom_site_fract_y
_atom_site_fract_z
Si Si1 0.154254 0.989313 0.334325
Si Si2 0.923819 0.797173 0.974996
Si Si3 0.741811 0.751002 0.755075
Si Si4 0.485066 0.846802 0.844015
Si Si5 0.788261 0.069678 0.475630
O O1 0.179380 0.143663 0.300710
O O2 0.148928 0.859582 0.281037
O O3 0.252325 0.960416 0.398129
O O4 0.000000 0.000000 0.367885
O O5 0.969433 0.778888 0.898328
O O6 0.844103 0.655898 0.000000
O O7 0.064404 0.820692 0.020253
O O8 0.632997 0.830816 0.803929
O O9 0.843781 0.643794 0.797154
O O10 0.500000 0.000000 0.880260
O O11 0.641990 0.141990 0.500000
O O12 0.921826 0.179741 0.485366
#
# Coordination Sequence:
#
# PCOD8310364 Si02
#       5
#     8   8   8   8   8
#     4  11  21  41  67  96 138 177 234 288 345 417
#     4  11  27  47  72 105 140 186 236 289 354 423
#     4  10  24  42  67 104 131 185 226 291 347 416
#     4  11  24  45  70 100 143 179 235 287 350 420
#     4  11  23  42  66  97 136 184 231 286 350 408
#
# _framework density 22.833962
#
# number of rings (size 3 to 8) (size 9 to 14) (size 15 to 20)
#    0.000    1.200    2.000    3.600    5.600    0.400 
#   14.400    0.000    0.000    0.000    0.000    0.000 
#    0.000    0.000    0.000    0.000    0.000    0.000 
#
# Total GULP energy -495673.458482 kJ/mol
# GULP energy per Si atom -12391.836462 kJ/mol
# Density = 2.278199 g / cm^3
# Si number density = 22.833962 Si / 1000 Ang^3
#
#
#
# Elastic Constant Matrix: (Units=GPa)
#
#
# Indices 1 2 3 4 5 6 
#
# 1 112.3742 33.3724 48.1970 0.0000 0.0000 0.0000
# 2 33.3724 112.3758 48.1964 0.0000 0.0000 0.0000
# 3 48.1970 48.1964 136.4425 0.0000 0.0000 0.0000
# 4 0.0000 0.0000 0.0000 31.5927 0.0000 0.0000
# 5 0.0000 0.0000 0.0000 0.0000 31.5927 0.0000
# 6 0.0000 0.0000 0.0000 0.0000 0.0000 27.2352
#
#
#
# Elastic Compliance Matrix: (Units=1/GPa)
#
#
# Indices 1 2 3 4 5 6 
#
# 1 0.010805 -0.001853 -0.003163 0.000000 0.000000 0.000000
# 2 -0.001853 0.010805 -0.003162 0.000000 0.000000 0.000000
# 3 -0.003163 -0.003162 0.009563 0.000000 0.000000 0.000000
# 4 0.000000 0.000000 0.000000 0.031653 0.000000 0.000000
# 5 0.000000 0.000000 0.000000 0.000000 0.031653 0.000000
# 6 0.000000 0.000000 0.000000 0.000000 0.000000 0.036717
#
#
# Mechanical properties :
#
#
# Convention : Reuss Voigt Hill
#
# Bulk Modulus (GPa) = 67.48103 68.96934 68.22518
# Shear Modulus (GPa) = 32.78877 33.51258 33.15067
#
# Velocity S-wave (km/s) = 3.79352 3.83517 3.81440
# Velocity P-wave (km/s) = 6.98605 7.06269 7.02447
#
# Compressibility (1/GPa) = 0.01481898
#
# Stress axis : x y z
#
# Youngs Moduli (GPa) = 92.54642 92.54831 104.56652
#
# Poissons Ratio (x) = 0.17145 0.33069
# Poissons Ratio (y) = 0.17145 0.33068
# Poissons Ratio (z) = 0.29268 0.29267
#
# Static dielectric constant tensor:
#      x y z
#    x 4.071610 0.000000 0.000000 
#    y 0.000000 4.071610 0.000000 
#    z 0.000000 0.000000 4.080140 
# 
# 
# High freq. dielectric constant tensor:
#      x y z
#    x 1.899870 0.000000 0.000000 
#    y 0.000000 1.899870 0.000000 
#    z 0.000000 0.000000 1.908160 
# 
# From -- ./inp_files/3531.got.cif
#   From: 2010.03.12/outbox.cif.g09.slc.cpg/sg117_2_cif.got.tgz:3531.got - 2010.04.14 02:19:01.
