data_PCOD8310337
_publ_section_title
;
Structure prediction by ZEFSAII (Michael W. Deem and Ramdas Pophale) SiO2 
 PCOD8310337
Probable space group: P -4 B 2
;
_chemical_formula_sum "Si O2"
_cell_formula_units_Z 40
_cell_length_a 15.054250
_cell_length_b 15.054250
_cell_length_c 8.241692
_cell_angle_alpha 90.000000
_cell_angle_beta 90.000000
_cell_angle_gamma 90.000000
_cell_volume 1867.818310
_symmetry_space_group_name_H-M "P -4 B 2"
_symmetry_group_IT_number 117
_symmetry_cell_setting 'tetragonal'
loop_
_space_group_symop_operation_xyz
x,y,z
y,-x,-z
-x,-y,z
-y,x,-z
1/2+y,1/2+x,-z
1/2-y,1/2-x,-z
1/2-x,1/2+y,z
1/2+x,1/2-y,z
loop_
_atom_site_type_symbol
_atom_site_label
_atom_site_fract_x
_atom_site_fract_y
_atom_site_fract_z
Si Si1 0.734205 0.131206 0.135295
Si Si2 0.585703 0.052482 0.805634
Si Si3 0.314809 0.677537 0.556275
Si Si4 0.019563 0.136893 0.045602
Si Si5 0.768777 0.010259 0.637817
O O1 0.654282 0.096593 0.254099
O O2 0.808656 0.174265 0.249872
O O3 0.702777 0.202777 0.000000
O O4 0.771925 0.045764 0.042515
O O5 0.673830 0.003949 0.734820
O O6 0.500000 0.000000 0.735640
O O7 0.570104 0.070104 0.000000
O O8 0.229697 0.729697 0.500000
O O9 0.400738 0.715014 0.463500
O O10 0.287996 0.574896 0.523342
O O11 0.004511 0.152192 0.233762
O O12 0.931686 0.100756 0.962159
#
# Coordination Sequence:
#
# PCOD8310337 Si02
#       5
#     8   8   8   8   8
#     4  11  21  45  70  95 139 181 228 301 342 415
#     4  10  21  43  72 102 135 176 233 299 352 413
#     4  12  27  47  70 103 144 192 231 290 360 431
#     4  11  23  41  68 100 135 181 236 281 348 425
#     4  12  26  46  68 105 144 185 236 288 364 424
#
# _framework density 21.415358999999999
#
# number of rings (size 3 to 8) (size 9 to 14) (size 15 to 20)
#    0.000    0.800    8.000    0.000    2.800    2.000 
#    7.200    1.000    0.000    0.000    0.000    0.000 
#    0.000    0.000    0.000    0.000    0.000    0.000 
#
# Total GULP energy -495538.867073 kJ/mol
# GULP energy per Si atom -12388.471677 kJ/mol
# Density = 2.136662 g / cm^3
# Si number density = 21.415359 Si / 1000 Ang^3
#
#
#
# Elastic Constant Matrix: (Units=GPa)
#
#
# Indices 1 2 3 4 5 6 
#
# 1 125.9693 54.2729 37.6471 0.0000 0.0000 0.0000
# 2 54.2729 125.9693 37.6471 0.0000 0.0000 0.0000
# 3 37.6471 37.6471 66.4190 0.0000 0.0000 0.0000
# 4 0.0000 0.0000 0.0000 25.0176 0.0000 0.0000
# 5 0.0000 0.0000 0.0000 0.0000 25.0176 0.0000
# 6 0.0000 0.0000 0.0000 0.0000 0.0000 38.2204
#
#
#
# Elastic Compliance Matrix: (Units=1/GPa)
#
#
# Indices 1 2 3 4 5 6 
#
# 1 0.010609 -0.003339 -0.004120 0.000000 0.000000 0.000000
# 2 -0.003339 0.010609 -0.004120 0.000000 0.000000 0.000000
# 3 -0.004120 -0.004120 0.019727 0.000000 0.000000 0.000000
# 4 0.000000 0.000000 0.000000 0.039972 0.000000 0.000000
# 5 0.000000 0.000000 0.000000 0.000000 0.039972 0.000000
# 6 0.000000 0.000000 0.000000 0.000000 0.000000 0.026164
#
#
# Mechanical properties :
#
#
# Convention : Reuss Voigt Hill
#
# Bulk Modulus (GPa) = 56.22989 64.16575 60.19782
# Shear Modulus (GPa) = 28.38664 30.23718 29.31191
#
# Velocity S-wave (km/s) = 3.64473 3.76165 3.70365
# Velocity P-wave (km/s) = 6.63520 6.99244 6.81616
#
# Compressibility (1/GPa) = 0.01778414
#
# Stress axis : x y z
#
# Youngs Moduli (GPa) = 94.26398 94.26398 50.69235
#
# Poissons Ratio (x) = 0.31477 0.20887
# Poissons Ratio (y) = 0.31477 0.20887
# Poissons Ratio (z) = 0.38840 0.38840
#
# Static dielectric constant tensor:
#      x y z
#    x 4.051550 0.000000 0.000000 
#    y 0.000000 4.051550 0.000000 
#    z 0.000000 0.000000 3.885270 
# 
# 
# High freq. dielectric constant tensor:
#      x y z
#    x 1.846090 0.000000 0.000000 
#    y 0.000000 1.846090 0.000000 
#    z 0.000000 0.000000 1.831730 
# 
# From -- ./inp_files/1722.got.cif
#   From: 2010.03.12/outbox.cif.g09.slc.cpg/sg117_1_cif.got.tgz:1722.got - 2010.04.14 02:19:01.
