data_PCOD8310210
_publ_section_title
;
Structure prediction by ZEFSAII (Michael W. Deem and Ramdas Pophale) SiO2 
 PCOD8310210
Probable space group: P -4 C 2
;
_chemical_formula_sum "Si O2"
_cell_formula_units_Z 38
_cell_length_a 14.166218
_cell_length_b 14.166218
_cell_length_c 8.702339
_cell_angle_alpha 90.000000
_cell_angle_beta 90.000000
_cell_angle_gamma 90.000000
_cell_volume 1746.400467
_symmetry_space_group_name_H-M "P -4 C 2"
_symmetry_group_IT_number 116
_symmetry_cell_setting 'tetragonal'
loop_
_space_group_symop_operation_xyz
x,y,z
y,-x,-z
-x,-y,z
-y,x,-z
y,x,1/2-z
-y,-x,1/2-z
-x,y,1/2+z
x,-y,1/2+z
loop_
_atom_site_type_symbol
_atom_site_label
_atom_site_fract_x
_atom_site_fract_y
_atom_site_fract_z
Si Si1 0.394997 0.605004 0.750000
Si Si2 0.500000 0.500000 0.500000
Si Si3 0.112210 0.252211 0.179718
Si Si4 0.560015 0.797610 0.390484
Si Si5 0.373199 0.779755 0.228180
Si Si6 0.079726 0.210139 0.833108
O O1 0.460957 0.583919 0.604405
O O2 0.287760 0.589569 0.715182
O O3 0.208379 0.208379 0.250000
O O4 0.119731 0.366388 0.159020
O O5 0.029210 0.228717 0.297534
O O6 0.092708 0.203239 0.015737
O O7 0.448480 0.812484 0.358519
O O8 0.571171 0.777019 0.569128
O O9 0.323766 0.676235 0.250000
O O10 0.294540 0.859430 0.238568
O O11 0.113636 0.113636 0.750000
#
# Coordination Sequence:
#
# PCOD8310210 Si02
#       6
#     4   2   8   8   8   8
#     4  11  22  38  52  88 117 168 204 262 301 360
#     4  10  24  34  56  78 124 162 220 254 304 354
#     4  11  23  43  67  96 127 163 205 257 316 382
#     4  11  24  39  62  88 127 170 209 260 315 364
#     4  10  25  42  61  91 127 168 216 262 311 368
#     4  10  23  44  68  96 126 162 204 261 316 378
#
# _framework density 21.759042000000001
#
# number of rings (size 3 to 8) (size 9 to 14) (size 15 to 20)
#    0.000    1.474    1.053    2.526    8.842    4.632 
#    0.000    6.316    0.000    0.000    0.000    0.000 
#    0.000    0.000    0.000    0.000    0.000    0.000 
#
# Total GULP energy -471143.571121 kJ/mol
# GULP energy per Si atom -12398.515030 kJ/mol
# Density = 2.170952 g / cm^3
# Si number density = 21.759042 Si / 1000 Ang^3
#
#
#
# Elastic Constant Matrix: (Units=GPa)
#
#
# Indices 1 2 3 4 5 6 
#
# 1 98.3022 8.7134 25.4397 0.0000 0.0000 0.0000
# 2 8.7134 98.3047 25.4389 0.0000 0.0000 0.0000
# 3 25.4397 25.4389 104.5211 0.0000 0.0000 0.0000
# 4 0.0000 0.0000 0.0000 34.9222 0.0000 0.0000
# 5 0.0000 0.0000 0.0000 0.0000 34.9183 0.0000
# 6 0.0000 0.0000 0.0000 0.0000 0.0000 27.6677
#
#
#
# Elastic Compliance Matrix: (Units=1/GPa)
#
#
# Indices 1 2 3 4 5 6 
#
# 1 0.010865 -0.000297 -0.002572 0.000000 0.000000 0.000000
# 2 -0.000297 0.010864 -0.002572 0.000000 0.000000 0.000000
# 3 -0.002572 -0.002572 0.010819 0.000000 0.000000 0.000000
# 4 0.000000 0.000000 0.000000 0.028635 0.000000 0.000000
# 5 0.000000 0.000000 0.000000 0.000000 0.028638 0.000000
# 6 0.000000 0.000000 0.000000 0.000000 0.000000 0.036143
#
#
# Mechanical properties :
#
#
# Convention : Reuss Voigt Hill
#
# Bulk Modulus (GPa) = 46.15551 46.70137 46.42844
# Shear Modulus (GPa) = 34.70549 35.60405 35.15477
#
# Velocity S-wave (km/s) = 3.99807 4.04949 4.02386
# Velocity P-wave (km/s) = 6.52464 6.58590 6.55534
#
# Compressibility (1/GPa) = 0.02166589
#
# Stress axis : x y z
#
# Youngs Moduli (GPa) = 92.04135 92.04422 92.42659
#
# Poissons Ratio (x) = 0.02738 0.23772
# Poissons Ratio (y) = 0.02738 0.23771
# Poissons Ratio (z) = 0.23673 0.23672
#
# Static dielectric constant tensor:
#      x y z
#    x 3.827860 0.000000 0.000000 
#    y 0.000000 3.827830 0.000000 
#    z 0.000000 0.000000 3.575040 
# 
# 
# High freq. dielectric constant tensor:
#      x y z
#    x 1.849650 0.000000 0.000000 
#    y 0.000000 1.849650 0.000000 
#    z 0.000000 0.000000 1.866700 
# 
# From -- ./inp_files/717.got.cif
#   From: 2010.03.12/outbox.cif.g09.slc.cpg/sg116_1_cif.got.tgz:717.got - 2010.04.14 02:15:44.
