data_PCOD8310417
_publ_section_title
;
Structure prediction by ZEFSAII (Michael W. Deem and Ramdas Pophale) SiO2 
 PCOD8310417
Probable space group: P -4 B 2
;
_chemical_formula_sum "Si O2"
_cell_formula_units_Z 42
_cell_length_a 13.900393
_cell_length_b 13.900393
_cell_length_c 8.671718
_cell_angle_alpha 90.000000
_cell_angle_beta 90.000000
_cell_angle_gamma 90.000000
_cell_volume 1675.557378
_symmetry_space_group_name_H-M "P -4 B 2"
_symmetry_group_IT_number 117
_symmetry_cell_setting 'tetragonal'
loop_
_space_group_symop_operation_xyz
x,y,z
y,-x,-z
-x,-y,z
-y,x,-z
1/2+y,1/2+x,-z
1/2-y,1/2-x,-z
1/2-x,1/2+y,z
1/2+x,1/2-y,z
loop_
_atom_site_type_symbol
_atom_site_label
_atom_site_fract_x
_atom_site_fract_y
_atom_site_fract_z
Si Si1 0.074991 0.215777 0.603655
Si Si2 0.689781 0.946682 0.919468
Si Si3 0.000000 0.000000 0.000000
Si Si4 0.086827 0.845211 0.824116
Si Si5 0.738920 0.901604 0.586392
Si Si6 0.160169 0.300286 0.167750
O O1 0.156937 0.143480 0.543695
O O2 0.122856 0.294976 0.715072
O O3 0.991198 0.158548 0.690183
O O4 0.016047 0.264072 0.460127
O O5 0.721842 0.886261 0.768585
O O6 0.663955 0.053098 0.865012
O O7 0.595295 0.904706 0.000000
O O8 0.772922 0.944491 0.043679
O O9 0.916819 0.047782 0.895789
O O10 0.194003 0.830483 0.756953
O O11 0.653298 0.846703 0.500000
O O12 0.211053 0.288948 0.000000
#
# Coordination Sequence:
#
# PCOD8310417 Si02
#       6
#     8   8   2   8   8   8
#     4  12  28  50  78 115 160 215 265 325 407 481
#     4  12  26  49  78 116 152 208 271 329 394 472
#     4  12  20  36  76 122 148 196 268 342 392 468
#     4  12  24  46  79 118 154 199 269 334 396 464
#     4  12  30  52  78 114 167 214 261 331 403 484
#     4  12  25  48  82 115 160 209 263 341 400 466
#
# _framework density 25.066285000000001
#
# number of rings (size 3 to 8) (size 9 to 14) (size 15 to 20)
#    0.000    0.000    3.810    6.286    5.333    0.762 
#    0.000    0.952    0.000    0.000    0.000    0.000 
#    0.000    0.000    0.000    0.000    0.000    0.000 
#
# Total GULP energy -520874.268208 kJ/mol
# GULP energy per Si atom -12401.768291 kJ/mol
# Density = 2.500923 g / cm^3
# Si number density = 25.066285 Si / 1000 Ang^3
#
#
#
# Elastic Constant Matrix: (Units=GPa)
#
#
# Indices 1 2 3 4 5 6 
#
# 1 129.3430 42.7223 20.1590 0.0000 0.0000 0.0000
# 2 42.7223 129.3398 20.1565 0.0000 0.0000 0.0000
# 3 20.1590 20.1565 100.3648 0.0000 0.0000 0.0000
# 4 0.0000 0.0000 0.0000 39.3205 0.0000 0.0000
# 5 0.0000 0.0000 0.0000 0.0000 39.3208 0.0000
# 6 0.0000 0.0000 0.0000 0.0000 0.0000 37.2065
#
#
#
# Elastic Compliance Matrix: (Units=1/GPa)
#
#
# Indices 1 2 3 4 5 6 
#
# 1 0.008822 -0.002723 -0.001225 0.000000 0.000000 0.000000
# 2 -0.002723 0.008822 -0.001225 0.000000 0.000000 0.000000
# 3 -0.001225 -0.001225 0.010456 0.000000 0.000000 0.000000
# 4 0.000000 0.000000 0.000000 0.025432 0.000000 0.000000
# 5 0.000000 0.000000 0.000000 0.000000 0.025432 0.000000
# 6 0.000000 0.000000 0.000000 0.000000 0.000000 0.026877
#
#
# Mechanical properties :
#
#
# Convention : Reuss Voigt Hill
#
# Bulk Modulus (GPa) = 56.32646 58.34702 57.33674
# Shear Modulus (GPa) = 40.94879 41.57020 41.25950
#
# Velocity S-wave (km/s) = 4.04619 4.07678 4.06151
# Velocity P-wave (km/s) = 6.65948 6.74446 6.70211
#
# Compressibility (1/GPa) = 0.01775365
#
# Stress axis : x y z
#
# Youngs Moduli (GPa) = 113.35653 113.35451 95.64173
#
# Poissons Ratio (x) = 0.30866 0.11717
# Poissons Ratio (y) = 0.30867 0.11714
# Poissons Ratio (z) = 0.13887 0.13883
#
# Static dielectric constant tensor:
#      x y z
#    x 4.831700 0.000000 0.000000 
#    y 0.000000 4.831710 0.000000 
#    z 0.000000 0.000000 4.923380 
# 
# 
# High freq. dielectric constant tensor:
#      x y z
#    x 2.001650 0.000000 0.000000 
#    y 0.000000 2.001650 0.000000 
#    z 0.000000 0.000000 2.019050 
# 
# From -- ./inp_files/1773.got.cif
#   From: 2010.03.12/outbox.cif.g09.slc.cpg/sg117_1_cif.got.tgz:1773.got - 2010.04.14 02:19:01.
