data_PCOD8310659
_publ_section_title
;
Structure prediction by ZEFSAII (Michael W. Deem and Ramdas Pophale) SiO2 
 PCOD8310659
Probable space group: P -4 N 2
;
_chemical_formula_sum "Si O2"
_cell_formula_units_Z 38
_cell_length_a 8.473517
_cell_length_b 8.473517
_cell_length_c 22.018152
_cell_angle_alpha 90.000000
_cell_angle_beta 90.000000
_cell_angle_gamma 90.000000
_cell_volume 1580.914110
_symmetry_space_group_name_H-M "P -4 N 2"
_symmetry_group_IT_number 118
_symmetry_cell_setting 'tetragonal'
loop_
_space_group_symop_operation_xyz
x,y,z
y,-x,-z
-x,-y,z
-y,x,-z
1/2+y,1/2+x,1/2-z
1/2-y,1/2-x,1/2-z
1/2-x,1/2+y,1/2+z
1/2+x,1/2-y,1/2+z
loop_
_atom_site_type_symbol
_atom_site_label
_atom_site_fract_x
_atom_site_fract_y
_atom_site_fract_z
Si Si1 0.784794 0.268935 0.956732
Si Si2 0.500000 0.500000 0.500000
Si Si3 0.711673 0.211673 0.750000
Si Si4 0.549656 0.827621 0.925536
Si Si5 0.292472 0.628817 0.199575
Si Si6 0.570163 0.837282 0.158895
O O1 0.612776 0.267548 0.925866
O O2 0.867902 0.396552 0.912860
O O3 0.763242 0.326304 0.025595
O O4 0.879252 0.101826 0.958013
O O5 0.531742 0.258533 0.763561
O O6 0.814981 0.261290 0.808442
O O7 0.629091 0.822189 0.859109
O O8 0.500000 0.000000 0.945685
O O9 0.260206 0.760206 0.250000
O O10 0.465687 0.678600 0.173948
O O11 0.500000 0.000000 0.184301
#
# Coordination Sequence:
#
# PCOD8310659 Si02
#       6
#     8   2   4   8   8   8
#     4  12  27  49  78 112 155 197 263 317 402 463
#     4  12  28  48  76 120 148 212 248 336 398 476
#     4  12  24  48  72 110 150 204 258 318 392 470
#     4  12  25  46  76 113 151 202 256 323 389 474
#     4  12  27  48  78 112 155 204 264 329 393 472
#     4  12  28  49  74 112 154 204 258 324 395 473
#
# _framework density 24.036725000000001
#
# number of rings (size 3 to 8) (size 9 to 14) (size 15 to 20)
#    0.000    0.000    4.211    5.684    2.947    2.105 
#    3.789    0.000    0.000    0.000    0.000    0.000 
#    0.000    0.000    0.000    0.000    0.000    0.000 
#
# Total GULP energy -470923.938000 kJ/mol
# GULP energy per Si atom -12392.735211 kJ/mol
# Density = 2.398202 g / cm^3
# Si number density = 24.036725 Si / 1000 Ang^3
#
#
#
# Elastic Constant Matrix: (Units=GPa)
#
#
# Indices 1 2 3 4 5 6 
#
# 1 107.3890 24.4595 41.4027 0.0000 0.0000 0.0000
# 2 24.4595 107.3890 41.4027 0.0000 0.0000 0.0000
# 3 41.4027 41.4027 166.0444 0.0000 0.0000 0.0000
# 4 0.0000 0.0000 0.0000 37.3817 0.0000 0.0000
# 5 0.0000 0.0000 0.0000 0.0000 37.3817 0.0000
# 6 0.0000 0.0000 0.0000 0.0000 0.0000 37.7704
#
#
#
# Elastic Compliance Matrix: (Units=1/GPa)
#
#
# Indices 1 2 3 4 5 6 
#
# 1 0.010526 -0.001533 -0.002242 0.000000 0.000000 0.000000
# 2 -0.001533 0.010526 -0.002242 0.000000 0.000000 0.000000
# 3 -0.002242 -0.002242 0.007141 0.000000 0.000000 0.000000
# 4 0.000000 0.000000 0.000000 0.026751 0.000000 0.000000
# 5 0.000000 0.000000 0.000000 0.000000 0.026751 0.000000
# 6 0.000000 0.000000 0.000000 0.000000 0.000000 0.026476
#
#
# Mechanical properties :
#
#
# Convention : Reuss Voigt Hill
#
# Bulk Modulus (GPa) = 61.89306 66.15025 64.02166
# Shear Modulus (GPa) = 39.81198 40.74392 40.27795
#
# Velocity S-wave (km/s) = 4.07418 4.12159 4.09795
# Velocity P-wave (km/s) = 6.92367 7.08733 7.00598
#
# Compressibility (1/GPa) = 0.01615690
#
# Stress axis : x y z
#
# Youngs Moduli (GPa) = 95.00672 95.00672 140.04205
#
# Poissons Ratio (x) = 0.14563 0.31402
# Poissons Ratio (y) = 0.14563 0.31402
# Poissons Ratio (z) = 0.21303 0.21303
#
# Static dielectric constant tensor:
#      x y z
#    x 4.386910 0.000000 0.000000 
#    y 0.000000 4.386910 0.000000 
#    z 0.000000 0.000000 4.368440 
# 
# 
# High freq. dielectric constant tensor:
#      x y z
#    x 1.953610 0.000000 0.000000 
#    y 0.000000 1.953610 0.000000 
#    z 0.000000 0.000000 1.968020 
# 
# From -- ./inp_files/6107.got.cif
#   From: 2010.03.12/outbox.cif.g09.slc.cpg/sg118_4_cif.got.tgz:6107.got - 2010.04.14 02:21:17.
