data_PCOD8310312
_publ_section_title
;
Structure prediction by ZEFSAII (Michael W. Deem and Ramdas Pophale) SiO2 
 PCOD8310312
Probable space group: P -4 B 2
;
_chemical_formula_sum "Si O2"
_cell_formula_units_Z 48
_cell_length_a 16.639396
_cell_length_b 16.639396
_cell_length_c 8.653845
_cell_angle_alpha 90.000000
_cell_angle_beta 90.000000
_cell_angle_gamma 90.000000
_cell_volume 2395.985732
_symmetry_space_group_name_H-M "P -4 B 2"
_symmetry_group_IT_number 117
_symmetry_cell_setting 'tetragonal'
loop_
_space_group_symop_operation_xyz
x,y,z
y,-x,-z
-x,-y,z
-y,x,-z
1/2+y,1/2+x,-z
1/2-y,1/2-x,-z
1/2-x,1/2+y,z
1/2+x,1/2-y,z
loop_
_atom_site_type_symbol
_atom_site_label
_atom_site_fract_x
_atom_site_fract_y
_atom_site_fract_z
Si Si1 0.417914 0.032383 0.170102
Si Si2 0.665938 0.391149 0.306666
Si Si3 0.177877 0.680060 0.183713
Si Si4 0.116339 0.951262 0.959226
Si Si5 0.249526 0.452038 0.202977
Si Si6 0.197885 0.811518 0.400370
O O1 0.382573 0.112183 0.252306
O O2 0.500000 0.000000 0.255189
O O3 0.343888 0.969395 0.163951
O O4 0.444873 0.055128 0.000000
O O5 0.729887 0.331553 0.229630
O O6 0.582283 0.380892 0.215107
O O7 0.702809 0.479651 0.295891
O O8 0.649902 0.368685 0.485630
O O9 0.150704 0.762974 0.264050
O O10 0.177058 0.677058 0.000000
O O11 0.201565 0.935862 0.044137
O O12 0.045964 0.903791 0.051733
O O13 0.247203 0.377080 0.317536
O O14 0.253825 0.753825 0.500000
#
# Coordination Sequence:
#
# PCOD8310312 Si02
#       6
#     8   8   8   8   8   8
#     4   9  19  39  58  87 117 147 199 255 302 350
#     4   9  19  35  54  82 119 155 188 243 303 349
#     4   9  17  34  60  79 110 156 202 246 298 353
#     4   9  18  34  58  90 119 148 194 243 295 362
#     4  10  20  37  60  83 117 155 197 244 296 365
#     4  10  21  37  52  83 120 153 203 245 295 361
#
# _framework density 20.033508000000001
#
# number of rings (size 3 to 8) (size 9 to 14) (size 15 to 20)
#    0.000    2.667    0.000    1.000    0.000    2.667 
#   18.000    0.000    0.000    0.000    0.000    0.000 
#    0.000    0.000    0.000    0.000    0.000    0.000 
#
# Total GULP energy -594763.419138 kJ/mol
# GULP energy per Si atom -12390.904565 kJ/mol
# Density = 1.998791 g / cm^3
# Si number density = 20.033508 Si / 1000 Ang^3
#
#
#
# Elastic Constant Matrix: (Units=GPa)
#
#
# Indices 1 2 3 4 5 6 
#
# 1 111.5768 42.3929 51.0081 0.0000 0.0000 0.0000
# 2 42.3929 111.5767 51.0081 0.0000 0.0000 0.0000
# 3 51.0081 51.0081 99.3189 0.0000 0.0000 0.0000
# 4 0.0000 0.0000 0.0000 23.2887 0.0000 0.0000
# 5 0.0000 0.0000 0.0000 0.0000 23.2887 0.0000
# 6 0.0000 0.0000 0.0000 0.0000 0.0000 23.7520
#
#
#
# Elastic Compliance Matrix: (Units=1/GPa)
#
#
# Indices 1 2 3 4 5 6 
#
# 1 0.012150 -0.002305 -0.005056 0.000000 0.000000 0.000000
# 2 -0.002305 0.012150 -0.005056 0.000000 0.000000 0.000000
# 3 -0.005056 -0.005056 0.015262 0.000000 0.000000 0.000000
# 4 0.000000 0.000000 0.000000 0.042939 0.000000 0.000000
# 5 0.000000 0.000000 0.000000 0.000000 0.042939 0.000000
# 6 0.000000 0.000000 0.000000 0.000000 0.000000 0.042102
#
#
# Mechanical properties :
#
#
# Convention : Reuss Voigt Hill
#
# Bulk Modulus (GPa) = 67.90133 67.92117 67.91125
# Shear Modulus (GPa) = 25.34415 25.93677 25.64046
#
# Velocity S-wave (km/s) = 3.56067 3.60205 3.58142
# Velocity P-wave (km/s) = 7.13246 7.16080 7.14664
#
# Compressibility (1/GPa) = 0.01472725
#
# Stress axis : x y z
#
# Youngs Moduli (GPa) = 82.30777 82.30762 65.52230
#
# Poissons Ratio (x) = 0.18970 0.33129
# Poissons Ratio (y) = 0.18970 0.33129
# Poissons Ratio (z) = 0.41616 0.41616
#
# Static dielectric constant tensor:
#      x y z
#    x 3.959580 0.000000 0.000000 
#    y 0.000000 3.959590 0.000000 
#    z 0.000000 0.000000 3.690740 
# 
# 
# High freq. dielectric constant tensor:
#      x y z
#    x 1.780260 0.000000 0.000000 
#    y 0.000000 1.780260 0.000000 
#    z 0.000000 0.000000 1.761800 
# 
# From -- ./inp_files/1963.got.cif
#   From: 2010.03.12/outbox.cif.g09.slc.cpg/sg117_1_cif.got.tgz:1963.got - 2010.04.14 02:19:01.
