data_PCOD8310658
_publ_section_title
;
Structure prediction by ZEFSAII (Michael W. Deem and Ramdas Pophale) SiO2 
 PCOD8310658
Probable space group: P -4 N 2
;
_chemical_formula_sum "Si O2"
_cell_formula_units_Z 20
_cell_length_a 8.249692
_cell_length_b 8.249692
_cell_length_c 12.248577
_cell_angle_alpha 90.000000
_cell_angle_beta 90.000000
_cell_angle_gamma 90.000000
_cell_volume 833.606526
_symmetry_space_group_name_H-M "P -4 N 2"
_symmetry_group_IT_number 118
_symmetry_cell_setting 'tetragonal'
loop_
_space_group_symop_operation_xyz
x,y,z
y,-x,-z
-x,-y,z
-y,x,-z
1/2+y,1/2+x,1/2-z
1/2-y,1/2-x,1/2-z
1/2-x,1/2+y,1/2+z
1/2+x,1/2-y,1/2+z
loop_
_atom_site_type_symbol
_atom_site_label
_atom_site_fract_x
_atom_site_fract_y
_atom_site_fract_z
Si Si1 0.212584 0.712584 0.750000
Si Si2 0.668628 0.086773 0.927881
Si Si3 0.702057 0.635390 0.657160
O O1 0.326708 0.753048 0.853758
O O2 0.257954 0.530221 0.719872
O O3 0.500000 0.000000 0.907086
O O4 0.825383 0.977188 0.890896
O O5 0.678017 0.140624 0.053540
O O6 0.730174 0.769827 0.750000
#
# Coordination Sequence:
#
# PCOD8310658 Si02
#       3
#     4   8   8
#     4  12  24  44  76 112 148 206 262 320 402 464
#     4  12  26  48  74 111 155 206 261 331 400 478
#     4  12  26  48  78 110 157 205 263 327 396 482
#
# _framework density 23.992134
#
# number of rings (size 3 to 8) (size 9 to 14) (size 15 to 20)
#    0.000    0.000    4.000    7.200    0.000    0.000 
#    0.000    0.000    0.000    0.000    0.000    0.000 
#    0.000    0.000    0.000    0.000    0.000    0.000 
#
# Total GULP energy -247845.694464 kJ/mol
# GULP energy per Si atom -12392.284723 kJ/mol
# Density = 2.393753 g / cm^3
# Si number density = 23.992134 Si / 1000 Ang^3
#
#
#
# Elastic Constant Matrix: (Units=GPa)
#
#
# Indices 1 2 3 4 5 6 
#
# 1 70.0475 9.5200 53.7685 0.0000 0.0000 0.0000
# 2 9.5200 70.0479 53.7681 0.0000 0.0000 0.0000
# 3 53.7685 53.7681 205.3778 0.0000 0.0000 0.0000
# 4 0.0000 0.0000 0.0000 44.0046 0.0000 0.0000
# 5 0.0000 0.0000 0.0000 0.0000 44.0046 0.0000
# 6 0.0000 0.0000 0.0000 0.0000 0.0000 30.0705
#
#
#
# Elastic Compliance Matrix: (Units=1/GPa)
#
#
# Indices 1 2 3 4 5 6 
#
# 1 0.017986 0.001464 -0.005092 0.000000 0.000000 0.000000
# 2 0.001464 0.017985 -0.005092 0.000000 0.000000 0.000000
# 3 -0.005092 -0.005092 0.007535 0.000000 0.000000 0.000000
# 4 0.000000 0.000000 0.000000 0.022725 0.000000 0.000000
# 5 0.000000 0.000000 0.000000 0.000000 0.022725 0.000000
# 6 0.000000 0.000000 0.000000 0.000000 0.000000 0.033255
#
#
# Mechanical properties :
#
#
# Convention : Reuss Voigt Hill
#
# Bulk Modulus (GPa) = 38.36288 64.39849 51.38068
# Shear Modulus (GPa) = 33.70637 38.84371 36.27504
#
# Velocity S-wave (km/s) = 3.75226 4.02807 3.89261
# Velocity P-wave (km/s) = 5.89890 6.96660 6.45487
#
# Compressibility (1/GPa) = 0.02606687
#
# Stress axis : x y z
#
# Youngs Moduli (GPa) = 55.59984 55.60039 132.70938
#
# Poissons Ratio (x) = -0.08141 0.67576
# Poissons Ratio (y) = -0.08141 0.67575
# Poissons Ratio (z) = 0.28312 0.28311
#
# Static dielectric constant tensor:
#      x y z
#    x 4.341330 0.000000 0.000000 
#    y 0.000000 4.341330 0.000000 
#    z 0.000000 0.000000 5.000040 
# 
# 
# High freq. dielectric constant tensor:
#      x y z
#    x 1.945900 0.000000 0.000000 
#    y 0.000000 1.945900 0.000000 
#    z 0.000000 0.000000 1.983560 
# 
# From -- ./inp_files/2476.got.cif
#   From: 2010.03.12/outbox.cif.g09.slc.cpg/sg118_2_cif.got.tgz:2476.got - 2010.04.14 02:21:17.
