data_PCOD8310274
_publ_section_title
;
Structure prediction by ZEFSAII (Michael W. Deem and Ramdas Pophale) SiO2 
 PCOD8310274
Probable space group: P -4 C 2
;
_chemical_formula_sum "Si O2"
_cell_formula_units_Z 22
_cell_length_a 8.425983
_cell_length_b 8.425983
_cell_length_c 12.126747
_cell_angle_alpha 90.000000
_cell_angle_beta 90.000000
_cell_angle_gamma 90.000000
_cell_volume 860.964955
_symmetry_space_group_name_H-M "P -4 C 2"
_symmetry_group_IT_number 116
_symmetry_cell_setting 'tetragonal'
loop_
_space_group_symop_operation_xyz
x,y,z
y,-x,-z
-x,-y,z
-y,x,-z
y,x,1/2-z
-y,-x,1/2-z
-x,y,1/2+z
x,-y,1/2+z
loop_
_atom_site_type_symbol
_atom_site_label
_atom_site_fract_x
_atom_site_fract_y
_atom_site_fract_z
Si Si1 0.500000 0.000000 0.813401
Si Si2 0.500000 0.500000 0.500000
Si Si3 0.931752 0.238444 0.835699
Si Si4 0.763904 0.725045 0.561948
O O1 0.396367 0.887899 0.733240
O O2 0.607861 0.896022 0.892882
O O3 0.592845 0.637139 0.568194
O O4 0.906260 0.093741 0.750000
O O5 0.116618 0.244304 0.866494
O O6 0.812906 0.222709 0.938592
#
# Coordination Sequence:
#
# PCOD8310274 Si02
#       4
#     4   2   8   8
#     4  12  26  46  72 112 152 200 266 332 402 468
#     4  12  24  48  74 104 156 202 244 328 402 456
#     4  12  27  49  77 111 155 208 266 328 397 470
#     4  12  27  48  77 113 155 206 267 332 394 480
#
# _framework density 25.552724000000001
#
# number of rings (size 3 to 8) (size 9 to 14) (size 15 to 20)
#    0.000    0.000    0.000   10.909    0.000    9.455 
#    0.000   11.818    0.000    0.000    0.000    0.000 
#    0.000    0.000    0.000    0.000    0.000    0.000 
#
# Total GULP energy -272794.686539 kJ/mol
# GULP energy per Si atom -12399.758479 kJ/mol
# Density = 2.549457 g / cm^3
# Si number density = 25.552724 Si / 1000 Ang^3
#
#
#
# Elastic Constant Matrix: (Units=GPa)
#
#
# Indices 1 2 3 4 5 6 
#
# 1 145.8497 66.2880 66.6314 0.0000 0.0000 0.0000
# 2 66.2880 145.8510 66.6316 0.0000 0.0000 0.0000
# 3 66.6314 66.6316 162.7287 0.0000 0.0000 0.0000
# 4 0.0000 0.0000 0.0000 20.7540 0.0000 0.0000
# 5 0.0000 0.0000 0.0000 0.0000 20.7531 0.0000
# 6 0.0000 0.0000 0.0000 0.0000 0.0000 50.2257
#
#
#
# Elastic Compliance Matrix: (Units=1/GPa)
#
#
# Indices 1 2 3 4 5 6 
#
# 1 0.009458 -0.003111 -0.002599 0.000000 0.000000 0.000000
# 2 -0.003111 0.009457 -0.002599 0.000000 0.000000 0.000000
# 3 -0.002599 -0.002599 0.008273 0.000000 0.000000 0.000000
# 4 0.000000 0.000000 0.000000 0.048184 0.000000 0.000000
# 5 0.000000 0.000000 0.000000 0.000000 0.048185 0.000000
# 6 0.000000 0.000000 0.000000 0.000000 0.000000 0.019910
#
#
# Mechanical properties :
#
#
# Convention : Reuss Voigt Hill
#
# Bulk Modulus (GPa) = 94.59366 94.83680 94.71523
# Shear Modulus (GPa) = 30.56084 35.33846 32.94965
#
# Velocity S-wave (km/s) = 3.46206 3.72285 3.59482
# Velocity P-wave (km/s) = 7.28564 7.46152 7.37410
#
# Compressibility (1/GPa) = 0.01057153
#
# Stress axis : x y z
#
# Youngs Moduli (GPa) = 105.73532 105.73628 120.87151
#
# Poissons Ratio (x) = 0.32897 0.31410
# Poissons Ratio (y) = 0.32897 0.31409
# Poissons Ratio (z) = 0.27476 0.27476
#
# Static dielectric constant tensor:
#      x y z
#    x 4.852860 0.000000 0.000000 
#    y 0.000000 4.852860 0.000000 
#    z 0.000000 0.000000 4.910240 
# 
# 
# High freq. dielectric constant tensor:
#      x y z
#    x 2.033710 0.000000 0.000000 
#    y 0.000000 2.033710 0.000000 
#    z 0.000000 0.000000 2.029030 
# 
# From -- ./inp_files/2313.got.cif
#   From: 2010.03.12/outbox.cif.g09.slc.cpg/sg116_2_cif.got.tgz:2313.got - 2010.04.14 02:15:44.
