data_PCOD8310354
_publ_section_title
;
Structure prediction by ZEFSAII (Michael W. Deem and Ramdas Pophale) SiO2 
 PCOD8310354
Probable space group: P -4 B 2
;
_chemical_formula_sum "Si O2"
_cell_formula_units_Z 36
_cell_length_a 12.738624
_cell_length_b 12.738624
_cell_length_c 11.766167
_cell_angle_alpha 90.000000
_cell_angle_beta 90.000000
_cell_angle_gamma 90.000000
_cell_volume 1909.325822
_symmetry_space_group_name_H-M "P -4 B 2"
_symmetry_group_IT_number 117
_symmetry_cell_setting 'tetragonal'
loop_
_space_group_symop_operation_xyz
x,y,z
y,-x,-z
-x,-y,z
-y,x,-z
1/2+y,1/2+x,-z
1/2-y,1/2-x,-z
1/2-x,1/2+y,z
1/2+x,1/2-y,z
loop_
_atom_site_type_symbol
_atom_site_label
_atom_site_fract_x
_atom_site_fract_y
_atom_site_fract_z
Si Si1 0.765617 0.715522 0.712608
Si Si2 0.822609 0.322609 0.500000
Si Si3 0.628051 0.613849 0.884267
Si Si4 0.117192 0.466242 0.608071
Si Si5 0.881624 0.880336 0.860828
O O1 0.700690 0.737463 0.597442
O O2 0.680039 0.703126 0.809410
O O3 0.828164 0.604723 0.703715
O O4 0.841054 0.808863 0.756379
O O5 0.813678 0.434207 0.565963
O O6 0.667305 0.497034 0.849452
O O7 0.506071 0.616667 0.857534
O O8 0.660076 0.645561 0.012588
O O9 0.109468 0.390533 0.500000
O O10 0.000000 0.500000 0.648994
#
# Coordination Sequence:
#
# PCOD8310354 Si02
#       5
#     8   4   8   8   8
#     4  12  20  34  62  83 106 153 194 225 275 353
#     4  10  23  34  53  84 114 142 196 220 279 332
#     4   9  20  37  57  81 116 140 185 240 282 331
#     4   9  21  39  51  75 120 150 174 232 282 318
#     4   9  20  38  56  82 111 149 181 233 292 332
#
# _framework density 18.854823
#
# number of rings (size 3 to 8) (size 9 to 14) (size 15 to 20)
#    0.000    2.444    1.111    3.333    6.222    0.000 
#    0.000    0.000    0.000    4.000    0.000    0.000 
#    0.000    0.000    0.000    0.000    0.000    0.000 
#
# Total GULP energy -445987.799677 kJ/mol
# GULP energy per Si atom -12388.549991 kJ/mol
# Density = 1.881191 g / cm^3
# Si number density = 18.854823 Si / 1000 Ang^3
#
#
#
# Elastic Constant Matrix: (Units=GPa)
#
#
# Indices 1 2 3 4 5 6 
#
# 1 61.5463 41.1296 41.2241 0.0000 0.0000 0.0000
# 2 41.1296 61.5466 41.2241 0.0000 0.0000 0.0000
# 3 41.2241 41.2241 90.7366 0.0000 0.0000 0.0000
# 4 0.0000 0.0000 0.0000 30.8300 0.0000 0.0000
# 5 0.0000 0.0000 0.0000 0.0000 30.8302 0.0000
# 6 0.0000 0.0000 0.0000 0.0000 0.0000 31.6720
#
#
#
# Elastic Compliance Matrix: (Units=1/GPa)
#
#
# Indices 1 2 3 4 5 6 
#
# 1 0.032156 -0.016823 -0.006966 0.000000 0.000000 0.000000
# 2 -0.016823 0.032156 -0.006966 0.000000 0.000000 0.000000
# 3 -0.006966 -0.006966 0.017351 0.000000 0.000000 0.000000
# 4 0.000000 0.000000 0.000000 0.032436 0.000000 0.000000
# 5 0.000000 0.000000 0.000000 0.000000 0.032436 0.000000
# 6 0.000000 0.000000 0.000000 0.000000 0.000000 0.031574
#
#
# Mechanical properties :
#
#
# Convention : Reuss Voigt Hill
#
# Bulk Modulus (GPa) = 49.62247 51.22055 50.42151
# Shear Modulus (GPa) = 20.29736 24.68322 22.49029
#
# Velocity S-wave (km/s) = 3.28458 3.62210 3.45746
# Velocity P-wave (km/s) = 6.38435 6.68712 6.53749
#
# Compressibility (1/GPa) = 0.02015216
#
# Stress axis : x y z
#
# Youngs Moduli (GPa) = 31.09798 31.09822 57.63392
#
# Poissons Ratio (x) = 0.52317 0.40150
# Poissons Ratio (y) = 0.52316 0.40149
# Poissons Ratio (z) = 0.21664 0.21664
#
# Static dielectric constant tensor:
#      x y z
#    x 3.500540 0.000000 0.000000 
#    y 0.000000 3.500530 0.000000 
#    z 0.000000 0.000000 3.434990 
# 
# 
# High freq. dielectric constant tensor:
#      x y z
#    x 1.725740 0.000000 0.000000 
#    y 0.000000 1.725740 0.000000 
#    z 0.000000 0.000000 1.730580 
# 
# From -- ./inp_files/2552.got.cif
#   From: 2010.03.12/outbox.cif.g09.slc.cpg/sg117_2_cif.got.tgz:2552.got - 2010.04.14 02:19:01.
