data_PCOD8310177
_publ_section_title
;
Structure prediction by ZEFSAII (Michael W. Deem and Ramdas Pophale) SiO2 
 PCOD8310177
Probable space group: P -4 C 2
;
_chemical_formula_sum "Si O2"
_cell_formula_units_Z 26
_cell_length_a 10.189902
_cell_length_b 10.189902
_cell_length_c 9.863555
_cell_angle_alpha 90.000000
_cell_angle_beta 90.000000
_cell_angle_gamma 90.000000
_cell_volume 1024.173384
_symmetry_space_group_name_H-M "P -4 C 2"
_symmetry_group_IT_number 116
_symmetry_cell_setting 'tetragonal'
loop_
_space_group_symop_operation_xyz
x,y,z
y,-x,-z
-x,-y,z
-y,x,-z
y,x,1/2-z
-y,-x,1/2-z
-x,y,1/2+z
x,-y,1/2+z
loop_
_atom_site_type_symbol
_atom_site_label
_atom_site_fract_x
_atom_site_fract_y
_atom_site_fract_z
Si Si1 0.102357 0.261299 0.581290
Si Si2 0.359782 0.822696 0.955676
Si Si3 0.552420 0.752239 0.730657
Si Si4 0.000000 0.000000 0.000000
O O1 0.222450 0.255476 0.472778
O O2 0.152174 0.328580 0.719249
O O3 0.979466 0.346272 0.529362
O O4 0.053271 0.111981 0.602398
O O5 0.418355 0.778733 0.811057
O O6 0.465546 0.781402 0.071073
O O7 0.601592 0.601592 0.750000
#
# Coordination Sequence:
#
# PCOD8310177 Si02
#       4
#     8   8   8   2
#     4   9  19  37  64  97 133 173 219 279 353 415
#     4  10  21  41  67  96 133 173 222 281 344 414
#     4  10  22  41  66  96 130 175 227 277 334 407
#     4   8  16  36  58  96 140 170 210 284 360 422
#
# _framework density 25.386326
#
# number of rings (size 3 to 8) (size 9 to 14) (size 15 to 20)
#    0.000    2.462    0.000    0.923    0.000    4.923 
#    0.000   48.462    0.000   44.308    0.000    0.000 
#    0.000    0.000    0.000    0.000    0.000    0.000 
#
# Total GULP energy -322207.717256 kJ/mol
# GULP energy per Si atom -12392.604510 kJ/mol
# Density = 2.532855 g / cm^3
# Si number density = 25.386326 Si / 1000 Ang^3
#
#
#
# Elastic Constant Matrix: (Units=GPa)
#
#
# Indices 1 2 3 4 5 6 
#
# 1 97.5410 51.1614 23.1551 0.0000 0.0000 0.0000
# 2 51.1614 97.5410 23.1551 0.0000 0.0000 0.0000
# 3 23.1551 23.1551 78.2424 0.0000 0.0000 0.0000
# 4 0.0000 0.0000 0.0000 31.4834 0.0000 0.0000
# 5 0.0000 0.0000 0.0000 0.0000 31.4834 0.0000
# 6 0.0000 0.0000 0.0000 0.0000 0.0000 28.3329
#
#
#
# Elastic Compliance Matrix: (Units=1/GPa)
#
#
# Indices 1 2 3 4 5 6 
#
# 1 0.014484 -0.007077 -0.002192 0.000000 0.000000 0.000000
# 2 -0.007077 0.014484 -0.002192 0.000000 0.000000 0.000000
# 3 -0.002192 -0.002192 0.014078 0.000000 0.000000 0.000000
# 4 0.000000 0.000000 0.000000 0.031763 0.000000 0.000000
# 5 0.000000 0.000000 0.000000 0.000000 0.031763 0.000000
# 6 0.000000 0.000000 0.000000 0.000000 0.000000 0.035295
#
#
# Mechanical properties :
#
#
# Convention : Reuss Voigt Hill
#
# Bulk Modulus (GPa) = 49.69033 52.02974 50.86003
# Shear Modulus (GPa) = 29.15485 29.98344 29.56915
#
# Velocity S-wave (km/s) = 3.39255 3.44042 3.41657
# Velocity P-wave (km/s) = 5.91287 6.02675 5.97008
#
# Compressibility (1/GPa) = 0.02012464
#
# Stress axis : x y z
#
# Youngs Moduli (GPa) = 69.03985 69.03985 71.03120
#
# Poissons Ratio (x) = 0.48858 0.15571
# Poissons Ratio (y) = 0.48858 0.15571
# Poissons Ratio (z) = 0.15135 0.15135
#
# Static dielectric constant tensor:
#      x y z
#    x 4.666000 0.000000 0.000000 
#    y 0.000000 4.666000 0.000000 
#    z 0.000000 0.000000 4.045470 
# 
# 
# High freq. dielectric constant tensor:
#      x y z
#    x 2.020150 0.000000 0.000000 
#    y 0.000000 2.020150 0.000000 
#    z 0.000000 0.000000 1.980280 
# 
# From -- ./inp_files/515.got.cif
#   From: 2010.03.12/outbox.cif.g09.slc.cpg/sg116_1_cif.got.tgz:515.got - 2010.04.14 02:15:44.
