data_PCOD8310548
_publ_section_title
;
Structure prediction by ZEFSAII (Michael W. Deem and Ramdas Pophale) SiO2 
 PCOD8310548
Probable space group: P -4 N 2
;
_chemical_formula_sum "Si O2"
_cell_formula_units_Z 40
_cell_length_a 11.152601
_cell_length_b 11.152601
_cell_length_c 14.306063
_cell_angle_alpha 90.000000
_cell_angle_beta 90.000000
_cell_angle_gamma 90.000000
_cell_volume 1779.395399
_symmetry_space_group_name_H-M "P -4 N 2"
_symmetry_group_IT_number 118
_symmetry_cell_setting 'tetragonal'
loop_
_space_group_symop_operation_xyz
x,y,z
y,-x,-z
-x,-y,z
-y,x,-z
1/2+y,1/2+x,1/2-z
1/2-y,1/2-x,1/2-z
1/2-x,1/2+y,1/2+z
1/2+x,1/2-y,1/2+z
loop_
_atom_site_type_symbol
_atom_site_label
_atom_site_fract_x
_atom_site_fract_y
_atom_site_fract_z
Si Si1 0.200401 0.442057 0.672966
Si Si2 0.773944 0.401035 0.107903
Si Si3 0.196358 0.800192 0.838337
Si Si4 0.791863 0.934348 0.812985
Si Si5 0.134704 0.287140 0.510119
O O1 0.106074 0.393927 0.750000
O O2 0.210751 0.584931 0.675060
O O3 0.332963 0.392354 0.692867
O O4 0.155751 0.407461 0.569497
O O5 0.889822 0.313397 0.116642
O O6 0.755646 0.459383 0.208833
O O7 0.795855 0.502139 0.030913
O O8 0.654266 0.325708 0.080114
O O9 0.283934 0.783934 0.750000
O O10 0.266152 0.765037 0.931335
O O11 0.156579 0.939409 0.849147
#
# Coordination Sequence:
#
# PCOD8310548 Si02
#       5
#     8   8   8   8   8
#     4  11  25  48  69  96 145 188 228 287 361 424
#     4  10  22  44  72 103 137 176 236 292 352 416
#     4  12  27  44  67 105 138 181 239 288 349 427
#     4  10  21  49  71  97 137 185 232 292 350 418
#     4  11  25  44  69 105 136 184 237 287 355 424
#
# _framework density 22.479545999999999
#
# number of rings (size 3 to 8) (size 9 to 14) (size 15 to 20)
#    0.000    1.200    6.000    0.600    8.400    1.600 
#    3.600    0.000    0.000    0.000    0.000    0.000 
#    0.000    0.000    0.000    0.000    0.000    0.000 
#
# Total GULP energy -495960.991485 kJ/mol
# GULP energy per Si atom -12399.024787 kJ/mol
# Density = 2.242838 g / cm^3
# Si number density = 22.479546 Si / 1000 Ang^3
#
#
#
# Elastic Constant Matrix: (Units=GPa)
#
#
# Indices 1 2 3 4 5 6 
#
# 1 101.7983 20.5663 38.7927 0.0000 0.0000 0.0000
# 2 20.5663 101.7982 38.7923 0.0000 0.0000 0.0000
# 3 38.7927 38.7923 111.6564 0.0000 0.0000 0.0000
# 4 0.0000 0.0000 0.0000 36.3906 0.0000 0.0000
# 5 0.0000 0.0000 0.0000 0.0000 36.3902 0.0000
# 6 0.0000 0.0000 0.0000 0.0000 0.0000 22.1682
#
#
#
# Elastic Compliance Matrix: (Units=1/GPa)
#
#
# Indices 1 2 3 4 5 6 
#
# 1 0.011396 -0.000915 -0.003641 0.000000 0.000000 0.000000
# 2 -0.000915 0.011396 -0.003641 0.000000 0.000000 0.000000
# 3 -0.003641 -0.003641 0.011486 0.000000 0.000000 0.000000
# 4 0.000000 0.000000 0.000000 0.027480 0.000000 0.000000
# 5 0.000000 0.000000 0.000000 0.000000 0.027480 0.000000
# 6 0.000000 0.000000 0.000000 0.000000 0.000000 0.045110
#
#
# Mechanical properties :
#
#
# Convention : Reuss Voigt Hill
#
# Bulk Modulus (GPa) = 55.91946 56.83949 56.37948
# Shear Modulus (GPa) = 31.90746 33.46323 32.68535
#
# Velocity S-wave (km/s) = 3.77158 3.86243 3.81728
# Velocity P-wave (km/s) = 6.62541 6.72540 6.67560
#
# Compressibility (1/GPa) = 0.01788286
#
# Stress axis : x y z
#
# Youngs Moduli (GPa) = 87.75161 87.75178 87.06008
#
# Poissons Ratio (x) = 0.08026 0.31703
# Poissons Ratio (y) = 0.08026 0.31702
# Poissons Ratio (z) = 0.31954 0.31954
#
# Static dielectric constant tensor:
#      x y z
#    x 3.851630 0.000000 0.000000 
#    y 0.000000 3.851630 0.000000 
#    z 0.000000 0.000000 4.203330 
# 
# 
# High freq. dielectric constant tensor:
#      x y z
#    x 1.877210 0.000000 0.000000 
#    y 0.000000 1.877210 0.000000 
#    z 0.000000 0.000000 1.900900 
# 
# From -- ./inp_files/4060.got.cif
#   From: 2010.03.12/outbox.cif.g09.slc.cpg/sg118_3_cif.got.tgz:4060.got - 2010.04.14 02:21:17.
