data_PCOD8310834
_publ_section_title
;
Structure prediction by ZEFSAII (Michael W. Deem and Ramdas Pophale) SiO2 
 PCOD8310834
Probable space group: I -4 M 2
;
_chemical_formula_sum "Si O2"
_cell_formula_units_Z 96
_cell_length_a 19.130991
_cell_length_b 19.130991
_cell_length_c 12.830816
_cell_angle_alpha 90.000000
_cell_angle_beta 90.000000
_cell_angle_gamma 90.000000
_cell_volume 4696.012149
_symmetry_space_group_name_H-M "I -4 M 2"
_symmetry_group_IT_number 119
_symmetry_cell_setting 'tetragonal'
loop_
_space_group_symop_operation_xyz
x,y,z
y,-x,-z
-x,-y,z
-y,x,-z
y,x,-z
-y,-x,-z
-x,y,z
x,-y,z
1/2+x,1/2+y,1/2+z
1/2+y,1/2-x,1/2-z
1/2-x,1/2-y,1/2+z
1/2-y,1/2+x,1/2-z
1/2+y,1/2+x,1/2-z
1/2-y,1/2-x,1/2-z
1/2-x,1/2+y,1/2+z
1/2+x,1/2-y,1/2+z
loop_
_atom_site_type_symbol
_atom_site_label
_atom_site_fract_x
_atom_site_fract_y
_atom_site_fract_z
Si Si1 0.777995 0.419040 0.043690
Si Si2 0.186556 0.918028 0.960114
Si Si3 0.417541 0.319359 0.776735
Si Si4 0.078706 0.421690 0.542492
Si Si5 0.916539 0.201778 0.661146
Si Si6 0.216728 0.580441 0.641803
O O1 0.762724 0.500000 0.033186
O O2 0.746619 0.393029 0.152989
O O3 0.861878 0.405409 0.043259
O O4 0.737183 0.385911 0.944300
O O5 0.200943 0.896160 0.840768
O O6 0.177007 0.000000 0.968635
O O7 0.114353 0.885648 0.000000
O O8 0.249174 0.889483 0.034440
O O9 0.500000 0.336240 0.786251
O O10 0.375927 0.386675 0.819958
O O11 0.088740 0.500000 0.493565
O O12 0.132710 0.409885 0.637411
O O13 0.000000 0.412953 0.587577
O O14 0.886184 0.251491 0.753738
O O15 0.000000 0.195931 0.660140
O O16 0.237564 0.500000 0.646245
#
# Coordination Sequence:
#
# PCOD8310834 Si02
#       6
#    16  16  16  16  16  16
#     4   9  19  35  54  79 111 148 186 231 289 340
#     4  10  19  33  53  78 110 148 189 236 286 337
#     4  10  20  34  55  79 111 156 198 232 274 333
#     4   9  18  36  63  88 110 142 190 243 294 358
#     4  10  19  33  54  79 115 155 188 230 280 333
#     4   9  18  33  54  81 112 143 177 228 293 342
#
# _framework density 20.442878
#
# number of rings (size 3 to 8) (size 9 to 14) (size 15 to 20)
#    0.000    2.500    1.667    0.500    0.000    1.167 
#    0.000    6.667    3.667   13.000    0.000    9.333 
#    0.000    0.000    0.000    0.000    0.000    0.000 
#
# Total GULP energy -594725.590519 kJ/mol
# GULP energy per Si atom -12390.116469 kJ/mol
# Density = 2.039635 g / cm^3
# Si number density = 20.442878 Si / 1000 Ang^3
#
#
#
# Elastic Constant Matrix: (Units=GPa)
#
#
# Indices 1 2 3 4 5 6 
#
# 1 79.6952 40.0099 49.8048 0.0000 0.0000 0.0000
# 2 40.0099 79.6894 49.8045 0.0000 0.0000 0.0000
# 3 49.8048 49.8045 164.4976 0.0000 0.0000 0.0000
# 4 0.0000 0.0000 0.0000 19.8634 0.0000 0.0000
# 5 0.0000 0.0000 0.0000 0.0000 19.8637 0.0000
# 6 0.0000 0.0000 0.0000 0.0000 0.0000 11.7237
#
#
#
# Elastic Compliance Matrix: (Units=1/GPa)
#
#
# Indices 1 2 3 4 5 6 
#
# 1 0.018183 -0.007016 -0.003381 0.000000 0.000000 0.000000
# 2 -0.007016 0.018185 -0.003381 0.000000 0.000000 0.000000
# 3 -0.003381 -0.003381 0.008127 0.000000 0.000000 0.000000
# 4 0.000000 0.000000 0.000000 0.050344 0.000000 0.000000
# 5 0.000000 0.000000 0.000000 0.000000 0.050343 0.000000
# 6 0.000000 0.000000 0.000000 0.000000 0.000000 0.085297
#
#
# Mechanical properties :
#
#
# Convention : Reuss Voigt Hill
#
# Bulk Modulus (GPa) = 59.04195 67.01338 63.02766
# Shear Modulus (GPa) = 18.96226 22.57435 20.76830
#
# Velocity S-wave (km/s) = 3.04891 3.32665 3.19081
# Velocity P-wave (km/s) = 6.42951 6.89982 6.66881
#
# Compressibility (1/GPa) = 0.01693711
#
# Stress axis : x y z
#
# Youngs Moduli (GPa) = 54.99610 54.99127 123.05302
#
# Poissons Ratio (x) = 0.38583 0.41604
# Poissons Ratio (y) = 0.38586 0.41610
# Poissons Ratio (z) = 0.18594 0.18595
#
# Static dielectric constant tensor:
#      x y z
#    x 3.626960 0.000000 0.000000 
#    y 0.000000 3.626960 0.000000 
#    z 0.000000 0.000000 4.018750 
# 
# 
# High freq. dielectric constant tensor:
#      x y z
#    x 1.787030 0.000000 0.000000 
#    y 0.000000 1.787030 0.000000 
#    z 0.000000 0.000000 1.792110 
# 
# From -- ./inp_files/4197.got.cif
#   From: 2010.03.12/outbox.cif.g09.slc.cpg/sg119_3_cif.got.tgz:4197.got - 2010.04.14 02:25:26.
