data_PCOD8310603
_publ_section_title
;
Structure prediction by ZEFSAII (Michael W. Deem and Ramdas Pophale) SiO2 
 PCOD8310603
Probable space group: P -4 N 2
;
_chemical_formula_sum "Si O2"
_cell_formula_units_Z 48
_cell_length_a 19.918157
_cell_length_b 19.918157
_cell_length_c 6.089833
_cell_angle_alpha 90.000000
_cell_angle_beta 90.000000
_cell_angle_gamma 90.000000
_cell_volume 2416.037583
_symmetry_space_group_name_H-M "P -4 N 2"
_symmetry_group_IT_number 118
_symmetry_cell_setting 'tetragonal'
loop_
_space_group_symop_operation_xyz
x,y,z
y,-x,-z
-x,-y,z
-y,x,-z
1/2+y,1/2+x,1/2-z
1/2-y,1/2-x,1/2-z
1/2-x,1/2+y,1/2+z
1/2+x,1/2-y,1/2+z
loop_
_atom_site_type_symbol
_atom_site_label
_atom_site_fract_x
_atom_site_fract_y
_atom_site_fract_z
Si Si1 0.971113 0.125659 0.768698
Si Si2 0.385763 0.026416 0.593608
Si Si3 0.500000 0.500000 0.000000
Si Si4 0.014888 0.252981 0.526557
Si Si5 0.117727 0.382274 0.250000
Si Si6 0.720384 0.132024 0.139362
Si Si7 0.500000 0.000000 0.250000
Si Si8 0.429490 0.670028 0.627057
O O1 0.974470 0.191841 0.625653
O O2 0.892875 0.108724 0.773169
O O3 0.011461 0.065078 0.652442
O O4 0.004602 0.140676 0.004361
O O5 0.415349 0.084652 0.750000
O O6 0.310523 0.043003 0.507631
O O7 0.434660 0.003685 0.399905
O O8 0.369397 0.961004 0.732857
O O9 0.071038 0.285333 0.685619
O O10 0.049973 0.225914 0.304261
O O11 0.160984 0.365913 0.462432
O O12 0.705498 0.205498 0.250000
O O13 0.794234 0.124323 0.034956
#
# Coordination Sequence:
#
# PCOD8310603 Si02
#       8
#     8   8   2   8   4   8   2   8
#     4  11  24  39  67  99 128 160 212 278 336 393
#     4  12  23  35  59  95 128 164 210 271 318 384
#     4  12  20  42  72 104 118 160 224 278 348 408
#     4  11  24  40  63  94 133 169 210 268 334 390
#     4  12  19  38  60  97 124 157 228 272 319 368
#     4  11  21  36  66  92 127 170 218 272 315 387
#     4  12  22  36  64  92 128 162 222 272 324 370
#     4  11  23  41  64  95 130 165 212 273 330 391
#
# _framework density 19.867241
#
# number of rings (size 3 to 8) (size 9 to 14) (size 15 to 20)
#    0.000    0.667    6.667    2.000    0.000    0.000 
#    0.000    0.000    0.000   15.000    0.000    0.000 
#    0.000    0.000    0.000    0.000    0.000    0.000 
#
# Total GULP energy -594660.305512 kJ/mol
# GULP energy per Si atom -12388.756365 kJ/mol
# Density = 1.982202 g / cm^3
# Si number density = 19.867241 Si / 1000 Ang^3
#
#
#
# Elastic Constant Matrix: (Units=GPa)
#
#
# Indices 1 2 3 4 5 6 
#
# 1 120.5928 47.1687 47.9889 0.0000 0.0000 0.0000
# 2 47.1687 120.5922 47.9892 0.0000 0.0000 0.0000
# 3 47.9889 47.9892 107.2427 0.0000 0.0000 0.0000
# 4 0.0000 0.0000 0.0000 34.4753 0.0000 0.0000
# 5 0.0000 0.0000 0.0000 0.0000 34.4752 0.0000
# 6 0.0000 0.0000 0.0000 0.0000 0.0000 33.5436
#
#
#
# Elastic Compliance Matrix: (Units=1/GPa)
#
#
# Indices 1 2 3 4 5 6 
#
# 1 0.010816 -0.002804 -0.003585 0.000000 0.000000 0.000000
# 2 -0.002804 0.010816 -0.003585 0.000000 0.000000 0.000000
# 3 -0.003585 -0.003585 0.012533 0.000000 0.000000 0.000000
# 4 0.000000 0.000000 0.000000 0.029006 0.000000 0.000000
# 5 0.000000 0.000000 0.000000 0.000000 0.029006 0.000000
# 6 0.000000 0.000000 0.000000 0.000000 0.000000 0.029812
#
#
# Mechanical properties :
#
#
# Convention : Reuss Voigt Hill
#
# Bulk Modulus (GPa) = 70.34125 70.52458 70.43292
# Shear Modulus (GPa) = 34.08860 34.18422 34.13641
#
# Velocity S-wave (km/s) = 4.14674 4.15255 4.14965
# Velocity P-wave (km/s) = 7.64263 7.65288 7.64776
#
# Compressibility (1/GPa) = 0.01421641
#
# Stress axis : x y z
#
# Youngs Moduli (GPa) = 92.45792 92.45713 79.78766
#
# Poissons Ratio (x) = 0.25923 0.28605
# Poissons Ratio (y) = 0.25923 0.28606
# Poissons Ratio (z) = 0.33148 0.33148
#
# Static dielectric constant tensor:
#      x y z
#    x 3.315280 0.000000 0.000000 
#    y 0.000000 3.315360 0.000000 
#    z 0.000000 0.000000 3.958680 
# 
# 
# High freq. dielectric constant tensor:
#      x y z
#    x 1.764730 0.000000 0.000000 
#    y 0.000000 1.764730 0.000000 
#    z 0.000000 0.000000 1.795840 
# 
# From -- ./inp_files/858.got.cif
#   From: 2010.03.12/outbox.cif.g09.slc.cpg/sg118_1_cif.got.tgz:858.got - 2010.04.14 02:21:17.
