data_PCOD8310016
_publ_section_title
;
Structure prediction by ZEFSAII (Michael W. Deem and Ramdas Pophale) SiO2 
 PCOD8310016
Probable space group: P -4 M 2
;
_chemical_formula_sum "Si O2"
_cell_formula_units_Z 48
_cell_length_a 9.199090
_cell_length_b 9.199090
_cell_length_c 30.336433
_cell_angle_alpha 90.000000
_cell_angle_beta 90.000000
_cell_angle_gamma 90.000000
_cell_volume 2567.167761
_symmetry_space_group_name_H-M "P -4 M 2"
_symmetry_group_IT_number 115
_symmetry_cell_setting 'tetragonal'
loop_
_space_group_symop_operation_xyz
x,y,z
y,-x,-z
-x,-y,z
-y,x,-z
y,x,-z
-y,-x,-z
-x,y,z
x,-y,z
loop_
_atom_site_type_symbol
_atom_site_label
_atom_site_fract_x
_atom_site_fract_y
_atom_site_fract_z
Si Si1 0.669800 0.329796 0.124558
Si Si2 0.166995 0.833097 0.948802
Si Si3 0.330484 0.331999 0.278939
Si Si4 0.829877 0.170160 0.796559
Si Si5 0.838239 0.827810 0.548369
Si Si6 0.661249 0.329130 0.378883
O O1 0.500000 0.295484 0.128505
O O2 0.701627 0.500000 0.128055
O O3 0.727325 0.272155 0.077893
O O4 0.752743 0.249429 0.163342
O O5 0.000000 0.798694 0.936780
O O6 0.202120 0.000000 0.936788
O O7 0.196211 0.803790 0.000000
O O8 0.500000 0.304585 0.268951
O O9 0.292328 0.500000 0.269407
O O10 0.232471 0.229139 0.249187
O O11 0.292383 0.289565 0.329154
O O12 0.000000 0.202876 0.799899
O O13 0.796353 0.000000 0.798698
O O14 0.779321 0.779321 0.500000
O O15 0.735413 0.773206 0.586751
O O16 0.000000 0.765356 0.556216
O O17 0.841594 0.000000 0.549724
O O18 0.500000 0.267586 0.388410
O O19 0.661299 0.500000 0.384751
#
# Coordination Sequence:
#
# PCOD8310016 Si02
#       6
#     8   8   8   8   8   8
#     4  11  24  39  56  81 112 145 182 224 268 315
#     4   9  19  37  60  85 113 145 182 224 268 315
#     4   9  19  37  58  79 106 139 174 213 260 315
#     4  11  24  39  56  81 110 139 176 221 266 315
#     4   9  19  35  52  72 102 139 177 218 263 310
#     4   9  19  35  54  78 107 137 171 214 262 312
#
# _framework density 18.697648999999998
#
# number of rings (size 3 to 8) (size 9 to 14) (size 15 to 20)
#    0.000    2.333    0.000    4.000    0.000   10.667 
#    0.000   10.000    0.000    0.000    0.000    0.000 
#    0.000    0.000    0.000    0.000    0.000    0.000 
#
# Total GULP energy -595250.255356 kJ/mol
# GULP energy per Si atom -12401.046987 kJ/mol
# Density = 1.865509 g / cm^3
# Si number density = 18.697649 Si / 1000 Ang^3
#
#
#
# Elastic Constant Matrix: (Units=GPa)
#
#
# Indices 1 2 3 4 5 6 
#
# 1 91.3451 68.3208 71.7383 0.0000 0.0000 0.0000
# 2 68.3208 91.3451 71.7383 0.0000 0.0000 0.0000
# 3 71.7383 71.7383 134.3867 0.0000 0.0000 0.0000
# 4 0.0000 0.0000 0.0000 35.7982 0.0000 0.0000
# 5 0.0000 0.0000 0.0000 0.0000 35.7981 0.0000
# 6 0.0000 0.0000 0.0000 0.0000 0.0000 34.6964
#
#
#
# Elastic Compliance Matrix: (Units=1/GPa)
#
#
# Indices 1 2 3 4 5 6 
#
# 1 0.027735 -0.015698 -0.006426 0.000000 0.000000 0.000000
# 2 -0.015698 0.027735 -0.006426 0.000000 0.000000 0.000000
# 3 -0.006426 -0.006426 0.014302 0.000000 0.000000 0.000000
# 4 0.000000 0.000000 0.000000 0.027934 0.000000 0.000000
# 5 0.000000 0.000000 0.000000 0.000000 0.027934 0.000000
# 6 0.000000 0.000000 0.000000 0.000000 0.000000 0.028821
#
#
# Mechanical properties :
#
#
# Convention : Reuss Voigt Hill
#
# Bulk Modulus (GPa) = 78.90674 82.29685 80.60179
# Shear Modulus (GPa) = 23.17130 28.27716 25.72423
#
# Velocity S-wave (km/s) = 3.52414 3.89310 3.71320
# Velocity P-wave (km/s) = 7.67153 8.01987 7.84764
#
# Compressibility (1/GPa) = 0.01267319
#
# Stress axis : x y z
#
# Youngs Moduli (GPa) = 36.05568 36.05571 69.92236
#
# Poissons Ratio (x) = 0.56599 0.44930
# Poissons Ratio (y) = 0.56599 0.44930
# Poissons Ratio (z) = 0.23168 0.23168
#
# Static dielectric constant tensor:
#      x y z
#    x 3.427870 0.000000 0.000000 
#    y 0.000000 3.427870 0.000000 
#    z 0.000000 0.000000 3.559200 
# 
# 
# High freq. dielectric constant tensor:
#      x y z
#    x 1.723960 0.000000 0.000000 
#    y 0.000000 1.723960 0.000000 
#    z 0.000000 0.000000 1.740640 
# 
# From -- ./inp_files/5992.got.cif
#   From: 2010.03.12/outbox.cif.g09.slc.cpg/sg115_3_cif.got.tgz:5992.got - 2010.04.14 02:11:21.
