data_PCOD8310239
_publ_section_title
;
Structure prediction by ZEFSAII (Michael W. Deem and Ramdas Pophale) SiO2 
 PCOD8310239
Probable space group: P -4 C 2
;
_chemical_formula_sum "Si O2"
_cell_formula_units_Z 38
_cell_length_a 11.837405
_cell_length_b 11.837405
_cell_length_c 13.380829
_cell_angle_alpha 90.000000
_cell_angle_beta 90.000000
_cell_angle_gamma 90.000000
_cell_volume 1874.977385
_symmetry_space_group_name_H-M "P -4 C 2"
_symmetry_group_IT_number 116
_symmetry_cell_setting 'tetragonal'
loop_
_space_group_symop_operation_xyz
x,y,z
y,-x,-z
-x,-y,z
-y,x,-z
y,x,1/2-z
-y,-x,1/2-z
-x,y,1/2+z
x,-y,1/2+z
loop_
_atom_site_type_symbol
_atom_site_label
_atom_site_fract_x
_atom_site_fract_y
_atom_site_fract_z
Si Si1 0.062070 0.324285 0.452354
Si Si2 0.505982 0.152344 0.391911
Si Si3 0.500000 0.500000 0.000000
Si Si4 0.636342 0.643446 0.631878
Si Si5 0.500000 0.000000 0.711484
Si Si6 0.724562 0.826340 0.494740
O O1 0.070883 0.423053 0.534765
O O2 0.170972 0.242545 0.447712
O O3 0.039109 0.389948 0.349521
O O4 0.954474 0.242892 0.474850
O O5 0.550316 0.277170 0.406770
O O6 0.372978 0.160690 0.412470
O O7 0.530625 0.107391 0.280474
O O8 0.607400 0.521915 0.926046
O O9 0.630927 0.630927 0.750000
O O10 0.675120 0.767291 0.595388
#
# Coordination Sequence:
#
# PCOD8310239 Si02
#       6
#     8   8   2   8   4   8
#     4  11  24  41  69  95 130 174 218 272 332 393
#     4  11  22  41  64  93 132 168 219 272 329 397
#     4  12  22  40  56  94 140 160 210 288 324 402
#     4  11  24  38  62  92 131 174 216 267 339 402
#     4  12  20  40  72  94 126 176 224 262 338 412
#     4  11  22  44  63  94 134 168 219 279 325 387
#
# _framework density 20.266909999999999
#
# number of rings (size 3 to 8) (size 9 to 14) (size 15 to 20)
#    0.000    0.842    6.316    1.579    0.000    1.263 
#    3.789    0.000    0.000    0.000    5.474    0.000 
#    0.000    0.000    0.000    0.000    0.000    0.000 
#
# Total GULP energy -470953.936780 kJ/mol
# GULP energy per Si atom -12393.524652 kJ/mol
# Density = 2.022078 g / cm^3
# Si number density = 20.266910 Si / 1000 Ang^3
#
#
#
# Elastic Constant Matrix: (Units=GPa)
#
#
# Indices 1 2 3 4 5 6 
#
# 1 116.1217 57.2817 45.3033 0.0000 0.0000 0.0000
# 2 57.2817 116.1217 45.3033 0.0000 0.0000 0.0000
# 3 45.3033 45.3033 139.2829 0.0000 0.0000 0.0000
# 4 0.0000 0.0000 0.0000 24.7914 0.0000 0.0000
# 5 0.0000 0.0000 0.0000 0.0000 24.7914 0.0000
# 6 0.0000 0.0000 0.0000 0.0000 0.0000 33.7953
#
#
#
# Elastic Compliance Matrix: (Units=1/GPa)
#
#
# Indices 1 2 3 4 5 6 
#
# 1 0.011971 -0.005024 -0.002260 0.000000 0.000000 0.000000
# 2 -0.005024 0.011971 -0.002260 0.000000 0.000000 0.000000
# 3 -0.002260 -0.002260 0.008650 0.000000 0.000000 0.000000
# 4 0.000000 0.000000 0.000000 0.040337 0.000000 0.000000
# 5 0.000000 0.000000 0.000000 0.000000 0.040337 0.000000
# 6 0.000000 0.000000 0.000000 0.000000 0.000000 0.029590
#
#
# Mechanical properties :
#
#
# Convention : Reuss Voigt Hill
#
# Bulk Modulus (GPa) = 74.04213 74.14477 74.09345
# Shear Modulus (GPa) = 30.04007 31.58483 30.81245
#
# Velocity S-wave (km/s) = 3.85414 3.95200 3.90337
# Velocity P-wave (km/s) = 7.51124 7.58208 7.54674
#
# Compressibility (1/GPa) = 0.01350582
#
# Stress axis : x y z
#
# Youngs Moduli (GPa) = 83.53192 83.53192 115.61108
#
# Poissons Ratio (x) = 0.41965 0.26126
# Poissons Ratio (y) = 0.41965 0.26126
# Poissons Ratio (z) = 0.18877 0.18877
#
# Static dielectric constant tensor:
#      x y z
#    x 3.771200 0.000000 0.000000 
#    y 0.000000 3.771200 0.000000 
#    z 0.000000 0.000000 3.573630 
# 
# 
# High freq. dielectric constant tensor:
#      x y z
#    x 1.792140 0.000000 0.000000 
#    y 0.000000 1.792140 0.000000 
#    z 0.000000 0.000000 1.789720 
# 
# From -- ./inp_files/2600.got.cif
#   From: 2010.03.12/outbox.cif.g09.slc.cpg/sg116_2_cif.got.tgz:2600.got - 2010.04.14 02:15:44.
