data_PCOD8310719
_publ_section_title
;
Structure prediction by ZEFSAII (Michael W. Deem and Ramdas Pophale) SiO2 
 PCOD8310719
Probable space group: I -4 M 2
;
_chemical_formula_sum "Si O2"
_cell_formula_units_Z 96
_cell_length_a 15.641923
_cell_length_b 15.641923
_cell_length_c 26.258310
_cell_angle_alpha 90.000000
_cell_angle_beta 90.000000
_cell_angle_gamma 90.000000
_cell_volume 6424.614278
_symmetry_space_group_name_H-M "I -4 M 2"
_symmetry_group_IT_number 119
_symmetry_cell_setting 'tetragonal'
loop_
_space_group_symop_operation_xyz
x,y,z
y,-x,-z
-x,-y,z
-y,x,-z
y,x,-z
-y,-x,-z
-x,y,z
x,-y,z
1/2+x,1/2+y,1/2+z
1/2+y,1/2-x,1/2-z
1/2-x,1/2-y,1/2+z
1/2-y,1/2+x,1/2-z
1/2+y,1/2+x,1/2-z
1/2-y,1/2-x,1/2-z
1/2-x,1/2+y,1/2+z
1/2+x,1/2-y,1/2+z
loop_
_atom_site_type_symbol
_atom_site_label
_atom_site_fract_x
_atom_site_fract_y
_atom_site_fract_z
Si Si1 0.215360 0.599067 0.991085
Si Si2 0.103598 0.189355 0.761951
Si Si3 0.690735 0.334590 0.081370
Si Si4 0.500000 0.404397 0.758346
Si Si5 0.188913 0.288712 0.669802
Si Si6 0.899054 0.406791 0.592858
Si Si7 0.500000 0.597646 0.878721
O O1 0.210496 0.500000 0.004113
O O2 0.292039 0.615139 0.951368
O O3 0.131394 0.633107 0.961344
O O4 0.228094 0.648602 0.044346
O O5 0.133251 0.236831 0.710692
O O6 0.155004 0.233423 0.807971
O O7 0.000000 0.197209 0.767124
O O8 0.135595 0.089865 0.761568
O O9 0.725853 0.277312 0.127950
O O10 0.649285 0.419700 0.101969
O O11 0.500000 0.500000 0.737718
O O12 0.500000 0.401676 0.818535
O O13 0.124910 0.353023 0.642274
O O14 0.857389 0.500000 0.598081
O O15 0.000000 0.410986 0.591437
O O16 0.500000 0.500000 0.898964
#
# Coordination Sequence:
#
# PCOD8310719 Si02
#       7
#    16  16  16   8  16  16   8
#     4   9  17  28  41  61  89 117 146 179 213 254
#     4  10  19  31  46  66  90 118 147 182 221 265
#     4  10  18  28  41  63  91 120 145 179 220 260
#     4   9  18  30  46  64  86 116 148 180 220 269
#     4  10  19  29  45  66  91 116 146 180 220 261
#     4   9  17  29  45  63  86 118 150 178 211 256
#     4  11  18  26  42  64  93 123 153 177 218 275
#
# _framework density 14.942531000000001
#
# number of rings (size 3 to 8) (size 9 to 14) (size 15 to 20)
#    0.000    2.333    2.500    1.500    0.000    1.333 
#    0.000    0.000    1.833    4.000    0.000    0.000 
#    0.000   10.667    0.000    0.000    0.000    0.000 
#
# Total GULP energy -594699.001252 kJ/mol
# GULP energy per Si atom -12389.562526 kJ/mol
# Density = 1.490852 g / cm^3
# Si number density = 14.942531 Si / 1000 Ang^3
#
#
#
# Elastic Constant Matrix: (Units=GPa)
#
#
# Indices 1 2 3 4 5 6 
#
# 1 89.5485 34.0897 43.6532 0.0000 0.0000 0.0000
# 2 34.0897 89.5485 43.6532 0.0000 0.0000 0.0000
# 3 43.6532 43.6532 92.6359 0.0000 0.0000 0.0000
# 4 0.0000 0.0000 0.0000 18.9371 0.0000 0.0000
# 5 0.0000 0.0000 0.0000 0.0000 18.9371 0.0000
# 6 0.0000 0.0000 0.0000 0.0000 0.0000 16.7518
#
#
#
# Elastic Compliance Matrix: (Units=1/GPa)
#
#
# Indices 1 2 3 4 5 6 
#
# 1 0.015077 -0.002955 -0.005712 0.000000 0.000000 0.000000
# 2 -0.002955 0.015077 -0.005712 0.000000 0.000000 0.000000
# 3 -0.005712 -0.005712 0.016179 0.000000 0.000000 0.000000
# 4 0.000000 0.000000 0.000000 0.052806 0.000000 0.000000
# 5 0.000000 0.000000 0.000000 0.000000 0.052806 0.000000
# 6 0.000000 0.000000 0.000000 0.000000 0.000000 0.059695
#
#
# Mechanical properties :
#
#
# Convention : Reuss Voigt Hill
#
# Bulk Modulus (GPa) = 56.90463 57.16945 57.03704
# Shear Modulus (GPa) = 20.30410 20.94764 20.62587
#
# Velocity S-wave (km/s) = 3.69021 3.74823 3.71933
# Velocity P-wave (km/s) = 7.50479 7.55479 7.52983
#
# Compressibility (1/GPa) = 0.01757326
#
# Stress axis : x y z
#
# Youngs Moduli (GPa) = 66.32802 66.32802 61.81039
#
# Poissons Ratio (x) = 0.19599 0.35307
# Poissons Ratio (y) = 0.19599 0.35307
# Poissons Ratio (z) = 0.37888 0.37888
#
# Static dielectric constant tensor:
#      x y z
#    x 3.025880 0.000000 0.000000 
#    y 0.000000 3.025880 0.000000 
#    z 0.000000 0.000000 2.999170 
# 
# 
# High freq. dielectric constant tensor:
#      x y z
#    x 1.559080 0.000000 0.000000 
#    y 0.000000 1.559080 0.000000 
#    z 0.000000 0.000000 1.573520 
# 
# From -- ./inp_files/9525.got.cif
#   From: 2010.03.12/outbox.cif.g09.slc.cpg/sg119_5_cif.got.tgz:9525.got - 2010.04.14 02:25:26.
