data_PCOD8310276
_publ_section_title
;
Structure prediction by ZEFSAII (Michael W. Deem and Ramdas Pophale) SiO2 
 PCOD8310276
Probable space group: P -4 C 2
;
_chemical_formula_sum "Si O2"
_cell_formula_units_Z 34
_cell_length_a 10.661937
_cell_length_b 10.661937
_cell_length_c 12.072615
_cell_angle_alpha 90.000000
_cell_angle_beta 90.000000
_cell_angle_gamma 90.000000
_cell_volume 1372.377455
_symmetry_space_group_name_H-M "P -4 C 2"
_symmetry_group_IT_number 116
_symmetry_cell_setting 'tetragonal'
loop_
_space_group_symop_operation_xyz
x,y,z
y,-x,-z
-x,-y,z
-y,x,-z
y,x,1/2-z
-y,-x,1/2-z
-x,y,1/2+z
x,-y,1/2+z
loop_
_atom_site_type_symbol
_atom_site_label
_atom_site_fract_x
_atom_site_fract_y
_atom_site_fract_z
Si Si1 0.000000 0.500000 0.757318
Si Si2 0.655173 0.344828 0.250000
Si Si3 0.000000 0.000000 0.750000
Si Si4 0.252991 0.749236 0.016966
Si Si5 0.404284 0.250363 0.318901
Si Si6 0.744017 0.003154 0.607174
O O1 0.107402 0.553286 0.678343
O O2 0.046886 0.378895 0.826226
O O3 0.731338 0.299304 0.141686
O O4 0.506161 0.328687 0.249380
O O5 0.127899 0.993467 0.678377
O O6 0.233680 0.898862 0.013415
O O7 0.377270 0.710430 0.946225
O O8 0.129750 0.698723 0.954245
O O9 0.273940 0.273940 0.250000
#
# Coordination Sequence:
#
# PCOD8310276 Si02
#       6
#     4   4   2   8   8   8
#     4  12  26  48  82 118 158 210 280 348 420 504
#     4  12  30  50  77 115 166 216 273 335 423 516
#     4  12  26  54  82 122 178 218 290 346 440 508
#     4  12  28  49  83 119 163 215 279 346 432 506
#     4  12  28  53  79 116 160 217 276 350 423 508
#     4  12  26  48  82 121 161 219 272 357 422 518
#
# _framework density 24.774525000000001
#
# number of rings (size 3 to 8) (size 9 to 14) (size 15 to 20)
#    0.000    0.000    4.706    3.882    9.882    0.000 
#    0.000    0.000    0.000    0.000    0.000    0.000 
#    0.000    0.000    0.000    0.000    0.000    0.000 
#
# Total GULP energy -421280.618163 kJ/mol
# GULP energy per Si atom -12390.606417 kJ/mol
# Density = 2.471814 g / cm^3
# Si number density = 24.774525 Si / 1000 Ang^3
#
#
#
# Elastic Constant Matrix: (Units=GPa)
#
#
# Indices 1 2 3 4 5 6 
#
# 1 110.6731 31.0168 43.3343 0.0000 0.0000 0.0000
# 2 31.0168 110.6731 43.3339 0.0000 0.0000 0.0000
# 3 43.3343 43.3339 144.9427 0.0000 0.0000 0.0000
# 4 0.0000 0.0000 0.0000 43.1825 0.0000 0.0000
# 5 0.0000 0.0000 0.0000 0.0000 43.1830 0.0000
# 6 0.0000 0.0000 0.0000 0.0000 0.0000 43.1602
#
#
#
# Elastic Compliance Matrix: (Units=1/GPa)
#
#
# Indices 1 2 3 4 5 6 
#
# 1 0.010596 -0.001958 -0.002582 0.000000 0.000000 0.000000
# 2 -0.001958 0.010596 -0.002582 0.000000 0.000000 0.000000
# 3 -0.002582 -0.002582 0.008443 0.000000 0.000000 0.000000
# 4 0.000000 0.000000 0.000000 0.023158 0.000000 0.000000
# 5 0.000000 0.000000 0.000000 0.000000 0.023157 0.000000
# 6 0.000000 0.000000 0.000000 0.000000 0.000000 0.023169
#
#
# Mechanical properties :
#
#
# Convention : Reuss Voigt Hill
#
# Bulk Modulus (GPa) = 64.98335 66.85099 65.91717
# Shear Modulus (GPa) = 42.19614 42.47872 42.33743
#
# Velocity S-wave (km/s) = 4.13147 4.14528 4.13838
# Velocity P-wave (km/s) = 7.00325 7.06778 7.03559
#
# Compressibility (1/GPa) = 0.01538856
#
# Stress axis : x y z
#
# Youngs Moduli (GPa) = 94.37894 94.37920 118.43623
#
# Poissons Ratio (x) = 0.18483 0.30584
# Poissons Ratio (y) = 0.18483 0.30584
# Poissons Ratio (z) = 0.24372 0.24371
#
# Static dielectric constant tensor:
#      x y z
#    x 4.752560 0.000000 0.000000 
#    y 0.000000 4.752540 0.000000 
#    z 0.000000 0.000000 4.350990 
# 
# 
# High freq. dielectric constant tensor:
#      x y z
#    x 1.999360 0.000000 0.000000 
#    y 0.000000 1.999360 0.000000 
#    z 0.000000 0.000000 1.981990 
# 
# From -- ./inp_files/1632.got.cif
#   From: 2010.03.12/outbox.cif.g09.slc.cpg/sg116_1_cif.got.tgz:1632.got - 2010.04.14 02:15:44.
