data_PCOD8310538
_publ_section_title
;
Structure prediction by ZEFSAII (Michael W. Deem and Ramdas Pophale) SiO2 
 PCOD8310538
Probable space group: P -4 N 2
;
_chemical_formula_sum "Si O2"
_cell_formula_units_Z 40
_cell_length_a 8.632612
_cell_length_b 8.632612
_cell_length_c 26.402780
_cell_angle_alpha 90.000000
_cell_angle_beta 90.000000
_cell_angle_gamma 90.000000
_cell_volume 1967.587706
_symmetry_space_group_name_H-M "P -4 N 2"
_symmetry_group_IT_number 118
_symmetry_cell_setting 'tetragonal'
loop_
_space_group_symop_operation_xyz
x,y,z
y,-x,-z
-x,-y,z
-y,x,-z
1/2+y,1/2+x,1/2-z
1/2-y,1/2-x,1/2-z
1/2-x,1/2+y,1/2+z
1/2+x,1/2-y,1/2+z
loop_
_atom_site_type_symbol
_atom_site_label
_atom_site_fract_x
_atom_site_fract_y
_atom_site_fract_z
Si Si1 0.754305 0.691745 0.093092
Si Si2 0.377999 0.716471 0.492491
Si Si3 0.286089 0.251388 0.806833
Si Si4 0.177433 0.468387 0.613931
Si Si5 0.500000 0.500000 0.857151
Si Si6 0.500000 0.000000 0.654763
O O1 0.587745 0.620860 0.106567
O O2 0.884153 0.590638 0.119005
O O3 0.769233 0.869393 0.111917
O O4 0.776473 0.685498 0.032407
O O5 0.548914 0.698504 0.516549
O O6 0.379555 0.808467 0.439693
O O7 0.225209 0.274792 0.750000
O O8 0.136733 0.246647 0.842950
O O9 0.402273 0.389308 0.820793
O O10 0.377193 0.089179 0.810211
O O11 0.000000 0.500000 0.626988
#
# Coordination Sequence:
#
# PCOD8310538 Si02
#       6
#     8   8   8   8   4   4
#     4  10  21  41  65  91 131 164 210 265 328 385
#     4   9  19  36  62  91 122 163 209 256 314 384
#     4  11  24  43  65  91 129 169 219 270 330 381
#     4  11  22  40  62  94 129 166 213 263 315 394
#     4  10  22  44  61  98 130 164 215 276 320 398
#     4  10  23  40  66  94 122 166 219 272 326 384
#
# _framework density 20.329460999999998
#
# number of rings (size 3 to 8) (size 9 to 14) (size 15 to 20)
#    0.000    1.800    2.000    1.500    1.400    4.400 
#    3.600    3.000    0.000    0.000    0.000    0.000 
#    0.000    0.000    0.000    0.000    0.000    0.000 
#
# Total GULP energy -496173.327396 kJ/mol
# GULP energy per Si atom -12404.333185 kJ/mol
# Density = 2.028319 g / cm^3
# Si number density = 20.329461 Si / 1000 Ang^3
#
#
#
# Elastic Constant Matrix: (Units=GPa)
#
#
# Indices 1 2 3 4 5 6 
#
# 1 89.1559 30.2002 53.3920 0.0000 0.0000 0.0000
# 2 30.2002 89.1557 53.3919 0.0000 0.0000 0.0000
# 3 53.3920 53.3919 140.7403 0.0000 0.0000 0.0000
# 4 0.0000 0.0000 0.0000 23.9994 0.0000 0.0000
# 5 0.0000 0.0000 0.0000 0.0000 23.9994 0.0000
# 6 0.0000 0.0000 0.0000 0.0000 0.0000 27.4885
#
#
#
# Elastic Compliance Matrix: (Units=1/GPa)
#
#
# Indices 1 2 3 4 5 6 
#
# 1 0.014822 -0.002139 -0.004811 0.000000 0.000000 0.000000
# 2 -0.002139 0.014822 -0.004811 0.000000 0.000000 0.000000
# 3 -0.004811 -0.004811 0.010756 0.000000 0.000000 0.000000
# 4 0.000000 0.000000 0.000000 0.041668 0.000000 0.000000
# 5 0.000000 0.000000 0.000000 0.000000 0.041668 0.000000
# 6 0.000000 0.000000 0.000000 0.000000 0.000000 0.036379
#
#
# Mechanical properties :
#
#
# Convention : Reuss Voigt Hill
#
# Bulk Modulus (GPa) = 59.25599 65.89111 62.57355
# Shear Modulus (GPa) = 26.41794 27.23529 26.82662
#
# Velocity S-wave (km/s) = 3.60876 3.66416 3.63656
# Velocity P-wave (km/s) = 6.82461 7.09813 6.96271
#
# Compressibility (1/GPa) = 0.01687593
#
# Stress axis : x y z
#
# Youngs Moduli (GPa) = 67.46528 67.46520 92.97227
#
# Poissons Ratio (x) = 0.14434 0.44733
# Poissons Ratio (y) = 0.14434 0.44733
# Poissons Ratio (z) = 0.32461 0.32461
#
# Static dielectric constant tensor:
#      x y z
#    x 3.847960 0.000000 0.000000 
#    y 0.000000 3.847960 0.000000 
#    z 0.000000 0.000000 3.486720 
# 
# 
# High freq. dielectric constant tensor:
#      x y z
#    x 1.801260 0.000000 0.000000 
#    y 0.000000 1.801260 0.000000 
#    z 0.000000 0.000000 1.783560 
# 
# From -- ./inp_files/6060.got.cif
#   From: 2010.03.12/outbox.cif.g09.slc.cpg/sg118_4_cif.got.tgz:6060.got - 2010.04.14 02:21:17.
