data_PCOD8310365
_publ_section_title
;
Structure prediction by ZEFSAII (Michael W. Deem and Ramdas Pophale) SiO2 
 PCOD8310365
Probable space group: P -4 B 2
;
_chemical_formula_sum "Si O2"
_cell_formula_units_Z 24
_cell_length_a 10.293034
_cell_length_b 10.293034
_cell_length_c 10.421481
_cell_angle_alpha 90.000000
_cell_angle_beta 90.000000
_cell_angle_gamma 90.000000
_cell_volume 1104.119947
_symmetry_space_group_name_H-M "P -4 B 2"
_symmetry_group_IT_number 117
_symmetry_cell_setting 'tetragonal'
loop_
_space_group_symop_operation_xyz
x,y,z
y,-x,-z
-x,-y,z
-y,x,-z
1/2+y,1/2+x,-z
1/2-y,1/2-x,-z
1/2-x,1/2+y,z
1/2+x,1/2-y,z
loop_
_atom_site_type_symbol
_atom_site_label
_atom_site_fract_x
_atom_site_fract_y
_atom_site_fract_z
Si Si1 0.000000 0.000000 0.000000
Si Si2 0.000000 0.000000 0.500000
Si Si3 0.500000 0.000000 0.000000
Si Si4 0.500000 0.000000 0.500000
Si Si5 0.243818 0.608745 0.893292
Si Si6 0.756183 0.391256 0.606708
O O1 0.043920 0.883720 0.091878
O O2 0.883719 0.956082 0.591878
O O3 0.630281 0.999747 0.912294
O O4 0.500253 0.869719 0.412294
O O5 0.233646 0.667869 0.750000
O O6 0.222363 0.722363 0.000000
O O7 0.777637 0.277637 0.500000
#
# Coordination Sequence:
#
# PCOD8310365 Si02
#       6
#     2   2   2   2   8   8
#     4  12  26  44  68 114 142 184 240 294 358 420
#     4  12  26  44  68 114 142 184 240 294 358 420
#     4   8  22  44  70 100 134 184 242 276 354 420
#     4   8  22  44  70 100 134 184 242 276 354 420
#     4  10  24  44  70 102 141 184 233 291 350 419
#     4  10  24  44  70 102 141 184 233 291 350 419
#
# _framework density 21.736771000000001
#
# number of rings (size 3 to 8) (size 9 to 14) (size 15 to 20)
#    2.000    0.000    0.000    2.000    4.667    5.333 
#    0.000    0.000    0.000    0.000    0.000    0.000 
#    0.000    0.000    0.000    0.000    0.000    0.000 
#
# Total GULP energy -297332.593277 kJ/mol
# GULP energy per Si atom -12388.858053 kJ/mol
# Density = 2.168730 g / cm^3
# Si number density = 21.736771 Si / 1000 Ang^3
#
#
#
# Elastic Constant Matrix: (Units=GPa)
#
#
# Indices 1 2 3 4 5 6 
#
# 1 133.8887 31.0784 59.5435 0.0000 0.0000 0.0000
# 2 31.0784 133.8887 59.5435 0.0000 0.0000 0.0000
# 3 59.5435 59.5435 218.0417 0.0000 0.0000 0.0000
# 4 0.0000 0.0000 0.0000 0.1479 0.0000 0.0000
# 5 0.0000 0.0000 0.0000 0.0000 0.1479 0.0000
# 6 0.0000 0.0000 0.0000 0.0000 0.0000 33.7560
#
#
#
# Elastic Compliance Matrix: (Units=1/GPa)
#
#
# Indices 1 2 3 4 5 6 
#
# 1 0.008638 -0.001088 -0.002062 0.000000 0.000000 0.000000
# 2 -0.001088 0.008638 -0.002062 0.000000 0.000000 0.000000
# 3 -0.002062 -0.002062 0.005712 0.000000 0.000000 0.000000
# 4 0.000000 0.000000 0.000000 6.760428 0.000000 0.000000
# 5 0.000000 0.000000 0.000000 0.000000 6.760428 0.000000
# 6 0.000000 0.000000 0.000000 0.000000 0.000000 0.029624
#
#
# Mechanical properties :
#
#
# Convention : Reuss Voigt Hill
#
# Bulk Modulus (GPa) = 79.58313 87.35000 83.46656
# Shear Modulus (GPa) = 0.36797 29.18728 14.77763
#
# Velocity S-wave (km/s) = 0.41189 3.66835 2.61021
# Velocity P-wave (km/s) = 6.07601 7.62987 6.89684
#
# Compressibility (1/GPa) = 0.01256548
#
# Stress axis : x y z
#
# Youngs Moduli (GPa) = 115.76169 115.76169 175.05820
#
# Poissons Ratio (x) = 0.12597 0.36094
# Poissons Ratio (y) = 0.12597 0.36094
# Poissons Ratio (z) = 0.23868 0.23868
#
# Static dielectric constant tensor:
#      x y z
#    x 3.701810 0.000000 0.000000 
#    y 0.000000 3.701810 0.000000 
#    z 0.000000 0.000000 3.647540 
# 
# 
# High freq. dielectric constant tensor:
#      x y z
#    x 1.842690 0.000000 0.000000 
#    y 0.000000 1.842690 0.000000 
#    z 0.000000 0.000000 1.848150 
# 
# From -- ./inp_files/1342.got.cif
#   From: 2010.03.12/outbox.cif.g09.slc.cpg/sg117_1_cif.got.tgz:1342.got - 2010.04.14 02:19:01.
