data_PCOD8310961
_publ_section_title
;
Structure prediction by ZEFSAII (Michael W. Deem and Ramdas Pophale) SiO2 
 PCOD8310961
Probable space group: I -4 M 2
;
_chemical_formula_sum "Si O2"
_cell_formula_units_Z 68
_cell_length_a 10.855771
_cell_length_b 10.855771
_cell_length_c 26.813665
_cell_angle_alpha 90.000000
_cell_angle_beta 90.000000
_cell_angle_gamma 90.000000
_cell_volume 3159.930465
_symmetry_space_group_name_H-M "I -4 M 2"
_symmetry_group_IT_number 119
_symmetry_cell_setting 'tetragonal'
loop_
_space_group_symop_operation_xyz
x,y,z
y,-x,-z
-x,-y,z
-y,x,-z
y,x,-z
-y,-x,-z
-x,y,z
x,-y,z
1/2+x,1/2+y,1/2+z
1/2+y,1/2-x,1/2-z
1/2-x,1/2-y,1/2+z
1/2-y,1/2+x,1/2-z
1/2+y,1/2+x,1/2-z
1/2-y,1/2-x,1/2-z
1/2-x,1/2+y,1/2+z
1/2+x,1/2-y,1/2+z
loop_
_atom_site_type_symbol
_atom_site_label
_atom_site_fract_x
_atom_site_fract_y
_atom_site_fract_z
Si Si1 0.640729 0.234781 0.039721
Si Si2 0.500000 0.500000 0.637359
Si Si3 0.753358 0.000000 0.193854
Si Si4 0.771987 0.246191 0.648547
Si Si5 0.500000 0.233023 0.625436
Si Si6 0.500000 0.141886 0.516941
Si Si7 0.000000 0.860990 0.701861
O O1 0.500000 0.219528 0.056374
O O2 0.721184 0.252842 0.088895
O O3 0.652963 0.347038 0.000000
O O4 0.698745 0.119353 0.009624
O O5 0.389911 0.500000 0.675135
O O6 0.500000 0.374942 0.605132
O O7 0.688236 0.122713 0.172666
O O8 0.759966 0.000000 0.253924
O O9 0.626347 0.209978 0.658526
O O10 0.873355 0.151863 0.669904
O O11 0.500000 0.150413 0.576586
O O12 0.500000 0.000000 0.503427
O O13 0.000000 0.000000 0.722394
#
# Coordination Sequence:
#
# PCOD8310961 Si02
#       7
#    16   4   8  16   8   8   8
#     4  11  22  39  59  91 130 175 222 276 331 400
#     4   8  18  36  66  93 126 162 203 286 344 392
#     4  10  21  43  69  97 131 169 220 286 352 401
#     4  11  23  42  68  97 133 176 227 282 344 415
#     4  10  20  39  63  96 125 174 223 271 341 407
#     4  10  21  35  58  84 127 171 216 267 321 386
#     4  12  26  44  68 102 135 174 224 289 354 411
#
# _framework density 21.519461
#
# number of rings (size 3 to 8) (size 9 to 14) (size 15 to 20)
#    0.000    1.412    4.118    1.412    0.000    2.588 
#    0.000    2.353    0.000    0.000    0.000    0.000 
#    0.000    0.000    0.000    0.000    0.000    0.000 
#
# Total GULP energy -421272.693999 kJ/mol
# GULP energy per Si atom -12390.373353 kJ/mol
# Density = 2.147048 g / cm^3
# Si number density = 21.519461 Si / 1000 Ang^3
#
#
#
# Elastic Constant Matrix: (Units=GPa)
#
#
# Indices 1 2 3 4 5 6 
#
# 1 90.5520 19.1217 20.3209 0.0000 0.0000 0.0000
# 2 19.1217 90.5509 20.3206 0.0000 0.0000 0.0000
# 3 20.3209 20.3206 111.7560 0.0000 0.0000 0.0000
# 4 0.0000 0.0000 0.0000 17.2690 0.0000 0.0000
# 5 0.0000 0.0000 0.0000 0.0000 17.2698 0.0000
# 6 0.0000 0.0000 0.0000 0.0000 0.0000 23.6165
#
#
#
# Elastic Compliance Matrix: (Units=1/GPa)
#
#
# Indices 1 2 3 4 5 6 
#
# 1 0.011888 -0.002111 -0.001778 0.000000 0.000000 0.000000
# 2 -0.002111 0.011888 -0.001778 0.000000 0.000000 0.000000
# 3 -0.001778 -0.001778 0.009595 0.000000 0.000000 0.000000
# 4 0.000000 0.000000 0.000000 0.057907 0.000000 0.000000
# 5 0.000000 0.000000 0.000000 0.000000 0.057905 0.000000
# 6 0.000000 0.000000 0.000000 0.000000 0.000000 0.042343
#
#
# Mechanical properties :
#
#
# Convention : Reuss Voigt Hill
#
# Bulk Modulus (GPa) = 45.37782 45.82060 45.59921
# Shear Modulus (GPa) = 23.78620 27.17075 25.47848
#
# Velocity S-wave (km/s) = 3.32826 3.55718 3.44462
# Velocity P-wave (km/s) = 5.99186 6.18144 6.08739
#
# Compressibility (1/GPa) = 0.02203720
#
# Stress axis : x y z
#
# Youngs Moduli (GPa) = 84.11698 84.11605 104.22568
#
# Poissons Ratio (x) = 0.17761 0.18529
# Poissons Ratio (y) = 0.17761 0.18528
# Poissons Ratio (z) = 0.14954 0.14954
#
# Static dielectric constant tensor:
#      x y z
#    x 4.021900 0.000000 0.000000 
#    y 0.000000 4.021900 0.000000 
#    z 0.000000 0.000000 3.593350 
# 
# 
# High freq. dielectric constant tensor:
#      x y z
#    x 1.841660 0.000000 0.000000 
#    y 0.000000 1.841660 0.000000 
#    z 0.000000 0.000000 1.831560 
# 
# From -- ./inp_files/9431.got.cif
#   From: 2010.03.12/outbox.cif.g09.slc.cpg/sg119_5_cif.got.tgz:9431.got - 2010.04.14 02:25:26.
