data_PCOD8310092
_publ_section_title
;
Structure prediction by ZEFSAII (Michael W. Deem and Ramdas Pophale) SiO2 
 PCOD8310092
Probable space group: P -4 C 2
;
_chemical_formula_sum "Si O2"
_cell_formula_units_Z 48
_cell_length_a 15.040530
_cell_length_b 15.040530
_cell_length_c 12.784433
_cell_angle_alpha 90.000000
_cell_angle_beta 90.000000
_cell_angle_gamma 90.000000
_cell_volume 2892.063018
_symmetry_space_group_name_H-M "P -4 C 2"
_symmetry_group_IT_number 116
_symmetry_cell_setting 'tetragonal'
loop_
_space_group_symop_operation_xyz
x,y,z
y,-x,-z
-x,-y,z
-y,x,-z
y,x,1/2-z
-y,-x,1/2-z
-x,y,1/2+z
x,-y,1/2+z
loop_
_atom_site_type_symbol
_atom_site_label
_atom_site_fract_x
_atom_site_fract_y
_atom_site_fract_z
Si Si1 0.617781 0.174933 0.846231
Si Si2 0.324833 0.460048 0.282056
Si Si3 0.911794 0.617557 0.370649
Si Si4 0.897221 0.584256 0.933611
Si Si5 0.718857 0.651373 0.849473
Si Si6 0.739932 0.315646 0.940386
O O1 0.548089 0.252774 0.812704
O O2 0.639152 0.107222 0.751682
O O3 0.707853 0.224854 0.884205
O O4 0.578096 0.117337 0.941417
O O5 0.421924 0.421924 0.250000
O O6 0.333664 0.560765 0.321008
O O7 0.287774 0.401891 0.376158
O O8 0.894221 0.513734 0.387771
O O9 0.847757 0.680216 0.441774
O O10 0.012708 0.637103 0.404730
O O11 0.820898 0.639099 0.877161
O O12 0.715964 0.715964 0.750000
O O13 0.669970 0.699037 0.945440
#
# Coordination Sequence:
#
# PCOD8310092 Si02
#       6
#     8   8   8   8   8   8
#     4   9  18  34  51  69 105 133 172 206 254 314
#     4   9  18  35  51  65  95 143 181 209 248 298
#     4  10  19  33  54  72  98 131 173 210 263 308
#     4  10  21  32  49  80  97 129 172 215 266 313
#     4  11  22  32  49  73 106 132 172 224 266 292
#     4   9  19  33  53  70  97 140 174 215 248 306
#
# _framework density 16.597149000000002
#
# number of rings (size 3 to 8) (size 9 to 14) (size 15 to 20)
#    0.000    2.333    3.333    1.500    2.333    5.667 
#    0.000    0.000    0.000    0.000    0.000    0.000 
#    0.000   34.667    0.000    0.000    0.000    0.000 
#
# Total GULP energy -594964.189196 kJ/mol
# GULP energy per Si atom -12395.087275 kJ/mol
# Density = 1.655937 g / cm^3
# Si number density = 16.597149 Si / 1000 Ang^3
#
#
#
# Elastic Constant Matrix: (Units=GPa)
#
#
# Indices 1 2 3 4 5 6 
#
# 1 84.6475 29.5454 51.1824 0.0000 0.0000 0.0000
# 2 29.5454 84.6475 51.1824 0.0000 0.0000 0.0000
# 3 51.1824 51.1824 128.8004 0.0000 0.0000 0.0000
# 4 0.0000 0.0000 0.0000 21.7111 0.0000 0.0000
# 5 0.0000 0.0000 0.0000 0.0000 21.7111 0.0000
# 6 0.0000 0.0000 0.0000 0.0000 0.0000 16.9801
#
#
#
# Elastic Compliance Matrix: (Units=1/GPa)
#
#
# Indices 1 2 3 4 5 6 
#
# 1 0.015875 -0.002273 -0.005405 0.000000 0.000000 0.000000
# 2 -0.002273 0.015875 -0.005405 0.000000 0.000000 0.000000
# 3 -0.005405 -0.005405 0.012060 0.000000 0.000000 0.000000
# 4 0.000000 0.000000 0.000000 0.046059 0.000000 0.000000
# 5 0.000000 0.000000 0.000000 0.000000 0.046059 0.000000
# 6 0.000000 0.000000 0.000000 0.000000 0.000000 0.058892
#
#
# Mechanical properties :
#
#
# Convention : Reuss Voigt Hill
#
# Bulk Modulus (GPa) = 56.67777 62.43510 59.55644
# Shear Modulus (GPa) = 22.03907 23.15949 22.59928
#
# Velocity S-wave (km/s) = 3.64797 3.73954 3.69404
# Velocity P-wave (km/s) = 7.20880 7.50634 7.35908
#
# Compressibility (1/GPa) = 0.01764360
#
# Stress axis : x y z
#
# Youngs Moduli (GPa) = 62.99074 62.99074 82.91948
#
# Poissons Ratio (x) = 0.14316 0.44821
# Poissons Ratio (y) = 0.14316 0.44821
# Poissons Ratio (z) = 0.34049 0.34049
#
# Static dielectric constant tensor:
#      x y z
#    x 3.181270 0.000000 0.000000 
#    y 0.000000 3.181270 0.000000 
#    z 0.000000 0.000000 3.356840 
# 
# 
# High freq. dielectric constant tensor:
#      x y z
#    x 1.616350 0.000000 0.000000 
#    y 0.000000 1.616350 0.000000 
#    z 0.000000 0.000000 1.653060 
# 
# From -- ./inp_files/1895.got.cif
#   From: 2010.03.12/outbox.cif.g09.slc.cpg/sg116_1_cif.got.tgz:1895.got - 2010.04.14 02:15:44.
