data_PCOD8310788
_publ_section_title
;
Structure prediction by ZEFSAII (Michael W. Deem and Ramdas Pophale) SiO2 
 PCOD8310788
Probable space group: I -4 M 2
;
_chemical_formula_sum "Si O2"
_cell_formula_units_Z 72
_cell_length_a 14.281607
_cell_length_b 14.281607
_cell_length_c 19.629605
_cell_angle_alpha 90.000000
_cell_angle_beta 90.000000
_cell_angle_gamma 90.000000
_cell_volume 4003.738614
_symmetry_space_group_name_H-M "I -4 M 2"
_symmetry_group_IT_number 119
_symmetry_cell_setting 'tetragonal'
loop_
_space_group_symop_operation_xyz
x,y,z
y,-x,-z
-x,-y,z
-y,x,-z
y,x,-z
-y,-x,-z
-x,y,z
x,-y,z
1/2+x,1/2+y,1/2+z
1/2+y,1/2-x,1/2-z
1/2-x,1/2-y,1/2+z
1/2-y,1/2+x,1/2-z
1/2+y,1/2+x,1/2-z
1/2-y,1/2-x,1/2-z
1/2-x,1/2+y,1/2+z
1/2+x,1/2-y,1/2+z
loop_
_atom_site_type_symbol
_atom_site_label
_atom_site_fract_x
_atom_site_fract_y
_atom_site_fract_z
Si Si1 0.779523 0.111485 0.942356
Si Si2 0.110898 0.102688 0.335866
Si Si3 0.394519 0.894519 0.750000
Si Si4 0.891560 0.293998 0.389952
Si Si5 0.110854 0.103558 0.184811
O O1 0.672932 0.150382 0.943872
O O2 0.821309 0.146175 0.870063
O O3 0.780400 0.000000 0.952224
O O4 0.842473 0.157528 0.000000
O O5 0.138041 0.183840 0.389615
O O6 0.151202 0.125627 0.260222
O O7 0.000000 0.099866 0.329110
O O8 0.147390 0.000000 0.360791
O O9 0.500000 0.878895 0.723293
O O10 0.328341 0.872999 0.686783
O O11 0.000000 0.309301 0.411003
O O12 0.000000 0.107599 0.186555
O O13 0.144057 0.000000 0.161988
#
# Coordination Sequence:
#
# PCOD8310788 Si02
#       5
#    16  16   8  16  16
#     4  11  22  34  48  67  92 125 165 203 240 286
#     4   8  14  26  46  71  96 121 149 184 230 282
#     4   9  16  26  44  72 102 128 152 185 240 306
#     4  10  19  31  48  71  99 128 158 195 242 296
#     4   8  14  26  45  69  96 123 150 185 231 279
#
# _framework density 17.983191999999999
#
# number of rings (size 3 to 8) (size 9 to 14) (size 15 to 20)
#    0.000    2.778    0.000    4.000    0.000    6.000 
#    0.000    1.111    0.000    0.000    0.000    0.000 
#    0.000    0.000    0.000    6.000    0.000    0.444 
#
# Total GULP energy -446068.851221 kJ/mol
# GULP energy per Si atom -12390.801423 kJ/mol
# Density = 1.794226 g / cm^3
# Si number density = 17.983192 Si / 1000 Ang^3
#
#
#
# Elastic Constant Matrix: (Units=GPa)
#
#
# Indices 1 2 3 4 5 6 
#
# 1 97.3093 46.1784 32.9977 0.0000 0.0000 0.0000
# 2 46.1784 97.3096 32.9980 0.0000 0.0000 0.0000
# 3 32.9977 32.9980 31.5288 0.0000 0.0000 0.0000
# 4 0.0000 0.0000 0.0000 23.1743 0.0000 0.0000
# 5 0.0000 0.0000 0.0000 0.0000 23.1744 0.0000
# 6 0.0000 0.0000 0.0000 0.0000 0.0000 18.8250
#
#
#
# Elastic Compliance Matrix: (Units=1/GPa)
#
#
# Indices 1 2 3 4 5 6 
#
# 1 0.016498 -0.003060 -0.014064 0.000000 0.000000 0.000000
# 2 -0.003060 0.016498 -0.014064 0.000000 0.000000 0.000000
# 3 -0.014064 -0.014064 0.061156 0.000000 0.000000 0.000000
# 4 0.000000 0.000000 0.000000 0.043151 0.000000 0.000000
# 5 0.000000 0.000000 0.000000 0.000000 0.043151 0.000000
# 6 0.000000 0.000000 0.000000 0.000000 0.000000 0.053121
#
#
# Mechanical properties :
#
#
# Convention : Reuss Voigt Hill
#
# Bulk Modulus (GPa) = 31.47089 50.05510 40.76300
# Shear Modulus (GPa) = 16.31101 20.63297 18.47199
#
# Velocity S-wave (km/s) = 3.01493 3.39093 3.20844
# Velocity P-wave (km/s) = 5.44591 6.57465 6.03672
#
# Compressibility (1/GPa) = 0.03177540
#
# Stress axis : x y z
#
# Youngs Moduli (GPa) = 60.61463 60.61443 16.35175
#
# Poissons Ratio (x) = 0.18547 0.22997
# Poissons Ratio (y) = 0.18548 0.22997
# Poissons Ratio (z) = 0.85247 0.85248
#
# Static dielectric constant tensor:
#      x y z
#    x 3.453120 0.000000 0.000000 
#    y 0.000000 3.453120 0.000000 
#    z 0.000000 0.000000 3.114220 
# 
# 
# High freq. dielectric constant tensor:
#      x y z
#    x 1.681310 0.000000 0.000000 
#    y 0.000000 1.681310 0.000000 
#    z 0.000000 0.000000 1.660910 
# 
# From -- ./inp_files/6380.got.cif
#   From: 2010.03.12/outbox.cif.g09.slc.cpg/sg119_4_cif.got.tgz:6380.got - 2010.04.14 02:25:26.
