data_PCOD8310046
_publ_section_title
;
Structure prediction by ZEFSAII (Michael W. Deem and Ramdas Pophale) SiO2 
 PCOD8310046
Probable space group: P -4 M 2
;
_chemical_formula_sum "Si O2"
_cell_formula_units_Z 44
_cell_length_a 9.676429
_cell_length_b 9.676429
_cell_length_c 28.384223
_cell_angle_alpha 90.000000
_cell_angle_beta 90.000000
_cell_angle_gamma 90.000000
_cell_volume 2657.707848
_symmetry_space_group_name_H-M "P -4 M 2"
_symmetry_group_IT_number 115
_symmetry_cell_setting 'tetragonal'
loop_
_space_group_symop_operation_xyz
x,y,z
y,-x,-z
-x,-y,z
-y,x,-z
y,x,-z
-y,-x,-z
-x,y,z
x,-y,z
loop_
_atom_site_type_symbol
_atom_site_label
_atom_site_fract_x
_atom_site_fract_y
_atom_site_fract_z
Si Si1 0.346022 0.835645 0.085423
Si Si2 0.164295 0.846221 0.448423
Si Si3 0.335751 0.153725 0.188675
Si Si4 0.160414 0.660357 0.363054
Si Si5 0.839008 0.839008 0.000000
Si Si6 0.660348 0.660428 0.725989
O O1 0.500000 0.776024 0.075795
O O2 0.290013 0.789609 0.137079
O O3 0.352096 0.000000 0.085065
O O4 0.242103 0.781166 0.045458
O O5 0.210443 0.789558 0.500000
O O6 0.218010 0.743746 0.408013
O O7 0.000000 0.852624 0.448295
O O8 0.224414 0.000000 0.438940
O O9 0.500000 0.147055 0.188978
O O10 0.281933 0.256270 0.229052
O O11 0.275373 0.000000 0.198087
O O12 0.183354 0.500000 0.374158
O O13 0.250014 0.708373 0.318537
O O14 0.000000 0.693276 0.352695
O O15 0.000000 0.809797 0.008689
O O16 0.500000 0.683417 0.737095
O O17 0.693217 0.500000 0.715639
#
# Coordination Sequence:
#
# PCOD8310046 Si02
#       6
#     8   8   8   8   4   8
#     4   8  14  26  43  60  80 108 137 163 198 244
#     4   8  14  26  44  63  82 106 136 168 201 237
#     4   8  14  26  44  62  79 104 138 170 199 236
#     4   9  17  29  44  61  83 111 138 163 197 243
#     4   9  16  26  42  63  84 106 134 167 200 236
#     4   9  17  29  44  61  82 108 136 166 202 242
#
# _framework density 16.555620000000001
#
# number of rings (size 3 to 8) (size 9 to 14) (size 15 to 20)
#    0.000    3.545    0.000    1.636    0.000    0.727 
#    0.000    2.727    0.000    3.545    0.000    0.000 
#    0.000    0.000    0.000    0.000    0.000    0.000 
#
# Total GULP energy -545332.784711 kJ/mol
# GULP energy per Si atom -12393.926925 kJ/mol
# Density = 1.651794 g / cm^3
# Si number density = 16.555620 Si / 1000 Ang^3
#
#
#
# Elastic Constant Matrix: (Units=GPa)
#
#
# Indices 1 2 3 4 5 6 
#
# 1 48.5998 26.1174 64.3166 0.0000 0.0000 0.0000
# 2 26.1174 48.5999 64.3166 0.0000 0.0000 0.0000
# 3 64.3166 64.3166 192.2650 0.0000 0.0000 0.0000
# 4 0.0000 0.0000 0.0000 25.2597 0.0000 0.0000
# 5 0.0000 0.0000 0.0000 0.0000 25.2597 0.0000
# 6 0.0000 0.0000 0.0000 0.0000 0.0000 12.2516
#
#
#
# Elastic Compliance Matrix: (Units=1/GPa)
#
#
# Indices 1 2 3 4 5 6 
#
# 1 0.038019 -0.006460 -0.010557 0.000000 0.000000 0.000000
# 2 -0.006460 0.038019 -0.010557 0.000000 0.000000 0.000000
# 3 -0.010557 -0.010557 0.012264 0.000000 0.000000 0.000000
# 4 0.000000 0.000000 0.000000 0.039589 0.000000 0.000000
# 5 0.000000 0.000000 0.000000 0.000000 0.039589 0.000000
# 6 0.000000 0.000000 0.000000 0.000000 0.000000 0.081622
#
#
# Mechanical properties :
#
#
# Convention : Reuss Voigt Hill
#
# Bulk Modulus (GPa) = 30.16259 66.55177 48.35718
# Shear Modulus (GPa) = 15.85782 21.53513 18.69648
#
# Velocity S-wave (km/s) = 3.09827 3.61054 3.36417
# Velocity P-wave (km/s) = 5.57293 7.59391 6.66052
#
# Compressibility (1/GPa) = 0.03315366
#
# Stress axis : x y z
#
# Youngs Moduli (GPa) = 26.30255 26.30266 81.53764
#
# Poissons Ratio (x) = 0.16992 0.86080
# Poissons Ratio (y) = 0.16992 0.86080
# Poissons Ratio (z) = 0.27768 0.27768
#
# Static dielectric constant tensor:
#      x y z
#    x 2.962310 0.000000 0.000000 
#    y 0.000000 2.962310 0.000000 
#    z 0.000000 0.000000 3.552160 
# 
# 
# High freq. dielectric constant tensor:
#      x y z
#    x 1.607270 0.000000 0.000000 
#    y 0.000000 1.607270 0.000000 
#    z 0.000000 0.000000 1.650730 
# 
# From -- ./inp_files/5822.got.cif
#   From: 2010.03.12/outbox.cif.g09.slc.cpg/sg115_3_cif.got.tgz:5822.got - 2010.04.14 02:11:21.
