data_PCOD8310651
_publ_section_title
;
Structure prediction by ZEFSAII (Michael W. Deem and Ramdas Pophale) SiO2 
 PCOD8310651
Probable space group: P -4 N 2
;
_chemical_formula_sum "Si O2"
_cell_formula_units_Z 36
_cell_length_a 11.274177
_cell_length_b 11.274177
_cell_length_c 14.305803
_cell_angle_alpha 90.000000
_cell_angle_beta 90.000000
_cell_angle_gamma 90.000000
_cell_volume 1818.368661
_symmetry_space_group_name_H-M "P -4 N 2"
_symmetry_group_IT_number 118
_symmetry_cell_setting 'tetragonal'
loop_
_space_group_symop_operation_xyz
x,y,z
y,-x,-z
-x,-y,z
-y,x,-z
1/2+y,1/2+x,1/2-z
1/2-y,1/2-x,1/2-z
1/2-x,1/2+y,1/2+z
1/2+x,1/2-y,1/2+z
loop_
_atom_site_type_symbol
_atom_site_label
_atom_site_fract_x
_atom_site_fract_y
_atom_site_fract_z
Si Si1 0.581771 0.332982 0.529658
Si Si2 0.419120 0.725673 0.740246
Si Si3 0.175691 0.675691 0.250000
Si Si4 0.235165 0.816943 0.432463
Si Si5 0.628044 0.447953 0.906698
O O1 0.447688 0.339855 0.494390
O O2 0.577340 0.332870 0.640104
O O3 0.642564 0.214671 0.486401
O O4 0.309821 0.809821 0.750000
O O5 0.536990 0.800064 0.759136
O O6 0.397586 0.621357 0.812676
O O7 0.230020 0.725860 0.346083
O O8 0.130349 0.814285 0.509908
O O9 0.227343 0.949583 0.389120
O O10 0.500000 0.500000 0.936038
#
# Coordination Sequence:
#
# PCOD8310651 Si02
#       5
#     8   8   4   8   8
#     4  11  26  45  67  97 136 179 217 279 346 406
#     4  12  25  44  68  98 136 175 226 281 340 395
#     4  12  25  40  68 102 133 172 226 284 329 398
#     4  12  23  43  67 101 129 176 226 272 331 403
#     4  12  23  42  71  95 131 179 224 269 328 402
#
# _framework density 19.797967
#
# number of rings (size 3 to 8) (size 9 to 14) (size 15 to 20)
#    0.000    0.222    8.889    0.333    6.222    0.000 
#    0.000    1.111    0.000    1.333    0.000    0.000 
#    0.000    0.000    0.000    0.000    0.000    0.000 
#
# Total GULP energy -446102.965315 kJ/mol
# GULP energy per Si atom -12391.749037 kJ/mol
# Density = 1.975291 g / cm^3
# Si number density = 19.797967 Si / 1000 Ang^3
#
#
#
# Elastic Constant Matrix: (Units=GPa)
#
#
# Indices 1 2 3 4 5 6 
#
# 1 200.6304 163.1328 -222.5997 0.0000 0.0000 0.0000
# 2 163.1328 200.6304 -222.5997 0.0000 0.0000 0.0000
# 3 -222.5997 -222.5997 695.4200 0.0000 0.0000 0.0000
# 4 0.0000 0.0000 0.0000 37.3404 0.0000 0.0000
# 5 0.0000 0.0000 0.0000 0.0000 37.3404 0.0000
# 6 0.0000 0.0000 0.0000 0.0000 0.0000 46.9359
#
#
#
# Elastic Compliance Matrix: (Units=1/GPa)
#
#
# Indices 1 2 3 4 5 6 
#
# 1 0.015594 -0.011074 0.001447 0.000000 0.000000 0.000000
# 2 -0.011074 0.015594 0.001447 0.000000 0.000000 0.000000
# 3 0.001447 0.001447 0.002364 0.000000 0.000000 0.000000
# 4 0.000000 0.000000 0.000000 0.026781 0.000000 0.000000
# 5 0.000000 0.000000 0.000000 0.000000 0.026781 0.000000
# 6 0.000000 0.000000 0.000000 0.000000 0.000000 0.021306
#
#
# Mechanical properties :
#
#
# Convention : Reuss Voigt Hill
#
# Bulk Modulus (GPa) = 58.17271 59.17195 58.67233
# Shear Modulus (GPa) = 38.31093 116.23984 77.27538
#
# Velocity S-wave (km/s) = 4.40374 7.67075 6.25434
# Velocity P-wave (km/s) = 7.43668 10.41186 9.04740
#
# Compressibility (1/GPa) = 0.01719019
#
# Stress axis : x y z
#
# Youngs Moduli (GPa) = 64.12729 64.12729 422.98653
#
# Poissons Ratio (x) = 0.71017 -0.61194
# Poissons Ratio (y) = 0.71017 -0.61194
# Poissons Ratio (z) = -0.09277 -0.09277
#
# Static dielectric constant tensor:
#      x y z
#    x 3.564550 0.000000 0.000000 
#    y 0.000000 3.564550 0.000000 
#    z 0.000000 0.000000 3.774040 
# 
# 
# High freq. dielectric constant tensor:
#      x y z
#    x 1.765880 0.000000 0.000000 
#    y 0.000000 1.765880 0.000000 
#    z 0.000000 0.000000 1.803990 
# 
# From -- ./inp_files/3998.got.cif
#   From: 2010.03.12/outbox.cif.g09.slc.cpg/sg118_2_cif.got.tgz:3998.got - 2010.04.14 02:21:17.
