data_PCOD8310502
_publ_section_title
;
Structure prediction by ZEFSAII (Michael W. Deem and Ramdas Pophale) SiO2 
 PCOD8310502
Probable space group: P -4 N 2
;
_chemical_formula_sum "Si O2"
_cell_formula_units_Z 40
_cell_length_a 11.328146
_cell_length_b 11.328146
_cell_length_c 15.475829
_cell_angle_alpha 90.000000
_cell_angle_beta 90.000000
_cell_angle_gamma 90.000000
_cell_volume 1985.965034
_symmetry_space_group_name_H-M "P -4 N 2"
_symmetry_group_IT_number 118
_symmetry_cell_setting 'tetragonal'
loop_
_space_group_symop_operation_xyz
x,y,z
y,-x,-z
-x,-y,z
-y,x,-z
1/2+y,1/2+x,1/2-z
1/2-y,1/2-x,1/2-z
1/2-x,1/2+y,1/2+z
1/2+x,1/2-y,1/2+z
loop_
_atom_site_type_symbol
_atom_site_label
_atom_site_fract_x
_atom_site_fract_y
_atom_site_fract_z
Si Si1 0.720459 0.921622 0.691525
Si Si2 0.727035 0.610476 0.309797
Si Si3 0.387894 0.918296 0.552536
Si Si4 0.862614 0.704660 0.630314
Si Si5 0.971475 0.284277 0.775040
O O1 0.603752 0.896249 0.750000
O O2 0.761264 0.798653 0.650637
O O3 0.807931 0.989866 0.758598
O O4 0.696350 0.007257 0.613057
O O5 0.816160 0.683841 0.250000
O O6 0.793409 0.579951 0.400508
O O7 0.606710 0.684531 0.322997
O O8 0.307042 0.890949 0.470005
O O9 0.500000 0.000000 0.527763
O O10 0.820204 0.576415 0.661317
O O11 0.975331 0.755852 0.682592
O O12 0.898167 0.398167 0.750000
#
# Coordination Sequence:
#
# PCOD8310502 Si02
#       5
#     8   8   8   8   8
#     4  11  21  41  62  90 132 170 210 266 330 398
#     4   9  21  38  64  89 118 167 214 263 320 390
#     4  11  22  37  66  94 124 163 224 271 322 379
#     4  11  23  38  61  95 127 174 207 272 328 393
#     4  10  20  40  61  86 124 165 218 255 329 387
#
# _framework density 20.141341000000001
#
# number of rings (size 3 to 8) (size 9 to 14) (size 15 to 20)
#    0.000    1.600    4.000    2.400    0.000    7.200 
#    0.000    0.000    0.000    0.000    0.000    0.000 
#    0.000    0.000    0.000    0.000    0.000    0.000 
#
# Total GULP energy -495623.052634 kJ/mol
# GULP energy per Si atom -12390.576316 kJ/mol
# Density = 2.009550 g / cm^3
# Si number density = 20.141341 Si / 1000 Ang^3
#
#
#
# Elastic Constant Matrix: (Units=GPa)
#
#
# Indices 1 2 3 4 5 6 
#
# 1 88.2463 50.5997 43.0117 0.0000 0.0000 0.0000
# 2 50.5997 88.2458 43.0115 0.0000 0.0000 0.0000
# 3 43.0117 43.0115 140.1402 0.0000 0.0000 0.0000
# 4 0.0000 0.0000 0.0000 24.3767 0.0000 0.0000
# 5 0.0000 0.0000 0.0000 0.0000 24.3776 0.0000
# 6 0.0000 0.0000 0.0000 0.0000 0.0000 31.7894
#
#
#
# Elastic Compliance Matrix: (Units=1/GPa)
#
#
# Indices 1 2 3 4 5 6 
#
# 1 0.017728 -0.008835 -0.002730 0.000000 0.000000 0.000000
# 2 -0.008835 0.017728 -0.002730 0.000000 0.000000 0.000000
# 3 -0.002730 -0.002730 0.008811 0.000000 0.000000 0.000000
# 4 0.000000 0.000000 0.000000 0.041023 0.000000 0.000000
# 5 0.000000 0.000000 0.000000 0.000000 0.041021 0.000000
# 6 0.000000 0.000000 0.000000 0.000000 0.000000 0.031457
#
#
# Mechanical properties :
#
#
# Convention : Reuss Voigt Hill
#
# Bulk Modulus (GPa) = 63.77647 65.54201 64.65924
# Shear Modulus (GPa) = 26.09834 28.10936 27.10385
#
# Velocity S-wave (km/s) = 3.60357 3.73983 3.67233
# Velocity P-wave (km/s) = 7.00339 7.15962 7.08194
#
# Compressibility (1/GPa) = 0.01567976
#
# Stress axis : x y z
#
# Youngs Moduli (GPa) = 56.40750 56.40722 113.49192
#
# Poissons Ratio (x) = 0.49835 0.30978
# Poissons Ratio (y) = 0.49835 0.30978
# Poissons Ratio (z) = 0.15397 0.15396
#
# Static dielectric constant tensor:
#      x y z
#    x 3.730300 0.000000 0.000000 
#    y 0.000000 3.730300 0.000000 
#    z 0.000000 0.000000 3.700130 
# 
# 
# High freq. dielectric constant tensor:
#      x y z
#    x 1.781300 0.000000 0.000000 
#    y 0.000000 1.781300 0.000000 
#    z 0.000000 0.000000 1.781690 
# 
# From -- ./inp_files/4054.got.cif
#   From: 2010.03.12/outbox.cif.g09.slc.cpg/sg118_3_cif.got.tgz:4054.got - 2010.04.14 02:21:17.
