data_PCOD8310132
_publ_section_title
;
Structure prediction by ZEFSAII (Michael W. Deem and Ramdas Pophale) SiO2 
 PCOD8310132
Probable space group: P -4 C 2
;
_chemical_formula_sum "Si O2"
_cell_formula_units_Z 48
_cell_length_a 12.993052
_cell_length_b 12.993052
_cell_length_c 15.758315
_cell_angle_alpha 90.000000
_cell_angle_beta 90.000000
_cell_angle_gamma 90.000000
_cell_volume 2660.309288
_symmetry_space_group_name_H-M "P -4 C 2"
_symmetry_group_IT_number 116
_symmetry_cell_setting 'tetragonal'
loop_
_space_group_symop_operation_xyz
x,y,z
y,-x,-z
-x,-y,z
-y,x,-z
y,x,1/2-z
-y,-x,1/2-z
-x,y,1/2+z
x,-y,1/2+z
loop_
_atom_site_type_symbol
_atom_site_label
_atom_site_fract_x
_atom_site_fract_y
_atom_site_fract_z
Si Si1 0.608297 0.850958 0.062055
Si Si2 0.095136 0.936783 0.652144
Si Si3 0.744441 0.824433 0.440575
Si Si4 0.515739 0.121554 0.898004
Si Si5 0.116867 0.532413 0.285688
Si Si6 0.291268 0.059308 0.604960
O O1 0.705406 0.775389 0.066282
O O2 0.542401 0.826774 0.146725
O O3 0.638255 0.972248 0.059403
O O4 0.542567 0.825969 0.977552
O O5 0.081742 0.918259 0.750000
O O6 0.103745 0.828392 0.604973
O O7 0.195163 0.005716 0.646518
O O8 0.000000 0.000000 0.612319
O O9 0.635031 0.846074 0.397943
O O10 0.743720 0.855171 0.538579
O O11 0.471924 0.166732 0.808506
O O12 0.500000 0.000000 0.904048
O O13 0.119958 0.648220 0.321365
O O14 0.000000 0.500000 0.274234
#
# Coordination Sequence:
#
# PCOD8310132 Si02
#       6
#     8   8   8   8   8   8
#     4  10  20  37  54  85 118 140 196 247 291 348
#     4  10  25  38  51  82 126 164 200 230 282 358
#     4  11  23  34  62  82 115 157 196 239 306 351
#     4  11  20  35  61  83 111 152 198 245 297 347
#     4   9  19  34  57  82 112 146 192 253 284 329
#     4  10  20  37  55  80 116 158 190 240 281 344
#
# _framework density 18.043015
#
# number of rings (size 3 to 8) (size 9 to 14) (size 15 to 20)
#    0.000    1.833    3.333    0.500   14.000    0.000 
#    3.000    0.000    0.000    0.500    0.000    0.000 
#    5.000    0.000    0.000    0.000    0.000    0.000 
#
# Total GULP energy -595144.546338 kJ/mol
# GULP energy per Si atom -12398.844715 kJ/mol
# Density = 1.800195 g / cm^3
# Si number density = 18.043015 Si / 1000 Ang^3
#
#
#
# Elastic Constant Matrix: (Units=GPa)
#
#
# Indices 1 2 3 4 5 6 
#
# 1 56.9634 86.2409 46.3038 0.0000 0.0000 0.0000
# 2 86.2409 56.9589 46.3006 0.0000 0.0000 0.0000
# 3 46.3038 46.3006 144.8272 0.0000 0.0000 0.0000
# 4 0.0000 0.0000 0.0000 26.2516 0.0000 0.0000
# 5 0.0000 0.0000 0.0000 0.0000 26.2518 0.0000
# 6 0.0000 0.0000 0.0000 0.0000 0.0000 20.1446
#
#
#
# Elastic Compliance Matrix: (Units=1/GPa)
#
#
# Indices 1 2 3 4 5 6 
#
# 1 -0.012675 0.021478 -0.002814 0.000000 0.000000 0.000000
# 2 0.021478 -0.012675 -0.002815 0.000000 0.000000 0.000000
# 3 -0.002814 -0.002815 0.008704 0.000000 0.000000 0.000000
# 4 0.000000 0.000000 0.000000 0.038093 0.000000 0.000000
# 5 0.000000 0.000000 0.000000 0.000000 0.038093 0.000000
# 6 0.000000 0.000000 0.000000 0.000000 0.000000 0.049641
#
#
# Mechanical properties :
#
#
# Convention : Reuss Voigt Hill
#
# Bulk Modulus (GPa) = 66.43214 68.49334 67.46274
# Shear Modulus (GPa) = 60.60633 19.85655 40.23144
#
# Velocity S-wave (km/s) = 5.80197 3.32100 4.72715
# Velocity P-wave (km/s) = 9.04337 7.26284 8.20157
#
# Compressibility (1/GPa) = 0.01505296
#
# Stress axis : x y z
#
# Youngs Moduli (GPa) = -78.89718 -78.89269 114.88498
#
# Poissons Ratio (x) = 1.69448 0.32330
# Poissons Ratio (y) = 1.69457 0.32337
# Poissons Ratio (z) = -0.22203 -0.22206
#
# Static dielectric constant tensor:
#      x y z
#    x 3.215630 0.000000 0.000000 
#    y 0.000000 3.215630 0.000000 
#    z 0.000000 0.000000 3.629260 
# 
# 
# High freq. dielectric constant tensor:
#      x y z
#    x 1.677730 0.000000 0.000000 
#    y 0.000000 1.677730 0.000000 
#    z 0.000000 0.000000 1.717160 
# 
# From -- ./inp_files/3381.got.cif
#   From: 2010.03.12/outbox.cif.g09.slc.cpg/sg116_2_cif.got.tgz:3381.got - 2010.04.14 02:15:44.
