data_PCOD8310531
_publ_section_title
;
Structure prediction by ZEFSAII (Michael W. Deem and Ramdas Pophale) SiO2 
 PCOD8310531
Probable space group: P -4 N 2
;
_chemical_formula_sum "Si O2"
_cell_formula_units_Z 48
_cell_length_a 8.435154
_cell_length_b 8.435154
_cell_length_c 31.335169
_cell_angle_alpha 90.000000
_cell_angle_beta 90.000000
_cell_angle_gamma 90.000000
_cell_volume 2229.554398
_symmetry_space_group_name_H-M "P -4 N 2"
_symmetry_group_IT_number 118
_symmetry_cell_setting 'tetragonal'
loop_
_space_group_symop_operation_xyz
x,y,z
y,-x,-z
-x,-y,z
-y,x,-z
1/2+y,1/2+x,1/2-z
1/2-y,1/2-x,1/2-z
1/2-x,1/2+y,1/2+z
1/2+x,1/2-y,1/2+z
loop_
_atom_site_type_symbol
_atom_site_label
_atom_site_fract_x
_atom_site_fract_y
_atom_site_fract_z
Si Si1 0.211816 0.241767 0.201206
Si Si2 0.332758 0.184499 0.048270
Si Si3 0.822463 0.681238 0.970987
Si Si4 0.818249 0.954543 0.368398
Si Si5 0.798713 0.264340 0.113576
Si Si6 0.000000 0.500000 0.337395
Si Si7 0.000000 0.000000 0.842590
O O1 0.263190 0.236811 0.250000
O O2 0.372629 0.287318 0.176656
O O3 0.074873 0.370347 0.193619
O O4 0.138308 0.073216 0.187130
O O5 0.500166 0.235932 0.027825
O O6 0.328736 0.253752 0.096216
O O7 0.308751 0.997407 0.048560
O O8 0.192195 0.255664 0.019146
O O9 0.718337 0.787209 0.937991
O O10 0.722486 0.121035 0.369594
O O11 0.000000 0.000000 0.376762
O O12 0.860292 0.430403 0.132770
O O13 0.922335 0.129175 0.126502
#
# Coordination Sequence:
#
# PCOD8310531 Si02
#       7
#     8   8   8   8   8   4   4
#     4  11  24  41  67  98 133 171 224 276 346 407
#     4  10  24  39  61  91 127 170 217 269 325 385
#     4  10  23  40  60  92 128 168 219 270 315 394
#     4  11  23  43  70  96 130 180 224 277 334 417
#     4  10  22  42  66  94 130 176 223 267 333 396
#     4  10  21  40  64  96 130 178 218 274 329 402
#     4  10  24  42  66  97 138 170 216 285 336 412
#
# _framework density 21.528963999999998
#
# number of rings (size 3 to 8) (size 9 to 14) (size 15 to 20)
#    0.000    1.667    1.667    1.250    5.833    7.667 
#    0.000    1.667    0.000    0.000    0.000    0.000 
#    0.000    0.000    0.000    0.000    0.000    0.000 
#
# Total GULP energy -595282.409773 kJ/mol
# GULP energy per Si atom -12401.716870 kJ/mol
# Density = 2.147996 g / cm^3
# Si number density = 21.528964 Si / 1000 Ang^3
#
#
#
# Elastic Constant Matrix: (Units=GPa)
#
#
# Indices 1 2 3 4 5 6 
#
# 1 72.6185 11.6905 38.8934 0.0000 0.0000 0.0000
# 2 11.6905 72.6186 38.8934 0.0000 0.0000 0.0000
# 3 38.8934 38.8934 148.6863 0.0000 0.0000 0.0000
# 4 0.0000 0.0000 0.0000 28.2419 0.0000 0.0000
# 5 0.0000 0.0000 0.0000 0.0000 28.2419 0.0000
# 6 0.0000 0.0000 0.0000 0.0000 0.0000 31.4053
#
#
#
# Elastic Compliance Matrix: (Units=1/GPa)
#
#
# Indices 1 2 3 4 5 6 
#
# 1 0.016024 -0.000389 -0.004090 0.000000 0.000000 0.000000
# 2 -0.000389 0.016024 -0.004090 0.000000 0.000000 0.000000
# 3 -0.004090 -0.004090 0.008865 0.000000 0.000000 0.000000
# 4 0.000000 0.000000 0.000000 0.035408 0.000000 0.000000
# 5 0.000000 0.000000 0.000000 0.000000 0.035408 0.000000
# 6 0.000000 0.000000 0.000000 0.000000 0.000000 0.031842
#
#
# Mechanical properties :
#
#
# Convention : Reuss Voigt Hill
#
# Bulk Modulus (GPa) = 42.06048 52.54201 47.30124
# Shear Modulus (GPa) = 29.65023 31.20759 30.42891
#
# Velocity S-wave (km/s) = 3.71512 3.81144 3.76359
# Velocity P-wave (km/s) = 6.16295 6.62025 6.39569
#
# Compressibility (1/GPa) = 0.02377529
#
# Stress axis : x y z
#
# Youngs Moduli (GPa) = 62.40799 62.40806 112.80184
#
# Poissons Ratio (x) = 0.02429 0.46132
# Poissons Ratio (y) = 0.02429 0.46132
# Poissons Ratio (z) = 0.25523 0.25523
#
# Static dielectric constant tensor:
#      x y z
#    x 3.942240 0.000000 0.000000 
#    y 0.000000 3.942240 0.000000 
#    z 0.000000 0.000000 3.645930 
# 
# 
# High freq. dielectric constant tensor:
#      x y z
#    x 1.848510 0.000000 0.000000 
#    y 0.000000 1.848510 0.000000 
#    z 0.000000 0.000000 1.833410 
# 
# From -- ./inp_files/6909.got.cif
#   From: 2010.03.12/outbox.cif.g09.slc.cpg/sg118_4_cif.got.tgz:6909.got - 2010.04.14 02:21:17.
