data_PCOD8310778
_publ_section_title
;
Structure prediction by ZEFSAII (Michael W. Deem and Ramdas Pophale) SiO2 
 PCOD8310778
Probable space group: I -4 M 2
;
_chemical_formula_sum "Si O2"
_cell_formula_units_Z 64
_cell_length_a 25.793715
_cell_length_b 25.793715
_cell_length_c 4.961641
_cell_angle_alpha 90.000000
_cell_angle_beta 90.000000
_cell_angle_gamma 90.000000
_cell_volume 3301.057821
_symmetry_space_group_name_H-M "I -4 M 2"
_symmetry_group_IT_number 119
_symmetry_cell_setting 'tetragonal'
loop_
_space_group_symop_operation_xyz
x,y,z
y,-x,-z
-x,-y,z
-y,x,-z
y,x,-z
-y,-x,-z
-x,y,z
x,-y,z
1/2+x,1/2+y,1/2+z
1/2+y,1/2-x,1/2-z
1/2-x,1/2-y,1/2+z
1/2-y,1/2+x,1/2-z
1/2+y,1/2+x,1/2-z
1/2-y,1/2-x,1/2-z
1/2-x,1/2+y,1/2+z
1/2+x,1/2-y,1/2+z
loop_
_atom_site_type_symbol
_atom_site_label
_atom_site_fract_x
_atom_site_fract_y
_atom_site_fract_z
Si Si1 0.392025 0.686021 0.425407
Si Si2 0.057899 0.289009 0.798636
Si Si3 0.857928 0.442552 0.193562
Si Si4 0.440495 0.636339 0.930399
O O1 0.332909 0.667092 0.500000
O O2 0.401326 0.747630 0.426362
O O3 0.430396 0.654388 0.624261
O O4 0.405762 0.672816 0.118523
O O5 0.079705 0.316796 0.527506
O O6 0.000000 0.264537 0.742179
O O7 0.052117 0.332244 0.019502
O O8 0.875945 0.500000 0.095417
O O9 0.907012 0.407012 0.250000
O O10 0.500000 0.641887 0.001279
O O11 0.422512 0.577489 0.000000
#
# Coordination Sequence:
#
# PCOD8310778 Si02
#       4
#    16  16  16  16
#     4  10  20  33  51  75 101 133 176 226 272 313
#     4  10  19  33  55  79 106 140 178 220 263 312
#     4  10  21  36  56  83 111 141 174 210 259 317
#     4  10  19  30  45  67  97 132 172 219 271 325
#
# _framework density 19.387726000000001
#
# number of rings (size 3 to 8) (size 9 to 14) (size 15 to 20)
#    0.000    2.000    0.000    4.500    0.000    2.500 
#    0.000    0.000    0.000   12.000    0.000    0.000 
#    0.000    0.000    0.000    0.000    0.000    0.000 
#
# Total GULP energy -396439.163918 kJ/mol
# GULP energy per Si atom -12388.723872 kJ/mol
# Density = 1.934360 g / cm^3
# Si number density = 19.387726 Si / 1000 Ang^3
#
#
#
# Elastic Constant Matrix: (Units=GPa)
#
#
# Indices 1 2 3 4 5 6 
#
# 1 93.1341 61.4588 17.1161 0.0000 0.0000 0.0000
# 2 61.4588 93.1353 17.1163 0.0000 0.0000 0.0000
# 3 17.1161 17.1163 85.5595 0.0000 0.0000 0.0000
# 4 0.0000 0.0000 0.0000 25.7361 0.0000 0.0000
# 5 0.0000 0.0000 0.0000 0.0000 25.7360 0.0000
# 6 0.0000 0.0000 0.0000 0.0000 0.0000 21.2122
#
#
#
# Elastic Compliance Matrix: (Units=1/GPa)
#
#
# Indices 1 2 3 4 5 6 
#
# 1 0.019169 -0.012401 -0.001354 0.000000 0.000000 0.000000
# 2 -0.012401 0.019169 -0.001354 0.000000 0.000000 0.000000
# 3 -0.001354 -0.001354 0.012230 0.000000 0.000000 0.000000
# 4 0.000000 0.000000 0.000000 0.038856 0.000000 0.000000
# 5 0.000000 0.000000 0.000000 0.000000 0.038856 0.000000
# 6 0.000000 0.000000 0.000000 0.000000 0.000000 0.047143
#
#
# Mechanical properties :
#
#
# Convention : Reuss Voigt Hill
#
# Bulk Modulus (GPa) = 49.13947 51.46793 50.30370
# Shear Modulus (GPa) = 23.53794 26.27939 24.90867
#
# Velocity S-wave (km/s) = 3.48812 3.68566 3.58825
# Velocity P-wave (km/s) = 6.45162 6.68703 6.57038
#
# Compressibility (1/GPa) = 0.02035024
#
# Stress axis : x y z
#
# Youngs Moduli (GPa) = 52.16715 52.16777 81.76941
#
# Poissons Ratio (x) = 0.64691 0.11072
# Poissons Ratio (y) = 0.64691 0.11072
# Poissons Ratio (z) = 0.07063 0.07064
#
# Static dielectric constant tensor:
#      x y z
#    x 3.740980 0.000000 0.000000 
#    y 0.000000 3.740990 0.000000 
#    z 0.000000 0.000000 3.682200 
# 
# 
# High freq. dielectric constant tensor:
#      x y z
#    x 1.728160 0.000000 0.000000 
#    y 0.000000 1.728160 0.000000 
#    z 0.000000 0.000000 1.780580 
# 
# From -- ./inp_files/751.got.cif
#   From: 2010.03.12/outbox.cif.g09.slc.cpg/sg119_1_cif.got.tgz:751.got - 2010.04.14 02:25:26.
