data_PCOD8310704
_publ_section_title
;
Structure prediction by ZEFSAII (Michael W. Deem and Ramdas Pophale) SiO2 
 PCOD8310704
Probable space group: I -4 M 2
;
_chemical_formula_sum "Si O2"
_cell_formula_units_Z 72
_cell_length_a 12.324144
_cell_length_b 12.324144
_cell_length_c 24.924367
_cell_angle_alpha 90.000000
_cell_angle_beta 90.000000
_cell_angle_gamma 90.000000
_cell_volume 3785.625651
_symmetry_space_group_name_H-M "I -4 M 2"
_symmetry_group_IT_number 119
_symmetry_cell_setting 'tetragonal'
loop_
_space_group_symop_operation_xyz
x,y,z
y,-x,-z
-x,-y,z
-y,x,-z
y,x,-z
-y,-x,-z
-x,y,z
x,-y,z
1/2+x,1/2+y,1/2+z
1/2+y,1/2-x,1/2-z
1/2-x,1/2-y,1/2+z
1/2-y,1/2+x,1/2-z
1/2+y,1/2+x,1/2-z
1/2-y,1/2-x,1/2-z
1/2-x,1/2+y,1/2+z
1/2+x,1/2-y,1/2+z
loop_
_atom_site_type_symbol
_atom_site_label
_atom_site_fract_x
_atom_site_fract_y
_atom_site_fract_z
Si Si1 0.629849 0.000000 0.957012
Si Si2 0.203650 0.763318 0.058045
Si Si3 0.204254 0.719525 0.671475
Si Si4 0.881123 0.500000 0.654752
Si Si5 0.772404 0.000000 0.058209
Si Si6 0.876088 0.874449 0.243135
O O1 0.679678 0.892945 0.928834
O O2 0.500000 0.000000 0.952559
O O3 0.669844 0.000000 0.018011
O O4 0.288870 0.757201 0.107324
O O5 0.158643 0.888696 0.052463
O O6 0.261824 0.738177 0.000000
O O7 0.132582 0.612769 0.687201
O O8 0.146839 0.821589 0.699010
O O9 0.323391 0.699659 0.696615
O O10 0.779808 0.500000 0.615836
O O11 0.000000 0.500000 0.627824
O O12 0.000000 0.838601 0.248017
O O13 0.864461 0.000000 0.227087
#
# Coordination Sequence:
#
# PCOD8310704 Si02
#       6
#     8  16  16   8   8  16
#     4  10  19  31  49  76 109 147 185 226 277 327
#     4   9  19  34  53  79 111 142 185 229 283 347
#     4  10  20  35  55  81 108 143 183 227 282 334
#     4  10  17  30  54  84 110 130 168 228 287 343
#     4   8  17  33  50  75 108 146 176 221 280 339
#     4  10  21  37  55  76 108 148 186 228 278 329
#
# _framework density 19.019314000000001
#
# number of rings (size 3 to 8) (size 9 to 14) (size 15 to 20)
#    0.000    2.444    1.111    1.000    1.556    1.333 
#    0.000    3.333    0.000    1.333    0.000    1.556 
#    0.000    3.556    0.000    0.000    0.000    0.000 
#
# Total GULP energy -445983.626073 kJ/mol
# GULP energy per Si atom -12388.434058 kJ/mol
# Density = 1.897603 g / cm^3
# Si number density = 19.019314 Si / 1000 Ang^3
#
#
#
# Elastic Constant Matrix: (Units=GPa)
#
#
# Indices 1 2 3 4 5 6 
#
# 1 100.9726 35.4336 11.7245 0.0000 0.0000 0.0000
# 2 35.4336 100.9726 11.7244 0.0000 0.0000 0.0000
# 3 11.7245 11.7244 98.2975 0.0000 0.0000 0.0000
# 4 0.0000 0.0000 0.0000 23.3607 0.0000 0.0000
# 5 0.0000 0.0000 0.0000 0.0000 23.3607 0.0000
# 6 0.0000 0.0000 0.0000 0.0000 0.0000 25.4149
#
#
#
# Elastic Compliance Matrix: (Units=1/GPa)
#
#
# Indices 1 2 3 4 5 6 
#
# 1 0.011371 -0.003887 -0.000893 0.000000 0.000000 0.000000
# 2 -0.003887 0.011371 -0.000893 0.000000 0.000000 0.000000
# 3 -0.000893 -0.000893 0.010386 0.000000 0.000000 0.000000
# 4 0.000000 0.000000 0.000000 0.042807 0.000000 0.000000
# 5 0.000000 0.000000 0.000000 0.000000 0.042807 0.000000
# 6 0.000000 0.000000 0.000000 0.000000 0.000000 0.039347
#
#
# Mechanical properties :
#
#
# Convention : Reuss Voigt Hill
#
# Bulk Modulus (GPa) = 45.90458 46.44528 46.17493
# Shear Modulus (GPa) = 28.29727 30.51794 29.40761
#
# Velocity S-wave (km/s) = 3.86141 4.01006 3.93644
# Velocity P-wave (km/s) = 6.63843 6.77598 6.70756
#
# Compressibility (1/GPa) = 0.02178432
#
# Stress axis : x y z
#
# Youngs Moduli (GPa) = 87.94070 87.94068 96.28199
#
# Poissons Ratio (x) = 0.34181 0.08595
# Poissons Ratio (y) = 0.34181 0.08595
# Poissons Ratio (z) = 0.07851 0.07851
#
# Static dielectric constant tensor:
#      x y z
#    x 3.435260 0.000000 0.000000 
#    y 0.000000 3.435260 0.000000 
#    z 0.000000 0.000000 3.476520 
# 
# 
# High freq. dielectric constant tensor:
#      x y z
#    x 1.720940 0.000000 0.000000 
#    y 0.000000 1.720940 0.000000 
#    z 0.000000 0.000000 1.740520 
# 
# From -- ./inp_files/9421.got.cif
#   From: 2010.03.12/outbox.cif.g09.slc.cpg/sg119_5_cif.got.tgz:9421.got - 2010.04.14 02:25:26.
