data_PCOD8310640
_publ_section_title
;
Structure prediction by ZEFSAII (Michael W. Deem and Ramdas Pophale) SiO2 
 PCOD8310640
Probable space group: P -4 N 2
;
_chemical_formula_sum "Si O2"
_cell_formula_units_Z 32
_cell_length_a 8.844766
_cell_length_b 8.844766
_cell_length_c 17.441678
_cell_angle_alpha 90.000000
_cell_angle_beta 90.000000
_cell_angle_gamma 90.000000
_cell_volume 1364.460475
_symmetry_space_group_name_H-M "P -4 N 2"
_symmetry_group_IT_number 118
_symmetry_cell_setting 'tetragonal'
loop_
_space_group_symop_operation_xyz
x,y,z
y,-x,-z
-x,-y,z
-y,x,-z
1/2+y,1/2+x,1/2-z
1/2-y,1/2-x,1/2-z
1/2-x,1/2+y,1/2+z
1/2+x,1/2-y,1/2+z
loop_
_atom_site_type_symbol
_atom_site_label
_atom_site_fract_x
_atom_site_fract_y
_atom_site_fract_z
Si Si1 0.696955 0.614167 0.341589
Si Si2 0.663966 0.787364 0.565544
Si Si3 0.175576 0.974052 0.672160
Si Si4 0.501343 0.836750 0.415162
O O1 0.719521 0.496313 0.409159
O O2 0.812034 0.755348 0.348377
O O3 0.695030 0.515948 0.263943
O O4 0.539190 0.702345 0.354960
O O5 0.626404 0.857492 0.482625
O O6 0.793999 0.663510 0.552993
O O7 0.719938 0.906457 0.628565
O O8 0.000000 0.000000 0.648355
O O9 0.500000 0.000000 0.373077
#
# Coordination Sequence:
#
# PCOD8310640 Si02
#       4
#     8   8   8   8
#     4  11  24  44  71 103 144 195 245 304 383 453
#     4  12  24  43  70 100 144 191 252 309 378 459
#     4  11  24  45  69 104 144 191 250 308 372 453
#     4  12  25  43  67 106 143 191 248 316 385 451
#
# _framework density 23.452494000000002
#
# number of rings (size 3 to 8) (size 9 to 14) (size 15 to 20)
#    0.000    0.500    2.500    6.750    0.000    2.000 
#    0.000    7.500    0.000    0.000    0.000    0.000 
#    0.000    0.000    0.000    0.000    0.000    0.000 
#
# Total GULP energy -396635.646415 kJ/mol
# GULP energy per Si atom -12394.863950 kJ/mol
# Density = 2.339911 g / cm^3
# Si number density = 23.452494 Si / 1000 Ang^3
#
#
#
# Elastic Constant Matrix: (Units=GPa)
#
#
# Indices 1 2 3 4 5 6 
#
# 1 90.6101 10.0186 13.4206 0.0000 0.0000 0.0000
# 2 10.0186 90.6101 13.4206 0.0000 0.0000 0.0000
# 3 13.4206 13.4206 95.7786 0.0000 0.0000 0.0000
# 4 0.0000 0.0000 0.0000 37.7274 0.0000 0.0000
# 5 0.0000 0.0000 0.0000 0.0000 37.7274 0.0000
# 6 0.0000 0.0000 0.0000 0.0000 0.0000 47.5117
#
#
#
# Elastic Compliance Matrix: (Units=1/GPa)
#
#
# Indices 1 2 3 4 5 6 
#
# 1 0.011366 -0.001042 -0.001447 0.000000 0.000000 0.000000
# 2 -0.001042 0.011366 -0.001447 0.000000 0.000000 0.000000
# 3 -0.001447 -0.001447 0.010846 0.000000 0.000000 0.000000
# 4 0.000000 0.000000 0.000000 0.026506 0.000000 0.000000
# 5 0.000000 0.000000 0.000000 0.000000 0.026506 0.000000
# 6 0.000000 0.000000 0.000000 0.000000 0.000000 0.021047
#
#
# Mechanical properties :
#
#
# Convention : Reuss Voigt Hill
#
# Bulk Modulus (GPa) = 38.90031 38.96875 38.93453
# Shear Modulus (GPa) = 40.29755 40.60255 40.45005
#
# Velocity S-wave (km/s) = 4.14969 4.16536 4.15753
# Velocity P-wave (km/s) = 6.29148 6.30760 6.29955
#
# Compressibility (1/GPa) = 0.02570673
#
# Stress axis : x y z
#
# Youngs Moduli (GPa) = 87.98321 87.98321 92.19887
#
# Poissons Ratio (x) = 0.09172 0.13337
# Poissons Ratio (y) = 0.09172 0.13337
# Poissons Ratio (z) = 0.12727 0.12727
#
# Static dielectric constant tensor:
#      x y z
#    x 4.291080 0.000000 0.000000 
#    y 0.000000 4.291080 0.000000 
#    z 0.000000 0.000000 4.046010 
# 
# 
# High freq. dielectric constant tensor:
#      x y z
#    x 1.936020 0.000000 0.000000 
#    y 0.000000 1.936020 0.000000 
#    z 0.000000 0.000000 1.918900 
# 
# From -- ./inp_files/5297.got.cif
#   From: 2010.03.12/outbox.cif.g09.slc.cpg/sg118_3_cif.got.tgz:5297.got - 2010.04.14 02:21:17.
