data_PCOD8310136
_publ_section_title
;
Structure prediction by ZEFSAII (Michael W. Deem and Ramdas Pophale) SiO2 
 PCOD8310136
Probable space group: P -4 C 2
;
_chemical_formula_sum "Si O2"
_cell_formula_units_Z 48
_cell_length_a 17.646545
_cell_length_b 17.646545
_cell_length_c 8.791253
_cell_angle_alpha 90.000000
_cell_angle_beta 90.000000
_cell_angle_gamma 90.000000
_cell_volume 2737.601023
_symmetry_space_group_name_H-M "P -4 C 2"
_symmetry_group_IT_number 116
_symmetry_cell_setting 'tetragonal'
loop_
_space_group_symop_operation_xyz
x,y,z
y,-x,-z
-x,-y,z
-y,x,-z
y,x,1/2-z
-y,-x,1/2-z
-x,y,1/2+z
x,-y,1/2+z
loop_
_atom_site_type_symbol
_atom_site_label
_atom_site_fract_x
_atom_site_fract_y
_atom_site_fract_z
Si Si1 0.419110 0.917788 0.579730
Si Si2 0.793843 0.329104 0.412477
Si Si3 0.426825 0.343259 0.621421
Si Si4 0.578048 0.918463 0.441606
Si Si5 0.405109 0.339414 0.112874
Si Si6 0.209600 0.325658 0.557707
O O1 0.498323 0.886533 0.508810
O O2 0.427976 0.922519 0.760425
O O3 0.345928 0.865720 0.538145
O O4 0.403643 0.999742 0.509932
O O5 0.734573 0.395478 0.448456
O O6 0.867386 0.349855 0.510735
O O7 0.758399 0.247172 0.465057
O O8 0.812449 0.333014 0.233740
O O9 0.368307 0.368307 0.750000
O O10 0.418459 0.402933 0.482382
O O11 0.511190 0.332719 0.683100
O O12 0.344265 0.344265 0.250000
O O13 0.387721 0.270625 0.998903
#
# Coordination Sequence:
#
# PCOD8310136 Si02
#       6
#     8   8   8   8   8   8
#     4  11  22  36  57  82 109 141 179 226 274 336
#     4  10  20  38  55  72 105 139 173 222 273 325
#     4  11  21  37  45  66  93 133 173 227 278 315
#     4  11  22  36  58  81 110 140 180 224 279 330
#     4  11  23  31  51  66  93 128 180 226 272 323
#     4  10  21  37  53  75 104 137 177 220 271 326
#
# _framework density 17.5336
#
# number of rings (size 3 to 8) (size 9 to 14) (size 15 to 20)
#    0.000    1.333    3.333    6.000    4.667    2.000 
#    0.000    0.000    0.000    0.000    0.000    0.000 
#    0.000    0.667    0.000    7.000    0.000    3.000 
#
# Total GULP energy -594680.514294 kJ/mol
# GULP energy per Si atom -12389.177381 kJ/mol
# Density = 1.749369 g / cm^3
# Si number density = 17.533600 Si / 1000 Ang^3
#
#
#
# Elastic Constant Matrix: (Units=GPa)
#
#
# Indices 1 2 3 4 5 6 
#
# 1 81.9284 39.6933 40.7805 0.0000 0.0000 0.0000
# 2 39.6933 81.9284 40.7805 0.0000 0.0000 0.0000
# 3 40.7805 40.7805 125.4400 0.0000 0.0000 0.0000
# 4 0.0000 0.0000 0.0000 26.3821 0.0000 0.0000
# 5 0.0000 0.0000 0.0000 0.0000 26.3821 0.0000
# 6 0.0000 0.0000 0.0000 0.0000 0.0000 26.2410
#
#
#
# Elastic Compliance Matrix: (Units=1/GPa)
#
#
# Indices 1 2 3 4 5 6 
#
# 1 0.017096 -0.006581 -0.003418 0.000000 0.000000 0.000000
# 2 -0.006581 0.017096 -0.003418 0.000000 0.000000 0.000000
# 3 -0.003418 -0.003418 0.010195 0.000000 0.000000 0.000000
# 4 0.000000 0.000000 0.000000 0.037904 0.000000 0.000000
# 5 0.000000 0.000000 0.000000 0.000000 0.037904 0.000000
# 6 0.000000 0.000000 0.000000 0.000000 0.000000 0.038108
#
#
# Mechanical properties :
#
#
# Convention : Reuss Voigt Hill
#
# Bulk Modulus (GPa) = 56.97843 59.08949 58.03396
# Shear Modulus (GPa) = 26.17951 27.00387 26.59169
#
# Velocity S-wave (km/s) = 3.86826 3.92870 3.89860
# Velocity P-wave (km/s) = 7.24697 7.37248 7.30999
#
# Compressibility (1/GPa) = 0.01755050
#
# Stress axis : x y z
#
# Youngs Moduli (GPa) = 58.49391 58.49391 98.09208
#
# Poissons Ratio (x) = 0.38496 0.33531
# Poissons Ratio (y) = 0.38496 0.33531
# Poissons Ratio (z) = 0.19995 0.19995
#
# Static dielectric constant tensor:
#      x y z
#    x 3.154590 0.000000 0.000000 
#    y 0.000000 3.154590 0.000000 
#    z 0.000000 0.000000 3.474820 
# 
# 
# High freq. dielectric constant tensor:
#      x y z
#    x 1.648540 0.000000 0.000000 
#    y 0.000000 1.648540 0.000000 
#    z 0.000000 0.000000 1.701340 
# 
# From -- ./inp_files/948.got.cif
#   From: 2010.03.12/outbox.cif.g09.slc.cpg/sg116_1_cif.got.tgz:948.got - 2010.04.14 02:15:44.
