data_PCOD8310589
_publ_section_title
;
Structure prediction by ZEFSAII (Michael W. Deem and Ramdas Pophale) SiO2 
 PCOD8310589
Probable space group: P -4 N 2
;
_chemical_formula_sum "Si O2"
_cell_formula_units_Z 56
_cell_length_a 15.021680
_cell_length_b 15.021680
_cell_length_c 11.620390
_cell_angle_alpha 90.000000
_cell_angle_beta 90.000000
_cell_angle_gamma 90.000000
_cell_volume 2622.151113
_symmetry_space_group_name_H-M "P -4 N 2"
_symmetry_group_IT_number 118
_symmetry_cell_setting 'tetragonal'
loop_
_space_group_symop_operation_xyz
x,y,z
y,-x,-z
-x,-y,z
-y,x,-z
1/2+y,1/2+x,1/2-z
1/2-y,1/2-x,1/2-z
1/2-x,1/2+y,1/2+z
1/2+x,1/2-y,1/2+z
loop_
_atom_site_type_symbol
_atom_site_label
_atom_site_fract_x
_atom_site_fract_y
_atom_site_fract_z
Si Si1 0.613148 0.214976 0.344128
Si Si2 0.354886 0.315628 0.041923
Si Si3 0.340454 0.272053 0.515716
Si Si4 0.038931 0.669007 0.183158
Si Si5 0.575744 0.061084 0.517006
Si Si6 0.007685 0.242665 0.402341
Si Si7 0.265267 0.089175 0.225640
O O1 0.688211 0.188211 0.250000
O O2 0.641385 0.306259 0.411717
O O3 0.609796 0.136731 0.435022
O O4 0.516527 0.222007 0.285711
O O5 0.295088 0.401018 0.052365
O O6 0.396900 0.297031 0.165508
O O7 0.293892 0.241178 0.987892
O O8 0.432986 0.325362 0.947825
O O9 0.422701 0.224036 0.576451
O O10 0.372093 0.289211 0.384392
O O11 0.115812 0.615812 0.250000
O O12 0.995370 0.744520 0.265023
O O13 0.963102 0.602587 0.135641
O O14 0.657665 0.995467 0.545524
O O15 0.500000 0.000000 0.457350
O O16 0.359109 0.140892 0.250000
#
# Coordination Sequence:
#
# PCOD8310589 Si02
#       7
#     8   8   8   8   8   8   8
#     4  12  26  40  71 102 139 182 229 280 353 429
#     4  11  25  45  65  95 135 187 227 284 345 423
#     4  11  23  45  67  98 140 185 228 279 351 428
#     4  12  23  40  69 103 136 174 223 291 346 412
#     4  12  24  40  67 108 135 169 221 290 354 404
#     4  12  26  42  70  98 139 176 236 280 350 417
#     4  10  25  43  66  97 141 181 226 285 352 418
#
# _framework density 21.356511999999999
#
# number of rings (size 3 to 8) (size 9 to 14) (size 15 to 20)
#    0.000    0.571    5.714    1.714    6.000    1.429 
#    0.000    0.000    0.000    2.143    0.000    0.000 
#    0.000    0.000    0.000    0.000    0.000    0.000 
#
# Total GULP energy -694303.286299 kJ/mol
# GULP energy per Si atom -12398.272970 kJ/mol
# Density = 2.130790 g / cm^3
# Si number density = 21.356512 Si / 1000 Ang^3
#
#
#
# Elastic Constant Matrix: (Units=GPa)
#
#
# Indices 1 2 3 4 5 6 
#
# 1 52.2250 43.8695 18.7726 0.0000 0.0000 0.0000
# 2 43.8695 52.2256 18.7723 0.0000 0.0000 0.0000
# 3 18.7726 18.7723 60.0000 0.0000 0.0000 0.0000
# 4 0.0000 0.0000 0.0000 24.0721 0.0000 0.0000
# 5 0.0000 0.0000 0.0000 0.0000 24.0721 0.0000
# 6 0.0000 0.0000 0.0000 0.0000 0.0000 31.5068
#
#
#
# Elastic Compliance Matrix: (Units=1/GPa)
#
#
# Indices 1 2 3 4 5 6 
#
# 1 0.065767 -0.053911 -0.003710 0.000000 0.000000 0.000000
# 2 -0.053911 0.065766 -0.003709 0.000000 0.000000 0.000000
# 3 -0.003710 -0.003709 0.018988 0.000000 0.000000 0.000000
# 4 0.000000 0.000000 0.000000 0.041542 0.000000 0.000000
# 5 0.000000 0.000000 0.000000 0.000000 0.041542 0.000000
# 6 0.000000 0.000000 0.000000 0.000000 0.000000 0.031739
#
#
# Mechanical properties :
#
#
# Convention : Reuss Voigt Hill
#
# Bulk Modulus (GPa) = 35.89146 36.36435 36.12790
# Shear Modulus (GPa) = 12.58530 21.46595 17.02563
#
# Velocity S-wave (km/s) = 2.43018 3.17381 2.82655
# Velocity P-wave (km/s) = 4.97159 5.52223 5.25413
#
# Compressibility (1/GPa) = 0.02786178
#
# Stress axis : x y z
#
# Youngs Moduli (GPa) = 15.20524 15.20552 52.66552
#
# Poissons Ratio (x) = 0.81974 0.19538
# Poissons Ratio (y) = 0.81972 0.19533
# Poissons Ratio (z) = 0.05641 0.05639
#
# Static dielectric constant tensor:
#      x y z
#    x 4.008130 0.000000 0.000000 
#    y 0.000000 4.008130 0.000000 
#    z 0.000000 0.000000 4.264570 
# 
# 
# High freq. dielectric constant tensor:
#      x y z
#    x 1.825150 0.000000 0.000000 
#    y 0.000000 1.825150 0.000000 
#    z 0.000000 0.000000 1.856630 
# 
# From -- ./inp_files/3409.got.cif
#   From: 2010.03.12/outbox.cif.g09.slc.cpg/sg118_2_cif.got.tgz:3409.got - 2010.04.14 02:21:17.
