data_PCOD8310826
_publ_section_title
;
Structure prediction by ZEFSAII (Michael W. Deem and Ramdas Pophale) SiO2 
 PCOD8310826
Probable space group: I -4 M 2
;
_chemical_formula_sum "Si O2"
_cell_formula_units_Z 80
_cell_length_a 26.472078
_cell_length_b 26.472078
_cell_length_c 5.930897
_cell_angle_alpha 90.000000
_cell_angle_beta 90.000000
_cell_angle_gamma 90.000000
_cell_volume 4156.200109
_symmetry_space_group_name_H-M "I -4 M 2"
_symmetry_group_IT_number 119
_symmetry_cell_setting 'tetragonal'
loop_
_space_group_symop_operation_xyz
x,y,z
y,-x,-z
-x,-y,z
-y,x,-z
y,x,-z
-y,-x,-z
-x,y,z
x,-y,z
1/2+x,1/2+y,1/2+z
1/2+y,1/2-x,1/2-z
1/2-x,1/2-y,1/2+z
1/2-y,1/2+x,1/2-z
1/2+y,1/2+x,1/2-z
1/2-y,1/2-x,1/2-z
1/2-x,1/2+y,1/2+z
1/2+x,1/2-y,1/2+z
loop_
_atom_site_type_symbol
_atom_site_label
_atom_site_fract_x
_atom_site_fract_y
_atom_site_fract_z
Si Si1 0.058179 0.195262 0.277730
Si Si2 0.136836 0.636836 0.250000
Si Si3 0.629952 0.057958 0.132056
Si Si4 0.283930 0.899147 0.423740
Si Si5 0.138646 0.206508 0.886766
Si Si6 0.125815 0.125815 0.500000
O O1 0.068578 0.240281 0.455499
O O2 0.071095 0.140005 0.392250
O O3 0.000000 0.195246 0.205974
O O4 0.091329 0.204181 0.056380
O O5 0.139514 0.585980 0.396632
O O6 0.137402 0.686836 0.403388
O O7 0.580105 0.080105 0.250000
O O8 0.677056 0.063171 0.302676
O O9 0.620697 0.000000 0.073993
O O10 0.261050 0.861892 0.231996
O O11 0.133573 0.164469 0.699304
O O12 0.193121 0.193121 0.000000
#
# Coordination Sequence:
#
# PCOD8310826 Si02
#       6
#    16   8  16  16  16   8
#     4  10  19  32  56  88 112 138 183 232 276 326
#     4  10  22  36  54  83 108 148 178 232 280 334
#     4  10  22  39  57  81 110 144 183 227 281 336
#     4  10  20  35  56  84 109 142 181 230 282 328
#     4   9  18  33  53  82 108 146 180 225 280 323
#     4   8  18  34  50  79 114 150 174 220 276 326
#
# _framework density 19.248349999999999
#
# number of rings (size 3 to 8) (size 9 to 14) (size 15 to 20)
#    0.000    2.400    0.000    1.800    0.000    9.800 
#    0.000    0.000    0.000    0.300  618.800    0.000 
#    0.000    0.000    0.000    0.000    0.000    0.000 
#
# Total GULP energy -495560.182884 kJ/mol
# GULP energy per Si atom -12389.004572 kJ/mol
# Density = 1.920454 g / cm^3
# Si number density = 19.248350 Si / 1000 Ang^3
#
#
#
# Elastic Constant Matrix: (Units=GPa)
#
#
# Indices 1 2 3 4 5 6 
#
# 1 89.5261 79.2659 48.7017 0.0000 0.0000 0.0000
# 2 79.2659 89.5261 48.7017 0.0000 0.0000 0.0000
# 3 48.7017 48.7017 113.6805 0.0000 0.0000 0.0000
# 4 0.0000 0.0000 0.0000 24.5523 0.0000 0.0000
# 5 0.0000 0.0000 0.0000 0.0000 24.5523 0.0000
# 6 0.0000 0.0000 0.0000 0.0000 0.0000 16.5738
#
#
#
# Elastic Compliance Matrix: (Units=1/GPa)
#
#
# Indices 1 2 3 4 5 6 
#
# 1 0.052667 -0.044797 -0.003372 0.000000 0.000000 0.000000
# 2 -0.044797 0.052667 -0.003372 0.000000 0.000000 0.000000
# 3 -0.003372 -0.003372 0.011685 0.000000 0.000000 0.000000
# 4 0.000000 0.000000 0.000000 0.040729 0.000000 0.000000
# 5 0.000000 0.000000 0.000000 0.000000 0.040729 0.000000
# 6 0.000000 0.000000 0.000000 0.000000 0.000000 0.060336
#
#
# Mechanical properties :
#
#
# Convention : Reuss Voigt Hill
#
# Bulk Modulus (GPa) = 71.74034 71.78569 71.76301
# Shear Modulus (GPa) = 13.64102 20.87324 17.25713
#
# Velocity S-wave (km/s) = 2.66500 3.29662 2.99749
# Velocity P-wave (km/s) = 6.84262 7.20178 7.02450
#
# Compressibility (1/GPa) = 0.01393916
#
# Stress axis : x y z
#
# Youngs Moduli (GPa) = 18.98718 18.98718 85.57668
#
# Poissons Ratio (x) = 0.85057 0.28853
# Poissons Ratio (y) = 0.85057 0.28853
# Poissons Ratio (z) = 0.06402 0.06402
#
# Static dielectric constant tensor:
#      x y z
#    x 3.530940 0.000000 0.000000 
#    y 0.000000 3.530940 0.000000 
#    z 0.000000 0.000000 3.876440 
# 
# 
# High freq. dielectric constant tensor:
#      x y z
#    x 1.728190 0.000000 0.000000 
#    y 0.000000 1.728190 0.000000 
#    z 0.000000 0.000000 1.778370 
# 
# From -- ./inp_files/1012.got.cif
#   From: 2010.03.12/outbox.cif.g09.slc.cpg/sg119_1_cif.got.tgz:1012.got - 2010.04.14 02:25:26.
