data_PCOD8310446
_publ_section_title
;
Structure prediction by ZEFSAII (Michael W. Deem and Ramdas Pophale) SiO2 
 PCOD8310446
Probable space group: P -4 N 2
;
_chemical_formula_sum "Si O2"
_cell_formula_units_Z 56
_cell_length_a 21.579844
_cell_length_b 21.579844
_cell_length_c 7.415107
_cell_angle_alpha 90.000000
_cell_angle_beta 90.000000
_cell_angle_gamma 90.000000
_cell_volume 3453.138710
_symmetry_space_group_name_H-M "P -4 N 2"
_symmetry_group_IT_number 118
_symmetry_cell_setting 'tetragonal'
loop_
_space_group_symop_operation_xyz
x,y,z
y,-x,-z
-x,-y,z
-y,x,-z
1/2+y,1/2+x,1/2-z
1/2-y,1/2-x,1/2-z
1/2-x,1/2+y,1/2+z
1/2+x,1/2-y,1/2+z
loop_
_atom_site_type_symbol
_atom_site_label
_atom_site_fract_x
_atom_site_fract_y
_atom_site_fract_z
Si Si1 0.695206 0.702015 0.250001
Si Si2 0.735711 0.134849 0.042476
Si Si3 0.365151 0.764289 0.042475
Si Si4 0.548794 0.048794 0.535972
Si Si5 0.493405 0.818462 0.959876
Si Si6 0.404655 0.200702 0.250000
Si Si7 0.818462 0.506595 0.459875
O O1 0.741125 0.758876 0.250000
O O2 0.706542 0.660700 0.428087
O O3 0.627077 0.731543 0.250001
O O4 0.706541 0.660700 0.071915
O O5 0.672590 0.172590 0.992685
O O6 0.753166 0.143552 0.250001
O O7 0.728860 0.062786 0.992868
O O8 0.437214 0.771140 0.992868
O O9 0.549216 0.049216 0.750000
O O10 0.529870 0.115809 0.463134
O O11 0.500000 0.000000 0.457431
O O12 0.615809 0.029870 0.463134
O O13 0.511875 0.820823 0.750000
O O14 0.554163 0.800133 0.069978
O O15 0.356266 0.143735 0.250000
O O16 0.445837 0.199867 0.430022
#
# Coordination Sequence:
#
# PCOD8310446 Si02
#       7
#     8   8   8   8   8   8   8
#     4   9  20  36  53  70 102 138 175 223 272 309
#     4  10  18  31  54  79  96 129 182 230 261 295
#     4  10  18  31  54  79  96 129 182 230 261 295
#     4   9  18  29  43  69 104 147 181 208 241 291
#     4  11  20  32  52  74 106 141 183 218 255 302
#     4  11  24  37  48  75 113 150 175 209 268 328
#     4  11  20  32  52  74 106 141 183 218 255 302
#
# _framework density 16.217129
#
# number of rings (size 3 to 8) (size 9 to 14) (size 15 to 20)
#    0.000    1.857    4.286    0.857    0.000    3.429 
#    0.000    4.286    0.000    0.000    0.000    0.000 
#    0.000    3.429    0.000    0.000    0.000    0.000 
#
# Total GULP energy -694405.706368 kJ/mol
# GULP energy per Si atom -12400.101899 kJ/mol
# Density = 1.618022 g / cm^3
# Si number density = 16.217129 Si / 1000 Ang^3
#
#
#
# Elastic Constant Matrix: (Units=GPa)
#
#
# Indices 1 2 3 4 5 6 
#
# 1 84.7048 69.5451 44.5339 0.0000 0.0000 0.0000
# 2 69.5451 84.7054 44.5344 0.0000 0.0000 0.0000
# 3 44.5339 44.5344 113.1431 0.0000 0.0000 0.0000
# 4 0.0000 0.0000 0.0000 21.3647 0.0000 0.0000
# 5 0.0000 0.0000 0.0000 0.0000 21.3651 0.0000
# 6 0.0000 0.0000 0.0000 0.0000 0.0000 34.9145
#
#
#
# Elastic Compliance Matrix: (Units=1/GPa)
#
#
# Indices 1 2 3 4 5 6 
#
# 1 0.037177 -0.028787 -0.003302 0.000000 0.000000 0.000000
# 2 -0.028787 0.037176 -0.003302 0.000000 0.000000 0.000000
# 3 -0.003302 -0.003302 0.011438 0.000000 0.000000 0.000000
# 4 0.000000 0.000000 0.000000 0.046806 0.000000 0.000000
# 5 0.000000 0.000000 0.000000 0.000000 0.046805 0.000000
# 6 0.000000 0.000000 0.000000 0.000000 0.000000 0.028641
#
#
# Mechanical properties :
#
#
# Convention : Reuss Voigt Hill
#
# Bulk Modulus (GPa) = 66.62934 66.64224 66.63579
# Shear Modulus (GPa) = 17.61624 23.79153 20.70389
#
# Velocity S-wave (km/s) = 3.29944 3.83438 3.57693
# Velocity P-wave (km/s) = 7.46258 7.79655 7.63139
#
# Compressibility (1/GPa) = 0.01500840
#
# Stress axis : x y z
#
# Youngs Moduli (GPa) = 26.89871 26.89880 87.42785
#
# Poissons Ratio (x) = 0.77433 0.28870
# Poissons Ratio (y) = 0.77432 0.28872
# Poissons Ratio (z) = 0.08883 0.08883
#
# Static dielectric constant tensor:
#      x y z
#    x 2.980440 0.000000 0.000000 
#    y 0.000000 2.980440 0.000000 
#    z 0.000000 0.000000 3.118750 
# 
# 
# High freq. dielectric constant tensor:
#      x y z
#    x 1.596670 0.000000 0.000000 
#    y 0.000000 1.596670 0.000000 
#    z 0.000000 0.000000 1.640240 
# 
# From -- ./inp_files/2308.got.cif
#   From: 2010.03.12/outbox.cif.g09.slc.cpg/sg118_2_cif.got.tgz:2308.got - 2010.04.14 02:21:17.
