data_PCOD8310822
_publ_section_title
;
Structure prediction by ZEFSAII (Michael W. Deem and Ramdas Pophale) SiO2 
 PCOD8310822
Probable space group: I -4 M 2
;
_chemical_formula_sum "Si O2"
_cell_formula_units_Z 112
_cell_length_a 14.574491
_cell_length_b 14.574491
_cell_length_c 23.130352
_cell_angle_alpha 90.000000
_cell_angle_beta 90.000000
_cell_angle_gamma 90.000000
_cell_volume 4913.251945
_symmetry_space_group_name_H-M "I -4 M 2"
_symmetry_group_IT_number 119
_symmetry_cell_setting 'tetragonal'
loop_
_space_group_symop_operation_xyz
x,y,z
y,-x,-z
-x,-y,z
-y,x,-z
y,x,-z
-y,-x,-z
-x,y,z
x,-y,z
1/2+x,1/2+y,1/2+z
1/2+y,1/2-x,1/2-z
1/2-x,1/2-y,1/2+z
1/2-y,1/2+x,1/2-z
1/2+y,1/2+x,1/2-z
1/2-y,1/2-x,1/2-z
1/2-x,1/2+y,1/2+z
1/2+x,1/2-y,1/2+z
loop_
_atom_site_type_symbol
_atom_site_label
_atom_site_fract_x
_atom_site_fract_y
_atom_site_fract_z
Si Si1 0.750744 0.106211 0.484518
Si Si2 0.361642 0.610697 0.223334
Si Si3 0.600460 0.109394 0.573636
Si Si4 0.225656 0.601662 0.851549
Si Si5 0.100491 0.337715 0.305777
Si Si6 0.108659 0.102107 0.935830
Si Si7 0.771581 0.104474 0.166027
O O1 0.845245 0.154756 0.500000
O O2 0.670861 0.146404 0.525911
O O3 0.722348 0.124476 0.419048
O O4 0.766910 0.000000 0.497486
O O5 0.382262 0.500000 0.219727
O O6 0.404451 0.668029 0.169972
O O7 0.255776 0.639247 0.220130
O O8 0.398015 0.653818 0.282539
O O9 0.500000 0.146821 0.556782
O O10 0.624676 0.152653 0.637329
O O11 0.598330 0.000000 0.575165
O O12 0.182510 0.500000 0.840313
O O13 0.165396 0.680842 0.820088
O O14 0.095585 0.404416 0.250000
O O15 0.000000 0.318419 0.329918
O O16 0.146416 0.175553 0.889568
O O17 0.000000 0.095836 0.930860
O O18 0.149464 0.000000 0.923563
O O19 0.136430 0.136430 0.000000
O O20 0.738557 0.000000 0.155313
#
# Coordination Sequence:
#
# PCOD8310822 Si02
#       7
#    16  16  16  16  16  16  16
#     4  10  22  40  63  92 126 166 213 267 326 388
#     4  11  24  42  65  92 123 159 202 259 326 390
#     4   9  18  34  58  88 123 165 211 257 307 368
#     4  11  25  43  64  91 125 168 215 266 325 386
#     4  10  19  32  54  86 124 163 202 248 304 370
#     4   8  15  31  58  94 134 172 212 262 323 391
#     4  11  23  40  65  95 128 169 216 266 322 386
#
# _framework density 22.795491999999999
#
# number of rings (size 3 to 8) (size 9 to 14) (size 15 to 20)
#    0.000    2.000    0.000    3.857    0.000    5.714 
#    0.000    2.857    0.000    7.714    0.000    0.000 
#    0.000    0.286    0.000    0.000    0.000    0.000 
#
# Total GULP energy -693863.221591 kJ/mol
# GULP energy per Si atom -12390.414671 kJ/mol
# Density = 2.274361 g / cm^3
# Si number density = 22.795492 Si / 1000 Ang^3
#
#
#
# Elastic Constant Matrix: (Units=GPa)
#
#
# Indices 1 2 3 4 5 6 
#
# 1 103.8536 53.8655 44.0950 0.0000 0.0000 0.0000
# 2 53.8655 103.8567 44.0943 0.0000 0.0000 0.0000
# 3 44.0950 44.0943 160.7013 0.0000 0.0000 0.0000
# 4 0.0000 0.0000 0.0000 25.1963 0.0000 0.0000
# 5 0.0000 0.0000 0.0000 0.0000 25.1960 0.0000
# 6 0.0000 0.0000 0.0000 0.0000 0.0000 7.8406
#
#
#
# Elastic Compliance Matrix: (Units=1/GPa)
#
#
# Indices 1 2 3 4 5 6 
#
# 1 0.013747 -0.006257 -0.002055 0.000000 0.000000 0.000000
# 2 -0.006257 0.013746 -0.002055 0.000000 0.000000 0.000000
# 3 -0.002055 -0.002055 0.007350 0.000000 0.000000 0.000000
# 4 0.000000 0.000000 0.000000 0.039688 0.000000 0.000000
# 5 0.000000 0.000000 0.000000 0.000000 0.039689 0.000000
# 6 0.000000 0.000000 0.000000 0.000000 0.000000 0.127541
#
#
# Mechanical properties :
#
#
# Convention : Reuss Voigt Hill
#
# Bulk Modulus (GPa) = 70.87568 72.50234 71.68901
# Shear Modulus (GPa) = 18.71261 26.73705 22.72483
#
# Velocity S-wave (km/s) = 2.86823 3.42849 3.16080
# Velocity P-wave (km/s) = 6.49064 6.89546 6.69611
#
# Compressibility (1/GPa) = 0.01410921
#
# Stress axis : x y z
#
# Youngs Moduli (GPa) = 72.74311 72.74587 136.04581
#
# Poissons Ratio (x) = 0.45520 0.27959
# Poissons Ratio (y) = 0.45518 0.27956
# Poissons Ratio (z) = 0.14950 0.14948
#
# Static dielectric constant tensor:
#      x y z
#    x 4.067890 0.000000 0.000000 
#    y 0.000000 4.067890 0.000000 
#    z 0.000000 0.000000 4.263290 
# 
# 
# High freq. dielectric constant tensor:
#      x y z
#    x 1.893470 0.000000 0.000000 
#    y 0.000000 1.893470 0.000000 
#    z 0.000000 0.000000 1.905840 
# 
# From -- ./inp_files/8836.got.cif
#   From: 2010.03.12/outbox.cif.g09.slc.cpg/sg119_5_cif.got.tgz:8836.got - 2010.04.14 02:25:26.
