data_PCOD8310633
_publ_section_title
;
Structure prediction by ZEFSAII (Michael W. Deem and Ramdas Pophale) SiO2 
 PCOD8310633
Probable space group: P -4 N 2
;
_chemical_formula_sum "Si O2"
_cell_formula_units_Z 38
_cell_length_a 11.531045
_cell_length_b 11.531045
_cell_length_c 14.071081
_cell_angle_alpha 90.000000
_cell_angle_beta 90.000000
_cell_angle_gamma 90.000000
_cell_volume 1870.961268
_symmetry_space_group_name_H-M "P -4 N 2"
_symmetry_group_IT_number 118
_symmetry_cell_setting 'tetragonal'
loop_
_space_group_symop_operation_xyz
x,y,z
y,-x,-z
-x,-y,z
-y,x,-z
1/2+y,1/2+x,1/2-z
1/2-y,1/2-x,1/2-z
1/2-x,1/2+y,1/2+z
1/2+x,1/2-y,1/2+z
loop_
_atom_site_type_symbol
_atom_site_label
_atom_site_fract_x
_atom_site_fract_y
_atom_site_fract_z
Si Si1 0.000000 0.500000 0.250000
Si Si2 0.668414 0.668413 0.117029
Si Si3 0.000000 0.000000 0.500000
Si Si4 0.172090 0.438142 0.403930
Si Si5 0.593891 0.406108 0.678732
Si Si6 0.000000 0.500000 0.750000
Si Si7 0.061859 0.672090 0.903929
O O1 0.111943 0.502604 0.316442
O O2 0.581879 0.581877 0.063197
O O3 0.801585 0.640225 0.090493
O O4 0.652730 0.652726 0.229611
O O5 0.640222 0.801585 0.090495
O O6 0.307381 0.463025 0.386498
O O7 0.131099 0.500001 0.500000
O O8 0.500000 0.500000 0.709876
O O9 0.692619 0.463023 0.613502
O O10 0.002604 0.388056 0.816442
#
# Coordination Sequence:
#
# PCOD8310633 Si02
#       7
#     2   8   2   8   8   2   8
#     4  12  22  42  66  90 136 174 216 276 336 394
#     4  11  24  48  62  95 142 173 220 278 334 389
#     4  12  28  40  68  96 130 192 220 264 332 420
#     4  11  25  42  70  97 130 176 226 277 330 394
#     4  11  23  46  67  94 135 180 214 276 338 394
#     4  12  22  42  66  90 136 174 216 276 336 394
#     4  11  25  42  70  97 130 176 226 277 330 394
#
# _framework density 20.310414999999999
#
# number of rings (size 3 to 8) (size 9 to 14) (size 15 to 20)
#    0.000    0.842    5.263    1.895   11.789    0.000 
#    0.000    1.053    0.000    0.000    0.000    0.000 
#    0.000    0.000    0.000    0.000    0.000    0.000 
#
# Total GULP energy -471256.953666 kJ/mol
# GULP energy per Si atom -12401.498781 kJ/mol
# Density = 2.026419 g / cm^3
# Si number density = 20.310415 Si / 1000 Ang^3
#
#
#
# Elastic Constant Matrix: (Units=GPa)
#
#
# Indices 1 2 3 4 5 6 
#
# 1 104.6304 77.1634 51.3696 0.0000 0.0000 0.0000
# 2 77.1634 104.6304 51.3696 0.0000 0.0000 0.0000
# 3 51.3696 51.3696 146.6715 0.0000 0.0000 0.0000
# 4 0.0000 0.0000 0.0000 357.4502 0.0000 0.0000
# 5 0.0000 0.0000 0.0000 0.0000 357.4502 0.0000
# 6 0.0000 0.0000 0.0000 0.0000 0.0000 42.2425
#
#
#
# Elastic Compliance Matrix: (Units=1/GPa)
#
#
# Indices 1 2 3 4 5 6 
#
# 1 0.021633 -0.014775 -0.002402 0.000000 0.000000 0.000000
# 2 -0.014775 0.021633 -0.002402 0.000000 0.000000 0.000000
# 3 -0.002402 -0.002402 0.008500 0.000000 0.000000 0.000000
# 4 0.000000 0.000000 0.000000 0.002798 0.000000 0.000000
# 5 0.000000 0.000000 0.000000 0.000000 0.002798 0.000000
# 6 0.000000 0.000000 0.000000 0.000000 0.000000 0.023673
#
#
# Mechanical properties :
#
#
# Convention : Reuss Voigt Hill
#
# Bulk Modulus (GPa) = 79.30884 79.52637 79.41761
# Shear Modulus (GPa) = 40.19479 163.16389 101.67934
#
# Velocity S-wave (km/s) = 4.45345 8.97271 7.08317
# Velocity P-wave (km/s) = 8.09799 12.10729 10.29961
#
# Compressibility (1/GPa) = 0.01260894
#
# Stress axis : x y z
#
# Youngs Moduli (GPa) = 46.22609 46.22609 117.64040
#
# Poissons Ratio (x) = 0.68297 0.28257
# Poissons Ratio (y) = 0.68297 0.28257
# Poissons Ratio (z) = 0.11103 0.11103
#
# Static dielectric constant tensor:
#      x y z
#    x 3.783880 0.000000 0.000000 
#    y 0.000000 3.783880 0.000000 
#    z 0.000000 0.000000 3.729980 
# 
# 
# High freq. dielectric constant tensor:
#      x y z
#    x 1.795250 0.000000 0.000000 
#    y 0.000000 1.795250 0.000000 
#    z 0.000000 0.000000 1.807430 
# 
# From -- ./inp_files/4155.got.cif
#   From: 2010.03.12/outbox.cif.g09.slc.cpg/sg118_3_cif.got.tgz:4155.got - 2010.04.14 02:21:17.
