data_PCOD8310280
_publ_section_title
;
Structure prediction by ZEFSAII (Michael W. Deem and Ramdas Pophale) SiO2 
 PCOD8310280
Probable space group: P -4 B 2
;
_chemical_formula_sum "Si O2"
_cell_formula_units_Z 64
_cell_length_a 17.299274
_cell_length_b 17.299274
_cell_length_c 12.027213
_cell_angle_alpha 90.000000
_cell_angle_beta 90.000000
_cell_angle_gamma 90.000000
_cell_volume 3599.322466
_symmetry_space_group_name_H-M "P -4 B 2"
_symmetry_group_IT_number 117
_symmetry_cell_setting 'tetragonal'
loop_
_space_group_symop_operation_xyz
x,y,z
y,-x,-z
-x,-y,z
-y,x,-z
1/2+y,1/2+x,-z
1/2-y,1/2-x,-z
1/2-x,1/2+y,z
1/2+x,1/2-y,z
loop_
_atom_site_type_symbol
_atom_site_label
_atom_site_fract_x
_atom_site_fract_y
_atom_site_fract_z
Si Si1 0.913073 0.289867 0.236877
Si Si2 0.430818 0.804384 0.629299
Si Si3 0.332331 0.704158 0.776950
Si Si4 0.882771 0.740929 0.000001
Si Si5 0.539310 0.840678 0.000000
Si Si6 0.430818 0.804383 0.370702
Si Si7 0.413073 0.210132 0.763123
Si Si8 0.295842 0.332330 0.776949
O O1 0.880681 0.202139 0.251183
O O2 0.851395 0.351394 0.282733
O O3 0.989497 0.307111 0.305713
O O4 0.925702 0.298467 0.106168
O O5 0.382258 0.730874 0.671406
O O6 0.447343 0.793424 0.500000
O O7 0.383457 0.883457 0.653567
O O8 0.510503 0.807113 0.694287
O O9 0.386356 0.706054 0.888453
O O10 0.260525 0.760525 0.797324
O O11 0.947491 0.672923 0.000000
O O12 0.801423 0.698578 0.000000
O O13 0.886356 0.793946 0.111548
O O14 0.574298 0.798467 0.893832
O O15 0.568528 0.931473 0.000000
O O16 0.382257 0.730874 0.328596
O O17 0.380681 0.297861 0.748816
#
# Coordination Sequence:
#
# PCOD8310280 Si02
#       8
#     8   8   8   8   8   8   8   8
#     4  10  20  34  54  80 109 139 174 217 266 320
#     4  10  21  36  53  76 106 140 180 222 264 314
#     4   9  18  33  53  76 102 137 179 218 258 313
#     4  10  17  30  53  78 107 140 170 207 262 316
#     4  10  19  30  49  82 112 133 168 215 264 324
#     4  10  21  36  53  76 106 140 180 222 264 314
#     4  10  20  34  54  80 109 139 174 217 266 320
#     4   9  18  33  53  76 102 137 179 218 258 313
#
# _framework density 17.781124999999999
#
# number of rings (size 3 to 8) (size 9 to 14) (size 15 to 20)
#    0.000    2.250    2.500    0.750    0.000    5.250 
#    0.000    6.250    0.000    0.750    0.000    3.500 
#    0.000    0.000    0.000    0.000    0.000    0.000 
#
# Total GULP energy -793122.269529 kJ/mol
# GULP energy per Si atom -12392.535461 kJ/mol
# Density = 1.774065 g / cm^3
# Si number density = 17.781125 Si / 1000 Ang^3
#
#
#
# Elastic Constant Matrix: (Units=GPa)
#
#
# Indices 1 2 3 4 5 6 
#
# 1 69.3055 68.6247 57.3936 0.0000 0.0000 0.0000
# 2 68.6247 69.3077 57.3934 0.0000 0.0000 0.0000
# 3 57.3936 57.3934 124.8266 0.0000 0.0000 0.0000
# 4 0.0000 0.0000 0.0000 15.1827 0.0000 0.0000
# 5 0.0000 0.0000 0.0000 0.0000 15.1832 0.0000
# 6 0.0000 0.0000 0.0000 0.0000 0.0000 26.0476
#
#
#
# Elastic Compliance Matrix: (Units=1/GPa)
#
#
# Indices 1 2 3 4 5 6 
#
# 1 0.739147 -0.727383 -0.005410 0.000000 0.000000 0.000000
# 2 -0.727383 0.739106 -0.005389 0.000000 0.000000 0.000000
# 3 -0.005410 -0.005389 0.012976 0.000000 0.000000 0.000000
# 4 0.000000 0.000000 0.000000 0.065864 0.000000 0.000000
# 5 0.000000 0.000000 0.000000 0.000000 0.065862 0.000000
# 6 0.000000 0.000000 0.000000 0.000000 0.000000 0.038391
#
#
# Mechanical properties :
#
#
# Convention : Reuss Voigt Hill
#
# Bulk Modulus (GPa) = 67.27064 70.02925 68.64994
# Shear Modulus (GPa) = 1.59101 16.61790 9.10446
#
# Velocity S-wave (km/s) = 0.94695 3.06041 2.26526
# Velocity P-wave (km/s) = 6.25383 7.20817 6.74789
#
# Compressibility (1/GPa) = 0.01486533
#
# Stress axis : x y z
#
# Youngs Moduli (GPa) = 1.35291 1.35299 77.06351
#
# Poissons Ratio (x) = 0.98414 0.41694
# Poissons Ratio (y) = 0.98408 0.41527
# Poissons Ratio (z) = 0.00732 0.00729
#
# Static dielectric constant tensor:
#      x y z
#    x 3.251400 0.000000 0.000000 
#    y 0.000000 3.251400 0.000000 
#    z 0.000000 0.000000 3.377410 
# 
# 
# High freq. dielectric constant tensor:
#      x y z
#    x 1.666580 0.000000 0.000000 
#    y 0.000000 1.666580 0.000000 
#    z 0.000000 0.000000 1.695780 
# 
# From -- ./inp_files/2944.got.cif
#   From: 2010.03.12/outbox.cif.g09.slc.cpg/sg117_2_cif.got.tgz:2944.got - 2010.04.14 02:19:01.
