data_PCOD8310078
_publ_section_title
;
Structure prediction by ZEFSAII (Michael W. Deem and Ramdas Pophale) SiO2 
 PCOD8310078
Probable space group: P -4 C 2
;
_chemical_formula_sum "Si O2"
_cell_formula_units_Z 38
_cell_length_a 14.423229
_cell_length_b 14.423229
_cell_length_c 9.760319
_cell_angle_alpha 90.000000
_cell_angle_beta 90.000000
_cell_angle_gamma 90.000000
_cell_volume 2030.434621
_symmetry_space_group_name_H-M "P -4 C 2"
_symmetry_group_IT_number 116
_symmetry_cell_setting 'tetragonal'
loop_
_space_group_symop_operation_xyz
x,y,z
y,-x,-z
-x,-y,z
-y,x,-z
y,x,1/2-z
-y,-x,1/2-z
-x,y,1/2+z
x,-y,1/2+z
loop_
_atom_site_type_symbol
_atom_site_label
_atom_site_fract_x
_atom_site_fract_y
_atom_site_fract_z
Si Si1 0.200851 0.200851 0.250000
Si Si2 0.810700 0.999937 0.628565
Si Si3 0.145367 0.604025 0.691330
Si Si4 0.032506 0.697412 0.124938
Si Si5 0.106069 0.535251 0.974903
Si Si6 0.000000 0.000000 0.000000
O O1 0.111379 0.196240 0.348983
O O2 0.299766 0.201223 0.328048
O O3 0.752153 0.976458 0.493073
O O4 0.771562 0.938842 0.756599
O O5 0.916338 0.970563 0.600096
O O6 0.162554 0.549497 0.833869
O O7 0.165824 0.538973 0.561196
O O8 0.036245 0.626720 0.700560
O O9 0.111939 0.633675 0.057827
O O10 0.000000 0.500000 0.952630
#
# Coordination Sequence:
#
# PCOD8310078 Si02
#       6
#     4   8   8   8   8   2
#     4  10  20  39  48  78 108 155 168 232 276 336
#     4  11  23  36  55  69 108 154 209 232 274 300
#     4  10  20  32  57  78 114 134 179 223 293 336
#     4  10  19  35  53  78 101 144 189 243 280 321
#     4  10  18  32  55  85 104 135 179 235 282 343
#     4  12  24  38  48  74 104 166 220 234 240 302
#
# _framework density 18.715205000000001
#
# number of rings (size 3 to 8) (size 9 to 14) (size 15 to 20)
#    0.000    1.684    4.211    4.421    2.947    3.789 
#    0.000    0.000    0.000    1.263    0.000    0.000 
#    0.000    2.526    0.000    0.000    0.000    0.000 
#
# Total GULP energy -470814.465933 kJ/mol
# GULP energy per Si atom -12389.854367 kJ/mol
# Density = 1.867261 g / cm^3
# Si number density = 18.715205 Si / 1000 Ang^3
#
#
#
# Elastic Constant Matrix: (Units=GPa)
#
#
# Indices 1 2 3 4 5 6 
#
# 1 63.5648 -10.5202 12.0091 0.0000 0.0000 0.0000
# 2 -10.5202 63.5648 12.0091 0.0000 0.0000 0.0000
# 3 12.0091 12.0091 97.1283 0.0000 0.0000 0.0000
# 4 0.0000 0.0000 0.0000 23.5896 0.0000 0.0000
# 5 0.0000 0.0000 0.0000 0.0000 23.5896 0.0000
# 6 0.0000 0.0000 0.0000 0.0000 0.0000 15.4581
#
#
#
# Elastic Compliance Matrix: (Units=1/GPa)
#
#
# Indices 1 2 3 4 5 6 
#
# 1 0.016734 0.003236 -0.002469 0.000000 0.000000 0.000000
# 2 0.003236 0.016734 -0.002469 0.000000 0.000000 0.000000
# 3 -0.002469 -0.002469 0.010906 0.000000 0.000000 0.000000
# 4 0.000000 0.000000 0.000000 0.042392 0.000000 0.000000
# 5 0.000000 0.000000 0.000000 0.000000 0.042392 0.000000
# 6 0.000000 0.000000 0.000000 0.000000 0.000000 0.064691
#
#
# Mechanical properties :
#
#
# Convention : Reuss Voigt Hill
#
# Bulk Modulus (GPa) = 24.40820 27.91711 26.16265
# Shear Modulus (GPa) = 23.70685 26.57813 25.14249
#
# Velocity S-wave (km/s) = 3.56296 3.77256 3.66925
# Velocity P-wave (km/s) = 5.47690 5.82455 5.65340
#
# Compressibility (1/GPa) = 0.04096984
#
# Stress axis : x y z
#
# Youngs Moduli (GPa) = 59.75845 59.75845 91.69065
#
# Poissons Ratio (x) = -0.19338 0.22640
# Poissons Ratio (y) = -0.19338 0.22640
# Poissons Ratio (z) = 0.14755 0.14755
#
# Static dielectric constant tensor:
#      x y z
#    x 3.336950 0.000000 0.000000 
#    y 0.000000 3.336950 0.000000 
#    z 0.000000 0.000000 3.650290 
# 
# 
# High freq. dielectric constant tensor:
#      x y z
#    x 1.684430 0.000000 0.000000 
#    y 0.000000 1.684430 0.000000 
#    z 0.000000 0.000000 1.746350 
# 
# From -- ./inp_files/711.got.cif
#   From: 2010.03.12/outbox.cif.g09.slc.cpg/sg116_1_cif.got.tgz:711.got - 2010.04.14 02:15:44.
