data_PCOD8310757
_publ_section_title
;
Structure prediction by ZEFSAII (Michael W. Deem and Ramdas Pophale) SiO2 
 PCOD8310757
Probable space group: I -4 M 2
;
_chemical_formula_sum "Si O2"
_cell_formula_units_Z 72
_cell_length_a 11.875549
_cell_length_b 11.875549
_cell_length_c 29.475138
_cell_angle_alpha 90.000000
_cell_angle_beta 90.000000
_cell_angle_gamma 90.000000
_cell_volume 4156.839335
_symmetry_space_group_name_H-M "I -4 M 2"
_symmetry_group_IT_number 119
_symmetry_cell_setting 'tetragonal'
loop_
_space_group_symop_operation_xyz
x,y,z
y,-x,-z
-x,-y,z
-y,x,-z
y,x,-z
-y,-x,-z
-x,y,z
x,-y,z
1/2+x,1/2+y,1/2+z
1/2+y,1/2-x,1/2-z
1/2-x,1/2-y,1/2+z
1/2-y,1/2+x,1/2-z
1/2+y,1/2+x,1/2-z
1/2-y,1/2-x,1/2-z
1/2-x,1/2+y,1/2+z
1/2+x,1/2-y,1/2+z
loop_
_atom_site_type_symbol
_atom_site_label
_atom_site_fract_x
_atom_site_fract_y
_atom_site_fract_z
Si Si1 0.707076 0.500000 0.171492
Si Si2 0.747583 0.631093 0.707808
Si Si3 0.368598 0.000000 0.592334
Si Si4 0.876383 0.768301 0.637688
Si Si5 0.309458 0.372648 0.049324
Si Si6 0.628415 0.500000 0.265794
O O1 0.825878 0.500000 0.144695
O O2 0.635779 0.609096 0.159094
O O3 0.721086 0.500000 0.225572
O O4 0.779641 0.500000 0.712397
O O5 0.802217 0.697784 0.750000
O O6 0.790369 0.679761 0.659840
O O7 0.612793 0.648657 0.705217
O O8 0.320416 0.110798 0.565998
O O9 0.500000 0.000000 0.591433
O O10 0.865534 0.782777 0.583299
O O11 0.000000 0.721540 0.648839
O O12 0.364888 0.500000 0.050855
O O13 0.318417 0.318417 0.000000
O O14 0.500000 0.500000 0.246557
#
# Coordination Sequence:
#
# PCOD8310757 Si02
#       6
#     8  16   8  16  16   8
#     4  10  18  32  54  82 104 143 186 222 269 336
#     4  11  23  37  54  78 110 147 187 229 278 333
#     4   8  18  34  52  78 118 148 173 215 293 343
#     4  11  20  33  54  81 113 142 177 222 280 335
#     4   9  19  33  56  84 108 135 180 225 281 335
#     4  10  20  38  58  76 106 144 194 236 271 324
#
# _framework density 17.320851999999999
#
# number of rings (size 3 to 8) (size 9 to 14) (size 15 to 20)
#    0.667    1.333    3.333    2.333    0.000    2.667 
#    8.000    1.111    2.444    0.000    0.000    0.000 
#    0.000    0.000    0.000    0.000    0.000    0.000 
#
# Total GULP energy -445979.929507 kJ/mol
# GULP energy per Si atom -12388.331375 kJ/mol
# Density = 1.728143 g / cm^3
# Si number density = 17.320852 Si / 1000 Ang^3
#
#
#
# Elastic Constant Matrix: (Units=GPa)
#
#
# Indices 1 2 3 4 5 6 
#
# 1 111.9136 40.0092 45.4045 0.0000 0.0000 0.0000
# 2 40.0092 111.9127 45.4037 0.0000 0.0000 0.0000
# 3 45.4045 45.4037 107.1459 0.0000 0.0000 0.0000
# 4 0.0000 0.0000 0.0000 18.7272 0.0000 0.0000
# 5 0.0000 0.0000 0.0000 0.0000 18.7272 0.0000
# 6 0.0000 0.0000 0.0000 0.0000 0.0000 19.9863
#
#
#
# Elastic Compliance Matrix: (Units=1/GPa)
#
#
# Indices 1 2 3 4 5 6 
#
# 1 0.011361 -0.002546 -0.003736 0.000000 0.000000 0.000000
# 2 -0.002546 0.011361 -0.003735 0.000000 0.000000 0.000000
# 3 -0.003736 -0.003735 0.012499 0.000000 0.000000 0.000000
# 4 0.000000 0.000000 0.000000 0.053398 0.000000 0.000000
# 5 0.000000 0.000000 0.000000 0.000000 0.053398 0.000000
# 6 0.000000 0.000000 0.000000 0.000000 0.000000 0.050034
#
#
# Mechanical properties :
#
#
# Convention : Reuss Voigt Hill
#
# Bulk Modulus (GPa) = 65.84473 65.84520 65.84497
# Shear Modulus (GPa) = 23.02568 24.83181 23.92874
#
# Velocity S-wave (km/s) = 3.65000 3.79045 3.72088
# Velocity P-wave (km/s) = 7.47399 7.56665 7.52046
#
# Compressibility (1/GPa) = 0.01518724
#
# Stress axis : x y z
#
# Youngs Moduli (GPa) = 88.01837 88.01817 80.00665
#
# Poissons Ratio (x) = 0.22411 0.29887
# Poissons Ratio (y) = 0.22411 0.29886
# Poissons Ratio (z) = 0.32880 0.32879
#
# Static dielectric constant tensor:
#      x y z
#    x 3.117100 0.000000 0.000000 
#    y 0.000000 3.117100 0.000000 
#    z 0.000000 0.000000 3.256490 
# 
# 
# High freq. dielectric constant tensor:
#      x y z
#    x 1.651140 0.000000 0.000000 
#    y 0.000000 1.651140 0.000000 
#    z 0.000000 0.000000 1.662510 
# 
# From -- ./inp_files/10070.got.cif
#   From: 2010.03.12/outbox.cif.g09.slc.cpg/sg119_6_cif.got.tgz:10070.got - 2010.04.14 02:25:26.
