data_PCOD8310178
_publ_section_title
;
Structure prediction by ZEFSAII (Michael W. Deem and Ramdas Pophale) SiO2 
 PCOD8310178
Probable space group: P -4 C 2
;
_chemical_formula_sum "Si O2"
_cell_formula_units_Z 42
_cell_length_a 15.276851
_cell_length_b 15.276851
_cell_length_c 8.704959
_cell_angle_alpha 90.000000
_cell_angle_beta 90.000000
_cell_angle_gamma 90.000000
_cell_volume 2031.582278
_symmetry_space_group_name_H-M "P -4 C 2"
_symmetry_group_IT_number 116
_symmetry_cell_setting 'tetragonal'
loop_
_space_group_symop_operation_xyz
x,y,z
y,-x,-z
-x,-y,z
-y,x,-z
y,x,1/2-z
-y,-x,1/2-z
-x,y,1/2+z
x,-y,1/2+z
loop_
_atom_site_type_symbol
_atom_site_label
_atom_site_fract_x
_atom_site_fract_y
_atom_site_fract_z
Si Si1 0.432936 0.928930 0.333204
Si Si2 0.124225 0.266471 0.212037
Si Si3 0.440674 0.224988 0.342996
Si Si4 0.669148 0.569226 0.856692
Si Si5 0.025299 0.315896 0.925833
Si Si6 0.500000 0.500000 0.000000
O O1 0.481701 0.841682 0.387415
O O2 0.385101 0.969322 0.478577
O O3 0.500000 0.000000 0.266473
O O4 0.366282 0.909733 0.192421
O O5 0.187190 0.187190 0.250000
O O6 0.174469 0.358893 0.232869
O O7 0.043404 0.257965 0.330050
O O8 0.086142 0.258069 0.038480
O O9 0.481791 0.293541 0.224082
O O10 0.406469 0.272781 0.495853
O O11 0.657152 0.657152 0.750000
O O12 0.568995 0.551665 0.898128
#
# Coordination Sequence:
#
# PCOD8310178 Si02
#       6
#     8   8   8   8   8   2
#     4  11  20  37  66  98 132 170 213 258 336 412
#     4  11  25  41  68  98 133 163 209 275 339 392
#     4  12  25  38  65  96 128 165 230 281 331 388
#     4  12  27  41  60  82 123 186 239 281 317 374
#     4  10  21  41  67  96 135 174 209 255 334 410
#     4  12  26  48  58  68 122 200 250 260 310 364
#
# _framework density 20.673541
#
# number of rings (size 3 to 8) (size 9 to 14) (size 15 to 20)
#    0.000    0.762    5.714    3.143    2.667    1.524 
#    0.000    3.810    0.000    1.714    0.000    0.000 
#    0.000    0.000    0.000    0.000    0.000    0.000 
#
# Total GULP energy -520739.443355 kJ/mol
# GULP energy per Si atom -12398.558175 kJ/mol
# Density = 2.062649 g / cm^3
# Si number density = 20.673541 Si / 1000 Ang^3
#
#
#
# Elastic Constant Matrix: (Units=GPa)
#
#
# Indices 1 2 3 4 5 6 
#
# 1 79.2963 25.8116 26.0828 0.0000 0.0000 0.0000
# 2 25.8116 79.2963 26.0828 0.0000 0.0000 0.0000
# 3 26.0828 26.0828 94.3623 0.0000 0.0000 0.0000
# 4 0.0000 0.0000 0.0000 22.7740 0.0000 0.0000
# 5 0.0000 0.0000 0.0000 0.0000 22.7740 0.0000
# 6 0.0000 0.0000 0.0000 0.0000 0.0000 46.9952
#
#
#
# Elastic Compliance Matrix: (Units=1/GPa)
#
#
# Indices 1 2 3 4 5 6 
#
# 1 0.014862 -0.003835 -0.003048 0.000000 0.000000 0.000000
# 2 -0.003835 0.014862 -0.003048 0.000000 0.000000 0.000000
# 3 -0.003048 -0.003048 0.012282 0.000000 0.000000 0.000000
# 4 0.000000 0.000000 0.000000 0.043910 0.000000 0.000000
# 5 0.000000 0.000000 0.000000 0.000000 0.043910 0.000000
# 6 0.000000 0.000000 0.000000 0.000000 0.000000 0.021279
#
#
# Mechanical properties :
#
#
# Convention : Reuss Voigt Hill
#
# Bulk Modulus (GPa) = 45.15851 45.43436 45.29644
# Shear Modulus (GPa) = 28.03517 30.17383 29.10450
#
# Velocity S-wave (km/s) = 3.68651 3.82454 3.75616
# Velocity P-wave (km/s) = 6.32546 6.44419 6.38510
#
# Compressibility (1/GPa) = 0.02214422
#
# Stress axis : x y z
#
# Youngs Moduli (GPa) = 67.28644 67.28644 81.41727
#
# Poissons Ratio (x) = 0.25805 0.24815
# Poissons Ratio (y) = 0.25805 0.24815
# Poissons Ratio (z) = 0.20508 0.20508
#
# Static dielectric constant tensor:
#      x y z
#    x 3.647380 0.000000 0.000000 
#    y 0.000000 3.647380 0.000000 
#    z 0.000000 0.000000 3.991720 
# 
# 
# High freq. dielectric constant tensor:
#      x y z
#    x 1.787390 0.000000 0.000000 
#    y 0.000000 1.787390 0.000000 
#    z 0.000000 0.000000 1.830300 
# 
# From -- ./inp_files/863.got.cif
#   From: 2010.03.12/outbox.cif.g09.slc.cpg/sg116_1_cif.got.tgz:863.got - 2010.04.14 02:15:44.
