data_PCOD8310071
_publ_section_title
;
Structure prediction by ZEFSAII (Michael W. Deem and Ramdas Pophale) SiO2 
 PCOD8310071
Probable space group: P -4 C 2
;
_chemical_formula_sum "Si O2"
_cell_formula_units_Z 52
_cell_length_a 21.492519
_cell_length_b 21.492519
_cell_length_c 5.273259
_cell_angle_alpha 90.000000
_cell_angle_beta 90.000000
_cell_angle_gamma 90.000000
_cell_volume 2435.867950
_symmetry_space_group_name_H-M "P -4 C 2"
_symmetry_group_IT_number 116
_symmetry_cell_setting 'tetragonal'
loop_
_space_group_symop_operation_xyz
x,y,z
y,-x,-z
-x,-y,z
-y,x,-z
y,x,1/2-z
-y,-x,1/2-z
-x,y,1/2+z
x,-y,1/2+z
loop_
_atom_site_type_symbol
_atom_site_label
_atom_site_fract_x
_atom_site_fract_y
_atom_site_fract_z
Si Si1 0.248465 0.164133 0.870793
Si Si2 0.362268 0.537032 0.765461
Si Si3 0.264078 0.030066 0.081787
Si Si4 0.161432 0.618302 0.276691
Si Si5 0.767008 0.594345 0.252588
Si Si6 0.979143 0.402780 0.338385
Si Si7 0.727525 0.272475 0.750000
O O1 0.179895 0.179895 0.750000
O O2 0.248728 0.102963 0.046430
O O3 0.306497 0.160290 0.672971
O O4 0.261355 0.225605 0.025675
O O5 0.396571 0.603430 0.750000
O O6 0.382940 0.496859 0.523216
O O7 0.287448 0.543891 0.772469
O O8 0.233196 0.992690 0.844968
O O9 0.337264 0.013779 0.088174
O O10 0.186363 0.579377 0.519080
O O11 0.090457 0.600343 0.239824
O O12 0.197764 0.599667 0.020805
O O13 0.735048 0.657443 0.154877
O O14 0.016796 0.437776 0.111186
#
# Coordination Sequence:
#
# PCOD8310071 Si02
#       7
#     8   8   8   8   8   8   4
#     4  11  21  31  50  79 115 163 200 241 304 382
#     4  12  27  49  75 102 135 170 213 261 310 360
#     4  10  21  32  47  66 110 159 196 245 303 354
#     4  11  21  33  55  84 125 169 203 242 307 386
#     4  11  23  40  59  93 127 163 200 249 310 380
#     4  10  18  30  48  74 116 167 205 252 297 357
#     4  10  22  32  56  82 125 156 195 236 304 384
#
# _framework density 21.347626999999999
#
# number of rings (size 3 to 8) (size 9 to 14) (size 15 to 20)
#    0.000    1.231    5.385    2.308    8.615    0.923 
#    0.000    0.000    0.000    0.000    0.000    0.000 
#    0.000   44.923    0.000    0.000    0.000    0.000 
#
# Total GULP energy -644218.263897 kJ/mol
# GULP energy per Si atom -12388.812767 kJ/mol
# Density = 2.129904 g / cm^3
# Si number density = 21.347627 Si / 1000 Ang^3
#
#
#
# Elastic Constant Matrix: (Units=GPa)
#
#
# Indices 1 2 3 4 5 6 
#
# 1 67.6084 17.3395 27.2572 0.0000 0.0000 0.0000
# 2 17.3395 67.6086 27.2576 0.0000 0.0000 0.0000
# 3 27.2572 27.2576 171.5399 0.0000 0.0000 0.0000
# 4 0.0000 0.0000 0.0000 24.9402 0.0000 0.0000
# 5 0.0000 0.0000 0.0000 0.0000 24.9474 0.0000
# 6 0.0000 0.0000 0.0000 0.0000 0.0000 18.2844
#
#
#
# Elastic Compliance Matrix: (Units=1/GPa)
#
#
# Indices 1 2 3 4 5 6 
#
# 1 0.016501 -0.003392 -0.002083 0.000000 0.000000 0.000000
# 2 -0.003392 0.016501 -0.002083 0.000000 0.000000 0.000000
# 3 -0.002083 -0.002083 0.006491 0.000000 0.000000 0.000000
# 4 0.000000 0.000000 0.000000 0.040096 0.000000 0.000000
# 5 0.000000 0.000000 0.000000 0.000000 0.040084 0.000000
# 6 0.000000 0.000000 0.000000 0.000000 0.000000 0.054692
#
#
# Mechanical properties :
#
#
# Convention : Reuss Voigt Hill
#
# Bulk Modulus (GPa) = 41.02230 50.05172 45.53701
# Shear Modulus (GPa) = 25.30279 29.29456 27.29867
#
# Velocity S-wave (km/s) = 3.44652 3.70843 3.57987
# Velocity P-wave (km/s) = 5.92419 6.46788 6.20200
#
# Compressibility (1/GPa) = 0.02437698
#
# Stress axis : x y z
#
# Youngs Moduli (GPa) = 60.60310 60.60318 154.04766
#
# Poissons Ratio (x) = 0.20558 0.32087
# Poissons Ratio (y) = 0.20558 0.32088
# Poissons Ratio (z) = 0.12623 0.12623
#
# Static dielectric constant tensor:
#      x y z
#    x 3.650410 0.000000 0.000000 
#    y 0.000000 3.650410 0.000000 
#    z 0.000000 0.000000 4.166810 
# 
# 
# High freq. dielectric constant tensor:
#      x y z
#    x 1.811850 0.000000 0.000000 
#    y 0.000000 1.811850 0.000000 
#    z 0.000000 0.000000 1.861280 
# 
# From -- ./inp_files/203.got.cif
#   From: 2010.03.12/outbox.cif.g09.slc.cpg/sg116_1_cif.got.tgz:203.got - 2010.04.14 02:15:44.
