data_PCOD8310703
_publ_section_title
;
Structure prediction by ZEFSAII (Michael W. Deem and Ramdas Pophale) SiO2 
 PCOD8310703
Probable space group: I -4 M 2
;
_chemical_formula_sum "Si O2"
_cell_formula_units_Z 56
_cell_length_a 10.273597
_cell_length_b 10.273597
_cell_length_c 30.447363
_cell_angle_alpha 90.000000
_cell_angle_beta 90.000000
_cell_angle_gamma 90.000000
_cell_volume 3213.621591
_symmetry_space_group_name_H-M "I -4 M 2"
_symmetry_group_IT_number 119
_symmetry_cell_setting 'tetragonal'
loop_
_space_group_symop_operation_xyz
x,y,z
y,-x,-z
-x,-y,z
-y,x,-z
y,x,-z
-y,-x,-z
-x,y,z
x,-y,z
1/2+x,1/2+y,1/2+z
1/2+y,1/2-x,1/2-z
1/2-x,1/2-y,1/2+z
1/2-y,1/2+x,1/2-z
1/2+y,1/2+x,1/2-z
1/2-y,1/2-x,1/2-z
1/2-x,1/2+y,1/2+z
1/2+x,1/2-y,1/2+z
loop_
_atom_site_type_symbol
_atom_site_label
_atom_site_fract_x
_atom_site_fract_y
_atom_site_fract_z
Si Si1 0.500000 0.155151 0.689830
Si Si2 0.767495 0.732506 0.250000
Si Si3 0.343928 0.500000 0.793058
Si Si4 0.845789 0.000000 0.393334
Si Si5 0.735901 0.654795 0.047205
Si Si6 0.345736 0.000000 0.909464
O O1 0.629266 0.211087 0.711507
O O2 0.500000 0.206184 0.640121
O O3 0.500000 0.000000 0.694131
O O4 0.624710 0.716075 0.230480
O O5 0.500000 0.500000 0.789728
O O6 0.295122 0.500000 0.843469
O O7 0.794227 0.873143 0.418930
O O8 0.000000 0.000000 0.392748
O O9 0.728494 0.500000 0.042308
O O10 0.873297 0.705249 0.065339
O O11 0.718157 0.718157 0.000000
O O12 0.500000 0.000000 0.907965
#
# Coordination Sequence:
#
# PCOD8310703 Si02
#       6
#     8   8   8   8  16   8
#     4  11  18  35  57  84 108 141 192 235 279 317
#     4  12  21  35  60  80 118 148 184 232 274 336
#     4  11  22  37  55  86 114 149 188 231 285 329
#     4   9  18  30  53  80 106 133 178 231 263 309
#     4  10  17  30  51  78 109 136 171 218 271 319
#     4   9  20  30  49  80 110 137 172 227 271 313
#
# _framework density 17.425823000000001
#
# number of rings (size 3 to 8) (size 9 to 14) (size 15 to 20)
#    0.000    1.714    4.286    1.714    0.000    4.857 
#    0.000    0.000    0.000   10.714    0.000    0.000 
#    0.000    0.000    0.000    0.000    0.000    0.000 
#
# Total GULP energy -347243.300826 kJ/mol
# GULP energy per Si atom -12401.546458 kJ/mol
# Density = 1.738616 g / cm^3
# Si number density = 17.425823 Si / 1000 Ang^3
#
#
#
# Elastic Constant Matrix: (Units=GPa)
#
#
# Indices 1 2 3 4 5 6 
#
# 1 121.9246 40.2290 76.4938 0.0000 0.0000 0.0000
# 2 40.2290 121.9251 76.4944 0.0000 0.0000 0.0000
# 3 76.4938 76.4944 184.6465 0.0000 0.0000 0.0000
# 4 0.0000 0.0000 0.0000 7.3410 0.0000 0.0000
# 5 0.0000 0.0000 0.0000 0.0000 7.3414 0.0000
# 6 0.0000 0.0000 0.0000 0.0000 0.0000 16.9435
#
#
#
# Elastic Compliance Matrix: (Units=1/GPa)
#
#
# Indices 1 2 3 4 5 6 
#
# 1 0.011182 -0.001058 -0.004194 0.000000 0.000000 0.000000
# 2 -0.001058 0.011182 -0.004194 0.000000 0.000000 0.000000
# 3 -0.004194 -0.004194 0.008891 0.000000 0.000000 0.000000
# 4 0.000000 0.000000 0.000000 0.136221 0.000000 0.000000
# 5 0.000000 0.000000 0.000000 0.000000 0.136215 0.000000
# 6 0.000000 0.000000 0.000000 0.000000 0.000000 0.059020
#
#
# Mechanical properties :
#
#
# Convention : Reuss Voigt Hill
#
# Bulk Modulus (GPa) = 80.89063 90.54785 85.71924
# Shear Modulus (GPa) = 12.96260 22.01043 17.48652
#
# Velocity S-wave (km/s) = 2.73036 3.55786 3.17122
# Velocity P-wave (km/s) = 7.51403 8.30376 7.91875
#
# Compressibility (1/GPa) = 0.01236237
#
# Stress axis : x y z
#
# Youngs Moduli (GPa) = 89.42717 89.42727 112.47625
#
# Poissons Ratio (x) = 0.09464 0.47174
# Poissons Ratio (y) = 0.09464 0.47174
# Poissons Ratio (z) = 0.37507 0.37507
#
# Static dielectric constant tensor:
#      x y z
#    x 3.121360 0.000000 0.000000 
#    y 0.000000 3.121350 0.000000 
#    z 0.000000 0.000000 3.471330 
# 
# 
# High freq. dielectric constant tensor:
#      x y z
#    x 1.651100 0.000000 0.000000 
#    y 0.000000 1.651100 0.000000 
#    z 0.000000 0.000000 1.693130 
# 
# From -- ./inp_files/9217.got.cif
#   From: 2010.03.12/outbox.cif.g09.slc.cpg/sg119_5_cif.got.tgz:9217.got - 2010.04.14 02:25:26.
