data_PCOD8310997
_publ_section_title
;
Structure prediction by ZEFSAII (Michael W. Deem and Ramdas Pophale) SiO2 
 PCOD8310997
Probable space group: I -4 M 2
;
_chemical_formula_sum "Si O2"
_cell_formula_units_Z 40
_cell_length_a 7.514003
_cell_length_b 7.514003
_cell_length_c 32.099155
_cell_angle_alpha 90.000000
_cell_angle_beta 90.000000
_cell_angle_gamma 90.000000
_cell_volume 1812.326030
_symmetry_space_group_name_H-M "I -4 M 2"
_symmetry_group_IT_number 119
_symmetry_cell_setting 'tetragonal'
loop_
_space_group_symop_operation_xyz
x,y,z
y,-x,-z
-x,-y,z
-y,x,-z
y,x,-z
-y,-x,-z
-x,y,z
x,-y,z
1/2+x,1/2+y,1/2+z
1/2+y,1/2-x,1/2-z
1/2-x,1/2-y,1/2+z
1/2-y,1/2+x,1/2-z
1/2+y,1/2+x,1/2-z
1/2-y,1/2-x,1/2-z
1/2-x,1/2+y,1/2+z
1/2+x,1/2-y,1/2+z
loop_
_atom_site_type_symbol
_atom_site_label
_atom_site_fract_x
_atom_site_fract_y
_atom_site_fract_z
Si Si1 0.000000 0.307516 0.850600
Si Si2 0.703978 0.198215 0.588885
Si Si3 0.500000 0.292646 0.261927
Si Si4 0.793660 0.793660 0.000000
O O1 0.826513 0.299569 0.879189
O O2 0.000000 0.173179 0.811955
O O3 0.000000 0.500000 0.828823
O O4 0.500000 0.260703 0.586117
O O5 0.784829 0.204868 0.542029
O O6 0.725275 0.000000 0.606640
O O7 0.500000 0.500000 0.243764
O O8 0.319649 0.180352 0.250000
O O9 0.000000 0.750635 0.995579
#
# Coordination Sequence:
#
# PCOD8310997 Si02
#       4
#     8  16   8   8
#     4  12  24  43  67  94 139 181 222 283 355 414
#     4  10  21  37  61  92 126 173 230 284 336 407
#     4  11  25  50  79 111 146 187 235 300 369 449
#     4   9  16  32  56  83 124 178 225 278 345 394
#
# _framework density 22.071085
#
# number of rings (size 3 to 8) (size 9 to 14) (size 15 to 20)
#    0.000    1.600    4.000    1.800    0.000    4.400 
#    0.000    0.000    0.000    0.000    0.000    0.000 
#    0.000    0.000    0.000    0.000    0.000    0.000 
#
# Total GULP energy -247816.317369 kJ/mol
# GULP energy per Si atom -12390.815868 kJ/mol
# Density = 2.202085 g / cm^3
# Si number density = 22.071085 Si / 1000 Ang^3
#
#
#
# Elastic Constant Matrix: (Units=GPa)
#
#
# Indices 1 2 3 4 5 6 
#
# 1 108.1380 34.7411 26.0473 0.0000 0.0000 0.0000
# 2 34.7411 108.1376 26.0471 0.0000 0.0000 0.0000
# 3 26.0473 26.0471 116.2129 0.0000 0.0000 0.0000
# 4 0.0000 0.0000 0.0000 4.6231 0.0000 0.0000
# 5 0.0000 0.0000 0.0000 0.0000 4.6226 0.0000
# 6 0.0000 0.0000 0.0000 0.0000 0.0000 17.7815
#
#
#
# Elastic Compliance Matrix: (Units=1/GPa)
#
#
# Indices 1 2 3 4 5 6 
#
# 1 0.010623 -0.003001 -0.001708 0.000000 0.000000 0.000000
# 2 -0.003001 0.010623 -0.001708 0.000000 0.000000 0.000000
# 3 -0.001708 -0.001708 0.009371 0.000000 0.000000 0.000000
# 4 0.000000 0.000000 0.000000 0.216304 0.000001 0.000000
# 5 0.000000 0.000000 0.000000 0.000001 0.216327 0.000000
# 6 0.000000 0.000000 0.000000 0.000000 0.000000 0.056238
#
#
# Mechanical properties :
#
#
# Convention : Reuss Voigt Hill
#
# Bulk Modulus (GPa) = 56.23961 56.23992 56.23977
# Shear Modulus (GPa) = 9.28938 21.78233 15.53585
#
# Velocity S-wave (km/s) = 2.05377 3.14493 2.65599
# Velocity P-wave (km/s) = 5.58215 6.22286 5.91120
#
# Compressibility (1/GPa) = 0.01778106
#
# Stress axis : x y z
#
# Youngs Moduli (GPa) = 94.13389 94.13355 106.71592
#
# Poissons Ratio (x) = 0.28253 0.18230
# Poissons Ratio (y) = 0.28253 0.18230
# Poissons Ratio (z) = 0.16081 0.16081
#
# Static dielectric constant tensor:
#      x y z
#    x 3.975810 0.000000 0.000000 
#    y 0.000000 3.975800 0.000000 
#    z 0.000000 0.000000 3.964380 
# 
# 
# High freq. dielectric constant tensor:
#      x y z
#    x 1.860610 0.000000 0.000000 
#    y 0.000000 1.860610 0.000000 
#    z 0.000000 0.000000 1.866460 
# 
# From -- ./inp_files/9137.got.cif
#   From: 2010.03.12/outbox.cif.g09.slc.cpg/sg119_5_cif.got.tgz:9137.got - 2010.04.14 02:25:26.
