data_PCOD8310083
_publ_section_title
;
Structure prediction by ZEFSAII (Michael W. Deem and Ramdas Pophale) SiO2 
 PCOD8310083
Probable space group: P -4 C 2
;
_chemical_formula_sum "Si O2"
_cell_formula_units_Z 56
_cell_length_a 16.592300
_cell_length_b 16.592300
_cell_length_c 14.585812
_cell_angle_alpha 90.000000
_cell_angle_beta 90.000000
_cell_angle_gamma 90.000000
_cell_volume 4015.538503
_symmetry_space_group_name_H-M "P -4 C 2"
_symmetry_group_IT_number 116
_symmetry_cell_setting 'tetragonal'
loop_
_space_group_symop_operation_xyz
x,y,z
y,-x,-z
-x,-y,z
-y,x,-z
y,x,1/2-z
-y,-x,1/2-z
-x,y,1/2+z
x,-y,1/2+z
loop_
_atom_site_type_symbol
_atom_site_label
_atom_site_fract_x
_atom_site_fract_y
_atom_site_fract_z
Si Si1 0.593904 0.692875 0.677155
Si Si2 0.874447 0.404319 0.825094
Si Si3 0.404319 0.125553 0.674906
Si Si4 0.409046 0.590954 0.500000
Si Si5 0.000000 0.595990 0.972035
Si Si6 0.307125 0.406096 0.322845
Si Si7 0.000000 0.595839 0.177631
O O1 0.642326 0.642326 0.750000
O O2 0.628741 0.783608 0.675460
O O3 0.609351 0.654464 0.578669
O O4 0.500000 0.690437 0.703924
O O5 0.873516 0.500000 0.827198
O O6 0.783608 0.371259 0.824539
O O7 0.920760 0.374717 0.733241
O O8 0.920939 0.373823 0.916484
O O9 0.373823 0.079061 0.583515
O O10 0.374717 0.079240 0.766759
O O11 0.500000 0.602150 0.462076
O O12 0.390649 0.654464 0.578669
O O13 0.000000 0.500000 0.977588
O O14 0.000000 0.632999 0.074905
O O15 0.357674 0.357674 0.250000
O O16 0.000000 0.500000 0.171828
#
# Coordination Sequence:
#
# PCOD8310083 Si02
#       7
#     8   8   8   8   8   8   8
#     4  10  19  29  40  53  72  99 132 170 204 229
#     4   8  15  25  36  54  73  88 115 152 189 232
#     4   8  15  25  36  54  73  88 115 152 189 232
#     4   9  18  30  40  50  66  94 134 172 204 235
#     4   8  13  23  38  53  71  90 107 139 186 233
#     4  10  19  29  40  53  72  99 132 170 204 229
#     4   8  13  23  40  57  71  88 109 139 186 237
#
# _framework density 13.945826
#
# number of rings (size 3 to 8) (size 9 to 14) (size 15 to 20)
#    0.000    3.286    0.000    2.571    0.000    3.714 
#    0.000    8.571    0.000    0.000    0.000    0.000 
#    0.000    0.000    0.000    0.000    0.000   11.429 
#
# Total GULP energy -694018.171727 kJ/mol
# GULP energy per Si atom -12393.181638 kJ/mol
# Density = 1.391408 g / cm^3
# Si number density = 13.945826 Si / 1000 Ang^3
#
#
#
# Elastic Constant Matrix: (Units=GPa)
#
#
# Indices 1 2 3 4 5 6 
#
# 1 61.5592 42.4904 47.4856 0.0000 0.0000 0.0000
# 2 42.4904 61.5592 47.4856 0.0000 0.0000 0.0000
# 3 47.4856 47.4856 121.3623 0.0000 0.0000 0.0000
# 4 0.0000 0.0000 0.0000 64.0531 0.0000 0.0000
# 5 0.0000 0.0000 0.0000 0.0000 64.0531 0.0000
# 6 0.0000 0.0000 0.0000 0.0000 0.0000 3.0806
#
#
#
# Elastic Compliance Matrix: (Units=1/GPa)
#
#
# Indices 1 2 3 4 5 6 
#
# 1 0.033696 -0.018746 -0.005849 0.000000 0.000000 0.000000
# 2 -0.018746 0.033696 -0.005849 0.000000 0.000000 0.000000
# 3 -0.005849 -0.005849 0.012817 0.000000 0.000000 0.000000
# 4 0.000000 0.000000 0.000000 0.015612 0.000000 0.000000
# 5 0.000000 0.000000 0.000000 0.000000 0.015612 0.000000
# 6 0.000000 0.000000 0.000000 0.000000 0.000000 0.324611
#
#
# Mechanical properties :
#
#
# Convention : Reuss Voigt Hill
#
# Bulk Modulus (GPa) = 51.76203 57.71156 54.73679
# Shear Modulus (GPa) = 9.93298 33.37196 21.65247
#
# Velocity S-wave (km/s) = 2.67171 4.89711 3.94460
# Velocity P-wave (km/s) = 6.83479 8.57018 7.75121
#
# Compressibility (1/GPa) = 0.01931918
#
# Stress axis : x y z
#
# Youngs Moduli (GPa) = 29.67726 29.67726 78.01977
#
# Poissons Ratio (x) = 0.55633 0.45638
# Poissons Ratio (y) = 0.55633 0.45638
# Poissons Ratio (z) = 0.17360 0.17360
#
# Static dielectric constant tensor:
#      x y z
#    x 2.608710 0.000000 0.000000 
#    y 0.000000 2.608710 0.000000 
#    z 0.000000 0.000000 3.031500 
# 
# 
# High freq. dielectric constant tensor:
#      x y z
#    x 1.495060 0.000000 0.000000 
#    y 0.000000 1.495060 0.000000 
#    z 0.000000 0.000000 1.544390 
# 
# From -- ./inp_files/2719.got.cif
#   From: 2010.03.12/outbox.cif.g09.slc.cpg/sg116_2_cif.got.tgz:2719.got - 2010.04.14 02:15:44.
