data_PCOD8310389
_publ_section_title
;
Structure prediction by ZEFSAII (Michael W. Deem and Ramdas Pophale) SiO2 
 PCOD8310389
Probable space group: P -4 B 2
;
_chemical_formula_sum "Si O2"
_cell_formula_units_Z 40
_cell_length_a 14.327647
_cell_length_b 14.327647
_cell_length_c 8.485732
_cell_angle_alpha 90.000000
_cell_angle_beta 90.000000
_cell_angle_gamma 90.000000
_cell_volume 1741.963527
_symmetry_space_group_name_H-M "P -4 B 2"
_symmetry_group_IT_number 117
_symmetry_cell_setting 'tetragonal'
loop_
_space_group_symop_operation_xyz
x,y,z
y,-x,-z
-x,-y,z
-y,x,-z
1/2+y,1/2+x,-z
1/2-y,1/2-x,-z
1/2-x,1/2+y,z
1/2+x,1/2-y,z
loop_
_atom_site_type_symbol
_atom_site_label
_atom_site_fract_x
_atom_site_fract_y
_atom_site_fract_z
Si Si1 0.129890 0.238486 0.907141
Si Si2 0.821798 0.550513 0.395385
Si Si3 0.360675 0.489518 0.565341
Si Si4 0.458686 0.281845 0.127873
Si Si5 0.917617 0.426012 0.821218
O O1 0.123198 0.275778 0.728162
O O2 0.192432 0.146237 0.923932
O O3 0.177482 0.322519 0.000000
O O4 0.026096 0.221730 0.976398
O O5 0.906547 0.593454 0.500000
O O6 0.745014 0.523962 0.519886
O O7 0.849555 0.455642 0.301478
O O8 0.399108 0.578000 0.469916
O O9 0.362988 0.506877 0.753288
O O10 0.462495 0.184388 0.229106
O O11 0.000000 0.500000 0.826017
O O12 0.893350 0.393350 0.000000
#
# Coordination Sequence:
#
# PCOD8310389 Si02
#       5
#     8   8   8   8   8
#     4  12  27  48  76 116 154 201 259 323 385 465
#     4  12  26  47  75 112 150 197 251 323 385 463
#     4  11  26  47  69 101 150 197 246 309 382 460
#     4  12  27  47  77 112 152 206 257 322 387 469
#     4  11  23  43  72 106 145 192 247 311 380 448
#
# _framework density 22.962592999999998
#
# number of rings (size 3 to 8) (size 9 to 14) (size 15 to 20)
#    0.000    0.400    4.000    4.200    2.800    4.800 
#    0.000    0.000    0.000    0.000    0.000    0.000 
#    0.000    0.000    0.000    0.000    0.000    0.000 
#
# Total GULP energy -495836.771781 kJ/mol
# GULP energy per Si atom -12395.919295 kJ/mol
# Density = 2.291033 g / cm^3
# Si number density = 22.962593 Si / 1000 Ang^3
#
#
#
# Elastic Constant Matrix: (Units=GPa)
#
#
# Indices 1 2 3 4 5 6 
#
# 1 94.3354 46.0211 24.6037 0.0000 0.0000 0.0000
# 2 46.0211 94.3361 24.6013 0.0000 0.0000 0.0000
# 3 24.6037 24.6013 95.6451 0.0000 0.0000 0.0000
# 4 0.0000 0.0000 0.0000 26.7914 0.0000 0.0000
# 5 0.0000 0.0000 0.0000 0.0000 26.7930 0.0000
# 6 0.0000 0.0000 0.0000 0.0000 0.0000 42.5335
#
#
#
# Elastic Compliance Matrix: (Units=1/GPa)
#
#
# Indices 1 2 3 4 5 6 
#
# 1 0.014264 -0.006433 -0.002015 0.000000 0.000000 0.000000
# 2 -0.006433 0.014264 -0.002014 0.000000 0.000000 0.000000
# 3 -0.002015 -0.002014 0.011492 0.000000 0.000000 0.000000
# 4 0.000000 0.000000 0.000000 0.037325 0.000000 0.000000
# 5 0.000000 0.000000 0.000000 0.000000 0.037323 0.000000
# 6 0.000000 0.000000 0.000000 0.000000 0.000000 0.023511
#
#
# Mechanical properties :
#
#
# Convention : Reuss Voigt Hill
#
# Bulk Modulus (GPa) = 52.36680 52.75209 52.55945
# Shear Modulus (GPa) = 30.21714 31.82962 31.02338
#
# Velocity S-wave (km/s) = 3.63151 3.72714 3.67964
# Velocity P-wave (km/s) = 6.35913 6.44555 6.40249
#
# Compressibility (1/GPa) = 0.01909607
#
# Stress axis : x y z
#
# Youngs Moduli (GPa) = 70.10452 70.10602 87.02024
#
# Poissons Ratio (x) = 0.45102 0.17531
# Poissons Ratio (y) = 0.45101 0.17526
# Poissons Ratio (z) = 0.14123 0.14119
#
# Static dielectric constant tensor:
#      x y z
#    x 4.236420 0.000000 0.000000 
#    y 0.000000 4.236430 0.000000 
#    z 0.000000 0.000000 4.322750 
# 
# 
# High freq. dielectric constant tensor:
#      x y z
#    x 1.907670 0.000000 0.000000 
#    y 0.000000 1.907670 0.000000 
#    z 0.000000 0.000000 1.919900 
# 
# From -- ./inp_files/1702.got.cif
#   From: 2010.03.12/outbox.cif.g09.slc.cpg/sg117_1_cif.got.tgz:1702.got - 2010.04.14 02:19:01.
