data_PCOD8310690
_publ_section_title
;
Structure prediction by ZEFSAII (Michael W. Deem and Ramdas Pophale) SiO2 
 PCOD8310690
Probable space group: I -4 M 2
;
_chemical_formula_sum "Si O2"
_cell_formula_units_Z 72
_cell_length_a 11.897284
_cell_length_b 11.897284
_cell_length_c 29.488710
_cell_angle_alpha 90.000000
_cell_angle_beta 90.000000
_cell_angle_gamma 90.000000
_cell_volume 4173.990267
_symmetry_space_group_name_H-M "I -4 M 2"
_symmetry_group_IT_number 119
_symmetry_cell_setting 'tetragonal'
loop_
_space_group_symop_operation_xyz
x,y,z
y,-x,-z
-x,-y,z
-y,x,-z
y,x,-z
-y,-x,-z
-x,y,z
x,-y,z
1/2+x,1/2+y,1/2+z
1/2+y,1/2-x,1/2-z
1/2-x,1/2-y,1/2+z
1/2-y,1/2+x,1/2-z
1/2+y,1/2+x,1/2-z
1/2-y,1/2-x,1/2-z
1/2-x,1/2+y,1/2+z
1/2+x,1/2-y,1/2+z
loop_
_atom_site_type_symbol
_atom_site_label
_atom_site_fract_x
_atom_site_fract_y
_atom_site_fract_z
Si Si1 0.500000 0.625030 0.901342
Si Si2 0.132419 0.370403 0.626094
Si Si3 0.220868 0.250539 0.200307
Si Si4 0.756745 0.000000 0.691842
Si Si5 0.871141 0.000000 0.783766
Si Si6 0.870346 0.223298 0.542847
O O1 0.500000 0.500000 0.881931
O O2 0.500000 0.704224 0.858955
O O3 0.608824 0.648173 0.930615
O O4 0.171202 0.500000 0.631002
O O5 0.190169 0.289928 0.662964
O O6 0.163097 0.327511 0.575364
O O7 0.000000 0.357766 0.634172
O O8 0.274068 0.225933 0.250000
O O9 0.188554 0.383623 0.197995
O O10 0.107285 0.183177 0.192272
O O11 0.855802 0.000000 0.729364
O O12 0.000000 0.000000 0.796267
O O13 0.785200 0.214801 0.500000
O O14 0.000000 0.234476 0.526630
#
# Coordination Sequence:
#
# PCOD8310690 Si02
#       6
#     8  16  16   8   8  16
#     4  10  17  26  49  79 108 131 165 215 270 323
#     4  10  21  35  52  77 109 143 175 214 266 320
#     4  10  21  35  54  79 106 141 179 223 265 313
#     4  10  19  33  52  79 107 136 176 228 279 307
#     4  10  21  35  53  74 107 149 189 213 251 318
#     4  10  18  29  50  78 105 131 168 217 269 323
#
# _framework density 17.249680000000001
#
# number of rings (size 3 to 8) (size 9 to 14) (size 15 to 20)
#    0.000    2.000    3.333    1.000    0.000    4.889 
#    0.000    3.333    2.444    0.000    0.000    0.000 
#    0.000    0.000    0.000    0.000    0.000    0.000 
#
# Total GULP energy -446197.620398 kJ/mol
# GULP energy per Si atom -12394.378344 kJ/mol
# Density = 1.721042 g / cm^3
# Si number density = 17.249680 Si / 1000 Ang^3
#
#
#
# Elastic Constant Matrix: (Units=GPa)
#
#
# Indices 1 2 3 4 5 6 
#
# 1 96.9449 41.7951 34.5505 0.0000 0.0000 0.0000
# 2 41.7951 96.9450 34.5502 0.0000 0.0000 0.0000
# 3 34.5505 34.5502 90.6047 0.0000 0.0000 0.0000
# 4 0.0000 0.0000 0.0000 29.3400 0.0000 0.0000
# 5 0.0000 0.0000 0.0000 0.0000 29.3401 0.0000
# 6 0.0000 0.0000 0.0000 0.0000 0.0000 11.3426
#
#
#
# Elastic Compliance Matrix: (Units=1/GPa)
#
#
# Indices 1 2 3 4 5 6 
#
# 1 0.013515 -0.004617 -0.003393 0.000000 0.000000 0.000000
# 2 -0.004617 0.013515 -0.003393 0.000000 0.000000 0.000000
# 3 -0.003393 -0.003393 0.013625 0.000000 0.000000 0.000000
# 4 0.000000 0.000000 0.000000 0.034083 0.000000 0.000000
# 5 0.000000 0.000000 0.000000 0.000000 0.034083 0.000000
# 6 0.000000 0.000000 0.000000 0.000000 0.000000 0.088163
#
#
# Mechanical properties :
#
#
# Convention : Reuss Voigt Hill
#
# Bulk Modulus (GPa) = 56.02837 56.25402 56.14120
# Shear Modulus (GPa) = 22.14938 25.57780 23.86359
#
# Velocity S-wave (km/s) = 3.58725 3.85489 3.72347
# Velocity P-wave (km/s) = 7.05047 7.24541 7.14860
#
# Compressibility (1/GPa) = 0.01784810
#
# Stress axis : x y z
#
# Youngs Moduli (GPa) = 73.99167 73.99194 73.39663
#
# Poissons Ratio (x) = 0.34165 0.24903
# Poissons Ratio (y) = 0.34165 0.24903
# Poissons Ratio (z) = 0.25105 0.25105
#
# Static dielectric constant tensor:
#      x y z
#    x 3.166200 0.000000 0.000000 
#    y 0.000000 3.166220 0.000000 
#    z 0.000000 0.000000 3.245700 
# 
# 
# High freq. dielectric constant tensor:
#      x y z
#    x 1.653240 0.000000 0.000000 
#    y 0.000000 1.653240 0.000000 
#    z 0.000000 0.000000 1.667050 
# 
# From -- ./inp_files/9376.got.cif
#   From: 2010.03.12/outbox.cif.g09.slc.cpg/sg119_5_cif.got.tgz:9376.got - 2010.04.14 02:25:26.
