data_PCOD8310513
_publ_section_title
;
Structure prediction by ZEFSAII (Michael W. Deem and Ramdas Pophale) SiO2 
 PCOD8310513
Probable space group: P -4 N 2
;
_chemical_formula_sum "Si O2"
_cell_formula_units_Z 56
_cell_length_a 15.082979
_cell_length_b 15.082979
_cell_length_c 10.856281
_cell_angle_alpha 90.000000
_cell_angle_beta 90.000000
_cell_angle_gamma 90.000000
_cell_volume 2469.763276
_symmetry_space_group_name_H-M "P -4 N 2"
_symmetry_group_IT_number 118
_symmetry_cell_setting 'tetragonal'
loop_
_space_group_symop_operation_xyz
x,y,z
y,-x,-z
-x,-y,z
-y,x,-z
1/2+y,1/2+x,1/2-z
1/2-y,1/2-x,1/2-z
1/2-x,1/2+y,1/2+z
1/2+x,1/2-y,1/2+z
loop_
_atom_site_type_symbol
_atom_site_label
_atom_site_fract_x
_atom_site_fract_y
_atom_site_fract_z
Si Si1 0.564071 0.627387 0.267530
Si Si2 0.940895 0.133068 0.241106
Si Si3 0.059843 0.690155 0.720225
Si Si4 0.702977 0.356063 0.480848
Si Si5 0.391434 0.811482 0.373206
Si Si6 0.374076 0.207332 0.871459
Si Si7 0.517163 0.100039 0.994264
O O1 0.620213 0.543761 0.220476
O O2 0.462153 0.601639 0.287555
O O3 0.565777 0.708399 0.167794
O O4 0.610481 0.671084 0.387321
O O5 0.937772 0.191535 0.115679
O O6 0.889471 0.186765 0.349867
O O7 0.159241 0.659241 0.750000
O O8 0.995844 0.693072 0.840563
O O9 0.022901 0.616452 0.628831
O O10 0.638919 0.281893 0.424493
O O11 0.804326 0.316332 0.481624
O O12 0.335121 0.835121 0.250000
O O13 0.378781 0.879001 0.488194
O O14 0.334896 0.165105 0.750000
O O15 0.470709 0.165618 0.897510
O O16 0.500000 0.000000 0.951259
#
# Coordination Sequence:
#
# PCOD8310513 Si02
#       7
#     8   8   8   8   8   8   8
#     4  11  23  39  68  98 136 174 232 289 342 410
#     4  10  22  42  65  96 135 181 225 284 345 413
#     4  11  21  39  63 103 138 169 224 291 344 407
#     4  11  21  39  67 100 128 173 229 290 345 407
#     4  10  21  36  64  96 134 180 220 282 352 417
#     4  10  24  44  67  92 138 183 229 278 352 429
#     4  11  23  40  66  95 131 180 226 275 343 417
#
# _framework density 22.674237000000002
#
# number of rings (size 3 to 8) (size 9 to 14) (size 15 to 20)
#    0.000    1.429    2.857    3.000    2.000    2.571 
#    5.143    0.000    0.000    1.714    0.000    0.000 
#    0.000    0.000    0.000    0.000    0.000    0.000 
#
# Total GULP energy -693878.679479 kJ/mol
# GULP energy per Si atom -12390.690705 kJ/mol
# Density = 2.262263 g / cm^3
# Si number density = 22.674237 Si / 1000 Ang^3
#
#
#
# Elastic Constant Matrix: (Units=GPa)
#
#
# Indices 1 2 3 4 5 6 
#
# 1 129.8686 48.1750 23.9822 0.0000 0.0000 0.0000
# 2 48.1750 129.8685 23.9821 0.0000 0.0000 0.0000
# 3 23.9822 23.9821 35.5106 0.0000 0.0000 0.0000
# 4 0.0000 0.0000 0.0000 24.6840 0.0000 0.0000
# 5 0.0000 0.0000 0.0000 0.0000 24.6839 0.0000
# 6 0.0000 0.0000 0.0000 0.0000 0.0000 38.3838
#
#
#
# Elastic Compliance Matrix: (Units=1/GPa)
#
#
# Indices 1 2 3 4 5 6 
#
# 1 0.009553 -0.002688 -0.004637 0.000000 0.000000 0.000000
# 2 -0.002688 0.009553 -0.004637 0.000000 0.000000 0.000000
# 3 -0.004637 -0.004637 0.034424 0.000000 0.000000 0.000000
# 4 0.000000 0.000000 0.000000 0.040512 0.000000 0.000000
# 5 0.000000 0.000000 0.000000 0.000000 0.040512 0.000000
# 6 0.000000 0.000000 0.000000 0.000000 0.000000 0.026053
#
#
# Mechanical properties :
#
#
# Convention : Reuss Voigt Hill
#
# Bulk Modulus (GPa) = 33.77479 54.16956 43.97218
# Shear Modulus (GPa) = 25.72036 30.82426 28.27231
#
# Velocity S-wave (km/s) = 3.37165 3.69106 3.53497
# Velocity P-wave (km/s) = 5.48502 6.48902 6.00803
#
# Compressibility (1/GPa) = 0.02960788
#
# Stress axis : x y z
#
# Youngs Moduli (GPa) = 104.67583 104.67588 29.04988
#
# Poissons Ratio (x) = 0.28132 0.13470
# Poissons Ratio (y) = 0.28132 0.13470
# Poissons Ratio (z) = 0.48536 0.48536
#
# Static dielectric constant tensor:
#      x y z
#    x 4.492150 0.000000 0.000000 
#    y 0.000000 4.492160 0.000000 
#    z 0.000000 0.000000 3.712290 
# 
# 
# High freq. dielectric constant tensor:
#      x y z
#    x 1.907810 0.000000 0.000000 
#    y 0.000000 1.907810 0.000000 
#    z 0.000000 0.000000 1.850620 
# 
# From -- ./inp_files/3441.got.cif
#   From: 2010.03.12/outbox.cif.g09.slc.cpg/sg118_2_cif.got.tgz:3441.got - 2010.04.14 02:21:17.
