data_PCOD8310317
_publ_section_title
;
Structure prediction by ZEFSAII (Michael W. Deem and Ramdas Pophale) SiO2 
 PCOD8310317
Probable space group: P -4 B 2
;
_chemical_formula_sum "Si O2"
_cell_formula_units_Z 36
_cell_length_a 13.310684
_cell_length_b 13.310684
_cell_length_c 8.927140
_cell_angle_alpha 90.000000
_cell_angle_beta 90.000000
_cell_angle_gamma 90.000000
_cell_volume 1581.659857
_symmetry_space_group_name_H-M "P -4 B 2"
_symmetry_group_IT_number 117
_symmetry_cell_setting 'tetragonal'
loop_
_space_group_symop_operation_xyz
x,y,z
y,-x,-z
-x,-y,z
-y,x,-z
1/2+y,1/2+x,-z
1/2-y,1/2-x,-z
1/2-x,1/2+y,z
1/2+x,1/2-y,z
loop_
_atom_site_type_symbol
_atom_site_label
_atom_site_fract_x
_atom_site_fract_y
_atom_site_fract_z
Si Si1 0.500000 0.500000 0.000000
Si Si2 0.238628 0.703275 0.250000
Si Si3 0.500000 0.500000 0.500000
Si Si4 0.718646 0.023097 0.250000
Si Si5 0.418875 0.380261 0.250000
Si Si6 0.322802 0.822802 0.500000
Si Si7 0.177198 0.322803 0.000000
O O1 0.484748 0.399288 0.101008
O O2 0.189744 0.593452 0.250000
O O3 0.310872 0.725645 0.391625
O O4 0.310871 0.725647 0.108376
O O5 0.140053 0.775278 0.250001
O O6 0.484749 0.399288 0.398992
O O7 0.838441 0.028548 0.250000
O O8 0.676441 0.076211 0.400685
O O9 0.676442 0.076209 0.099313
#
# Coordination Sequence:
#
# PCOD8310317 Si02
#       7
#     2   8   2   8   8   4   4
#     4  10  20  42  60 106 136 150 228 278 340 390
#     4  10  21  41  67  99 132 180 222 269 340 391
#     4  10  20  42  60 106 136 150 228 278 340 390
#     4  10  21  39  68  93 138 173 219 273 329 404
#     4   9  22  36  65 104 127 175 206 282 330 397
#     4   8  20  42  62 104 126 170 222 274 322 398
#     4   8  20  42  62 104 126 170 222 274 322 398
#
# _framework density 22.760898999999998
#
# number of rings (size 3 to 8) (size 9 to 14) (size 15 to 20)
#    0.000    3.111    0.000    0.000   12.444    0.000 
#    0.000    8.889    0.000    4.000   23.111    0.000 
#    0.000    0.000    0.000    0.000    0.000    0.000 
#
# Total GULP energy -445971.440260 kJ/mol
# GULP energy per Si atom -12388.095563 kJ/mol
# Density = 2.270909 g / cm^3
# Si number density = 22.760899 Si / 1000 Ang^3
#
#
#
# Elastic Constant Matrix: (Units=GPa)
#
#
# Indices 1 2 3 4 5 6 
#
# 1 144.4631 41.2981 66.1035 0.0000 0.0000 0.0000
# 2 41.2981 144.4633 66.1036 0.0000 0.0000 0.0000
# 3 66.1035 66.1036 189.9927 0.0000 0.0000 0.0000
# 4 0.0000 0.0000 0.0000 13.6710 0.0000 0.0000
# 5 0.0000 0.0000 0.0000 0.0000 13.6708 0.0000
# 6 0.0000 0.0000 0.0000 0.0000 0.0000 32.6918
#
#
#
# Elastic Compliance Matrix: (Units=1/GPa)
#
#
# Indices 1 2 3 4 5 6 
#
# 1 0.008424 -0.001269 -0.002489 0.000000 0.000000 0.000000
# 2 -0.001269 0.008424 -0.002489 0.000000 0.000000 0.000000
# 3 -0.002489 -0.002489 0.006996 0.000000 0.000000 0.000000
# 4 0.000000 0.000000 0.000000 0.073148 0.000000 0.000000
# 5 0.000000 0.000000 0.000000 0.000000 0.073148 0.000000
# 6 0.000000 0.000000 0.000000 0.000000 0.000000 0.030589
#
#
# Mechanical properties :
#
#
# Convention : Reuss Voigt Hill
#
# Bulk Modulus (GPa) = 88.12174 91.76998 89.94586
# Shear Modulus (GPa) = 23.04071 32.36765 27.70418
#
# Velocity S-wave (km/s) = 3.18511 3.77513 3.49260
# Velocity P-wave (km/s) = 7.23373 7.70771 7.47448
#
# Compressibility (1/GPa) = 0.01134794
#
# Stress axis : x y z
#
# Youngs Moduli (GPa) = 118.70716 118.70730 142.94650
#
# Poissons Ratio (x) = 0.15065 0.35585
# Poissons Ratio (y) = 0.15065 0.35585
# Poissons Ratio (z) = 0.29551 0.29551
#
# Static dielectric constant tensor:
#      x y z
#    x 3.703530 0.000000 0.000000 
#    y 0.000000 3.703530 0.000000 
#    z 0.000000 0.000000 4.571030 
# 
# 
# High freq. dielectric constant tensor:
#      x y z
#    x 1.870830 0.000000 0.000000 
#    y 0.000000 1.870830 0.000000 
#    z 0.000000 0.000000 1.928040 
# 
# From -- ./inp_files/1674.got.cif
#   From: 2010.03.12/outbox.cif.g09.slc.cpg/sg117_1_cif.got.tgz:1674.got - 2010.04.14 02:19:01.
