data_PCOD8310615
_publ_section_title
;
Structure prediction by ZEFSAII (Michael W. Deem and Ramdas Pophale) SiO2 
 PCOD8310615
Probable space group: P -4 N 2
;
_chemical_formula_sum "Si O2"
_cell_formula_units_Z 40
_cell_length_a 12.244100
_cell_length_b 12.244100
_cell_length_c 13.457995
_cell_angle_alpha 90.000000
_cell_angle_beta 90.000000
_cell_angle_gamma 90.000000
_cell_volume 2017.595490
_symmetry_space_group_name_H-M "P -4 N 2"
_symmetry_group_IT_number 118
_symmetry_cell_setting 'tetragonal'
loop_
_space_group_symop_operation_xyz
x,y,z
y,-x,-z
-x,-y,z
-y,x,-z
1/2+y,1/2+x,1/2-z
1/2-y,1/2-x,1/2-z
1/2-x,1/2+y,1/2+z
1/2+x,1/2-y,1/2+z
loop_
_atom_site_type_symbol
_atom_site_label
_atom_site_fract_x
_atom_site_fract_y
_atom_site_fract_z
Si Si1 0.240794 0.438566 0.524365
Si Si2 0.450370 0.381335 0.635106
Si Si3 0.740795 0.061436 0.475635
Si Si4 0.591717 0.908285 0.361217
Si Si5 0.881335 0.950371 0.635105
O O1 0.327133 0.378017 0.595069
O O2 0.293551 0.475033 0.420851
O O3 0.143199 0.356802 0.498357
O O4 0.197185 0.545796 0.581693
O O5 0.500000 0.500000 0.614665
O O6 0.450485 0.349268 0.750000
O O7 0.827134 0.121986 0.404932
O O8 0.697187 0.954206 0.418305
O O9 0.793551 0.024969 0.579150
O O10 0.626969 0.873032 0.250000
O O11 0.500000 0.000000 0.355002
O O12 0.000000 0.000000 0.614665
#
# Coordination Sequence:
#
# PCOD8310615 Si02
#       5
#     8   8   8   8   8
#     4  11  22  40  63  90 125 160 201 253 300 361
#     4  11  23  41  62  87 122 161 203 253 306 361
#     4  11  22  40  63  90 125 160 201 253 300 361
#     4   9  20  38  61  91 121 154 200 249 298 355
#     4  11  23  41  62  87 122 161 203 253 306 361
#
# _framework density 19.825579999999999
#
# number of rings (size 3 to 8) (size 9 to 14) (size 15 to 20)
#    0.000    1.400    4.000    1.200    2.800    3.200 
#    0.000    0.000    0.000    3.600    0.000    0.000 
#    0.000    0.000    0.000    0.000    0.000    0.000 
#
# Total GULP energy -496237.327428 kJ/mol
# GULP energy per Si atom -12405.933186 kJ/mol
# Density = 1.978046 g / cm^3
# Si number density = 19.825580 Si / 1000 Ang^3
#
#
#
# Elastic Constant Matrix: (Units=GPa)
#
#
# Indices 1 2 3 4 5 6 
#
# 1 101.3387 42.2206 71.1591 0.0000 0.0000 0.0000
# 2 42.2206 101.3389 71.1591 0.0000 0.0000 0.0000
# 3 71.1591 71.1591 188.1979 0.0000 0.0000 0.0000
# 4 0.0000 0.0000 0.0000 26.7980 0.0000 0.0000
# 5 0.0000 0.0000 0.0000 0.0000 26.7980 0.0000
# 6 0.0000 0.0000 0.0000 0.0000 0.0000 40.6733
#
#
#
# Elastic Compliance Matrix: (Units=1/GPa)
#
#
# Indices 1 2 3 4 5 6 
#
# 1 0.014029 -0.002886 -0.004213 0.000000 0.000000 0.000000
# 2 -0.002886 0.014029 -0.004213 0.000000 0.000000 0.000000
# 3 -0.004213 -0.004213 0.008499 0.000000 0.000000 0.000000
# 4 0.000000 0.000000 0.000000 0.037316 0.000000 0.000000
# 5 0.000000 0.000000 0.000000 0.000000 0.037316 0.000000
# 6 0.000000 0.000000 0.000000 0.000000 0.000000 0.024586
#
#
# Mechanical properties :
#
#
# Convention : Reuss Voigt Hill
#
# Bulk Modulus (GPa) = 71.77645 84.43925 78.10785
# Shear Modulus (GPa) = 30.66644 32.60964 31.63804
#
# Velocity S-wave (km/s) = 3.93722 4.06005 3.99910
# Velocity P-wave (km/s) = 7.54662 8.04128 7.79787
#
# Compressibility (1/GPa) = 0.01393215
#
# Stress axis : x y z
#
# Youngs Moduli (GPa) = 71.28187 71.28197 117.65406
#
# Poissons Ratio (x) = 0.20575 0.49568
# Poissons Ratio (y) = 0.20575 0.49568
# Poissons Ratio (z) = 0.30031 0.30031
#
# Static dielectric constant tensor:
#      x y z
#    x 3.583550 0.000000 0.000000 
#    y 0.000000 3.583550 0.000000 
#    z 0.000000 0.000000 3.688760 
# 
# 
# High freq. dielectric constant tensor:
#      x y z
#    x 1.771530 0.000000 0.000000 
#    y 0.000000 1.771520 0.000000 
#    z 0.000000 0.000000 1.779930 
# 
# From -- ./inp_files/4049.got.cif
#   From: 2010.03.12/outbox.cif.g09.slc.cpg/sg118_3_cif.got.tgz:4049.got - 2010.04.14 02:21:17.
