data_PCOD8310146
_publ_section_title
;
Structure prediction by ZEFSAII (Michael W. Deem and Ramdas Pophale) SiO2 
 PCOD8310146
Probable space group: P -4 C 2
;
_chemical_formula_sum "Si O2"
_cell_formula_units_Z 22
_cell_length_a 8.952770
_cell_length_b 8.952770
_cell_length_c 14.102926
_cell_angle_alpha 90.000000
_cell_angle_beta 90.000000
_cell_angle_gamma 90.000000
_cell_volume 1130.379004
_symmetry_space_group_name_H-M "P -4 C 2"
_symmetry_group_IT_number 116
_symmetry_cell_setting 'tetragonal'
loop_
_space_group_symop_operation_xyz
x,y,z
y,-x,-z
-x,-y,z
-y,x,-z
y,x,1/2-z
-y,-x,1/2-z
-x,y,1/2+z
x,-y,1/2+z
loop_
_atom_site_type_symbol
_atom_site_label
_atom_site_fract_x
_atom_site_fract_y
_atom_site_fract_z
Si Si1 0.658866 0.281758 0.146814
Si Si2 0.076372 0.217113 0.523909
Si Si3 0.500000 0.000000 0.591208
Si Si4 0.500000 0.500000 0.500000
O O1 0.644612 0.355389 0.250000
O O2 0.830567 0.238063 0.121302
O O3 0.565787 0.129625 0.156404
O O4 0.595183 0.389816 0.065923
O O5 0.906638 0.161191 0.542467
O O6 0.076742 0.374884 0.472912
#
# Coordination Sequence:
#
# PCOD8310146 Si02
#       4
#     8   8   4   2
#     4  11  23  40  63  93 121 165 214 252 318 385
#     4   9  19  38  62  85 123 166 202 258 320 365
#     4  10  20  40  62  90 124 168 202 262 318 360
#     4  12  22  44  60  90 136 160 202 276 316 370
#
# _framework density 19.462496999999999
#
# number of rings (size 3 to 8) (size 9 to 14) (size 15 to 20)
#    0.000    1.818    3.636    0.545    0.000    1.455 
#    0.000   14.545    0.000    0.000    0.000    0.000 
#    0.000    0.000    0.000    0.000    0.000    0.000 
#
# Total GULP energy -272703.021898 kJ/mol
# GULP energy per Si atom -12395.591904 kJ/mol
# Density = 1.941820 g / cm^3
# Si number density = 19.462497 Si / 1000 Ang^3
#
#
#
# Elastic Constant Matrix: (Units=GPa)
#
#
# Indices 1 2 3 4 5 6 
#
# 1 124.4751 40.0063 58.7043 0.0000 0.0000 0.0000
# 2 40.0063 124.4749 58.7041 0.0000 0.0000 0.0000
# 3 58.7043 58.7041 123.3878 0.0000 0.0000 0.0000
# 4 0.0000 0.0000 0.0000 18.3987 0.0000 0.0000
# 5 0.0000 0.0000 0.0000 0.0000 18.3989 0.0000
# 6 0.0000 0.0000 0.0000 0.0000 0.0000 28.2656
#
#
#
# Elastic Compliance Matrix: (Units=1/GPa)
#
#
# Indices 1 2 3 4 5 6 
#
# 1 0.010522 -0.001316 -0.004380 0.000000 0.000000 0.000000
# 2 -0.001316 0.010522 -0.004380 0.000000 0.000000 0.000000
# 3 -0.004380 -0.004380 0.012272 0.000000 0.000000 0.000000
# 4 0.000000 0.000000 0.000000 0.054352 0.000000 0.000000
# 5 0.000000 0.000000 0.000000 0.000000 0.054351 0.000000
# 6 0.000000 0.000000 0.000000 0.000000 0.000000 0.035379
#
#
# Mechanical properties :
#
#
# Convention : Reuss Voigt Hill
#
# Bulk Modulus (GPa) = 75.96130 76.35191 76.15660
# Shear Modulus (GPa) = 24.75990 27.34086 26.05038
#
# Velocity S-wave (km/s) = 3.57064 3.75213 3.66251
# Velocity P-wave (km/s) = 7.49090 7.62147 7.55646
#
# Compressibility (1/GPa) = 0.01316460
#
# Stress axis : x y z
#
# Youngs Moduli (GPa) = 95.03476 95.03466 81.48419
#
# Poissons Ratio (x) = 0.12509 0.35691
# Poissons Ratio (y) = 0.12509 0.35690
# Poissons Ratio (z) = 0.41626 0.41626
#
# Static dielectric constant tensor:
#      x y z
#    x 3.846790 0.000000 0.000000 
#    y 0.000000 3.846790 0.000000 
#    z 0.000000 0.000000 3.050490 
# 
# 
# High freq. dielectric constant tensor:
#      x y z
#    x 1.779360 0.000000 0.000000 
#    y 0.000000 1.779360 0.000000 
#    z 0.000000 0.000000 1.710980 
# 
# From -- ./inp_files/1347.got.cif
#   From: 2010.03.12/outbox.cif.g09.slc.cpg/sg116_1_cif.got.tgz:1347.got - 2010.04.14 02:15:44.
