data_PCOD8310133
_publ_section_title
;
Structure prediction by ZEFSAII (Michael W. Deem and Ramdas Pophale) SiO2 
 PCOD8310133
Probable space group: P -4 C 2
;
_chemical_formula_sum "Si O2"
_cell_formula_units_Z 40
_cell_length_a 8.325667
_cell_length_b 8.325667
_cell_length_c 27.850828
_cell_angle_alpha 90.000000
_cell_angle_beta 90.000000
_cell_angle_gamma 90.000000
_cell_volume 1930.528352
_symmetry_space_group_name_H-M "P -4 C 2"
_symmetry_group_IT_number 116
_symmetry_cell_setting 'tetragonal'
loop_
_space_group_symop_operation_xyz
x,y,z
y,-x,-z
-x,-y,z
-y,x,-z
y,x,1/2-z
-y,-x,1/2-z
-x,y,1/2+z
x,-y,1/2+z
loop_
_atom_site_type_symbol
_atom_site_label
_atom_site_fract_x
_atom_site_fract_y
_atom_site_fract_z
Si Si1 0.888225 0.267310 0.795157
Si Si2 0.000000 0.500000 0.054078
Si Si3 0.259544 0.410599 0.988106
Si Si4 0.734268 0.773534 0.895062
Si Si5 0.760829 0.389772 0.295375
Si Si6 0.000000 0.000000 0.635662
O O1 0.809898 0.190102 0.750000
O O2 0.779333 0.421915 0.809240
O O3 0.066944 0.319945 0.780939
O O4 0.892126 0.127608 0.834796
O O5 0.129510 0.579461 0.088681
O O6 0.099001 0.378166 0.019405
O O7 0.226857 0.368409 0.932555
O O8 0.302286 0.598923 0.989969
O O9 0.696690 0.700353 0.842763
O O10 0.882556 0.895634 0.896864
O O11 0.641207 0.358794 0.250000
#
# Coordination Sequence:
#
# PCOD8310133 Si02
#       6
#     8   4   8   8   8   4
#     4  10  20  37  58  80 116 160 200 247 296 348
#     4  10  22  38  62  88 116 158 200 250 308 366
#     4   9  20  40  61  85 118 157 199 247 307 363
#     4  10  22  39  60  87 121 158 199 250 304 361
#     4  10  22  38  58  88 121 158 202 245 299 366
#     4  10  21  36  59  88 114 150 200 250 306 360
#
# _framework density 20.719718
#
# number of rings (size 3 to 8) (size 9 to 14) (size 15 to 20)
#    0.000    2.200    0.000    2.700    0.000   11.600 
#    0.000    6.000    0.000    0.000    0.000    0.000 
#    0.000    0.000    0.000    0.000    0.000    0.000 
#
# Total GULP energy -495863.495762 kJ/mol
# GULP energy per Si atom -12396.587394 kJ/mol
# Density = 2.067256 g / cm^3
# Si number density = 20.719718 Si / 1000 Ang^3
#
#
#
# Elastic Constant Matrix: (Units=GPa)
#
#
# Indices 1 2 3 4 5 6 
#
# 1 102.1914 20.8870 60.7581 0.0000 0.0000 0.0000
# 2 20.8870 102.1910 60.7587 0.0000 0.0000 0.0000
# 3 60.7581 60.7587 150.3184 0.0000 0.0000 0.0000
# 4 0.0000 0.0000 0.0000 37.6682 0.0000 0.0000
# 5 0.0000 0.0000 0.0000 0.0000 37.6673 0.0000
# 6 0.0000 0.0000 0.0000 0.0000 0.0000 26.7906
#
#
#
# Elastic Compliance Matrix: (Units=1/GPa)
#
#
# Indices 1 2 3 4 5 6 
#
# 1 0.012910 0.000611 -0.005465 0.000000 0.000000 0.000000
# 2 0.000611 0.012910 -0.005465 0.000000 0.000000 0.000000
# 3 -0.005465 -0.005465 0.011070 0.000000 0.000000 0.000000
# 4 0.000000 0.000000 0.000000 0.026548 0.000000 0.000000
# 5 0.000000 0.000000 0.000000 0.000000 0.026548 0.000000
# 6 0.000000 0.000000 0.000000 0.000000 0.000000 0.037326
#
#
# Mechanical properties :
#
#
# Convention : Reuss Voigt Hill
#
# Bulk Modulus (GPa) = 61.53234 71.05647 66.29440
# Shear Modulus (GPa) = 32.60116 34.57837 33.58976
#
# Velocity S-wave (km/s) = 3.97096 4.08960 4.03072
# Velocity P-wave (km/s) = 7.12647 7.52784 7.32991
#
# Compressibility (1/GPa) = 0.01625162
#
# Stress axis : x y z
#
# Youngs Moduli (GPa) = 77.45959 77.45869 90.33087
#
# Poissons Ratio (x) = -0.04729 0.49365
# Poissons Ratio (y) = -0.04729 0.49366
# Poissons Ratio (z) = 0.42331 0.42331
#
# Static dielectric constant tensor:
#      x y z
#    x 4.725610 0.000000 0.000000 
#    y 0.000000 4.725710 0.000000 
#    z 0.000000 0.000000 3.445920 
# 
# 
# High freq. dielectric constant tensor:
#      x y z
#    x 1.812560 0.000000 0.000000 
#    y 0.000000 1.812560 0.000000 
#    z 0.000000 0.000000 1.805720 
# 
# From -- ./inp_files/4873.got.cif
#   From: 2010.03.12/outbox.cif.g09.slc.cpg/sg116_3_cif.got.tgz:4873.got - 2010.04.14 02:15:44.
