data_PCOD8310812
_publ_section_title
;
Structure prediction by ZEFSAII (Michael W. Deem and Ramdas Pophale) SiO2 
 PCOD8310812
Probable space group: I -4 M 2
;
_chemical_formula_sum "Si O2"
_cell_formula_units_Z 128
_cell_length_a 21.204323
_cell_length_b 21.204323
_cell_length_c 15.469568
_cell_angle_alpha 90.000000
_cell_angle_beta 90.000000
_cell_angle_gamma 90.000000
_cell_volume 6955.478429
_symmetry_space_group_name_H-M "I -4 M 2"
_symmetry_group_IT_number 119
_symmetry_cell_setting 'tetragonal'
loop_
_space_group_symop_operation_xyz
x,y,z
y,-x,-z
-x,-y,z
-y,x,-z
y,x,-z
-y,-x,-z
-x,y,z
x,-y,z
1/2+x,1/2+y,1/2+z
1/2+y,1/2-x,1/2-z
1/2-x,1/2-y,1/2+z
1/2-y,1/2+x,1/2-z
1/2+y,1/2+x,1/2-z
1/2-y,1/2-x,1/2-z
1/2-x,1/2+y,1/2+z
1/2+x,1/2-y,1/2+z
loop_
_atom_site_type_symbol
_atom_site_label
_atom_site_fract_x
_atom_site_fract_y
_atom_site_fract_z
Si Si1 0.213957 0.928754 0.531196
Si Si2 0.311716 0.804231 0.155743
Si Si3 0.666287 0.366479 0.870587
Si Si4 0.318804 0.274467 0.591519
Si Si5 0.571699 0.074517 0.846845
Si Si6 0.428788 0.361922 0.579102
Si Si7 0.572719 0.431349 0.247593
Si Si8 0.640913 0.838910 0.975524
O O1 0.173982 0.920356 0.443284
O O2 0.190335 0.878374 0.600247
O O3 0.287501 0.914197 0.519179
O O4 0.205397 0.000000 0.564270
O O5 0.332150 0.832150 0.250000
O O6 0.340469 0.735025 0.148317
O O7 0.235357 0.797839 0.157560
O O8 0.335430 0.848913 0.075898
O O9 0.631054 0.394886 0.788883
O O10 0.301717 0.301717 0.500000
O O11 0.388219 0.301909 0.614918
O O12 0.317900 0.198933 0.585104
O O13 0.500000 0.097755 0.858957
O O14 0.595573 0.095573 0.750000
O O15 0.612707 0.100244 0.927364
O O16 0.575763 0.000000 0.852425
O O17 0.394435 0.394435 0.500000
O O18 0.500000 0.338814 0.555814
O O19 0.431404 0.415797 0.650744
O O20 0.500000 0.424904 0.227513
O O21 0.596443 0.500000 0.209903
#
# Coordination Sequence:
#
# PCOD8310812 Si02
#       8
#    16  16  16  16  16  16  16  16
#     4  10  19  32  52  77 106 136 173 220 264 321
#     4  10  19  33  54  77 108 146 184 222 269 325
#     4  10  19  33  51  74 102 137 178 216 263 316
#     4   9  18  33  50  72 103 139 177 225 274 321
#     4   9  19  37  59  83 111 142 176 216 274 346
#     4  10  20  34  52  72  97 133 179 224 269 321
#     4  10  20  33  48  69 100 134 171 217 264 314
#     4  10  19  34  55  80 110 141 179 223 275 325
#
# _framework density 18.402760000000001
#
# number of rings (size 3 to 8) (size 9 to 14) (size 15 to 20)
#    0.000    2.250    1.250    2.625    0.000    1.625 
#    2.250    0.000    0.000    7.500    0.000    0.875 
#    0.000    0.000    0.000    0.000    0.000    0.000 
#
# Total GULP energy -792884.791757 kJ/mol
# GULP energy per Si atom -12388.824871 kJ/mol
# Density = 1.836087 g / cm^3
# Si number density = 18.402760 Si / 1000 Ang^3
#
#
#
# Elastic Constant Matrix: (Units=GPa)
#
#
# Indices 1 2 3 4 5 6 
#
# 1 70.9771 35.1824 30.7455 0.0000 0.0000 0.0000
# 2 35.1824 70.9771 30.7455 0.0000 0.0000 0.0000
# 3 30.7455 30.7455 98.1803 0.0000 0.0000 0.0000
# 4 0.0000 0.0000 0.0000 26.1549 0.0000 0.0000
# 5 0.0000 0.0000 0.0000 0.0000 26.1549 0.0000
# 6 0.0000 0.0000 0.0000 0.0000 0.0000 26.6484
#
#
#
# Elastic Compliance Matrix: (Units=1/GPa)
#
#
# Indices 1 2 3 4 5 6 
#
# 1 0.019722 -0.008215 -0.003603 0.000000 0.000000 0.000000
# 2 -0.008215 0.019722 -0.003603 0.000000 0.000000 0.000000
# 3 -0.003603 -0.003603 0.012442 0.000000 0.000000 0.000000
# 4 0.000000 0.000000 0.000000 0.038234 0.000000 0.000000
# 5 0.000000 0.000000 0.000000 0.000000 0.038234 0.000000
# 6 0.000000 0.000000 0.000000 0.000000 0.000000 0.037526
#
#
# Mechanical properties :
#
#
# Convention : Reuss Voigt Hill
#
# Bulk Modulus (GPa) = 47.52307 48.16460 47.84383
# Shear Modulus (GPa) = 24.54139 25.35573 24.94856
#
# Velocity S-wave (km/s) = 3.65577 3.71593 3.68597
# Velocity P-wave (km/s) = 6.61056 6.68133 6.64604
#
# Compressibility (1/GPa) = 0.02104241
#
# Stress axis : x y z
#
# Youngs Moduli (GPa) = 50.70469 50.70469 80.37155
#
# Poissons Ratio (x) = 0.41654 0.28962
# Poissons Ratio (y) = 0.41654 0.28962
# Poissons Ratio (z) = 0.18271 0.18271
#
# Static dielectric constant tensor:
#      x y z
#    x 3.533040 0.000000 0.000000 
#    y 0.000000 3.533040 0.000000 
#    z 0.000000 0.000000 3.411400 
# 
# 
# High freq. dielectric constant tensor:
#      x y z
#    x 1.704700 0.000000 0.000000 
#    y 0.000000 1.704700 0.000000 
#    z 0.000000 0.000000 1.708000 
# 
# From -- ./inp_files/6913.got.cif
#   From: 2010.03.12/outbox.cif.g09.slc.cpg/sg119_4_cif.got.tgz:6913.got - 2010.04.14 02:25:26.
