data_PCOD8310649
_publ_section_title
;
Structure prediction by ZEFSAII (Michael W. Deem and Ramdas Pophale) SiO2 
 PCOD8310649
Probable space group: P -4 N 2
;
_chemical_formula_sum "Si O2"
_cell_formula_units_Z 16
_cell_length_a 7.004059
_cell_length_b 7.004059
_cell_length_c 12.573299
_cell_angle_alpha 90.000000
_cell_angle_beta 90.000000
_cell_angle_gamma 90.000000
_cell_volume 616.806348
_symmetry_space_group_name_H-M "P -4 N 2"
_symmetry_group_IT_number 118
_symmetry_cell_setting 'tetragonal'
loop_
_space_group_symop_operation_xyz
x,y,z
y,-x,-z
-x,-y,z
-y,x,-z
1/2+y,1/2+x,1/2-z
1/2-y,1/2-x,1/2-z
1/2-x,1/2+y,1/2+z
1/2+x,1/2-y,1/2+z
loop_
_atom_site_type_symbol
_atom_site_label
_atom_site_fract_x
_atom_site_fract_y
_atom_site_fract_z
Si Si1 0.797993 0.948293 0.671148
Si Si2 0.748415 0.179555 0.986925
O O1 0.654603 0.845398 0.750000
O O2 0.858054 0.806547 0.575261
O O3 0.693032 0.137996 0.625768
O O4 0.000000 0.000000 0.728343
O O5 0.962364 0.256856 0.973147
#
# Coordination Sequence:
#
# PCOD8310649 Si02
#       2
#     8   8
#     4  12  27  52  81 121 171 225 289 352 435 523
#     4  11  25  50  82 115 165 215 272 364 430 507
#
# _framework density 25.940069999999999
#
# number of rings (size 3 to 8) (size 9 to 14) (size 15 to 20)
#    0.000    0.500    5.000    1.500    7.000    4.000 
#    0.000    2.500    0.000    0.000    0.000    0.000 
#    0.000    0.000    0.000    0.000    0.000    0.000 
#
# Total GULP energy -198528.246023 kJ/mol
# GULP energy per Si atom -12408.015376 kJ/mol
# Density = 2.588103 g / cm^3
# Si number density = 25.940070 Si / 1000 Ang^3
#
#
#
# Elastic Constant Matrix: (Units=GPa)
#
#
# Indices 1 2 3 4 5 6 
#
# 1 179.3938 95.2334 67.8785 0.0000 0.0000 0.0000
# 2 95.2334 179.3931 67.8791 0.0000 0.0000 0.0000
# 3 67.8785 67.8791 94.2862 0.0000 0.0000 0.0000
# 4 0.0000 0.0000 0.0000 41.7244 0.0000 0.0000
# 5 0.0000 0.0000 0.0000 0.0000 41.7240 0.0000
# 6 0.0000 0.0000 0.0000 0.0000 0.0000 47.5825
#
#
#
# Elastic Compliance Matrix: (Units=1/GPa)
#
#
# Indices 1 2 3 4 5 6 
#
# 1 0.008768 -0.003114 -0.004070 0.000000 0.000000 0.000000
# 2 -0.003114 0.008768 -0.004070 0.000000 0.000000 0.000000
# 3 -0.004070 -0.004070 0.016466 0.000000 0.000000 0.000000
# 4 0.000000 0.000000 0.000000 0.023967 0.000000 0.000000
# 5 0.000000 0.000000 0.000000 0.000000 0.023967 0.000000
# 6 0.000000 0.000000 0.000000 0.000000 0.000000 0.021016
#
#
# Mechanical properties :
#
#
# Convention : Reuss Voigt Hill
#
# Bulk Modulus (GPa) = 87.01013 101.67276 94.34144
# Shear Modulus (GPa) = 38.67260 41.01165 39.84213
#
# Velocity S-wave (km/s) = 3.86533 3.98051 3.92335
# Velocity P-wave (km/s) = 7.31687 7.77215 7.54795
#
# Compressibility (1/GPa) = 0.01149291
#
# Stress axis : x y z
#
# Youngs Moduli (GPa) = 114.05641 114.05495 60.73134
#
# Poissons Ratio (x) = 0.35522 0.24716
# Poissons Ratio (y) = 0.35523 0.24717
# Poissons Ratio (z) = 0.46418 0.46420
#
# Static dielectric constant tensor:
#      x y z
#    x 4.915280 0.000000 0.000000 
#    y 0.000000 4.915280 0.000000 
#    z 0.000000 0.000000 4.643770 
# 
# 
# High freq. dielectric constant tensor:
#      x y z
#    x 2.061920 0.000000 0.000000 
#    y 0.000000 2.061920 0.000000 
#    z 0.000000 0.000000 2.016770 
# 
# From -- ./inp_files/2378.got.cif
#   From: 2010.03.12/outbox.cif.g09.slc.cpg/sg118_2_cif.got.tgz:2378.got - 2010.04.14 02:21:17.
