data_PCOD8310251
_publ_section_title
;
Structure prediction by ZEFSAII (Michael W. Deem and Ramdas Pophale) SiO2 
 PCOD8310251
Probable space group: P -4 C 2
;
_chemical_formula_sum "Si O2"
_cell_formula_units_Z 32
_cell_length_a 11.000870
_cell_length_b 11.000870
_cell_length_c 12.512024
_cell_angle_alpha 90.000000
_cell_angle_beta 90.000000
_cell_angle_gamma 90.000000
_cell_volume 1514.194394
_symmetry_space_group_name_H-M "P -4 C 2"
_symmetry_group_IT_number 116
_symmetry_cell_setting 'tetragonal'
loop_
_space_group_symop_operation_xyz
x,y,z
y,-x,-z
-x,-y,z
-y,x,-z
y,x,1/2-z
-y,-x,1/2-z
-x,y,1/2+z
x,-y,1/2+z
loop_
_atom_site_type_symbol
_atom_site_label
_atom_site_fract_x
_atom_site_fract_y
_atom_site_fract_z
Si Si1 0.679388 0.846954 0.324490
Si Si2 0.686732 0.533284 0.005154
Si Si3 0.415440 0.103186 0.112397
Si Si4 0.188286 0.017661 0.985002
O O1 0.768205 0.768205 0.250000
O O2 0.604305 0.761480 0.404451
O O3 0.589038 0.910784 0.240480
O O4 0.748886 0.956648 0.382908
O O5 0.619665 0.412991 0.052423
O O6 0.770900 0.481585 0.911923
O O7 0.500000 0.000000 0.061771
O O8 0.282354 0.090416 0.059659
O O9 0.118912 0.910907 0.051785
#
# Coordination Sequence:
#
# PCOD8310251 Si02
#       4
#     8   8   8   8
#     4  12  24  46  70 101 136 182 230 279 344 415
#     4  11  24  45  70  99 138 177 226 286 341 403
#     4  12  26  44  68 100 139 179 231 288 338 408
#     4  11  24  45  70  99 138 177 226 286 341 403
#
# _framework density 21.133351000000001
#
# number of rings (size 3 to 8) (size 9 to 14) (size 15 to 20)
#    0.000    0.500    7.500    0.000    3.500    2.000 
#    0.000    2.500    0.000    0.000    0.000    0.000 
#    0.000    0.000    0.000    0.000    0.000    0.000 
#
# Total GULP energy -396579.352974 kJ/mol
# GULP energy per Si atom -12393.104780 kJ/mol
# Density = 2.108525 g / cm^3
# Si number density = 21.133351 Si / 1000 Ang^3
#
#
#
# Elastic Constant Matrix: (Units=GPa)
#
#
# Indices 1 2 3 4 5 6 
#
# 1 78.1379 20.7502 28.4226 0.0000 0.0000 0.0000
# 2 20.7502 78.1379 28.4226 0.0000 0.0000 0.0000
# 3 28.4226 28.4226 105.5596 0.0000 0.0000 0.0000
# 4 0.0000 0.0000 0.0000 29.6099 0.0000 0.0000
# 5 0.0000 0.0000 0.0000 0.0000 29.6099 0.0000
# 6 0.0000 0.0000 0.0000 0.0000 0.0000 55.4259
#
#
#
# Elastic Compliance Matrix: (Units=1/GPa)
#
#
# Indices 1 2 3 4 5 6 
#
# 1 0.014695 -0.002731 -0.003221 0.000000 0.000000 0.000000
# 2 -0.002731 0.014695 -0.003221 0.000000 0.000000 0.000000
# 3 -0.003221 -0.003221 0.011208 0.000000 0.000000 0.000000
# 4 0.000000 0.000000 0.000000 0.033772 0.000000 0.000000
# 5 0.000000 0.000000 0.000000 0.000000 0.033772 0.000000
# 6 0.000000 0.000000 0.000000 0.000000 0.000000 0.018042
#
#
# Mechanical properties :
#
#
# Convention : Reuss Voigt Hill
#
# Bulk Modulus (GPa) = 44.94216 46.33626 45.63921
# Shear Modulus (GPa) = 32.90588 35.21183 34.05886
#
# Velocity S-wave (km/s) = 3.95024 4.08631 4.01885
# Velocity P-wave (km/s) = 6.48984 6.65110 6.57096
#
# Compressibility (1/GPa) = 0.02225082
#
# Stress axis : x y z
#
# Youngs Moduli (GPa) = 68.05130 68.05130 89.22105
#
# Poissons Ratio (x) = 0.18582 0.28742
# Poissons Ratio (y) = 0.18582 0.28742
# Poissons Ratio (z) = 0.21922 0.21922
#
# Static dielectric constant tensor:
#      x y z
#    x 4.192860 0.000000 0.000000 
#    y 0.000000 4.192860 0.000000 
#    z 0.000000 0.000000 3.809370 
# 
# 
# High freq. dielectric constant tensor:
#      x y z
#    x 1.851890 0.000000 0.000000 
#    y 0.000000 1.851890 0.000000 
#    z 0.000000 0.000000 1.795700 
# 
# From -- ./inp_files/1544.got.cif
#   From: 2010.03.12/outbox.cif.g09.slc.cpg/sg116_1_cif.got.tgz:1544.got - 2010.04.14 02:15:44.
