data_PCOD8310414
_publ_section_title
;
Structure prediction by ZEFSAII (Michael W. Deem and Ramdas Pophale) SiO2 
 PCOD8310414
Probable space group: P -4 B 2
;
_chemical_formula_sum "Si O2"
_cell_formula_units_Z 40
_cell_length_a 9.081794
_cell_length_b 9.081794
_cell_length_c 21.263884
_cell_angle_alpha 90.000000
_cell_angle_beta 90.000000
_cell_angle_gamma 90.000000
_cell_volume 1753.823511
_symmetry_space_group_name_H-M "P -4 B 2"
_symmetry_group_IT_number 117
_symmetry_cell_setting 'tetragonal'
loop_
_space_group_symop_operation_xyz
x,y,z
y,-x,-z
-x,-y,z
-y,x,-z
1/2+y,1/2+x,-z
1/2-y,1/2-x,-z
1/2-x,1/2+y,z
1/2+x,1/2-y,z
loop_
_atom_site_type_symbol
_atom_site_label
_atom_site_fract_x
_atom_site_fract_y
_atom_site_fract_z
Si Si1 0.286094 0.569927 0.025263
Si Si2 0.107204 0.364478 0.429436
Si Si3 0.881739 0.871738 0.781207
Si Si4 0.641600 0.406335 0.642619
Si Si5 0.427094 0.152555 0.844046
O O1 0.272625 0.554731 0.100340
O O2 0.415654 0.684114 0.008601
O O3 0.131752 0.631752 0.000000
O O4 0.165453 0.334548 0.500000
O O5 0.249386 0.393617 0.387598
O O6 0.000000 0.500000 0.427528
O O7 0.007216 0.234709 0.403668
O O8 0.799176 0.878775 0.713157
O O9 0.745529 0.873187 0.829689
O O10 0.976635 0.720575 0.786541
O O11 0.000000 0.000000 0.794528
O O12 0.500000 0.500000 0.655321
O O13 0.500000 0.000000 0.864413
#
# Coordination Sequence:
#
# PCOD8310414 Si02
#       5
#     8   8   8   8   8
#     4  11  28  48  75 108 147 190 244 301 371 455
#     4  11  27  45  74 107 146 198 252 313 383 461
#     4  11  28  47  77 112 148 198 253 317 378 466
#     4  11  27  46  74 107 152 196 249 314 384 455
#     4  12  28  48  79 108 151 200 252 315 385 455
#
# _framework density 22.807314000000002
#
# number of rings (size 3 to 8) (size 9 to 14) (size 15 to 20)
#    0.000    0.800    0.000    3.600   28.000    0.000 
#    0.000    0.000    0.000    0.000    0.000    0.000 
#    0.000    0.000    0.000    0.000    0.000    0.000 
#
# Total GULP energy -495943.224446 kJ/mol
# GULP energy per Si atom -12398.580611 kJ/mol
# Density = 2.275540 g / cm^3
# Si number density = 22.807314 Si / 1000 Ang^3
#
#
#
# Elastic Constant Matrix: (Units=GPa)
#
#
# Indices 1 2 3 4 5 6 
#
# 1 115.3405 30.4588 56.8156 0.0000 0.0000 0.0000
# 2 30.4588 115.3406 56.8156 0.0000 0.0000 0.0000
# 3 56.8156 56.8156 137.8285 0.0000 0.0000 0.0000
# 4 0.0000 0.0000 0.0000 35.7949 0.0000 0.0000
# 5 0.0000 0.0000 0.0000 0.0000 35.7950 0.0000
# 6 0.0000 0.0000 0.0000 0.0000 0.0000 50.0246
#
#
#
# Elastic Compliance Matrix: (Units=1/GPa)
#
#
# Indices 1 2 3 4 5 6 
#
# 1 0.010943 -0.000838 -0.004166 0.000000 0.000000 0.000000
# 2 -0.000838 0.010943 -0.004166 0.000000 0.000000 0.000000
# 3 -0.004166 -0.004166 0.010690 0.000000 0.000000 0.000000
# 4 0.000000 0.000000 0.000000 0.027937 0.000000 0.000000
# 5 0.000000 0.000000 0.000000 0.000000 0.027937 0.000000
# 6 0.000000 0.000000 0.000000 0.000000 0.000000 0.019990
#
#
# Mechanical properties :
#
#
# Convention : Reuss Voigt Hill
#
# Bulk Modulus (GPa) = 70.23533 72.96549 71.60041
# Shear Modulus (GPa) = 38.01585 39.28421 38.65003
#
# Velocity S-wave (km/s) = 4.08711 4.15473 4.12106
# Velocity P-wave (km/s) = 7.28935 7.42141 7.35567
#
# Compressibility (1/GPa) = 0.01423785
#
# Stress axis : x y z
#
# Youngs Moduli (GPa) = 91.38109 91.38122 93.54832
#
# Poissons Ratio (x) = 0.07657 0.38968
# Poissons Ratio (y) = 0.07657 0.38968
# Poissons Ratio (z) = 0.38066 0.38066
#
# Static dielectric constant tensor:
#      x y z
#    x 4.176630 0.000000 0.000000 
#    y 0.000000 4.176620 0.000000 
#    z 0.000000 0.000000 4.644480 
# 
# 
# High freq. dielectric constant tensor:
#      x y z
#    x 1.910720 0.000000 0.000000 
#    y 0.000000 1.910720 0.000000 
#    z 0.000000 0.000000 1.910890 
# 
# From -- ./inp_files/3530.got.cif
#   From: 2010.03.12/outbox.cif.g09.slc.cpg/sg117_2_cif.got.tgz:3530.got - 2010.04.14 02:19:01.
