data_PCOD8310535
_publ_section_title
;
Structure prediction by ZEFSAII (Michael W. Deem and Ramdas Pophale) SiO2 
 PCOD8310535
Probable space group: P -4 N 2
;
_chemical_formula_sum "Si O2"
_cell_formula_units_Z 32
_cell_length_a 8.179936
_cell_length_b 8.179936
_cell_length_c 21.214497
_cell_angle_alpha 90.000000
_cell_angle_beta 90.000000
_cell_angle_gamma 90.000000
_cell_volume 1419.490697
_symmetry_space_group_name_H-M "P -4 N 2"
_symmetry_group_IT_number 118
_symmetry_cell_setting 'tetragonal'
loop_
_space_group_symop_operation_xyz
x,y,z
y,-x,-z
-x,-y,z
-y,x,-z
1/2+y,1/2+x,1/2-z
1/2-y,1/2-x,1/2-z
1/2-x,1/2+y,1/2+z
1/2+x,1/2-y,1/2+z
loop_
_atom_site_type_symbol
_atom_site_label
_atom_site_fract_x
_atom_site_fract_y
_atom_site_fract_z
Si Si1 0.795726 0.278840 0.451265
Si Si2 0.186891 0.049510 0.073852
Si Si3 0.268936 0.283720 0.179367
Si Si4 0.500000 0.000000 0.631141
Si Si5 0.500000 0.500000 0.894820
O O1 0.621653 0.214056 0.425174
O O2 0.770144 0.324311 0.524591
O O3 0.850965 0.441135 0.413422
O O4 0.933567 0.141226 0.441436
O O5 0.201095 0.128154 0.142002
O O6 0.000000 0.000000 0.055970
O O7 0.283661 0.216340 0.250000
O O8 0.438338 0.352927 0.150633
O O9 0.142863 0.434856 0.176019
#
# Coordination Sequence:
#
# PCOD8310535 Si02
#       5
#     8   8   8   4   4
#     4  11  22  44  70 105 135 178 237 294 372 413
#     4  12  22  42  74 102 130 186 235 288 349 438
#     4  11  25  43  67 101 145 192 241 286 352 427
#     4  10  21  40  70 102 139 184 232 296 350 428
#     4  10  28  45  68 104 144 187 228 318 358 415
#
# _framework density 22.543299000000001
#
# number of rings (size 3 to 8) (size 9 to 14) (size 15 to 20)
#    0.000    1.000    5.000    0.375    1.750    8.000 
#    0.000    2.500    0.000    0.000    0.000    0.000 
#    0.000    0.000    0.000    0.000    0.000    0.000 
#
# Total GULP energy -396841.472712 kJ/mol
# GULP energy per Si atom -12401.296022 kJ/mol
# Density = 2.249199 g / cm^3
# Si number density = 22.543299 Si / 1000 Ang^3
#
#
#
# Elastic Constant Matrix: (Units=GPa)
#
#
# Indices 1 2 3 4 5 6 
#
# 1 94.5333 24.3466 48.5324 0.0000 0.0000 0.0000
# 2 24.3466 94.5333 48.5325 0.0000 0.0000 0.0000
# 3 48.5324 48.5325 157.4353 0.0000 0.0000 0.0000
# 4 0.0000 0.0000 0.0000 25.0946 0.0000 0.0000
# 5 0.0000 0.0000 0.0000 0.0000 25.0946 0.0000
# 6 0.0000 0.0000 0.0000 0.0000 0.0000 32.1629
#
#
#
# Elastic Compliance Matrix: (Units=1/GPa)
#
#
# Indices 1 2 3 4 5 6 
#
# 1 0.012745 -0.001503 -0.003465 0.000000 0.000000 0.000000
# 2 -0.001503 0.012745 -0.003465 0.000000 0.000000 0.000000
# 3 -0.003465 -0.003465 0.008488 0.000000 0.000000 0.000000
# 4 0.000000 0.000000 0.000000 0.039849 0.000000 0.000000
# 5 0.000000 0.000000 0.000000 0.000000 0.039849 0.000000
# 6 0.000000 0.000000 0.000000 0.000000 0.000000 0.031092
#
#
# Mechanical properties :
#
#
# Convention : Reuss Voigt Hill
#
# Bulk Modulus (GPa) = 58.44694 65.48056 61.96375
# Shear Modulus (GPa) = 29.87955 31.47644 30.67800
#
# Velocity S-wave (km/s) = 3.64459 3.74072 3.69297
# Velocity P-wave (km/s) = 6.61011 6.91136 6.76241
#
# Compressibility (1/GPa) = 0.01710953
#
# Stress axis : x y z
#
# Youngs Moduli (GPa) = 78.46519 78.46520 117.80869
#
# Poissons Ratio (x) = 0.11795 0.40825
# Poissons Ratio (y) = 0.11795 0.40825
# Poissons Ratio (z) = 0.27191 0.27191
#
# Static dielectric constant tensor:
#      x y z
#    x 4.133740 0.000000 0.000000 
#    y 0.000000 4.133740 0.000000 
#    z 0.000000 0.000000 3.741130 
# 
# 
# High freq. dielectric constant tensor:
#      x y z
#    x 1.892360 0.000000 0.000000 
#    y 0.000000 1.892360 0.000000 
#    z 0.000000 0.000000 1.870320 
# 
# From -- ./inp_files/5915.got.cif
#   From: 2010.03.12/outbox.cif.g09.slc.cpg/sg118_3_cif.got.tgz:5915.got - 2010.04.14 02:21:17.
