data_PCOD8310259
_publ_section_title
;
Structure prediction by ZEFSAII (Michael W. Deem and Ramdas Pophale) SiO2 
 PCOD8310259
Probable space group: P -4 C 2
;
_chemical_formula_sum "Si O2"
_cell_formula_units_Z 14
_cell_length_a 5.101640
_cell_length_b 5.101640
_cell_length_c 21.065101
_cell_angle_alpha 90.000000
_cell_angle_beta 90.000000
_cell_angle_gamma 90.000000
_cell_volume 548.255711
_symmetry_space_group_name_H-M "P -4 C 2"
_symmetry_group_IT_number 116
_symmetry_cell_setting 'tetragonal'
loop_
_space_group_symop_operation_xyz
x,y,z
y,-x,-z
-x,-y,z
-y,x,-z
y,x,1/2-z
-y,-x,1/2-z
-x,y,1/2+z
x,-y,1/2+z
loop_
_atom_site_type_symbol
_atom_site_label
_atom_site_fract_x
_atom_site_fract_y
_atom_site_fract_z
Si Si1 0.000000 0.000000 0.000000
Si Si2 0.742008 0.175392 0.320285
Si Si3 0.000000 0.500000 0.917002
O O1 0.911692 0.250907 0.958824
O O2 0.704299 0.295701 0.250000
O O3 0.761170 0.413662 0.370600
O O4 0.500000 0.000000 0.340789
O O5 0.000000 0.000000 0.324106
#
# Coordination Sequence:
#
# PCOD8310259 Si02
#       3
#     2   8   4
#     4  12  32  48  82 104 168 220 268 334 392 496
#     4  11  25  48  80 119 157 203 262 342 413 478
#     4  12  28  56  74 120 156 218 278 328 408 492
#
# _framework density 25.535533000000001
#
# number of rings (size 3 to 8) (size 9 to 14) (size 15 to 20)
#    0.000    0.571    5.714    0.000    4.000    8.000 
#    0.000    0.000    0.000    0.000    0.000    0.000 
#    0.000    0.000    0.000    0.000    0.000    0.000 
#
# Total GULP energy -173639.184104 kJ/mol
# GULP energy per Si atom -12402.798865 kJ/mol
# Density = 2.547741 g / cm^3
# Si number density = 25.535533 Si / 1000 Ang^3
#
#
#
# Elastic Constant Matrix: (Units=GPa)
#
#
# Indices 1 2 3 4 5 6 
#
# 1 178.7670 71.7630 79.6007 0.0000 0.0000 0.0000
# 2 71.7630 178.7666 79.6007 0.0000 0.0000 0.0000
# 3 79.6007 79.6007 205.7066 0.0000 0.0000 0.0000
# 4 0.0000 0.0000 0.0000 -16.1005 0.0000 0.0000
# 5 0.0000 0.0000 0.0000 0.0000 -16.1002 0.0000
# 6 0.0000 0.0000 0.0000 0.0000 0.0000 52.5752
#
#
#
# Elastic Compliance Matrix: (Units=1/GPa)
#
#
# Indices 1 2 3 4 5 6 
#
# 1 0.007319 -0.002026 -0.002048 0.000000 0.000000 0.000000
# 2 -0.002026 0.007319 -0.002048 0.000000 0.000000 0.000000
# 3 -0.002048 -0.002048 0.006446 0.000000 0.000000 0.000000
# 4 0.000000 0.000000 0.000000 -0.062110 0.000000 0.000000
# 5 0.000000 0.000000 0.000000 0.000000 -0.062111 0.000000
# 6 0.000000 0.000000 0.000000 0.000000 0.000000 0.019020
#
#
# Mechanical properties :
#
#
# Convention : Reuss Voigt Hill
#
# Bulk Modulus (GPa) = 113.12532 113.90767 113.51649
# Shear Modulus (GPa) = -72.54405 26.22662 -23.15871
#
# Velocity S-wave (km/s) = -5.33580 3.20826 -3.01478
# Velocity P-wave (km/s) = 2.53699 7.64384 5.69494
#
# Compressibility (1/GPa) = 0.00883975
#
# Stress axis : x y z
#
# Youngs Moduli (GPa) = 136.62553 136.62519 155.12365
#
# Poissons Ratio (x) = 0.27683 0.31773
# Poissons Ratio (y) = 0.27683 0.31773
# Poissons Ratio (z) = 0.27984 0.27984
#
# Static dielectric constant tensor:
#      x y z
#    x 4.438530 0.000000 0.000000 
#    y 0.000000 4.438540 0.000000 
#    z 0.000000 0.000000 5.376030 
# 
# 
# High freq. dielectric constant tensor:
#      x y z
#    x 2.018760 0.000000 0.000000 
#    y 0.000000 2.018760 0.000000 
#    z 0.000000 0.000000 2.038880 
# 
# From -- ./inp_files/3541.got.cif
#   From: 2010.03.12/outbox.cif.g09.slc.cpg/sg116_2_cif.got.tgz:3541.got - 2010.04.14 02:15:44.
