data_PCOD8310912
_publ_section_title
;
Structure prediction by ZEFSAII (Michael W. Deem and Ramdas Pophale) SiO2 
 PCOD8310912
Probable space group: I -4 M 2
;
_chemical_formula_sum "Si O2"
_cell_formula_units_Z 112
_cell_length_a 14.602169
_cell_length_b 14.602169
_cell_length_c 23.808212
_cell_angle_alpha 90.000000
_cell_angle_beta 90.000000
_cell_angle_gamma 90.000000
_cell_volume 5076.466470
_symmetry_space_group_name_H-M "I -4 M 2"
_symmetry_group_IT_number 119
_symmetry_cell_setting 'tetragonal'
loop_
_space_group_symop_operation_xyz
x,y,z
y,-x,-z
-x,-y,z
-y,x,-z
y,x,-z
-y,-x,-z
-x,y,z
x,-y,z
1/2+x,1/2+y,1/2+z
1/2+y,1/2-x,1/2-z
1/2-x,1/2-y,1/2+z
1/2-y,1/2+x,1/2-z
1/2+y,1/2+x,1/2-z
1/2-y,1/2-x,1/2-z
1/2-x,1/2+y,1/2+z
1/2+x,1/2-y,1/2+z
loop_
_atom_site_type_symbol
_atom_site_label
_atom_site_fract_x
_atom_site_fract_y
_atom_site_fract_z
Si Si1 0.897171 0.297751 0.701076
Si Si2 0.256611 0.106781 0.507042
Si Si3 0.391604 0.103847 0.087904
Si Si4 0.329074 0.099481 0.630494
Si Si5 0.109507 0.897588 0.060834
Si Si6 0.101899 0.215832 0.161730
Si Si7 0.663195 0.603488 0.215542
O O1 0.829592 0.329592 0.750000
O O2 0.859451 0.344147 0.644266
O O3 0.900607 0.186407 0.693718
O O4 0.000000 0.331350 0.714311
O O5 0.163188 0.163188 0.500000
O O6 0.336486 0.142741 0.465178
O O7 0.291278 0.123002 0.569599
O O8 0.233644 0.000000 0.495583
O O9 0.500000 0.098002 0.086464
O O10 0.350980 0.000000 0.085058
O O11 0.400198 0.176000 0.649874
O O12 0.248603 0.098172 0.675150
O O13 0.378184 0.000000 0.630047
O O14 0.154158 0.837199 0.111073
O O15 0.000000 0.895724 0.060255
O O16 0.145967 0.000000 0.070693
O O17 0.141689 0.858312 0.000000
O O18 0.140417 0.193931 0.223079
O O19 0.000000 0.177760 0.160925
O O20 0.617799 0.500000 0.217207
#
# Coordination Sequence:
#
# PCOD8310912 Si02
#       7
#    16  16  16  16  16  16  16
#     4  11  22  37  61  91 123 161 204 251 306 368
#     4  10  21  37  60  89 119 155 198 248 308 368
#     4   9  19  37  60  88 124 163 204 251 303 363
#     4  10  21  37  56  78 108 148 194 246 301 359
#     4   8  15  30  52  79 114 154 193 236 290 354
#     4  10  20  34  55  82 112 151 197 246 303 362
#     4  10  22  40  59  81 115 157 200 249 305 365
#
# _framework density 22.062588999999999
#
# number of rings (size 3 to 8) (size 9 to 14) (size 15 to 20)
#    0.000    2.286    0.000    3.000    0.000    3.143 
#    0.000    2.857    0.000   13.714    0.000    0.000 
#    0.000    0.286    0.000    0.000    0.000    0.000 
#
# Total GULP energy -693931.986357 kJ/mol
# GULP energy per Si atom -12391.642614 kJ/mol
# Density = 2.201237 g / cm^3
# Si number density = 22.062589 Si / 1000 Ang^3
#
#
#
# Elastic Constant Matrix: (Units=GPa)
#
#
# Indices 1 2 3 4 5 6 
#
# 1 86.0184 30.8563 40.6338 0.0000 0.0000 0.0000
# 2 30.8563 86.0183 40.6338 0.0000 0.0000 0.0000
# 3 40.6338 40.6338 167.6732 0.0000 0.0000 0.0000
# 4 0.0000 0.0000 0.0000 43.0266 0.0000 0.0000
# 5 0.0000 0.0000 0.0000 0.0000 43.0267 0.0000
# 6 0.0000 0.0000 0.0000 0.0000 0.0000 23.9302
#
#
#
# Elastic Compliance Matrix: (Units=1/GPa)
#
#
# Indices 1 2 3 4 5 6 
#
# 1 0.014209 -0.003919 -0.002494 0.000000 0.000000 0.000000
# 2 -0.003919 0.014209 -0.002494 0.000000 0.000000 0.000000
# 3 -0.002494 -0.002494 0.007173 0.000000 0.000000 0.000000
# 4 0.000000 0.000000 0.000000 0.023241 0.000000 0.000000
# 5 0.000000 0.000000 0.000000 0.000000 0.023241 0.000000
# 6 0.000000 0.000000 0.000000 0.000000 0.000000 0.041788
#
#
# Mechanical properties :
#
#
# Convention : Reuss Voigt Hill
#
# Bulk Modulus (GPa) = 56.24897 62.66196 59.45546
# Shear Modulus (GPa) = 33.87502 37.16909 35.52205
#
# Velocity S-wave (km/s) = 3.92268 4.10898 4.01691
# Velocity P-wave (km/s) = 6.78727 7.13969 6.96571
#
# Compressibility (1/GPa) = 0.01777810
#
# Stress axis : x y z
#
# Youngs Moduli (GPa) = 70.37657 70.37658 139.41890
#
# Poissons Ratio (x) = 0.27581 0.34767
# Poissons Ratio (y) = 0.27581 0.34767
# Poissons Ratio (z) = 0.17550 0.17550
#
# Static dielectric constant tensor:
#      x y z
#    x 3.899610 0.000000 0.000000 
#    y 0.000000 3.899610 0.000000 
#    z 0.000000 0.000000 4.403140 
# 
# 
# High freq. dielectric constant tensor:
#      x y z
#    x 1.855910 0.000000 0.000000 
#    y 0.000000 1.855910 0.000000 
#    z 0.000000 0.000000 1.886000 
# 
# From -- ./inp_files/8864.got.cif
#   From: 2010.03.12/outbox.cif.g09.slc.cpg/sg119_5_cif.got.tgz:8864.got - 2010.04.14 02:25:26.
