data_PCOD8310802
_publ_section_title
;
Structure prediction by ZEFSAII (Michael W. Deem and Ramdas Pophale) SiO2 
 PCOD8310802
Probable space group: I -4 M 2
;
_chemical_formula_sum "Si O2"
_cell_formula_units_Z 88
_cell_length_a 14.527376
_cell_length_b 14.527376
_cell_length_c 21.017242
_cell_angle_alpha 90.000000
_cell_angle_beta 90.000000
_cell_angle_gamma 90.000000
_cell_volume 4435.576554
_symmetry_space_group_name_H-M "I -4 M 2"
_symmetry_group_IT_number 119
_symmetry_cell_setting 'tetragonal'
loop_
_space_group_symop_operation_xyz
x,y,z
y,-x,-z
-x,-y,z
-y,x,-z
y,x,-z
-y,-x,-z
-x,y,z
x,-y,z
1/2+x,1/2+y,1/2+z
1/2+y,1/2-x,1/2-z
1/2-x,1/2-y,1/2+z
1/2-y,1/2+x,1/2-z
1/2+y,1/2+x,1/2-z
1/2-y,1/2-x,1/2-z
1/2-x,1/2+y,1/2+z
1/2+x,1/2-y,1/2+z
loop_
_atom_site_type_symbol
_atom_site_label
_atom_site_fract_x
_atom_site_fract_y
_atom_site_fract_z
Si Si1 0.605098 0.287780 0.446628
Si Si2 0.105728 0.204306 0.442070
Si Si3 0.101624 0.601624 0.750000
Si Si4 0.107146 0.107407 0.686302
Si Si5 0.212002 0.894223 0.191565
Si Si6 0.897365 0.601722 0.489817
O O1 0.664185 0.335816 0.500000
O O2 0.500000 0.321101 0.452842
O O3 0.647111 0.315337 0.377422
O O4 0.611708 0.177324 0.454146
O O5 0.165611 0.165611 0.500000
O O6 0.141770 0.162993 0.375500
O O7 0.116492 0.315520 0.438940
O O8 0.000000 0.174289 0.452922
O O9 0.112818 0.500000 0.781198
O O10 0.116386 0.677781 0.804094
O O11 0.150304 0.160122 0.747749
O O12 0.000000 0.131922 0.675603
O O13 0.121860 0.000000 0.698468
O O14 0.181943 0.000000 0.190896
O O15 0.885969 0.500000 0.457046
O O16 0.000000 0.610204 0.519841
#
# Coordination Sequence:
#
# PCOD8310802 Si02
#       6
#    16  16   8  16  16  16
#     4  10  21  36  54  78 106 136 175 221 264 308
#     4  10  19  31  52  81 110 140 173 212 260 314
#     4   9  18  32  50  74 104 134 164 203 252 306
#     4   9  18  33  53  78 108 138 167 204 255 314
#     4   9  19  34  51  74 104 137 171 207 252 307
#     4   9  19  35  53  75 105 140 177 218 262 306
#
# _framework density 19.839585
#
# number of rings (size 3 to 8) (size 9 to 14) (size 15 to 20)
#    0.000    2.636    0.000    1.091    0.000    5.455 
#    0.000    9.091    0.000    0.000    0.000    1.273 
#    0.000    5.818    0.000    0.000    0.000    0.000 
#
# Total GULP energy -545170.854415 kJ/mol
# GULP energy per Si atom -12390.246691 kJ/mol
# Density = 1.979443 g / cm^3
# Si number density = 19.839585 Si / 1000 Ang^3
#
#
#
# Elastic Constant Matrix: (Units=GPa)
#
#
# Indices 1 2 3 4 5 6 
#
# 1 92.5581 37.9741 68.7807 0.0000 0.0000 0.0000
# 2 37.9741 92.5590 68.7819 0.0000 0.0000 0.0000
# 3 68.7807 68.7819 182.6599 0.0000 0.0000 0.0000
# 4 0.0000 0.0000 0.0000 17.0316 0.0000 0.0000
# 5 0.0000 0.0000 0.0000 0.0000 17.0316 0.0000
# 6 0.0000 0.0000 0.0000 0.0000 0.0000 21.3956
#
#
#
# Elastic Compliance Matrix: (Units=1/GPa)
#
#
# Indices 1 2 3 4 5 6 
#
# 1 0.015511 -0.002810 -0.004783 0.000000 0.000000 0.000000
# 2 -0.002810 0.015511 -0.004783 0.000000 0.000000 0.000000
# 3 -0.004783 -0.004783 0.009077 0.000000 0.000000 0.000000
# 4 0.000000 0.000000 0.000000 0.058715 0.000000 0.000000
# 5 0.000000 0.000000 0.000000 0.000000 0.058715 0.000000
# 6 0.000000 0.000000 0.000000 0.000000 0.000000 0.046739
#
#
# Mechanical properties :
#
#
# Convention : Reuss Voigt Hill
#
# Bulk Modulus (GPa) = 65.15438 79.87229 72.51333
# Shear Modulus (GPa) = 21.35552 23.90775 22.63163
#
# Velocity S-wave (km/s) = 3.28443 3.47515 3.38114
# Velocity P-wave (km/s) = 6.87715 7.51324 7.20222
#
# Compressibility (1/GPa) = 0.01534816
#
# Stress axis : x y z
#
# Youngs Moduli (GPa) = 64.47156 64.47162 110.17430
#
# Poissons Ratio (x) = 0.18114 0.52692
# Poissons Ratio (y) = 0.18114 0.52693
# Poissons Ratio (z) = 0.30834 0.30835
#
# Static dielectric constant tensor:
#      x y z
#    x 3.760550 0.000000 0.000000 
#    y 0.000000 3.760540 0.000000 
#    z 0.000000 0.000000 3.507140 
# 
# 
# High freq. dielectric constant tensor:
#      x y z
#    x 1.770640 0.000000 0.000000 
#    y 0.000000 1.770640 0.000000 
#    z 0.000000 0.000000 1.747180 
# 
# From -- ./inp_files/7676.got.cif
#   From: 2010.03.12/outbox.cif.g09.slc.cpg/sg119_4_cif.got.tgz:7676.got - 2010.04.14 02:25:26.
