data_PCOD8310015
_publ_section_title
;
Structure prediction by ZEFSAII (Michael W. Deem and Ramdas Pophale) SiO2 
 PCOD8310015
Probable space group: P -4 M 2
;
_chemical_formula_sum "Si O2"
_cell_formula_units_Z 44
_cell_length_a 9.150441
_cell_length_b 9.150441
_cell_length_c 28.573476
_cell_angle_alpha 90.000000
_cell_angle_beta 90.000000
_cell_angle_gamma 90.000000
_cell_volume 2392.473446
_symmetry_space_group_name_H-M "P -4 M 2"
_symmetry_group_IT_number 115
_symmetry_cell_setting 'tetragonal'
loop_
_space_group_symop_operation_xyz
x,y,z
y,-x,-z
-x,-y,z
-y,x,-z
y,x,-z
-y,-x,-z
-x,y,z
x,-y,z
loop_
_atom_site_type_symbol
_atom_site_label
_atom_site_fract_x
_atom_site_fract_y
_atom_site_fract_z
Si Si1 0.174595 0.163191 0.050814
Si Si2 0.327723 0.330575 0.333149
Si Si3 0.328101 0.328101 0.500000
Si Si4 0.168774 0.329423 0.140163
Si Si5 0.326701 0.661077 0.771337
Si Si6 0.171245 0.171687 0.585087
O O1 0.238030 0.259800 0.093280
O O2 0.000000 0.163617 0.050569
O O3 0.234729 0.000000 0.058389
O O4 0.225903 0.225903 0.000000
O O5 0.500000 0.303695 0.340985
O O6 0.290656 0.500000 0.343665
O O7 0.280657 0.286371 0.280347
O O8 0.232575 0.225585 0.365474
O O9 0.295867 0.500000 0.501443
O O10 0.260308 0.254377 0.545384
O O11 0.198760 0.500000 0.136804
O O12 0.238821 0.261960 0.187305
O O13 0.000000 0.290090 0.143322
O O14 0.500000 0.654690 0.774945
O O15 0.260405 0.500000 0.778305
O O16 0.000000 0.204288 0.579066
O O17 0.203767 0.000000 0.581812
#
# Coordination Sequence:
#
# PCOD8310015 Si02
#       6
#     8   8   4   8   8   8
#     4   8  14  26  43  60  81 114 152 186 227 282
#     4   9  18  34  56  79 101 131 174 214 247 293
#     4  11  24  41  62  86 108 135 176 217 250 294
#     4   9  16  26  43  67  90 113 148 193 235 276
#     4   8  15  29  48  69  95 126 157 192 236 286
#     4  11  24  39  55  80 113 143 171 207 253 300
#
# _framework density 18.391007999999999
#
# number of rings (size 3 to 8) (size 9 to 14) (size 15 to 20)
#    0.000    2.818    0.000    3.273    0.000    6.545 
#    0.000    3.636    0.000    4.909    0.000    0.000 
#    0.000    0.000    0.000    0.000    0.000    0.000 
#
# Total GULP energy -545378.471980 kJ/mol
# GULP energy per Si atom -12394.965272 kJ/mol
# Density = 1.834915 g / cm^3
# Si number density = 18.391008 Si / 1000 Ang^3
#
#
#
# Elastic Constant Matrix: (Units=GPa)
#
#
# Indices 1 2 3 4 5 6 
#
# 1 64.0744 50.7973 63.4469 0.0000 0.0000 0.0000
# 2 50.7973 64.0744 63.4469 0.0000 0.0000 0.0000
# 3 63.4469 63.4469 183.5979 0.0000 0.0000 0.0000
# 4 0.0000 0.0000 0.0000 10.0473 0.0000 0.0000
# 5 0.0000 0.0000 0.0000 0.0000 10.0473 0.0000
# 6 0.0000 0.0000 0.0000 0.0000 0.0000 21.0817
#
#
#
# Elastic Compliance Matrix: (Units=1/GPa)
#
#
# Indices 1 2 3 4 5 6 
#
# 1 0.044699 -0.030619 -0.004866 0.000000 0.000000 0.000000
# 2 -0.030619 0.044699 -0.004866 0.000000 0.000000 0.000000
# 3 -0.004866 -0.004866 0.008810 0.000000 0.000000 0.000000
# 4 0.000000 0.000000 0.000000 0.099529 0.000000 0.000000
# 5 0.000000 0.000000 0.000000 0.000000 0.099529 0.000000
# 6 0.000000 0.000000 0.000000 0.000000 0.000000 0.047434
#
#
# Mechanical properties :
#
#
# Convention : Reuss Voigt Hill
#
# Bulk Modulus (GPa) = 57.11932 74.12543 65.62237
# Shear Modulus (GPa) = 11.59454 17.17230 14.38342
#
# Velocity S-wave (km/s) = 2.51359 3.05902 2.79962
# Velocity P-wave (km/s) = 6.28887 7.27115 6.79777
#
# Compressibility (1/GPa) = 0.01750721
#
# Stress axis : x y z
#
# Youngs Moduli (GPa) = 22.37178 22.37178 113.51098
#
# Poissons Ratio (x) = 0.68500 0.55233
# Poissons Ratio (y) = 0.68500 0.55233
# Poissons Ratio (z) = 0.10886 0.10886
#
# Static dielectric constant tensor:
#      x y z
#    x 3.262790 0.000000 0.000000 
#    y 0.000000 3.262790 0.000000 
#    z 0.000000 0.000000 3.985630 
# 
# 
# High freq. dielectric constant tensor:
#      x y z
#    x 1.689360 0.000000 0.000000 
#    y 0.000000 1.689360 0.000000 
#    z 0.000000 0.000000 1.736600 
# 
# From -- ./inp_files/5699.got.cif
#   From: 2010.03.12/outbox.cif.g09.slc.cpg/sg115_3_cif.got.tgz:5699.got - 2010.04.14 02:11:21.
