data_PCOD8310943
_publ_section_title
;
Structure prediction by ZEFSAII (Michael W. Deem and Ramdas Pophale) SiO2 
 PCOD8310943
Probable space group: I -4 M 2
;
_chemical_formula_sum "Si O2"
_cell_formula_units_Z 58
_cell_length_a 11.550311
_cell_length_b 11.550311
_cell_length_c 23.550843
_cell_angle_alpha 90.000000
_cell_angle_beta 90.000000
_cell_angle_gamma 90.000000
_cell_volume 3141.910527
_symmetry_space_group_name_H-M "I -4 M 2"
_symmetry_group_IT_number 119
_symmetry_cell_setting 'tetragonal'
loop_
_space_group_symop_operation_xyz
x,y,z
y,-x,-z
-x,-y,z
-y,x,-z
y,x,-z
-y,-x,-z
-x,y,z
x,-y,z
1/2+x,1/2+y,1/2+z
1/2+y,1/2-x,1/2-z
1/2-x,1/2-y,1/2+z
1/2-y,1/2+x,1/2-z
1/2+y,1/2+x,1/2-z
1/2-y,1/2-x,1/2-z
1/2-x,1/2+y,1/2+z
1/2+x,1/2-y,1/2+z
loop_
_atom_site_type_symbol
_atom_site_label
_atom_site_fract_x
_atom_site_fract_y
_atom_site_fract_z
Si Si1 0.214617 0.636827 0.465310
Si Si2 0.870156 0.500000 0.966189
Si Si3 0.293579 0.000000 0.342481
Si Si4 0.000000 0.500000 0.750000
Si Si5 0.636166 0.278779 0.858552
Si Si6 0.127866 0.627866 0.250000
O O1 0.331566 0.668435 0.500000
O O2 0.213160 0.500000 0.453656
O O3 0.200287 0.703453 0.406260
O O4 0.114089 0.686431 0.506860
O O5 0.871125 0.500000 0.898582
O O6 0.000000 0.500000 0.988706
O O7 0.206117 0.893963 0.345676
O O8 0.382478 0.000000 0.288665
O O9 0.500000 0.300693 0.873398
O O10 0.651601 0.213414 0.800366
O O11 0.144479 0.500000 0.275353
#
# Coordination Sequence:
#
# PCOD8310943 Si02
#       6
#    16   8   8   2  16   8
#     4  11  22  37  61  90 124 164 205 253 318 381
#     4  10  20  37  59  86 116 155 201 248 305 371
#     4  12  23  40  61  88 120 161 207 261 308 377
#     4  12  28  44  68  88 120 176 224 254 320 392
#     4  11  22  38  60  90 122 155 201 258 317 373
#     4   9  19  36  59  83 112 152 196 245 295 364
#
# _framework density 18.460106
#
# number of rings (size 3 to 8) (size 9 to 14) (size 15 to 20)
#    0.000    1.241    4.828    2.069    0.000    1.379 
#    0.000    0.000    0.000    0.000    0.000    0.000 
#    0.000    0.000    0.000    0.000    0.000    0.000 
#
# Total GULP energy -359338.745984 kJ/mol
# GULP energy per Si atom -12390.991241 kJ/mol
# Density = 1.841809 g / cm^3
# Si number density = 18.460106 Si / 1000 Ang^3
#
#
#
# Elastic Constant Matrix: (Units=GPa)
#
#
# Indices 1 2 3 4 5 6 
#
# 1 117.9754 61.4428 50.2324 0.0000 0.0000 0.0000
# 2 61.4428 117.9771 50.2324 0.0000 0.0000 0.0000
# 3 50.2324 50.2324 75.5448 0.0000 0.0000 0.0000
# 4 0.0000 0.0000 0.0000 49.8168 0.0000 0.0000
# 5 0.0000 0.0000 0.0000 0.0000 49.8163 0.0000
# 6 0.0000 0.0000 0.0000 0.0000 0.0000 23.4922
#
#
#
# Elastic Compliance Matrix: (Units=1/GPa)
#
#
# Indices 1 2 3 4 5 6 
#
# 1 0.013284 -0.004404 -0.005905 0.000000 0.000000 0.000000
# 2 -0.004404 0.013284 -0.005904 0.000000 0.000000 0.000000
# 3 -0.005905 -0.005904 0.021089 0.000000 0.000000 0.000000
# 4 0.000000 0.000000 0.000000 0.020074 0.000000 0.000000
# 5 0.000000 0.000000 0.000000 0.000000 0.020074 0.000000
# 6 0.000000 0.000000 0.000000 0.000000 0.000000 0.042567
#
#
# Mechanical properties :
#
#
# Convention : Reuss Voigt Hill
#
# Bulk Modulus (GPa) = 65.65558 70.59026 68.12292
# Shear Modulus (GPa) = 29.78390 34.59772 32.19081
#
# Velocity S-wave (km/s) = 4.02110 4.33389 4.18042
# Velocity P-wave (km/s) = 7.56323 7.96026 7.76428
#
# Compressibility (1/GPa) = 0.01523100
#
# Stress axis : x y z
#
# Youngs Moduli (GPa) = 75.27679 75.27836 47.41745
#
# Poissons Ratio (x) = 0.33156 0.27998
# Poissons Ratio (y) = 0.33155 0.27997
# Poissons Ratio (z) = 0.44447 0.44447
#
# Static dielectric constant tensor:
#      x y z
#    x 3.455410 0.000000 0.000000 
#    y 0.000000 3.455410 0.000000 
#    z 0.000000 0.000000 3.342450 
# 
# 
# High freq. dielectric constant tensor:
#      x y z
#    x 1.719510 0.000000 0.000000 
#    y 0.000000 1.719510 0.000000 
#    z 0.000000 0.000000 1.727220 
# 
# From -- ./inp_files/7444.got.cif
#   From: 2010.03.12/outbox.cif.g09.slc.cpg/sg119_4_cif.got.tgz:7444.got - 2010.04.14 02:25:26.
