data_PCOD8310236
_publ_section_title
;
Structure prediction by ZEFSAII (Michael W. Deem and Ramdas Pophale) SiO2 
 PCOD8310236
Probable space group: P -4 C 2
;
_chemical_formula_sum "Si O2"
_cell_formula_units_Z 48
_cell_length_a 16.580908
_cell_length_b 16.580908
_cell_length_c 9.936361
_cell_angle_alpha 90.000000
_cell_angle_beta 90.000000
_cell_angle_gamma 90.000000
_cell_volume 2731.769053
_symmetry_space_group_name_H-M "P -4 C 2"
_symmetry_group_IT_number 116
_symmetry_cell_setting 'tetragonal'
loop_
_space_group_symop_operation_xyz
x,y,z
y,-x,-z
-x,-y,z
-y,x,-z
y,x,1/2-z
-y,-x,1/2-z
-x,y,1/2+z
x,-y,1/2+z
loop_
_atom_site_type_symbol
_atom_site_label
_atom_site_fract_x
_atom_site_fract_y
_atom_site_fract_z
Si Si1 0.630645 0.497400 0.772044
Si Si2 0.924052 0.790860 0.095387
Si Si3 0.075241 0.209062 0.403630
Si Si4 0.738553 0.497278 0.022267
Si Si5 0.336898 0.206135 0.091774
Si Si6 0.207226 0.663138 0.592634
O O1 0.567125 0.567125 0.750000
O O2 0.589969 0.410032 0.750000
O O3 0.705587 0.509601 0.673151
O O4 0.662059 0.500987 0.923873
O O5 0.954013 0.787438 0.249318
O O6 0.867460 0.867776 0.073589
O O7 0.875469 0.709525 0.058753
O O8 0.999324 0.799502 0.998808
O O9 0.123502 0.290331 0.441166
O O10 0.791244 0.579194 0.010678
O O11 0.794736 0.420593 0.989924
O O12 0.355082 0.212791 0.249314
O O13 0.282950 0.282362 0.046681
#
# Coordination Sequence:
#
# PCOD8310236 Si02
#       6
#     8   8   8   8   8   8
#     4  11  22  32  46  72 103 136 178 232 285 322
#     4   9  19  37  60  84 111 141 173 213 263 320
#     4   9  19  37  60  84 111 141 173 213 263 320
#     4  12  20  33  53  72 104 142 184 224 268 317
#     4   9  18  35  55  74 103 145 185 220 263 316
#     4   9  18  35  55  74 103 145 185 220 263 316
#
# _framework density 17.571031999999999
#
# number of rings (size 3 to 8) (size 9 to 14) (size 15 to 20)
#    0.000    2.167    1.667    5.000    0.000    2.333 
#    3.000    2.500    0.000    4.000    0.000    0.000 
#    0.000    0.000    0.000    0.000    0.000    0.000 
#
# Total GULP energy -595239.632346 kJ/mol
# GULP energy per Si atom -12400.825674 kJ/mol
# Density = 1.753104 g / cm^3
# Si number density = 17.571032 Si / 1000 Ang^3
#
#
#
# Elastic Constant Matrix: (Units=GPa)
#
#
# Indices 1 2 3 4 5 6 
#
# 1 113.1363 48.8271 49.3354 0.0000 0.0000 0.0000
# 2 48.8271 113.1368 49.3352 0.0000 0.0000 0.0000
# 3 49.3354 49.3352 61.2860 0.0000 0.0000 0.0000
# 4 0.0000 0.0000 0.0000 31.9098 0.0000 0.0000
# 5 0.0000 0.0000 0.0000 0.0000 31.9098 0.0000
# 6 0.0000 0.0000 0.0000 0.0000 0.0000 15.5898
#
#
#
# Elastic Compliance Matrix: (Units=1/GPa)
#
#
# Indices 1 2 3 4 5 6 
#
# 1 0.013833 -0.001717 -0.009754 0.000000 0.000000 0.000000
# 2 -0.001717 0.013833 -0.009753 0.000000 0.000000 0.000000
# 3 -0.009754 -0.009753 0.032020 0.000000 0.000000 0.000000
# 4 0.000000 0.000000 0.000000 0.031338 0.000000 0.000000
# 5 0.000000 0.000000 0.000000 0.000000 0.031338 0.000000
# 6 0.000000 0.000000 0.000000 0.000000 0.000000 0.064144
#
#
# Mechanical properties :
#
#
# Convention : Reuss Voigt Hill
#
# Bulk Modulus (GPa) = 58.01015 64.72830 61.36922
# Shear Modulus (GPa) = 21.30367 25.21932 23.26149
#
# Velocity S-wave (km/s) = 3.48578 3.79262 3.64243
# Velocity P-wave (km/s) = 7.02048 7.48977 7.25892
#
# Compressibility (1/GPa) = 0.01723836
#
# Stress axis : x y z
#
# Youngs Moduli (GPa) = 72.29034 72.29113 31.23027
#
# Poissons Ratio (x) = 0.12411 0.30461
# Poissons Ratio (y) = 0.12411 0.30460
# Poissons Ratio (z) = 0.70510 0.70509
#
# Static dielectric constant tensor:
#      x y z
#    x 3.231320 0.000000 0.000000 
#    y 0.000000 3.231320 0.000000 
#    z 0.000000 0.000000 3.124290 
# 
# 
# High freq. dielectric constant tensor:
#      x y z
#    x 1.673170 0.000000 0.000000 
#    y 0.000000 1.673170 0.000000 
#    z 0.000000 0.000000 1.671430 
# 
# From -- ./inp_files/966.got.cif
#   From: 2010.03.12/outbox.cif.g09.slc.cpg/sg116_1_cif.got.tgz:966.got - 2010.04.14 02:15:44.
