data_PCOD8310197
_publ_section_title
;
Structure prediction by ZEFSAII (Michael W. Deem and Ramdas Pophale) SiO2 
 PCOD8310197
Probable space group: P -4 C 2
;
_chemical_formula_sum "Si O2"
_cell_formula_units_Z 48
_cell_length_a 11.433679
_cell_length_b 11.433679
_cell_length_c 17.625756
_cell_angle_alpha 90.000000
_cell_angle_beta 90.000000
_cell_angle_gamma 90.000000
_cell_volume 2304.197729
_symmetry_space_group_name_H-M "P -4 C 2"
_symmetry_group_IT_number 116
_symmetry_cell_setting 'tetragonal'
loop_
_space_group_symop_operation_xyz
x,y,z
y,-x,-z
-x,-y,z
-y,x,-z
y,x,1/2-z
-y,-x,1/2-z
-x,y,1/2+z
x,-y,1/2+z
loop_
_atom_site_type_symbol
_atom_site_label
_atom_site_fract_x
_atom_site_fract_y
_atom_site_fract_z
Si Si1 0.868392 0.318085 0.756820
Si Si2 0.943463 0.828248 0.522129
Si Si3 0.095998 0.768610 0.186351
Si Si4 0.308708 0.511489 0.004261
Si Si5 0.131854 0.484210 0.639476
Si Si6 0.601549 0.905140 0.076125
O O1 0.744758 0.255243 0.750000
O O2 0.853787 0.440293 0.714859
O O3 0.910280 0.337521 0.842575
O O4 0.963256 0.239068 0.714361
O O5 0.900839 0.840231 0.608461
O O6 0.927712 0.697698 0.489650
O O7 0.080014 0.863624 0.523276
O O8 0.170846 0.829155 0.250000
O O9 0.154300 0.644789 0.169396
O O10 0.229017 0.482485 0.077414
O O11 0.396670 0.619235 0.020265
O O12 0.223268 0.545949 0.935287
O O13 0.000000 0.500000 0.605074
O O14 0.500000 0.000000 0.070033
#
# Coordination Sequence:
#
# PCOD8310197 Si02
#       6
#     8   8   8   8   8   8
#     4  11  24  42  67  96 134 175 225 281 342 410
#     4  11  25  43  66 101 140 177 228 287 346 411
#     4  11  23  41  68  97 135 178 219 278 343 413
#     4  11  25  42  65  95 132 175 228 285 343 402
#     4  10  22  44  66  93 130 178 222 281 342 407
#     4  12  25  41  71 102 130 181 233 281 340 427
#
# _framework density 20.831544999999998
#
# number of rings (size 3 to 8) (size 9 to 14) (size 15 to 20)
#    0.000    1.000    1.667    5.000    4.667    4.333 
#    0.000    0.000    0.000    3.000    0.000    0.000 
#    0.000    0.000    0.000    0.000    0.000    0.000 
#
# Total GULP energy -595374.319549 kJ/mol
# GULP energy per Si atom -12403.631657 kJ/mol
# Density = 2.078413 g / cm^3
# Si number density = 20.831545 Si / 1000 Ang^3
#
#
#
# Elastic Constant Matrix: (Units=GPa)
#
#
# Indices 1 2 3 4 5 6 
#
# 1 96.2947 56.9758 35.8186 0.0000 0.0000 0.0000
# 2 56.9758 96.2930 35.8198 0.0000 0.0000 0.0000
# 3 35.8186 35.8198 136.6629 0.0000 0.0000 0.0000
# 4 0.0000 0.0000 0.0000 32.0718 0.0000 0.0000
# 5 0.0000 0.0000 0.0000 0.0000 32.0722 0.0000
# 6 0.0000 0.0000 0.0000 0.0000 0.0000 32.6022
#
#
#
# Elastic Compliance Matrix: (Units=1/GPa)
#
#
# Indices 1 2 3 4 5 6 
#
# 1 0.016434 -0.008999 -0.001949 0.000000 0.000000 0.000000
# 2 -0.008999 0.016435 -0.001949 0.000000 0.000000 0.000000
# 3 -0.001949 -0.001949 0.008339 0.000000 0.000000 0.000000
# 4 0.000000 0.000000 0.000000 0.031180 0.000000 0.000000
# 5 0.000000 0.000000 0.000000 0.000000 0.031180 0.000000
# 6 0.000000 0.000000 0.000000 0.000000 0.000000 0.030673
#
#
# Mechanical properties :
#
#
# Convention : Reuss Voigt Hill
#
# Bulk Modulus (GPa) = 64.87481 65.16434 65.01957
# Shear Modulus (GPa) = 30.27152 32.72500 31.49826
#
# Velocity S-wave (km/s) = 3.81617 3.96780 3.89272
# Velocity P-wave (km/s) = 7.11531 7.23469 7.17525
#
# Compressibility (1/GPa) = 0.01541430
#
# Stress axis : x y z
#
# Youngs Moduli (GPa) = 60.84855 60.84694 119.92096
#
# Poissons Ratio (x) = 0.54757 0.23368
# Poissons Ratio (y) = 0.54758 0.23372
# Poissons Ratio (z) = 0.11857 0.11859
#
# Static dielectric constant tensor:
#      x y z
#    x 3.955330 0.000000 0.000000 
#    y 0.000000 3.955320 0.000000 
#    z 0.000000 0.000000 3.903470 
# 
# 
# High freq. dielectric constant tensor:
#      x y z
#    x 1.822600 0.000000 0.000000 
#    y 0.000000 1.822600 0.000000 
#    z 0.000000 0.000000 1.824700 
# 
# From -- ./inp_files/3406.got.cif
#   From: 2010.03.12/outbox.cif.g09.slc.cpg/sg116_2_cif.got.tgz:3406.got - 2010.04.14 02:15:44.
