data_PCOD8310374
_publ_section_title
;
Structure prediction by ZEFSAII (Michael W. Deem and Ramdas Pophale) SiO2 
 PCOD8310374
Probable space group: P -4 B 2
;
_chemical_formula_sum "Si O2"
_cell_formula_units_Z 56
_cell_length_a 15.658857
_cell_length_b 15.658857
_cell_length_c 12.712785
_cell_angle_alpha 90.000000
_cell_angle_beta 90.000000
_cell_angle_gamma 90.000000
_cell_volume 3117.172372
_symmetry_space_group_name_H-M "P -4 B 2"
_symmetry_group_IT_number 117
_symmetry_cell_setting 'tetragonal'
loop_
_space_group_symop_operation_xyz
x,y,z
y,-x,-z
-x,-y,z
-y,x,-z
1/2+y,1/2+x,-z
1/2-y,1/2-x,-z
1/2-x,1/2+y,z
1/2+x,1/2-y,z
loop_
_atom_site_type_symbol
_atom_site_label
_atom_site_fract_x
_atom_site_fract_y
_atom_site_fract_z
Si Si1 0.502500 0.639423 0.381410
Si Si2 0.632733 0.500030 0.000006
Si Si3 0.313384 0.172325 0.875626
Si Si4 0.672117 0.186377 0.875626
Si Si5 0.360567 0.497495 0.381413
Si Si6 0.252783 0.014685 0.185157
Si Si7 0.985421 0.747244 0.185131
O O1 0.426033 0.573960 0.363565
O O2 0.499996 0.675896 0.499996
O O3 0.592115 0.592115 0.360290
O O4 0.492575 0.717370 0.302468
O O5 0.683319 0.461097 0.097388
O O6 0.576022 0.424015 0.951825
O O7 0.683348 0.538983 0.902647
O O8 0.240135 0.240358 0.838327
O O9 0.403913 0.184899 0.816971
O O10 0.291916 0.075598 0.846452
O O11 0.323002 0.176999 0.000000
O O12 0.575383 0.207788 0.846406
O O13 0.684727 0.095828 0.817020
O O14 0.676786 0.176786 0.000000
O O15 0.282610 0.507408 0.302482
#
# Coordination Sequence:
#
# PCOD8310374 Si02
#       7
#     8   8   8   8   8   8   8
#     4   9  18  34  57  84 113 144 185 245 305 347
#     4  11  20  30  52  81 106 136 178 235 296 343
#     4  11  22  37  56  82 117 153 190 240 289 337
#     4  11  22  37  56  82 117 153 190 240 289 337
#     4   9  18  34  57  84 113 144 185 245 305 347
#     4  12  22  36  55  80 114 153 191 231 279 344
#     4  12  22  36  55  80 114 153 191 231 279 344
#
# _framework density 17.964998000000001
#
# number of rings (size 3 to 8) (size 9 to 14) (size 15 to 20)
#    0.000    1.286    2.857    6.000    0.000    2.857 
#    0.000    2.857    0.000    5.143    0.000    2.000 
#    0.000    0.000    0.000    0.000    0.000    0.000 
#
# Total GULP energy -694240.696364 kJ/mol
# GULP energy per Si atom -12397.155292 kJ/mol
# Density = 1.792411 g / cm^3
# Si number density = 17.964998 Si / 1000 Ang^3
#
#
#
# Elastic Constant Matrix: (Units=GPa)
#
#
# Indices 1 2 3 4 5 6 
#
# 1 111.7907 51.0050 36.4315 0.0000 0.0000 0.0000
# 2 51.0050 111.7908 36.4315 0.0000 0.0000 0.0000
# 3 36.4315 36.4315 102.5119 0.0000 0.0000 0.0000
# 4 0.0000 0.0000 0.0000 26.9442 0.0000 0.0000
# 5 0.0000 0.0000 0.0000 0.0000 26.9442 0.0000
# 6 0.0000 0.0000 0.0000 0.0000 0.0000 16.6467
#
#
#
# Elastic Compliance Matrix: (Units=1/GPa)
#
#
# Indices 1 2 3 4 5 6 
#
# 1 0.011878 -0.004573 -0.002596 0.000000 0.000000 0.000000
# 2 -0.004573 0.011878 -0.002596 0.000000 0.000000 0.000000
# 3 -0.002596 -0.002596 0.011600 0.000000 0.000000 0.000000
# 4 0.000000 0.000000 0.000000 0.037114 0.000000 0.000000
# 5 0.000000 0.000000 0.000000 0.000000 0.037114 0.000000
# 6 0.000000 0.000000 0.000000 0.000000 0.000000 0.060072
#
#
# Mechanical properties :
#
#
# Convention : Reuss Voigt Hill
#
# Bulk Modulus (GPa) = 63.18956 63.75882 63.47419
# Shear Modulus (GPa) = 25.71213 27.58873 26.65043
#
# Velocity S-wave (km/s) = 3.78727 3.92304 3.85575
# Velocity P-wave (km/s) = 7.37391 7.48919 7.43178
#
# Compressibility (1/GPa) = 0.01582540
#
# Stress axis : x y z
#
# Youngs Moduli (GPa) = 84.19003 84.19013 86.20617
#
# Poissons Ratio (x) = 0.38503 0.22379
# Poissons Ratio (y) = 0.38503 0.22379
# Poissons Ratio (z) = 0.21855 0.21855
#
# Static dielectric constant tensor:
#      x y z
#    x 2.637650 0.000000 0.000000 
#    y 0.000000 2.637570 0.000000 
#    z 0.000000 0.000000 3.504280 
# 
# 
# High freq. dielectric constant tensor:
#      x y z
#    x 1.690670 0.000000 0.000000 
#    y 0.000000 1.690670 0.000000 
#    z 0.000000 0.000000 1.686300 
# 
# From -- ./inp_files/2874.got.cif
#   From: 2010.03.12/outbox.cif.g09.slc.cpg/sg117_2_cif.got.tgz:2874.got - 2010.04.14 02:19:01.
