data_PCOD8310183
_publ_section_title
;
Structure prediction by ZEFSAII (Michael W. Deem and Ramdas Pophale) SiO2 
 PCOD8310183
Probable space group: P -4 C 2
;
_chemical_formula_sum "Si O2"
_cell_formula_units_Z 30
_cell_length_a 11.706005
_cell_length_b 11.706005
_cell_length_c 11.068187
_cell_angle_alpha 90.000000
_cell_angle_beta 90.000000
_cell_angle_gamma 90.000000
_cell_volume 1516.679786
_symmetry_space_group_name_H-M "P -4 C 2"
_symmetry_group_IT_number 116
_symmetry_cell_setting 'tetragonal'
loop_
_space_group_symop_operation_xyz
x,y,z
y,-x,-z
-x,-y,z
-y,x,-z
y,x,1/2-z
-y,-x,1/2-z
-x,y,1/2+z
x,-y,1/2+z
loop_
_atom_site_type_symbol
_atom_site_label
_atom_site_fract_x
_atom_site_fract_y
_atom_site_fract_z
Si Si1 0.688399 0.743299 0.115384
Si Si2 0.428376 0.274572 0.586596
Si Si3 0.840480 0.901831 0.983836
Si Si4 0.500000 0.500000 0.000000
Si Si5 0.771863 0.771863 0.750000
O O1 0.699837 0.699837 0.250000
O O2 0.556789 0.774287 0.083592
O O3 0.747143 0.643154 0.036025
O O4 0.757330 0.859595 0.090525
O O5 0.437601 0.412827 0.591856
O O6 0.357003 0.219233 0.696746
O O7 0.789824 0.866650 0.853280
O O8 0.962901 0.844941 0.006193
#
# Coordination Sequence:
#
# PCOD8310183 Si02
#       5
#     8   8   8   2   4
#     4  10  22  37  63  89 128 157 206 249 304 364
#     4   9  20  35  57  95 119 168 194 245 302 366
#     4  10  24  43  68  89 110 160 219 258 302 350
#     4   8  16  30  56  88 122 160 214 224 280 374
#     4  10  22  38  64  88 128 150 202 258 302 362
#
# _framework density 19.780049999999999
#
# number of rings (size 3 to 8) (size 9 to 14) (size 15 to 20)
#    0.000    2.400    0.000    0.000   18.667    1.067 
#    0.000    5.333    0.000    0.000    0.000    0.000 
#    0.000    0.000    0.000    0.000    0.000    0.000 
#
# Total GULP energy -371747.942568 kJ/mol
# GULP energy per Si atom -12391.598086 kJ/mol
# Density = 1.973503 g / cm^3
# Si number density = 19.780050 Si / 1000 Ang^3
#
#
#
# Elastic Constant Matrix: (Units=GPa)
#
#
# Indices 1 2 3 4 5 6 
#
# 1 102.5750 69.7823 47.3530 0.0000 0.0000 0.0000
# 2 69.7823 102.5750 47.3530 0.0000 0.0000 0.0000
# 3 47.3530 47.3530 110.8853 0.0000 0.0000 0.0000
# 4 0.0000 0.0000 0.0000 23.3153 0.0000 0.0000
# 5 0.0000 0.0000 0.0000 0.0000 23.3153 0.0000
# 6 0.0000 0.0000 0.0000 0.0000 0.0000 37.1091
#
#
#
# Elastic Compliance Matrix: (Units=1/GPa)
#
#
# Indices 1 2 3 4 5 6 
#
# 1 0.019038 -0.011457 -0.003237 0.000000 0.000000 0.000000
# 2 -0.011457 0.019038 -0.003237 0.000000 0.000000 0.000000
# 3 -0.003237 -0.003237 0.011783 0.000000 0.000000 0.000000
# 4 0.000000 0.000000 0.000000 0.042890 0.000000 0.000000
# 5 0.000000 0.000000 0.000000 0.000000 0.042890 0.000000
# 6 0.000000 0.000000 0.000000 0.000000 0.000000 0.026948
#
#
# Mechanical properties :
#
#
# Convention : Reuss Voigt Hill
#
# Bulk Modulus (GPa) = 71.45160 71.66800 71.55980
# Shear Modulus (GPa) = 24.61660 26.85108 25.73384
#
# Velocity S-wave (km/s) = 3.53160 3.68840 3.61085
# Velocity P-wave (km/s) = 7.26850 7.37904 7.32398
#
# Compressibility (1/GPa) = 0.01399549
#
# Stress axis : x y z
#
# Youngs Moduli (GPa) = 52.52741 52.52741 84.86604
#
# Poissons Ratio (x) = 0.60180 0.27474
# Poissons Ratio (y) = 0.60180 0.27474
# Poissons Ratio (z) = 0.17005 0.17005
#
# Static dielectric constant tensor:
#      x y z
#    x 3.656210 0.000000 0.000000 
#    y 0.000000 3.656210 0.000000 
#    z 0.000000 0.000000 3.633150 
# 
# 
# High freq. dielectric constant tensor:
#      x y z
#    x 1.763510 0.000000 0.000000 
#    y 0.000000 1.763510 0.000000 
#    z 0.000000 0.000000 1.771600 
# 
# From -- ./inp_files/1488.got.cif
#   From: 2010.03.12/outbox.cif.g09.slc.cpg/sg116_1_cif.got.tgz:1488.got - 2010.04.14 02:15:44.
