data_PCOD8310060
_publ_section_title
;
Structure prediction by ZEFSAII (Michael W. Deem and Ramdas Pophale) SiO2 
 PCOD8310060
Probable space group: P -4 C 2
;
_chemical_formula_sum "Si O2"
_cell_formula_units_Z 64
_cell_length_a 26.987493
_cell_length_b 26.987493
_cell_length_c 5.202354
_cell_angle_alpha 90.000000
_cell_angle_beta 90.000000
_cell_angle_gamma 90.000000
_cell_volume 3789.003324
_symmetry_space_group_name_H-M "P -4 C 2"
_symmetry_group_IT_number 116
_symmetry_cell_setting 'tetragonal'
loop_
_space_group_symop_operation_xyz
x,y,z
y,-x,-z
-x,-y,z
-y,x,-z
y,x,1/2-z
-y,-x,1/2-z
-x,y,1/2+z
x,-y,1/2+z
loop_
_atom_site_type_symbol
_atom_site_label
_atom_site_fract_x
_atom_site_fract_y
_atom_site_fract_z
Si Si1 0.703535 0.525371 0.104280
Si Si2 0.360898 0.684643 0.996063
Si Si3 0.719956 0.235076 0.999632
Si Si4 0.868290 0.677423 0.898495
Si Si5 0.819042 0.475626 0.694837
Si Si6 0.019027 0.411306 0.405948
Si Si7 0.383885 0.128221 0.099262
Si Si8 0.023201 0.699391 0.352434
O O1 0.680295 0.510257 0.381049
O O2 0.761257 0.515923 0.152099
O O3 0.693694 0.580865 0.011543
O O4 0.345440 0.654561 0.250000
O O5 0.333303 0.737707 0.983196
O O6 0.347671 0.652330 0.750000
O O7 0.748592 0.251409 0.250000
O O8 0.713280 0.176375 0.023054
O O9 0.752696 0.247305 0.750000
O O10 0.851099 0.643495 0.655861
O O11 0.917766 0.706660 0.815198
O O12 0.884244 0.650349 0.159255
O O13 0.842091 0.486970 0.412533
O O14 0.829443 0.420829 0.799499
O O15 0.076926 0.410050 0.474897
O O16 0.990800 0.439975 0.637453
O O17 0.992522 0.358351 0.347866
O O18 0.003277 0.725763 0.609758
#
# Coordination Sequence:
#
# PCOD8310060 Si02
#       8
#     8   8   8   8   8   8   8   8
#     4  10  20  35  54  75 102 128 158 196 230 269
#     4  10  20  35  54  75 105 133 156 192 237 279
#     4  10  22  36  47  69 104 133 163 197 228 290
#     4  12  20  30  52  73  86 124 159 194 250 299
#     4  10  22  36  47  66  95 124 158 201 237 281
#     4  10  16  29  43  66  90 106 138 201 264 282
#     4  12  20  30  52  70  85 117 158 201 242 314
#     4  10  16  29  43  69  94 106 145 204 261 287
#
# _framework density 16.890984
#
# number of rings (size 3 to 8) (size 9 to 14) (size 15 to 20)
#    0.000    1.500    5.000    3.000    0.000    4.000 
#    0.000    0.000    0.000    2.250    0.000    0.000 
#    0.000   17.500    0.000    0.000    0.000    0.000 
#
# Total GULP energy -793069.261970 kJ/mol
# GULP energy per Si atom -12391.707218 kJ/mol
# Density = 1.685254 g / cm^3
# Si number density = 16.890984 Si / 1000 Ang^3
#
#
#
# Elastic Constant Matrix: (Units=GPa)
#
#
# Indices 1 2 3 4 5 6 
#
# 1 63.3078 17.5860 34.0762 0.0000 0.0000 0.0000
# 2 17.5860 63.3089 34.0764 0.0000 0.0000 0.0000
# 3 34.0762 34.0764 158.2137 0.0000 0.0000 0.0000
# 4 0.0000 0.0000 0.0000 21.3679 0.0000 0.0000
# 5 0.0000 0.0000 0.0000 0.0000 21.3656 0.0000
# 6 0.0000 0.0000 0.0000 0.0000 0.0000 5.3038
#
#
#
# Elastic Compliance Matrix: (Units=1/GPa)
#
#
# Indices 1 2 3 4 5 6 
#
# 1 0.018487 -0.003384 -0.003253 0.000000 0.000000 0.000000
# 2 -0.003384 0.018486 -0.003253 0.000000 0.000000 0.000000
# 3 -0.003253 -0.003253 0.007722 0.000000 0.000000 0.000000
# 4 0.000000 0.000000 0.000000 0.046799 0.000000 0.000000
# 5 0.000000 0.000000 0.000000 0.000000 0.046804 0.000000
# 6 0.000000 0.000000 0.000000 0.000000 0.000000 0.188544
#
#
# Mechanical properties :
#
#
# Convention : Reuss Voigt Hill
#
# Bulk Modulus (GPa) = 40.13615 50.70083 45.41849
# Shear Modulus (GPa) = 14.08738 22.88024 18.48381
#
# Velocity S-wave (km/s) = 2.89107 3.68446 3.31161
# Velocity P-wave (km/s) = 5.91252 6.94132 6.44747
#
# Compressibility (1/GPa) = 0.02491519
#
# Stress axis : x y z
#
# Youngs Moduli (GPa) = 54.09253 54.09353 129.50480
#
# Poissons Ratio (x) = 0.18308 0.42125
# Poissons Ratio (y) = 0.18307 0.42124
# Poissons Ratio (z) = 0.17595 0.17595
#
# Static dielectric constant tensor:
#      x y z
#    x 2.785670 0.000000 0.000000 
#    y 0.000000 2.785650 0.000000 
#    z 0.000000 0.000000 4.222000 
# 
# 
# High freq. dielectric constant tensor:
#      x y z
#    x 1.604630 0.000000 0.000000 
#    y 0.000000 1.604630 0.000000 
#    z 0.000000 0.000000 1.696880 
# 
# From -- ./inp_files/267.got.cif
#   From: 2010.03.12/outbox.cif.g09.slc.cpg/sg116_1_cif.got.tgz:267.got - 2010.04.14 02:15:44.
