data_PCOD8310814
_publ_section_title
;
Structure prediction by ZEFSAII (Michael W. Deem and Ramdas Pophale) SiO2 
 PCOD8310814
Probable space group: I -4 M 2
;
_chemical_formula_sum "Si O2"
_cell_formula_units_Z 64
_cell_length_a 13.954140
_cell_length_b 13.954140
_cell_length_c 17.053477
_cell_angle_alpha 90.000000
_cell_angle_beta 90.000000
_cell_angle_gamma 90.000000
_cell_volume 3320.619329
_symmetry_space_group_name_H-M "I -4 M 2"
_symmetry_group_IT_number 119
_symmetry_cell_setting 'tetragonal'
loop_
_space_group_symop_operation_xyz
x,y,z
y,-x,-z
-x,-y,z
-y,x,-z
y,x,-z
-y,-x,-z
-x,y,z
x,-y,z
1/2+x,1/2+y,1/2+z
1/2+y,1/2-x,1/2-z
1/2-x,1/2-y,1/2+z
1/2-y,1/2+x,1/2-z
1/2+y,1/2+x,1/2-z
1/2-y,1/2-x,1/2-z
1/2-x,1/2+y,1/2+z
1/2+x,1/2-y,1/2+z
loop_
_atom_site_type_symbol
_atom_site_label
_atom_site_fract_x
_atom_site_fract_y
_atom_site_fract_z
Si Si1 0.385954 0.736866 0.258830
Si Si2 0.279187 0.609140 0.565275
Si Si3 0.608349 0.891485 0.962215
Si Si4 0.886918 0.728171 0.311730
O O1 0.500000 0.735690 0.244210
O O2 0.345181 0.845181 0.250000
O O3 0.354893 0.702837 0.346341
O O4 0.331442 0.664795 0.199430
O O5 0.342391 0.657610 0.500000
O O6 0.309512 0.500000 0.562971
O O7 0.168481 0.624910 0.541355
O O8 0.500000 0.874694 0.988143
O O9 0.638914 0.813731 0.897174
O O10 0.623628 0.000000 0.929337
O O11 0.849204 0.650797 0.250000
O O12 0.000000 0.741798 0.301125
#
# Coordination Sequence:
#
# PCOD8310814 Si02
#       4
#    16  16  16  16
#     4  10  22  37  53  76 105 140 180 217 256 304
#     4  10  20  34  52  74 102 135 170 209 253 303
#     4   9  18  33  54  79 103 129 166 212 260 307
#     4  10  19  32  52  78 108 137 167 209 261 315
#
# _framework density 19.273513000000001
#
# number of rings (size 3 to 8) (size 9 to 14) (size 15 to 20)
#    0.000    2.250    0.000    3.750    0.000    6.250 
#    0.000    5.000    0.000    0.000    0.000    0.000 
#    0.000   10.000    0.000    0.000    0.000    0.000 
#
# Total GULP energy -396619.216858 kJ/mol
# GULP energy per Si atom -12394.350527 kJ/mol
# Density = 1.922965 g / cm^3
# Si number density = 19.273513 Si / 1000 Ang^3
#
#
#
# Elastic Constant Matrix: (Units=GPa)
#
#
# Indices 1 2 3 4 5 6 
#
# 1 76.2198 44.9031 24.4428 0.0000 0.0000 0.0000
# 2 44.9031 76.2308 24.4388 0.0000 0.0000 0.0000
# 3 24.4428 24.4388 47.9546 0.0000 0.0000 0.0000
# 4 0.0000 0.0000 0.0000 25.9784 0.0000 0.0000
# 5 0.0000 0.0000 0.0000 0.0000 25.9780 0.0000
# 6 0.0000 0.0000 0.0000 0.0000 0.0000 28.0025
#
#
#
# Elastic Compliance Matrix: (Units=1/GPa)
#
#
# Indices 1 2 3 4 5 6 
#
# 1 0.021162 -0.010766 -0.005300 0.000000 0.000000 0.000000
# 2 -0.010766 0.021157 -0.005295 0.000000 0.000000 0.000000
# 3 -0.005300 -0.005295 0.026253 0.000000 0.000000 0.000000
# 4 0.000000 0.000000 0.000000 0.038494 0.000000 0.000000
# 5 0.000000 0.000000 0.000000 0.000000 0.038494 0.000000
# 6 0.000000 0.000000 0.000000 0.000000 0.000000 0.035711
#
#
# Mechanical properties :
#
#
# Convention : Reuss Voigt Hill
#
# Bulk Modulus (GPa) = 38.68357 43.10831 40.89594
# Shear Modulus (GPa) = 21.49527 23.09981 22.29754
#
# Velocity S-wave (km/s) = 3.34320 3.46573 3.40501
# Velocity P-wave (km/s) = 5.91752 6.19921 6.06000
#
# Compressibility (1/GPa) = 0.02585077
#
# Stress axis : x y z
#
# Youngs Moduli (GPa) = 47.25384 47.26500 38.09144
#
# Poissons Ratio (x) = 0.50888 0.20187
# Poissons Ratio (y) = 0.50876 0.20168
# Poissons Ratio (z) = 0.25043 0.25025
#
# Static dielectric constant tensor:
#      x y z
#    x 3.613350 0.000000 0.000000 
#    y 0.000000 3.613380 0.000000 
#    z 0.000000 0.000000 3.578940 
# 
# 
# High freq. dielectric constant tensor:
#      x y z
#    x 1.750320 0.000000 0.000000 
#    y 0.000000 1.750320 0.000000 
#    z 0.000000 0.000000 1.744420 
# 
# From -- ./inp_files/5048.got.cif
#   From: 2010.03.12/outbox.cif.g09.slc.cpg/sg119_3_cif.got.tgz:5048.got - 2010.04.14 02:25:26.
