data_PCOD8310500
_publ_section_title
;
Structure prediction by ZEFSAII (Michael W. Deem and Ramdas Pophale) SiO2 
 PCOD8310500
Probable space group: P -4 N 2
;
_chemical_formula_sum "Si O2"
_cell_formula_units_Z 36
_cell_length_a 11.499176
_cell_length_b 11.499176
_cell_length_c 12.410595
_cell_angle_alpha 90.000000
_cell_angle_beta 90.000000
_cell_angle_gamma 90.000000
_cell_volume 1641.065992
_symmetry_space_group_name_H-M "P -4 N 2"
_symmetry_group_IT_number 118
_symmetry_cell_setting 'tetragonal'
loop_
_space_group_symop_operation_xyz
x,y,z
y,-x,-z
-x,-y,z
-y,x,-z
1/2+y,1/2+x,1/2-z
1/2-y,1/2-x,1/2-z
1/2-x,1/2+y,1/2+z
1/2+x,1/2-y,1/2+z
loop_
_atom_site_type_symbol
_atom_site_label
_atom_site_fract_x
_atom_site_fract_y
_atom_site_fract_z
Si Si1 0.694229 0.634204 0.614756
Si Si2 0.108810 0.915184 0.339819
Si Si3 0.661274 0.047716 0.436376
Si Si4 0.500000 0.000000 0.250000
Si Si5 0.101414 0.655482 0.366273
Si Si6 0.000000 0.000000 0.000000
O O1 0.698969 0.603378 0.740819
O O2 0.818520 0.619520 0.557881
O O3 0.647942 0.764873 0.596015
O O4 0.608239 0.538034 0.570181
O O5 0.196291 0.960944 0.433562
O O6 0.056746 0.788202 0.359888
O O7 0.000000 0.000000 0.321214
O O8 0.612120 0.990485 0.327349
O O9 0.605226 0.982453 0.540300
O O10 0.089406 0.589406 0.250000
#
# Coordination Sequence:
#
# PCOD8310500 Si02
#       6
#     8   8   8   2   8   2
#     4  10  22  42  62  98 136 177 231 288 336 411
#     4  10  20  39  66 100 135 177 228 287 345 412
#     4  11  23  41  67  98 134 180 229 281 349 411
#     4  12  24  40  66  88 132 184 228 290 332 412
#     4   9  22  41  66  97 140 177 221 288 349 406
#     4  12  24  40  68  88 130 192 224 276 360 410
#
# _framework density 21.936962999999999
#
# number of rings (size 3 to 8) (size 9 to 14) (size 15 to 20)
#    0.000    1.778    3.333    1.333    9.333    0.000 
#    0.000    0.556    0.000    0.000    0.000    0.000 
#    0.000    0.000    0.000    0.000    0.000    0.000 
#
# Total GULP energy -446092.394928 kJ/mol
# GULP energy per Si atom -12391.455415 kJ/mol
# Density = 2.188703 g / cm^3
# Si number density = 21.936963 Si / 1000 Ang^3
#
#
#
# Elastic Constant Matrix: (Units=GPa)
#
#
# Indices 1 2 3 4 5 6 
#
# 1 97.9958 51.5698 42.9024 0.0000 0.0000 0.0000
# 2 51.5698 97.9958 42.9024 0.0000 0.0000 0.0000
# 3 42.9024 42.9024 143.4479 0.0000 0.0000 0.0000
# 4 0.0000 0.0000 0.0000 21.5290 0.0000 0.0000
# 5 0.0000 0.0000 0.0000 0.0000 21.5290 0.0000
# 6 0.0000 0.0000 0.0000 0.0000 0.0000 38.1813
#
#
#
# Elastic Compliance Matrix: (Units=1/GPa)
#
#
# Indices 1 2 3 4 5 6 
#
# 1 0.014805 -0.006734 -0.002414 0.000000 0.000000 0.000000
# 2 -0.006734 0.014805 -0.002414 0.000000 0.000000 0.000000
# 3 -0.002414 -0.002414 0.008415 0.000000 0.000000 0.000000
# 4 0.000000 0.000000 0.000000 0.046449 0.000000 0.000000
# 5 0.000000 0.000000 0.000000 0.000000 0.046449 0.000000
# 6 0.000000 0.000000 0.000000 0.000000 0.000000 0.026191
#
#
# Mechanical properties :
#
#
# Convention : Reuss Voigt Hill
#
# Bulk Modulus (GPa) = 67.10786 68.24319 67.67553
# Shear Modulus (GPa) = 26.99706 29.71887 28.35797
#
# Velocity S-wave (km/s) = 3.51189 3.68467 3.59932
# Velocity P-wave (km/s) = 6.86310 7.01988 6.94193
#
# Compressibility (1/GPa) = 0.01490138
#
# Stress axis : x y z
#
# Youngs Moduli (GPa) = 67.54366 67.54366 118.83500
#
# Poissons Ratio (x) = 0.45487 0.28685
# Poissons Ratio (y) = 0.45487 0.28685
# Poissons Ratio (z) = 0.16304 0.16304
#
# Static dielectric constant tensor:
#      x y z
#    x 3.830720 0.000000 0.000000 
#    y 0.000000 3.830720 0.000000 
#    z 0.000000 0.000000 4.142980 
# 
# 
# High freq. dielectric constant tensor:
#      x y z
#    x 1.859340 0.000000 0.000000 
#    y 0.000000 1.859340 0.000000 
#    z 0.000000 0.000000 1.861720 
# 
# From -- ./inp_files/3075.got.cif
#   From: 2010.03.12/outbox.cif.g09.slc.cpg/sg118_2_cif.got.tgz:3075.got - 2010.04.14 02:21:17.
