data_PCOD8310152
_publ_section_title
;
Structure prediction by ZEFSAII (Michael W. Deem and Ramdas Pophale) SiO2 
 PCOD8310152
Probable space group: P -4 C 2
;
_chemical_formula_sum "Si O2"
_cell_formula_units_Z 34
_cell_length_a 10.252535
_cell_length_b 10.252535
_cell_length_c 13.691274
_cell_angle_alpha 90.000000
_cell_angle_beta 90.000000
_cell_angle_gamma 90.000000
_cell_volume 1439.151064
_symmetry_space_group_name_H-M "P -4 C 2"
_symmetry_group_IT_number 116
_symmetry_cell_setting 'tetragonal'
loop_
_space_group_symop_operation_xyz
x,y,z
y,-x,-z
-x,-y,z
-y,x,-z
y,x,1/2-z
-y,-x,1/2-z
-x,y,1/2+z
x,-y,1/2+z
loop_
_atom_site_type_symbol
_atom_site_label
_atom_site_fract_x
_atom_site_fract_y
_atom_site_fract_z
Si Si1 0.500000 0.500000 0.000000
Si Si2 0.536852 0.231163 0.911137
Si Si3 0.368749 0.060955 0.259741
Si Si4 0.959033 0.676518 0.940966
Si Si5 0.132094 0.745068 0.111264
O O1 0.564016 0.382078 0.937645
O O2 0.629788 0.201851 0.815252
O O3 0.384593 0.220215 0.886706
O O4 0.571006 0.128140 0.999266
O O5 0.500000 0.000000 0.307131
O O6 0.381579 0.057755 0.142254
O O7 0.250187 0.970812 0.298875
O O8 0.866010 0.772005 0.880269
O O9 0.051729 0.757990 0.011255
#
# Coordination Sequence:
#
# PCOD8310152 Si02
#       5
#     2   8   8   8   8
#     4  12  20  40  72 102 148 162 220 296 346 416
#     4  10  21  38  65  99 130 177 218 273 353 405
#     4   9  19  37  63  92 124 169 223 259 326 418
#     4  11  20  38  64  88 129 178 219 282 329 404
#     4  10  21  36  61  92 121 171 232 269 334 391
#
# _framework density 23.625038
#
# number of rings (size 3 to 8) (size 9 to 14) (size 15 to 20)
#    0.000    1.882    2.353    4.235    0.000    0.471 
#    0.000    4.706   10.353   18.353    0.000    0.000 
#    0.000    0.000    0.000    0.000    0.000    0.000 
#
# Total GULP energy -421194.557378 kJ/mol
# GULP energy per Si atom -12388.075217 kJ/mol
# Density = 2.357127 g / cm^3
# Si number density = 23.625038 Si / 1000 Ang^3
#
#
#
# Elastic Constant Matrix: (Units=GPa)
#
#
# Indices 1 2 3 4 5 6 
#
# 1 71.9300 7.2670 30.8851 0.0000 0.0000 0.0000
# 2 7.2670 71.9300 30.8851 0.0000 0.0000 0.0000
# 3 30.8851 30.8851 160.4026 0.0000 0.0000 0.0000
# 4 0.0000 0.0000 0.0000 18.0884 0.0000 0.0000
# 5 0.0000 0.0000 0.0000 0.0000 18.0884 0.0000
# 6 0.0000 0.0000 0.0000 0.0000 0.0000 25.2431
#
#
#
# Elastic Compliance Matrix: (Units=1/GPa)
#
#
# Indices 1 2 3 4 5 6 
#
# 1 0.015161 -0.000303 -0.002861 0.000000 0.000000 0.000000
# 2 -0.000303 0.015161 -0.002861 0.000000 0.000000 0.000000
# 3 -0.002861 -0.002861 0.007336 0.000000 0.000000 0.000000
# 4 0.000000 0.000000 0.000000 0.055284 0.000000 0.000000
# 5 0.000000 0.000000 0.000000 0.000000 0.055284 0.000000
# 6 0.000000 0.000000 0.000000 0.000000 0.000000 0.039615
#
#
# Mechanical properties :
#
#
# Convention : Reuss Voigt Hill
#
# Bulk Modulus (GPa) = 39.04925 49.14856 44.09890
# Shear Modulus (GPa) = 23.98909 27.96568 25.97738
#
# Velocity S-wave (km/s) = 3.19001 3.44427 3.31957
# Velocity P-wave (km/s) = 5.48934 6.05525 5.77923
#
# Compressibility (1/GPa) = 0.02560868
#
# Stress axis : x y z
#
# Youngs Moduli (GPa) = 65.95673 65.95673 136.31360
#
# Poissons Ratio (x) = 0.02001 0.38998
# Poissons Ratio (y) = 0.02001 0.38998
# Poissons Ratio (z) = 0.18869 0.18869
#
# Static dielectric constant tensor:
#      x y z
#    x 4.020450 0.000000 0.000000 
#    y 0.000000 4.020450 0.000000 
#    z 0.000000 0.000000 4.078480 
# 
# 
# High freq. dielectric constant tensor:
#      x y z
#    x 1.916910 0.000000 0.000000 
#    y 0.000000 1.916910 0.000000 
#    z 0.000000 0.000000 1.940980 
# 
# From -- ./inp_files/2490.got.cif
#   From: 2010.03.12/outbox.cif.g09.slc.cpg/sg116_2_cif.got.tgz:2490.got - 2010.04.14 02:15:44.
