data_PCOD8310311
_publ_section_title
;
Structure prediction by ZEFSAII (Michael W. Deem and Ramdas Pophale) SiO2 
 PCOD8310311
Probable space group: P -4 B 2
;
_chemical_formula_sum "Si O2"
_cell_formula_units_Z 48
_cell_length_a 14.006653
_cell_length_b 14.006653
_cell_length_c 12.039272
_cell_angle_alpha 90.000000
_cell_angle_beta 90.000000
_cell_angle_gamma 90.000000
_cell_volume 2361.940569
_symmetry_space_group_name_H-M "P -4 B 2"
_symmetry_group_IT_number 117
_symmetry_cell_setting 'tetragonal'
loop_
_space_group_symop_operation_xyz
x,y,z
y,-x,-z
-x,-y,z
-y,x,-z
1/2+y,1/2+x,-z
1/2-y,1/2-x,-z
1/2-x,1/2+y,z
1/2+x,1/2-y,z
loop_
_atom_site_type_symbol
_atom_site_label
_atom_site_fract_x
_atom_site_fract_y
_atom_site_fract_z
Si Si1 0.602514 0.338191 0.141893
Si Si2 0.291185 0.471001 0.100613
Si Si3 0.446389 0.229983 0.263052
Si Si4 0.302228 0.749679 0.738813
Si Si5 0.593213 0.959334 0.165607
Si Si6 0.909975 0.597770 0.374519
O O1 0.634084 0.448885 0.144054
O O2 0.507455 0.319499 0.215611
O O3 0.688050 0.270974 0.186618
O O4 0.573765 0.315025 0.017061
O O5 0.293216 0.384272 0.184527
O O6 0.185848 0.516117 0.094851
O O7 0.344993 0.258296 0.317179
O O8 0.418392 0.154848 0.166097
O O9 0.506605 0.172999 0.352503
O O10 0.345700 0.810483 0.638255
O O11 0.500000 0.000000 0.102730
O O12 0.593544 0.007342 0.290591
O O13 0.931902 0.568099 0.500000
#
# Coordination Sequence:
#
# PCOD8310311 Si02
#       6
#     8   8   8   8   8   8
#     4  11  23  37  59  87 120 159 204 244 285 354
#     4  11  22  38  59  85 122 158 201 241 287 347
#     4  10  20  37  59  83 118 157 191 243 307 348
#     4  10  21  39  58  84 122 157 194 246 304 358
#     4   9  19  37  61  84 111 153 196 248 299 335
#     4   9  20  39  59  89 117 143 203 256 299 363
#
# _framework density 20.322272000000002
#
# number of rings (size 3 to 8) (size 9 to 14) (size 15 to 20)
#    0.000    2.000    1.667    2.500    0.000    6.000 
#    3.000    4.167    0.000    0.000    0.000    0.000 
#    0.000    0.000    0.000    0.000    0.000    0.000 
#
# Total GULP energy -594674.693831 kJ/mol
# GULP energy per Si atom -12389.056121 kJ/mol
# Density = 2.027602 g / cm^3
# Si number density = 20.322272 Si / 1000 Ang^3
#
#
#
# Elastic Constant Matrix: (Units=GPa)
#
#
# Indices 1 2 3 4 5 6 
#
# 1 106.3127 27.1444 12.3159 0.0000 0.0000 0.0000
# 2 27.1444 106.3128 12.3159 0.0000 0.0000 0.0000
# 3 12.3159 12.3159 64.6163 0.0000 0.0000 0.0000
# 4 0.0000 0.0000 0.0000 7.5795 0.0000 0.0000
# 5 0.0000 0.0000 0.0000 0.0000 7.5794 0.0000
# 6 0.0000 0.0000 0.0000 0.0000 0.0000 44.7913
#
#
#
# Elastic Compliance Matrix: (Units=1/GPa)
#
#
# Indices 1 2 3 4 5 6 
#
# 1 0.010199 -0.002433 -0.001480 0.000000 0.000000 0.000000
# 2 -0.002433 0.010199 -0.001480 0.000000 0.000000 0.000000
# 3 -0.001480 -0.001480 0.016040 0.000000 0.000000 0.000000
# 4 0.000000 0.000000 0.000000 0.131935 0.000000 0.000000
# 5 0.000000 0.000000 0.000000 0.000000 0.131937 0.000000
# 6 0.000000 0.000000 0.000000 0.000000 0.000000 0.022326
#
#
# Mechanical properties :
#
#
# Convention : Reuss Voigt Hill
#
# Bulk Modulus (GPa) = 38.98372 42.31048 40.64710
# Shear Modulus (GPa) = 14.62106 27.02108 20.82107
#
# Velocity S-wave (km/s) = 2.68519 3.65036 3.20432
# Velocity P-wave (km/s) = 5.37011 6.21545 5.80818
#
# Compressibility (1/GPa) = 0.02565173
#
# Stress axis : x y z
#
# Youngs Moduli (GPa) = 98.05094 98.05100 62.34322
#
# Poissons Ratio (x) = 0.23851 0.09228
# Poissons Ratio (y) = 0.23851 0.09228
# Poissons Ratio (z) = 0.14514 0.14514
#
# Static dielectric constant tensor:
#      x y z
#    x 4.049820 0.000000 0.000000 
#    y 0.000000 4.049820 0.000000 
#    z 0.000000 0.000000 3.219470 
# 
# 
# High freq. dielectric constant tensor:
#      x y z
#    x 1.810920 0.000000 0.000000 
#    y 0.000000 1.810920 0.000000 
#    z 0.000000 0.000000 1.749720 
# 
# From -- ./inp_files/2773.got.cif
#   From: 2010.03.12/outbox.cif.g09.slc.cpg/sg117_2_cif.got.tgz:2773.got - 2010.04.14 02:19:01.
