data_PCOD8310541
_publ_section_title
;
Structure prediction by ZEFSAII (Michael W. Deem and Ramdas Pophale) SiO2 
 PCOD8310541
Probable space group: P -4 N 2
;
_chemical_formula_sum "Si O2"
_cell_formula_units_Z 48
_cell_length_a 9.077304
_cell_length_b 9.077304
_cell_length_c 30.052238
_cell_angle_alpha 90.000000
_cell_angle_beta 90.000000
_cell_angle_gamma 90.000000
_cell_volume 2476.227715
_symmetry_space_group_name_H-M "P -4 N 2"
_symmetry_group_IT_number 118
_symmetry_cell_setting 'tetragonal'
loop_
_space_group_symop_operation_xyz
x,y,z
y,-x,-z
-x,-y,z
-y,x,-z
1/2+y,1/2+x,1/2-z
1/2-y,1/2-x,1/2-z
1/2-x,1/2+y,1/2+z
1/2+x,1/2-y,1/2+z
loop_
_atom_site_type_symbol
_atom_site_label
_atom_site_fract_x
_atom_site_fract_y
_atom_site_fract_z
Si Si1 0.885606 0.630950 0.199627
Si Si2 0.845419 0.581134 0.529200
Si Si3 0.048258 0.835599 0.134871
Si Si4 0.803012 0.158537 0.392588
Si Si5 0.160820 0.877826 0.625082
Si Si6 0.164446 0.192188 0.059395
O O1 0.836452 0.663549 0.250000
O O2 0.736251 0.600937 0.172820
O O3 0.000000 0.500000 0.197074
O O4 0.968759 0.764346 0.176673
O O5 0.873267 0.716430 0.562225
O O6 0.794243 0.654429 0.483482
O O7 0.714848 0.473440 0.546457
O O8 0.000000 0.500000 0.521771
O O9 0.221232 0.790330 0.135914
O O10 0.991984 0.795709 0.085011
O O11 0.000000 0.000000 0.143360
O O12 0.972736 0.202857 0.402638
O O13 0.833067 0.008208 0.364776
O O14 0.216303 0.745018 0.594869
#
# Coordination Sequence:
#
# PCOD8310541 Si02
#       6
#     8   8   8   8   8   8
#     4  10  21  42  67  95 126 159 207 260 322 394
#     4  12  25  40  58  90 127 171 219 269 314 372
#     4  11  22  40  65  93 124 166 213 262 321 384
#     4  11  22  40  62  89 123 164 213 255 318 377
#     4  10  23  41  63  90 123 168 202 260 322 389
#     4  11  25  38  60  85 122 168 213 265 311 366
#
# _framework density 19.384322000000001
#
# number of rings (size 3 to 8) (size 9 to 14) (size 15 to 20)
#    0.000    1.167    5.000    1.000    4.667    0.000 
#    3.000    1.667    0.000    1.000    0.000    0.000 
#    0.000    0.000    0.000    0.000    0.000    0.000 
#
# Total GULP energy -594748.583474 kJ/mol
# GULP energy per Si atom -12390.595489 kJ/mol
# Density = 1.934020 g / cm^3
# Si number density = 19.384322 Si / 1000 Ang^3
#
#
#
# Elastic Constant Matrix: (Units=GPa)
#
#
# Indices 1 2 3 4 5 6 
#
# 1 112.6896 40.8567 47.9842 0.0000 0.0000 0.0000
# 2 40.8567 112.6894 47.9841 0.0000 0.0000 0.0000
# 3 47.9842 47.9841 131.2927 0.0000 0.0000 0.0000
# 4 0.0000 0.0000 0.0000 18.2150 0.0000 0.0000
# 5 0.0000 0.0000 0.0000 0.0000 18.2150 0.0000
# 6 0.0000 0.0000 0.0000 0.0000 0.0000 37.5769
#
#
#
# Elastic Compliance Matrix: (Units=1/GPa)
#
#
# Indices 1 2 3 4 5 6 
#
# 1 0.011181 -0.002740 -0.003085 0.000000 0.000000 0.000000
# 2 -0.002740 0.011181 -0.003085 0.000000 0.000000 0.000000
# 3 -0.003085 -0.003085 0.009871 0.000000 0.000000 0.000000
# 4 0.000000 0.000000 0.000000 0.054900 0.000000 0.000000
# 5 0.000000 0.000000 0.000000 0.000000 0.054900 0.000000
# 6 0.000000 0.000000 0.000000 0.000000 0.000000 0.026612
#
#
# Mechanical properties :
#
#
# Convention : Reuss Voigt Hill
#
# Bulk Modulus (GPa) = 69.37951 70.03576 69.70763
# Shear Modulus (GPa) = 26.14109 29.45782 27.79946
#
# Velocity S-wave (km/s) = 3.67627 3.90253 3.79109
# Velocity P-wave (km/s) = 7.34093 7.51763 7.42981
#
# Compressibility (1/GPa) = 0.01441348
#
# Stress axis : x y z
#
# Youngs Moduli (GPa) = 89.43746 89.43730 101.30205
#
# Poissons Ratio (x) = 0.24508 0.31251
# Poissons Ratio (y) = 0.24508 0.31251
# Poissons Ratio (z) = 0.27591 0.27590
#
# Static dielectric constant tensor:
#      x y z
#    x 3.718440 0.000000 0.000000 
#    y 0.000000 3.718440 0.000000 
#    z 0.000000 0.000000 3.510260 
# 
# 
# High freq. dielectric constant tensor:
#      x y z
#    x 1.766540 0.000000 0.000000 
#    y 0.000000 1.766540 0.000000 
#    z 0.000000 0.000000 1.732270 
# 
# From -- ./inp_files/6823.got.cif
#   From: 2010.03.12/outbox.cif.g09.slc.cpg/sg118_4_cif.got.tgz:6823.got - 2010.04.14 02:21:17.
