data_PCOD8310679
_publ_section_title
;
Structure prediction by ZEFSAII (Michael W. Deem and Ramdas Pophale) SiO2 
 PCOD8310679
Probable space group: I -4 M 2
;
_chemical_formula_sum "Si O2"
_cell_formula_units_Z 58
_cell_length_a 11.470960
_cell_length_b 11.470960
_cell_length_c 25.069174
_cell_angle_alpha 90.000000
_cell_angle_beta 90.000000
_cell_angle_gamma 90.000000
_cell_volume 3298.675200
_symmetry_space_group_name_H-M "I -4 M 2"
_symmetry_group_IT_number 119
_symmetry_cell_setting 'tetragonal'
loop_
_space_group_symop_operation_xyz
x,y,z
y,-x,-z
-x,-y,z
-y,x,-z
y,x,-z
-y,-x,-z
-x,y,z
x,-y,z
1/2+x,1/2+y,1/2+z
1/2+y,1/2-x,1/2-z
1/2-x,1/2-y,1/2+z
1/2-y,1/2+x,1/2-z
1/2+y,1/2+x,1/2-z
1/2-y,1/2-x,1/2-z
1/2-x,1/2+y,1/2+z
1/2+x,1/2-y,1/2+z
loop_
_atom_site_type_symbol
_atom_site_label
_atom_site_fract_x
_atom_site_fract_y
_atom_site_fract_z
Si Si1 0.136612 0.363389 0.750000
Si Si2 0.633344 0.764346 0.139779
Si Si3 0.240600 0.362635 0.050622
Si Si4 0.368873 0.000000 0.077314
Si Si5 0.252684 0.000000 0.968217
Si Si6 0.000000 0.000000 0.000000
O O1 0.156106 0.500000 0.736933
O O2 0.217907 0.322971 0.799455
O O3 0.500000 0.726772 0.140224
O O4 0.698184 0.663266 0.107123
O O5 0.652965 0.887322 0.112041
O O6 0.236495 0.500000 0.040154
O O7 0.112422 0.310651 0.058061
O O8 0.305167 0.305167 0.000000
O O9 0.500000 0.000000 0.053223
O O10 0.274618 0.000000 0.031201
O O11 0.112976 0.000000 0.961165
#
# Coordination Sequence:
#
# PCOD8310679 Si02
#       6
#     8  16  16   8   8   2
#     4   9  16  30  56  86 111 140 186 244 301 340
#     4  10  19  32  54  84 114 147 188 236 287 344
#     4  12  24  37  56  83 118 157 192 231 278 343
#     4  10  16  30  52  82 118 148 182 229 281 342
#     4  12  22  38  58  86 118 146 188 231 290 347
#     4  12  20  36  60  84 112 148 172 244 280 328
#
# _framework density 17.582816999999999
#
# number of rings (size 3 to 8) (size 9 to 14) (size 15 to 20)
#    0.000    1.241    5.517    2.069    0.000    1.931 
#    0.000    0.000    3.034    0.000    0.000    0.000 
#    0.000    0.000    0.000    0.000    0.000    0.000 
#
# Total GULP energy -359538.073765 kJ/mol
# GULP energy per Si atom -12397.864613 kJ/mol
# Density = 1.754280 g / cm^3
# Si number density = 17.582817 Si / 1000 Ang^3
#
#
#
# Elastic Constant Matrix: (Units=GPa)
#
#
# Indices 1 2 3 4 5 6 
#
# 1 98.3995 36.6509 37.0070 0.0000 0.0000 0.0000
# 2 36.6509 98.3999 37.0069 0.0000 0.0000 0.0000
# 3 37.0070 37.0069 117.5993 0.0000 0.0000 0.0000
# 4 0.0000 0.0000 0.0000 39.3347 0.0000 0.0000
# 5 0.0000 0.0000 0.0000 0.0000 39.3354 0.0000
# 6 0.0000 0.0000 0.0000 0.0000 0.0000 26.1654
#
#
#
# Elastic Compliance Matrix: (Units=1/GPa)
#
#
# Indices 1 2 3 4 5 6 
#
# 1 0.012571 -0.003623 -0.002816 0.000000 0.000000 0.000000
# 2 -0.003623 0.012571 -0.002816 0.000000 0.000000 0.000000
# 3 -0.002816 -0.002816 0.010276 0.000000 0.000000 0.000000
# 4 0.000000 0.000000 0.000000 0.025423 0.000000 0.000000
# 5 0.000000 0.000000 0.000000 0.000000 0.025422 0.000000
# 6 0.000000 0.000000 0.000000 0.000000 0.000000 0.038218
#
#
# Mechanical properties :
#
#
# Convention : Reuss Voigt Hill
#
# Bulk Modulus (GPa) = 59.14294 59.52537 59.33415
# Shear Modulus (GPa) = 33.64112 34.54935 34.09523
#
# Velocity S-wave (km/s) = 4.37887 4.43758 4.40832
# Velocity P-wave (km/s) = 7.69908 7.75783 7.72851
#
# Compressibility (1/GPa) = 0.01690819
#
# Stress axis : x y z
#
# Youngs Moduli (GPa) = 79.54655 79.54697 97.31777
#
# Poissons Ratio (x) = 0.28823 0.27402
# Poissons Ratio (y) = 0.28823 0.27402
# Poissons Ratio (z) = 0.22398 0.22398
#
# Static dielectric constant tensor:
#      x y z
#    x 3.269870 0.000000 0.000000 
#    y 0.000000 3.269870 0.000000 
#    z 0.000000 0.000000 3.326460 
# 
# 
# High freq. dielectric constant tensor:
#      x y z
#    x 1.672810 0.000000 0.000000 
#    y 0.000000 1.672810 0.000000 
#    z 0.000000 0.000000 1.665160 
# 
# From -- ./inp_files/8437.got.cif
#   From: 2010.03.12/outbox.cif.g09.slc.cpg/sg119_5_cif.got.tgz:8437.got - 2010.04.14 02:25:26.
