data_PCOD8310564
_publ_section_title
;
Structure prediction by ZEFSAII (Michael W. Deem and Ramdas Pophale) SiO2 
 PCOD8310564
Probable space group: P -4 N 2
;
_chemical_formula_sum "Si O2"
_cell_formula_units_Z 48
_cell_length_a 9.097781
_cell_length_b 9.097781
_cell_length_c 29.580757
_cell_angle_alpha 90.000000
_cell_angle_beta 90.000000
_cell_angle_gamma 90.000000
_cell_volume 2448.387990
_symmetry_space_group_name_H-M "P -4 N 2"
_symmetry_group_IT_number 118
_symmetry_cell_setting 'tetragonal'
loop_
_space_group_symop_operation_xyz
x,y,z
y,-x,-z
-x,-y,z
-y,x,-z
1/2+y,1/2+x,1/2-z
1/2-y,1/2-x,1/2-z
1/2-x,1/2+y,1/2+z
1/2+x,1/2-y,1/2+z
loop_
_atom_site_type_symbol
_atom_site_label
_atom_site_fract_x
_atom_site_fract_y
_atom_site_fract_z
Si Si1 0.621864 0.662250 0.478598
Si Si2 0.527605 0.777131 0.889052
Si Si3 0.000000 0.000000 0.818232
Si Si4 0.576914 0.703730 0.987396
Si Si5 0.246212 0.501143 0.752355
Si Si6 0.500000 0.500000 0.825359
Si Si7 0.243451 0.471280 0.387340
O O1 0.667619 0.556427 0.521128
O O2 0.670124 0.827221 0.489539
O O3 0.684254 0.595743 0.432418
O O4 0.494294 0.742249 0.941161
O O5 0.534848 0.637877 0.856914
O O6 0.393589 0.874256 0.871044
O O7 0.683737 0.862353 0.891797
O O8 0.980029 0.852650 0.789856
O O9 0.141399 0.969728 0.847747
O O10 0.673108 0.557303 0.978179
O O11 0.141615 0.358386 0.750000
O O12 0.350809 0.516329 0.796269
O O13 0.149064 0.649064 0.750000
#
# Coordination Sequence:
#
# PCOD8310564 Si02
#       7
#     8   8   4   8   8   4   8
#     4  11  22  38  59  83 118 163 208 254 310 362
#     4  11  23  39  60  89 124 159 205 261 304 359
#     4  11  22  40  67  92 122 166 205 246 312 379
#     4  11  22  38  59  83 118 163 208 254 310 362
#     4  10  22  42  66  94 128 160 196 252 314 378
#     4  11  22  40  67  92 122 166 205 246 312 379
#     4  11  23  39  60  89 124 159 205 261 304 359
#
# _framework density 19.604737
#
# number of rings (size 3 to 8) (size 9 to 14) (size 15 to 20)
#    0.000    1.167    3.333    4.000    0.000    0.667 
#    0.000    0.000    0.000    8.000    0.000    0.000 
#    0.000    0.000    0.000    0.000    0.000    0.000 
#
# Total GULP energy -594883.531302 kJ/mol
# GULP energy per Si atom -12393.406902 kJ/mol
# Density = 1.956012 g / cm^3
# Si number density = 19.604737 Si / 1000 Ang^3
#
#
#
# Elastic Constant Matrix: (Units=GPa)
#
#
# Indices 1 2 3 4 5 6 
#
# 1 93.5925 23.8169 40.0543 0.0000 0.0000 0.0000
# 2 23.8169 93.5923 40.0541 0.0000 0.0000 0.0000
# 3 40.0543 40.0541 109.0168 0.0000 0.0000 0.0000
# 4 0.0000 0.0000 0.0000 35.7918 0.0000 0.0000
# 5 0.0000 0.0000 0.0000 0.0000 35.7900 0.0000
# 6 0.0000 0.0000 0.0000 0.0000 0.0000 33.2765
#
#
#
# Elastic Compliance Matrix: (Units=1/GPa)
#
#
# Indices 1 2 3 4 5 6 
#
# 1 0.012849 -0.001483 -0.004176 0.000000 0.000000 0.000000
# 2 -0.001483 0.012849 -0.004176 0.000000 0.000000 0.000000
# 3 -0.004176 -0.004176 0.012242 0.000000 0.000000 0.000000
# 4 0.000000 0.000000 0.000000 0.027939 0.000000 0.000000
# 5 0.000000 0.000000 0.000000 0.000000 0.027941 0.000000
# 6 0.000000 0.000000 0.000000 0.000000 0.000000 0.030051
#
#
# Mechanical properties :
#
#
# Convention : Reuss Voigt Hill
#
# Bulk Modulus (GPa) = 54.73450 56.00582 55.37016
# Shear Modulus (GPa) = 33.41541 33.79008 33.60274
#
# Velocity S-wave (km/s) = 4.13298 4.15609 4.14455
# Velocity P-wave (km/s) = 7.12426 7.18751 7.15595
#
# Compressibility (1/GPa) = 0.01827001
#
# Stress axis : x y z
#
# Youngs Moduli (GPa) = 77.82601 77.82587 81.68774
#
# Poissons Ratio (x) = 0.11538 0.34115
# Poissons Ratio (y) = 0.11538 0.34115
# Poissons Ratio (z) = 0.32502 0.32502
#
# Static dielectric constant tensor:
#      x y z
#    x 3.757450 0.000000 0.000000 
#    y 0.000000 3.757450 0.000000 
#    z 0.000000 0.000000 3.520400 
# 
# 
# High freq. dielectric constant tensor:
#      x y z
#    x 1.778390 0.000000 0.000000 
#    y 0.000000 1.778390 0.000000 
#    z 0.000000 0.000000 1.752130 
# 
# From -- ./inp_files/6907.got.cif
#   From: 2010.03.12/outbox.cif.g09.slc.cpg/sg118_4_cif.got.tgz:6907.got - 2010.04.14 02:21:17.
