data_PCOD8310571
_publ_section_title
;
Structure prediction by ZEFSAII (Michael W. Deem and Ramdas Pophale) SiO2 
 PCOD8310571
Probable space group: P -4 N 2
;
_chemical_formula_sum "Si O2"
_cell_formula_units_Z 64
_cell_length_a 10.931185
_cell_length_b 10.931185
_cell_length_c 24.897660
_cell_angle_alpha 90.000000
_cell_angle_beta 90.000000
_cell_angle_gamma 90.000000
_cell_volume 2975.041449
_symmetry_space_group_name_H-M "P -4 N 2"
_symmetry_group_IT_number 118
_symmetry_cell_setting 'tetragonal'
loop_
_space_group_symop_operation_xyz
x,y,z
y,-x,-z
-x,-y,z
-y,x,-z
1/2+y,1/2+x,1/2-z
1/2-y,1/2-x,1/2-z
1/2-x,1/2+y,1/2+z
1/2+x,1/2-y,1/2+z
loop_
_atom_site_type_symbol
_atom_site_label
_atom_site_fract_x
_atom_site_fract_y
_atom_site_fract_z
Si Si1 0.698024 0.385422 0.739469
Si Si2 0.901034 0.362328 0.453132
Si Si3 0.640258 0.504643 0.343885
Si Si4 0.117145 0.335379 0.075558
Si Si5 0.231919 0.250669 0.871588
Si Si6 0.859190 0.018455 0.344504
Si Si7 0.637485 0.985992 0.146834
Si Si8 0.731024 0.872631 0.434205
O O1 0.750652 0.250652 0.750000
O O2 0.561262 0.372297 0.715865
O O3 0.709871 0.450849 0.796532
O O4 0.777168 0.463962 0.697790
O O5 0.843288 0.498301 0.463081
O O6 0.792384 0.283392 0.428004
O O7 0.939547 0.307991 0.510810
O O8 0.018312 0.361171 0.412027
O O9 0.500000 0.500000 0.369225
O O10 0.740144 0.586888 0.376104
O O11 0.697020 0.369925 0.337402
O O12 0.242499 0.290080 0.048896
O O13 0.325979 0.338289 0.839887
O O14 0.110432 0.327303 0.883718
O O15 0.823796 0.960552 0.402217
O O16 0.000000 0.000000 0.335217
O O17 0.655673 0.883361 0.102867
O O18 0.500000 0.000000 0.167946
#
# Coordination Sequence:
#
# PCOD8310571 Si02
#       8
#     8   8   8   8   8   8   8   8
#     4  12  23  45  69 101 136 185 227 294 362 419
#     4  10  26  40  72  97 136 189 225 282 353 420
#     4  11  21  44  74 102 137 185 228 299 357 421
#     4  10  22  45  66  97 137 178 228 282 351 422
#     4  11  24  44  68 100 137 180 235 287 349 427
#     4  12  27  45  67 100 140 180 239 293 353 425
#     4  12  24  42  70 100 137 175 229 286 357 416
#     4  12  24  43  68  97 139 180 228 291 341 428
#
# _framework density 21.512307
#
# number of rings (size 3 to 8) (size 9 to 14) (size 15 to 20)
#    0.000    0.750    5.000    1.125    5.250    1.750 
#    0.000    0.000    0.000    0.750    0.000    0.000 
#    0.000    0.000    0.000    0.000    0.000    0.000 
#
# Total GULP energy -793074.368588 kJ/mol
# GULP energy per Si atom -12391.787009 kJ/mol
# Density = 2.146334 g / cm^3
# Si number density = 21.512307 Si / 1000 Ang^3
#
#
#
# Elastic Constant Matrix: (Units=GPa)
#
#
# Indices 1 2 3 4 5 6 
#
# 1 125.6157 48.8619 36.7791 0.0000 0.0000 0.0000
# 2 48.8619 125.6157 36.7791 0.0000 0.0000 0.0000
# 3 36.7791 36.7791 95.9630 0.0000 0.0000 0.0000
# 4 0.0000 0.0000 0.0000 22.5867 0.0000 0.0000
# 5 0.0000 0.0000 0.0000 0.0000 22.5867 0.0000
# 6 0.0000 0.0000 0.0000 0.0000 0.0000 45.7538
#
#
#
# Elastic Compliance Matrix: (Units=1/GPa)
#
#
# Indices 1 2 3 4 5 6 
#
# 1 0.009932 -0.003096 -0.002620 0.000000 0.000000 0.000000
# 2 -0.003096 0.009932 -0.002620 0.000000 0.000000 0.000000
# 3 -0.002620 -0.002620 0.012429 0.000000 0.000000 0.000000
# 4 0.000000 0.000000 0.000000 0.044274 0.000000 0.000000
# 5 0.000000 0.000000 0.000000 0.000000 0.044274 0.000000
# 6 0.000000 0.000000 0.000000 0.000000 0.000000 0.021856
#
#
# Mechanical properties :
#
#
# Convention : Reuss Voigt Hill
#
# Bulk Modulus (GPa) = 64.01646 65.78162 64.89904
# Shear Modulus (GPa) = 30.38095 33.17040 31.77568
#
# Velocity S-wave (km/s) = 3.76208 3.93100 3.84747
# Velocity P-wave (km/s) = 6.97808 7.15882 7.06903
#
# Compressibility (1/GPa) = 0.01562098
#
# Stress axis : x y z
#
# Youngs Moduli (GPa) = 100.68146 100.68146 80.45723
#
# Poissons Ratio (x) = 0.31175 0.21080
# Poissons Ratio (y) = 0.31175 0.21080
# Poissons Ratio (z) = 0.26378 0.26378
#
# Static dielectric constant tensor:
#      x y z
#    x 4.229880 0.000000 0.000000 
#    y 0.000000 4.229880 0.000000 
#    z 0.000000 0.000000 3.562650 
# 
# 
# High freq. dielectric constant tensor:
#      x y z
#    x 1.863680 0.000000 0.000000 
#    y 0.000000 1.863680 0.000000 
#    z 0.000000 0.000000 1.809230 
# 
# From -- ./inp_files/6270.got.cif
#   From: 2010.03.12/outbox.cif.g09.slc.cpg/sg118_4_cif.got.tgz:6270.got - 2010.04.14 02:21:17.
