data_PCOD8310243
_publ_section_title
;
Structure prediction by ZEFSAII (Michael W. Deem and Ramdas Pophale) SiO2 
 PCOD8310243
Probable space group: P -4 C 2
;
_chemical_formula_sum "Si O2"
_cell_formula_units_Z 60
_cell_length_a 11.397050
_cell_length_b 11.397050
_cell_length_c 24.930167
_cell_angle_alpha 90.000000
_cell_angle_beta 90.000000
_cell_angle_gamma 90.000000
_cell_volume 3238.247917
_symmetry_space_group_name_H-M "P -4 C 2"
_symmetry_group_IT_number 116
_symmetry_cell_setting 'tetragonal'
loop_
_space_group_symop_operation_xyz
x,y,z
y,-x,-z
-x,-y,z
-y,x,-z
y,x,1/2-z
-y,-x,1/2-z
-x,y,1/2+z
x,-y,1/2+z
loop_
_atom_site_type_symbol
_atom_site_label
_atom_site_fract_x
_atom_site_fract_y
_atom_site_fract_z
Si Si1 0.500000 0.500000 0.683734
Si Si2 0.133952 0.133952 0.000000
Si Si3 0.755054 0.499997 0.273580
Si Si4 0.247046 0.499998 0.648646
Si Si5 0.740586 0.136825 0.200713
Si Si6 0.136831 0.740578 0.799288
Si Si7 0.137431 0.262740 0.108259
Si Si8 0.262736 0.862571 0.391741
O O1 0.500000 0.385125 0.721959
O O2 0.387866 0.500000 0.644602
O O3 0.222611 0.164153 0.952121
O O4 0.164154 0.222611 0.047879
O O5 1.000000 0.151860 0.980510
O O6 0.791995 0.500000 0.211043
O O7 0.805390 0.387046 0.303495
O O8 0.805398 0.612941 0.303498
O O9 0.197537 0.612941 0.618606
O O10 0.197538 0.387053 0.618607
O O11 0.810663 0.189338 0.250000
O O12 0.810647 0.162957 0.146662
O O13 0.726249 0.999998 0.209403
O O14 0.189356 0.810645 0.750000
O O15 0.162964 0.810641 0.853338
O O16 0.000001 0.274349 0.119370
#
# Coordination Sequence:
#
# PCOD8310243 Si02
#       8
#     4   8   8   8   8   8   8   8
#     4  12  21  40  66  85 122 177 218 254 297 372
#     4   9  20  42  68  89 118 166 216 257 310 378
#     4  12  22  40  60  91 128 169 213 254 308 371
#     4  12  22  38  63  91 122 163 214 259 312 368
#     4  12  24  37  58  91 129 164 205 258 315 376
#     4  12  24  37  58  91 129 164 205 258 315 376
#     4  11  23  40  63  92 126 165 210 259 314 376
#     4  11  23  40  63  92 126 165 210 259 314 376
#
# _framework density 18.528538999999999
#
# number of rings (size 3 to 8) (size 9 to 14) (size 15 to 20)
#    0.000    0.667    5.333    3.600    0.000    4.000 
#    0.000    2.667    0.000    3.200    0.000    0.000 
#    0.000    0.000    0.000    0.000    0.000    0.000 
#
# Total GULP energy -744301.654935 kJ/mol
# GULP energy per Si atom -12405.027582 kJ/mol
# Density = 1.848637 g / cm^3
# Si number density = 18.528539 Si / 1000 Ang^3
#
#
#
# Elastic Constant Matrix: (Units=GPa)
#
#
# Indices 1 2 3 4 5 6 
#
# 1 141.2616 68.3219 58.7875 0.0000 0.0000 0.0000
# 2 68.3219 141.2615 58.7875 0.0000 0.0000 0.0000
# 3 58.7875 58.7875 103.9249 0.0000 0.0000 0.0000
# 4 0.0000 0.0000 0.0000 30.7064 0.0000 0.0000
# 5 0.0000 0.0000 0.0000 0.0000 30.7064 0.0000
# 6 0.0000 0.0000 0.0000 0.0000 0.0000 -0.4148
#
#
#
# Elastic Compliance Matrix: (Units=1/GPa)
#
#
# Indices 1 2 3 4 5 6 
#
# 1 0.010350 -0.003360 -0.003954 0.000000 0.000000 0.000000
# 2 -0.003360 0.010350 -0.003954 0.000000 0.000000 0.000000
# 3 -0.003954 -0.003954 0.014095 0.000000 0.000000 0.000000
# 4 0.000000 0.000000 0.000000 0.032567 0.000000 0.000000
# 5 0.000000 0.000000 0.000000 0.000000 0.032567 0.000000
# 6 0.000000 0.000000 0.000000 0.000000 0.000000 -2.410923
#
#
# Mechanical properties :
#
#
# Convention : Reuss Voigt Hill
#
# Bulk Modulus (GPa) = 81.57084 84.24908 82.90996
# Shear Modulus (GPa) = -2.18878 25.56968 11.69045
#
# Velocity S-wave (km/s) = -1.08806 3.71889 2.51458
# Velocity P-wave (km/s) = 6.52239 8.00055 7.29898
#
# Compressibility (1/GPa) = 0.01225928
#
# Stress axis : x y z
#
# Youngs Moduli (GPa) = 96.62157 96.62152 70.94556
#
# Poissons Ratio (x) = 0.32468 0.28050
# Poissons Ratio (y) = 0.32468 0.28050
# Poissons Ratio (z) = 0.38201 0.38201
#
# Static dielectric constant tensor:
#      x y z
#    x 3.595690 0.000000 0.000000 
#    y 0.000000 3.595690 0.000000 
#    z 0.000000 0.000000 3.363670 
# 
# 
# High freq. dielectric constant tensor:
#      x y z
#    x 1.734950 0.000000 0.000000 
#    y 0.000000 1.734950 0.000000 
#    z 0.000000 0.000000 1.700950 
# 
# From -- ./inp_files/4210.got.cif
#   From: 2010.03.12/outbox.cif.g09.slc.cpg/sg116_3_cif.got.tgz:4210.got - 2010.04.14 02:15:44.
