data_PCOD8310772
_publ_section_title
;
Structure prediction by ZEFSAII (Michael W. Deem and Ramdas Pophale) SiO2 
 PCOD8310772
Probable space group: I -4 M 2
;
_chemical_formula_sum "Si O2"
_cell_formula_units_Z 104
_cell_length_a 14.703975
_cell_length_b 14.703975
_cell_length_c 29.452627
_cell_angle_alpha 90.000000
_cell_angle_beta 90.000000
_cell_angle_gamma 90.000000
_cell_volume 6367.860615
_symmetry_space_group_name_H-M "I -4 M 2"
_symmetry_group_IT_number 119
_symmetry_cell_setting 'tetragonal'
loop_
_space_group_symop_operation_xyz
x,y,z
y,-x,-z
-x,-y,z
-y,x,-z
y,x,-z
-y,-x,-z
-x,y,z
x,-y,z
1/2+x,1/2+y,1/2+z
1/2+y,1/2-x,1/2-z
1/2-x,1/2-y,1/2+z
1/2-y,1/2+x,1/2-z
1/2+y,1/2+x,1/2-z
1/2-y,1/2-x,1/2-z
1/2-x,1/2+y,1/2+z
1/2+x,1/2-y,1/2+z
loop_
_atom_site_type_symbol
_atom_site_label
_atom_site_fract_x
_atom_site_fract_y
_atom_site_fract_z
Si Si1 0.604898 0.895103 0.250000
Si Si2 0.899120 0.654048 0.016031
Si Si3 0.900859 0.208332 0.465076
Si Si4 0.104669 0.709567 0.660341
Si Si5 0.898104 0.286752 0.913899
Si Si6 0.352550 0.598978 0.450166
Si Si7 0.103283 0.898754 0.624946
O O1 0.500000 0.878574 0.263420
O O2 0.668024 0.865021 0.291766
O O3 0.818164 0.591731 0.035130
O O4 0.893532 0.744816 0.045306
O O5 0.000000 0.609374 0.021726
O O6 0.879236 0.672253 0.963265
O O7 0.824338 0.175663 0.500000
O O8 0.875719 0.172226 0.415505
O O9 0.000000 0.169970 0.479201
O O10 0.168614 0.671320 0.620962
O O11 0.116574 0.819526 0.662525
O O12 0.000000 0.682599 0.649829
O O13 0.886973 0.177393 0.916305
O O14 0.000000 0.309220 0.897542
O O15 0.395938 0.604063 0.500000
O O16 0.378898 0.500000 0.429567
O O17 0.000000 0.894960 0.606086
O O18 0.123089 0.000000 0.645409
#
# Coordination Sequence:
#
# PCOD8310772 Si02
#       7
#     8  16  16  16  16  16  16
#     4   9  18  32  50  72  92 110 136 167 208 268
#     4   9  18  30  42  59  85 119 158 195 228 262
#     4  11  20  29  43  62  89 123 155 188 222 256
#     4  10  19  32  50  68  89 116 142 176 221 263
#     4  10  19  28  41  63  89 117 151 187 222 264
#     4   9  16  27  43  60  83 119 158 192 224 258
#     4   9  18  31  47  68  90 115 150 184 215 256
#
# _framework density 16.332014999999998
#
# number of rings (size 3 to 8) (size 9 to 14) (size 15 to 20)
#    0.000    2.385    0.000    5.538    0.000    4.923 
#    0.000    1.538    0.000    0.923    0.000    2.154 
#    0.000    0.000    0.000    0.000    0.000    0.000 
#
# Total GULP energy -644501.799032 kJ/mol
# GULP energy per Si atom -12394.265366 kJ/mol
# Density = 1.629484 g / cm^3
# Si number density = 16.332015 Si / 1000 Ang^3
#
#
#
# Elastic Constant Matrix: (Units=GPa)
#
#
# Indices 1 2 3 4 5 6 
#
# 1 88.7709 33.8178 40.7146 0.0000 0.0000 0.0000
# 2 33.8178 88.7724 40.7139 0.0000 0.0000 0.0000
# 3 40.7146 40.7139 61.8659 0.0000 0.0000 0.0000
# 4 0.0000 0.0000 0.0000 19.0039 0.0000 0.0000
# 5 0.0000 0.0000 0.0000 0.0000 19.0040 0.0000
# 6 0.0000 0.0000 0.0000 0.0000 0.0000 20.8318
#
#
#
# Elastic Compliance Matrix: (Units=1/GPa)
#
#
# Indices 1 2 3 4 5 6 
#
# 1 0.016345 -0.001852 -0.009538 0.000000 0.000000 0.000000
# 2 -0.001852 0.016345 -0.009537 0.000000 0.000000 0.000000
# 3 -0.009538 -0.009537 0.028717 0.000000 0.000000 0.000000
# 4 0.000000 0.000000 0.000000 0.052621 0.000000 0.000000
# 5 0.000000 0.000000 0.000000 0.000000 0.052621 0.000000
# 6 0.000000 0.000000 0.000000 0.000000 0.000000 0.048003
#
#
# Mechanical properties :
#
#
# Convention : Reuss Voigt Hill
#
# Bulk Modulus (GPa) = 51.14532 52.21131 51.67832
# Shear Modulus (GPa) = 19.00965 20.04547 19.52756
#
# Velocity S-wave (km/s) = 3.41537 3.50719 3.46158
# Velocity P-wave (km/s) = 6.85106 6.95978 6.90563
#
# Compressibility (1/GPa) = 0.01955213
#
# Stress axis : x y z
#
# Youngs Moduli (GPa) = 61.18032 61.18261 34.82198
#
# Poissons Ratio (x) = 0.11333 0.33213
# Poissons Ratio (y) = 0.11332 0.33211
# Poissons Ratio (z) = 0.58353 0.58352
#
# Static dielectric constant tensor:
#      x y z
#    x 3.236750 0.000000 0.000000 
#    y 0.000000 3.236750 0.000000 
#    z 0.000000 0.000000 2.631170 
# 
# 
# High freq. dielectric constant tensor:
#      x y z
#    x 1.637760 0.000000 0.000000 
#    y 0.000000 1.637760 0.000000 
#    z 0.000000 0.000000 1.566600 
# 
# From -- ./inp_files/10474.got.cif
#   From: 2010.03.12/outbox.cif.g09.slc.cpg/sg119_6_cif.got.tgz:10474.got - 2010.04.14 02:25:26.
