data_PCOD8310095
_publ_section_title
;
Structure prediction by ZEFSAII (Michael W. Deem and Ramdas Pophale) SiO2 
 PCOD8310095
Probable space group: P -4 C 2
;
_chemical_formula_sum "Si O2"
_cell_formula_units_Z 26
_cell_length_a 10.256079
_cell_length_b 10.256079
_cell_length_c 9.949241
_cell_angle_alpha 90.000000
_cell_angle_beta 90.000000
_cell_angle_gamma 90.000000
_cell_volume 1046.532370
_symmetry_space_group_name_H-M "P -4 C 2"
_symmetry_group_IT_number 116
_symmetry_cell_setting 'tetragonal'
loop_
_space_group_symop_operation_xyz
x,y,z
y,-x,-z
-x,-y,z
-y,x,-z
y,x,1/2-z
-y,-x,1/2-z
-x,y,1/2+z
x,-y,1/2+z
loop_
_atom_site_type_symbol
_atom_site_label
_atom_site_fract_x
_atom_site_fract_y
_atom_site_fract_z
Si Si1 0.185042 0.352796 0.451576
Si Si2 0.258815 0.900473 0.075047
Si Si3 0.535072 0.851956 0.781651
Si Si4 0.000000 0.000000 0.000000
O O1 0.260220 0.213484 0.459046
O O2 0.217253 0.424703 0.311504
O O3 0.224344 0.447706 0.576754
O O4 0.028393 0.336402 0.473142
O O5 0.323498 0.844941 0.209703
O O6 0.107735 0.937839 0.099611
O O7 0.500000 0.000000 0.808710
#
# Coordination Sequence:
#
# PCOD8310095 Si02
#       4
#     8   8   8   2
#     4  10  20  36  57  84 114 150 191 235 286 346
#     4   9  18  34  56  82 117 152 185 232 290 348
#     4  10  19  34  55  80 113 150 190 229 278 344
#     4   8  16  32  50  84 120 146 178 228 292 354
#
# _framework density 24.843952999999999
#
# number of rings (size 3 to 8) (size 9 to 14) (size 15 to 20)
#    0.000    2.462    0.000    3.692    0.000    0.000 
#    0.000   44.615    0.000    0.923    0.000   12.923 
#    0.000    0.000    0.000    0.000    0.000    0.000 
#
# Total GULP energy -322137.776674 kJ/mol
# GULP energy per Si atom -12389.914487 kJ/mol
# Density = 2.478741 g / cm^3
# Si number density = 24.843953 Si / 1000 Ang^3
#
#
#
# Elastic Constant Matrix: (Units=GPa)
#
#
# Indices 1 2 3 4 5 6 
#
# 1 65.0053 3.2557 -0.0920 0.0000 0.0000 0.0000
# 2 3.2557 65.0053 -0.0920 0.0000 0.0000 0.0000
# 3 -0.0920 -0.0920 79.0853 0.0000 0.0000 0.0000
# 4 0.0000 0.0000 0.0000 18.6858 0.0000 0.0000
# 5 0.0000 0.0000 0.0000 0.0000 18.6858 0.0000
# 6 0.0000 0.0000 0.0000 0.0000 0.0000 17.1251
#
#
#
# Elastic Compliance Matrix: (Units=1/GPa)
#
#
# Indices 1 2 3 4 5 6 
#
# 1 0.015422 -0.000772 0.000017 0.000000 0.000000 0.000000
# 2 -0.000772 0.015422 0.000017 0.000000 0.000000 0.000000
# 3 0.000017 0.000017 0.012645 0.000000 0.000000 0.000000
# 4 0.000000 0.000000 0.000000 0.053517 0.000000 0.000000
# 5 0.000000 0.000000 0.000000 0.000000 0.053517 0.000000
# 6 0.000000 0.000000 0.000000 0.000000 0.000000 0.058394
#
#
# Mechanical properties :
#
#
# Convention : Reuss Voigt Hill
#
# Bulk Modulus (GPa) = 23.80262 23.91547 23.85904
# Shear Modulus (GPa) = 22.28202 24.63430 23.45816
#
# Velocity S-wave (km/s) = 2.99804 3.15232 3.07615
# Velocity P-wave (km/s) = 4.64607 4.78505 4.71607
#
# Compressibility (1/GPa) = 0.04201219
#
# Stress axis : x y z
#
# Youngs Moduli (GPa) = 64.84216 64.84216 79.08510
#
# Poissons Ratio (x) = 0.05008 -0.00135
# Poissons Ratio (y) = 0.05008 -0.00135
# Poissons Ratio (z) = -0.00111 -0.00111
#
# Static dielectric constant tensor:
#      x y z
#    x 4.425300 0.000000 0.000000 
#    y 0.000000 4.425300 0.000000 
#    z 0.000000 0.000000 4.132280 
# 
# 
# High freq. dielectric constant tensor:
#      x y z
#    x 1.969690 0.000000 0.000000 
#    y 0.000000 1.969690 0.000000 
#    z 0.000000 0.000000 1.972260 
# 
# From -- ./inp_files/505.got.cif
#   From: 2010.03.12/outbox.cif.g09.slc.cpg/sg116_1_cif.got.tgz:505.got - 2010.04.14 02:15:44.
