data_PCOD8310477
_publ_section_title
;
Structure prediction by ZEFSAII (Michael W. Deem and Ramdas Pophale) SiO2 
 PCOD8310477
Probable space group: P -4 N 2
;
_chemical_formula_sum "Si O2"
_cell_formula_units_Z 34
_cell_length_a 9.178731
_cell_length_b 9.178731
_cell_length_c 21.841315
_cell_angle_alpha 90.000000
_cell_angle_beta 90.000000
_cell_angle_gamma 90.000000
_cell_volume 1840.111192
_symmetry_space_group_name_H-M "P -4 N 2"
_symmetry_group_IT_number 118
_symmetry_cell_setting 'tetragonal'
loop_
_space_group_symop_operation_xyz
x,y,z
y,-x,-z
-x,-y,z
-y,x,-z
1/2+y,1/2+x,1/2-z
1/2-y,1/2-x,1/2-z
1/2-x,1/2+y,1/2+z
1/2+x,1/2-y,1/2+z
loop_
_atom_site_type_symbol
_atom_site_label
_atom_site_fract_x
_atom_site_fract_y
_atom_site_fract_z
Si Si1 0.500000 0.500000 0.000000
Si Si2 0.826555 0.759888 0.814859
Si Si3 0.045305 0.349415 0.184494
Si Si4 0.659299 0.537497 0.883156
Si Si5 0.299533 0.156784 0.177766
O O1 0.526438 0.357988 0.043029
O O2 0.822762 0.677239 0.750000
O O3 0.708888 0.698140 0.863520
O O4 0.991849 0.745657 0.839148
O O5 0.774895 0.924494 0.805972
O O6 0.099930 0.400070 0.250000
O O7 0.176795 0.266408 0.151166
O O8 0.000000 0.500000 0.148884
O O9 0.500000 0.500000 0.852757
O O10 0.794107 0.441837 0.858853
O O11 0.325157 0.174843 0.250000
#
# Coordination Sequence:
#
# PCOD8310477 Si02
#       5
#     2   8   8   8   8
#     4   8  24  44  68  80 116 180 248 250 276 388
#     4  12  21  33  56  95 132 159 200 269 343 391
#     4  10  20  33  50  83 128 171 202 233 313 406
#     4  10  22  40  63  83 120 168 223 263 305 382
#     4  11  22  32  58  94 131 160 191 269 349 388
#
# _framework density 18.477145
#
# number of rings (size 3 to 8) (size 9 to 14) (size 15 to 20)
#    0.706    0.706    4.706    2.824    3.294    0.000 
#    0.000    0.000   10.353    0.000    0.000    0.000 
#    0.000    0.000    0.000    0.000    0.000    0.000 
#
# Total GULP energy -421242.003042 kJ/mol
# GULP energy per Si atom -12389.470678 kJ/mol
# Density = 1.843509 g / cm^3
# Si number density = 18.477145 Si / 1000 Ang^3
#
#
#
# Elastic Constant Matrix: (Units=GPa)
#
#
# Indices 1 2 3 4 5 6 
#
# 1 94.8587 26.7292 17.0878 0.0000 0.0000 0.0000
# 2 26.7292 94.8619 17.0876 0.0000 0.0000 0.0000
# 3 17.0878 17.0876 84.2781 0.0000 0.0000 0.0000
# 4 0.0000 0.0000 0.0000 18.8063 0.0000 0.0000
# 5 0.0000 0.0000 0.0000 0.0000 18.8062 0.0000
# 6 0.0000 0.0000 0.0000 0.0000 0.0000 48.2881
#
#
#
# Elastic Compliance Matrix: (Units=1/GPa)
#
#
# Indices 1 2 3 4 5 6 
#
# 1 0.011700 -0.002978 -0.001768 0.000000 0.000000 0.000000
# 2 -0.002978 0.011699 -0.001768 0.000000 0.000000 0.000000
# 3 -0.001768 -0.001768 0.012583 0.000000 0.000000 0.000000
# 4 0.000000 0.000000 0.000000 0.053174 0.000000 0.000000
# 5 0.000000 0.000000 0.000000 0.000000 0.053174 0.000000
# 6 0.000000 0.000000 0.000000 0.000000 0.000000 0.020709
#
#
# Mechanical properties :
#
#
# Convention : Reuss Voigt Hill
#
# Bulk Modulus (GPa) = 43.56886 43.97864 43.77375
# Shear Modulus (GPa) = 27.21559 31.38640 29.30099
#
# Velocity S-wave (km/s) = 3.84204 4.12595 3.98653
# Velocity P-wave (km/s) = 6.58125 6.82285 6.70314
#
# Compressibility (1/GPa) = 0.02295217
#
# Stress axis : x y z
#
# Youngs Moduli (GPa) = 85.47228 85.47524 79.47522
#
# Poissons Ratio (x) = 0.25455 0.14054
# Poissons Ratio (y) = 0.25454 0.14053
# Poissons Ratio (z) = 0.15115 0.15114
#
# Static dielectric constant tensor:
#      x y z
#    x 3.839170 0.000000 0.000000 
#    y 0.000000 3.839170 0.000000 
#    z 0.000000 0.000000 2.845760 
# 
# 
# High freq. dielectric constant tensor:
#      x y z
#    x 1.732720 0.000000 0.000000 
#    y 0.000000 1.732720 0.000000 
#    z 0.000000 0.000000 1.642380 
# 
# From -- ./inp_files/6375.got.cif
#   From: 2010.03.12/outbox.cif.g09.slc.cpg/sg118_4_cif.got.tgz:6375.got - 2010.04.14 02:21:17.
