data_PCOD8310408
_publ_section_title
;
Structure prediction by ZEFSAII (Michael W. Deem and Ramdas Pophale) SiO2 
 PCOD8310408
Probable space group: P -4 B 2
;
_chemical_formula_sum "Si O2"
_cell_formula_units_Z 40
_cell_length_a 11.699937
_cell_length_b 11.699937
_cell_length_c 14.400050
_cell_angle_alpha 90.000000
_cell_angle_beta 90.000000
_cell_angle_gamma 90.000000
_cell_volume 1971.201616
_symmetry_space_group_name_H-M "P -4 B 2"
_symmetry_group_IT_number 117
_symmetry_cell_setting 'tetragonal'
loop_
_space_group_symop_operation_xyz
x,y,z
y,-x,-z
-x,-y,z
-y,x,-z
1/2+y,1/2+x,-z
1/2-y,1/2-x,-z
1/2-x,1/2+y,z
1/2+x,1/2-y,z
loop_
_atom_site_type_symbol
_atom_site_label
_atom_site_fract_x
_atom_site_fract_y
_atom_site_fract_z
Si Si1 0.474848 0.317041 0.215568
Si Si2 0.495589 0.813143 0.604025
Si Si3 0.686857 0.004411 0.604025
Si Si4 0.595395 0.904605 0.105076
Si Si5 0.182958 0.025152 0.215569
O O1 0.477484 0.288442 0.325006
O O2 0.456184 0.205064 0.155295
O O3 0.372932 0.403558 0.191056
O O4 0.596443 0.372931 0.191056
O O5 0.595132 0.904868 0.611380
O O6 0.490350 0.761707 0.500000
O O7 0.522515 0.711557 0.674993
O O8 0.375263 0.875263 0.628351
O O9 0.705064 0.956184 0.155295
O O10 0.500000 0.000000 0.108393
O O11 0.628129 0.871872 0.000000
#
# Coordination Sequence:
#
# PCOD8310408 Si02
#       5
#     8   8   8   8   8
#     4  11  25  42  64  97 134 168 210 266 320 381
#     4   9  18  34  60  93 129 170 214 258 307 371
#     4   9  18  34  60  93 129 170 214 258 307 371
#     4  11  26  46  71  96 122 163 215 268 329 394
#     4  11  25  42  64  97 134 168 210 266 320 381
#
# _framework density 20.292189
#
# number of rings (size 3 to 8) (size 9 to 14) (size 15 to 20)
#    0.000    1.800    2.000    2.400    5.600    3.200 
#    0.000    8.000    0.000    0.000    0.000    0.000 
#    0.000    0.000    0.000    0.000    0.000    0.000 
#
# Total GULP energy -496027.907092 kJ/mol
# GULP energy per Si atom -12400.697677 kJ/mol
# Density = 2.024600 g / cm^3
# Si number density = 20.292189 Si / 1000 Ang^3
#
#
#
# Elastic Constant Matrix: (Units=GPa)
#
#
# Indices 1 2 3 4 5 6 
#
# 1 97.4777 32.1019 48.8314 0.0000 0.0000 0.0000
# 2 32.1019 97.4780 48.8315 0.0000 0.0000 0.0000
# 3 48.8314 48.8315 130.6058 0.0000 0.0000 0.0000
# 4 0.0000 0.0000 0.0000 7.1454 0.0000 0.0000
# 5 0.0000 0.0000 0.0000 0.0000 7.1454 0.0000
# 6 0.0000 0.0000 0.0000 0.0000 0.0000 21.3320
#
#
#
# Elastic Compliance Matrix: (Units=1/GPa)
#
#
# Indices 1 2 3 4 5 6 
#
# 1 0.013021 -0.002275 -0.004017 0.000000 0.000000 0.000000
# 2 -0.002275 0.013021 -0.004017 0.000000 0.000000 0.000000
# 3 -0.004017 -0.004017 0.010661 0.000000 0.000000 0.000000
# 4 0.000000 0.000000 0.000000 0.139949 0.000000 0.000000
# 5 0.000000 0.000000 0.000000 0.000000 0.139951 0.000000
# 6 0.000000 0.000000 0.000000 0.000000 0.000000 0.046878
#
#
# Mechanical properties :
#
#
# Convention : Reuss Voigt Hill
#
# Bulk Modulus (GPa) = 62.18409 65.01013 63.59711
# Shear Modulus (GPa) = 12.83824 20.17767 16.50795
#
# Velocity S-wave (km/s) = 2.51802 3.15676 2.85531
# Velocity P-wave (km/s) = 6.25818 6.73747 6.50224
#
# Compressibility (1/GPa) = 0.01608128
#
# Stress axis : x y z
#
# Youngs Moduli (GPa) = 76.80097 76.80118 93.80205
#
# Poissons Ratio (x) = 0.17476 0.37684
# Poissons Ratio (y) = 0.17476 0.37684
# Poissons Ratio (z) = 0.30854 0.30854
#
# Static dielectric constant tensor:
#      x y z
#    x 3.682970 0.000000 0.000000 
#    y 0.000000 3.682970 0.000000 
#    z 0.000000 0.000000 3.977820 
# 
# 
# High freq. dielectric constant tensor:
#      x y z
#    x 1.791320 0.000000 0.000000 
#    y 0.000000 1.791320 0.000000 
#    z 0.000000 0.000000 1.794280 
# 
# From -- ./inp_files/3118.got.cif
#   From: 2010.03.12/outbox.cif.g09.slc.cpg/sg117_2_cif.got.tgz:3118.got - 2010.04.14 02:19:01.
