data_PCOD8310808
_publ_section_title
;
Structure prediction by ZEFSAII (Michael W. Deem and Ramdas Pophale) SiO2 
 PCOD8310808
Probable space group: I -4 M 2
;
_chemical_formula_sum "Si O2"
_cell_formula_units_Z 112
_cell_length_a 17.649348
_cell_length_b 17.649348
_cell_length_c 20.536058
_cell_angle_alpha 90.000000
_cell_angle_beta 90.000000
_cell_angle_gamma 90.000000
_cell_volume 6396.971487
_symmetry_space_group_name_H-M "I -4 M 2"
_symmetry_group_IT_number 119
_symmetry_cell_setting 'tetragonal'
loop_
_space_group_symop_operation_xyz
x,y,z
y,-x,-z
-x,-y,z
-y,x,-z
y,x,-z
-y,-x,-z
-x,y,z
x,-y,z
1/2+x,1/2+y,1/2+z
1/2+y,1/2-x,1/2-z
1/2-x,1/2-y,1/2+z
1/2-y,1/2+x,1/2-z
1/2+y,1/2+x,1/2-z
1/2-y,1/2-x,1/2-z
1/2-x,1/2+y,1/2+z
1/2+x,1/2-y,1/2+z
loop_
_atom_site_type_symbol
_atom_site_label
_atom_site_fract_x
_atom_site_fract_y
_atom_site_fract_z
Si Si1 0.669270 0.910816 0.933166
Si Si2 0.089537 0.336215 0.313174
Si Si3 0.842871 0.089330 0.935445
Si Si4 0.677464 0.588827 0.679295
Si Si5 0.587121 0.086054 0.439937
Si Si6 0.660830 0.835702 0.326296
Si Si7 0.686519 0.297120 0.789026
O O1 0.616824 0.878102 0.877205
O O2 0.756086 0.887094 0.921437
O O3 0.658833 0.000000 0.931084
O O4 0.640338 0.880461 0.003133
O O5 0.122907 0.377094 0.250000
O O6 0.116066 0.248195 0.319368
O O7 0.000000 0.338058 0.308460
O O8 0.894860 0.115254 0.875708
O O9 0.851572 0.000000 0.945142
O O10 0.869257 0.130744 0.000000
O O11 0.678624 0.500000 0.695560
O O12 0.759261 0.616383 0.653797
O O13 0.654371 0.635452 0.743926
O O14 0.500000 0.104805 0.426098
O O15 0.631322 0.097976 0.372400
O O16 0.598602 0.000000 0.462747
O O17 0.645243 0.854758 0.250000
O O18 0.751891 0.830195 0.340290
O O19 0.736193 0.236193 0.750000
#
# Coordination Sequence:
#
# PCOD8310808 Si02
#       7
#    16  16  16  16  16  16  16
#     4  10  21  36  52  72 102 137 168 204 253 307
#     4  11  21  34  54  77 101 130 168 212 257 310
#     4  11  22  34  50  72 100 136 176 212 245 292
#     4  10  19  32  50  71  99 133 168 208 255 299
#     4  10  20  32  48  75 109 138 166 209 266 316
#     4   9  18  33  53  73  98 135 177 212 246 300
#     4   8  18  34  50  72  99 129 165 208 250 295
#
# _framework density 17.508285000000001
#
# number of rings (size 3 to 8) (size 9 to 14) (size 15 to 20)
#    0.000    2.429    0.000    5.143    0.000    8.286 
#    0.000    0.714    0.000    0.000    0.000    0.000 
#    0.000    0.000    0.000    0.857    0.000    0.000 
#
# Total GULP energy -694233.681269 kJ/mol
# GULP energy per Si atom -12397.030023 kJ/mol
# Density = 1.746844 g / cm^3
# Si number density = 17.508285 Si / 1000 Ang^3
#
#
#
# Elastic Constant Matrix: (Units=GPa)
#
#
# Indices 1 2 3 4 5 6 
#
# 1 29.6866 91.4301 42.6215 0.0000 0.0000 0.0000
# 2 91.4301 29.6952 42.6195 0.0000 0.0000 0.0000
# 3 42.6215 42.6195 90.5065 0.0000 0.0000 0.0000
# 4 0.0000 0.0000 0.0000 26.9155 0.0000 0.0000
# 5 0.0000 0.0000 0.0000 0.0000 26.9162 0.0000
# 6 0.0000 0.0000 0.0000 0.0000 0.0000 24.6414
#
#
#
# Elastic Compliance Matrix: (Units=1/GPa)
#
#
# Indices 1 2 3 4 5 6 
#
# 1 -0.001925 0.014273 -0.005814 0.000000 0.000000 0.000000
# 2 0.014273 -0.001923 -0.005816 0.000000 0.000000 0.000000
# 3 -0.005814 -0.005816 0.016526 0.000000 0.000000 0.000000
# 4 0.000000 0.000000 0.000000 0.037153 0.000000 0.000000
# 5 0.000000 0.000000 0.000000 0.000000 0.037152 0.000000
# 6 0.000000 0.000000 0.000000 0.000000 0.000000 0.040582
#
#
# Mechanical properties :
#
#
# Convention : Reuss Voigt Hill
#
# Bulk Modulus (GPa) = 55.67121 55.91452 55.79287
# Shear Modulus (GPa) = 38.98103 13.90907 26.44505
#
# Velocity S-wave (km/s) = 4.72363 2.82162 3.89064
# Velocity P-wave (km/s) = 7.84961 6.52846 7.21932
#
# Compressibility (1/GPa) = 0.01796260
#
# Stress axis : x y z
#
# Youngs Moduli (GPa) = -519.41050 -519.97220 60.51156
#
# Poissons Ratio (x) = 7.42153 0.35184
# Poissons Ratio (y) = 7.41351 0.35192
# Poissons Ratio (z) = -3.02010 -3.02406
#
# Static dielectric constant tensor:
#      x y z
#    x 3.379820 0.000000 0.000000 
#    y 0.000000 3.379820 0.000000 
#    z 0.000000 0.000000 3.238710 
# 
# 
# High freq. dielectric constant tensor:
#      x y z
#    x 1.672270 0.000000 0.000000 
#    y 0.000000 1.672270 0.000000 
#    z 0.000000 0.000000 1.666620 
# 
# From -- ./inp_files/7999.got.cif
#   From: 2010.03.12/outbox.cif.g09.slc.cpg/sg119_4_cif.got.tgz:7999.got - 2010.04.14 02:25:26.
