data_PCOD8310716
_publ_section_title
;
Structure prediction by ZEFSAII (Michael W. Deem and Ramdas Pophale) SiO2 
 PCOD8310716
Probable space group: I -4 M 2
;
_chemical_formula_sum "Si O2"
_cell_formula_units_Z 96
_cell_length_a 14.513701
_cell_length_b 14.513701
_cell_length_c 30.551913
_cell_angle_alpha 90.000000
_cell_angle_beta 90.000000
_cell_angle_gamma 90.000000
_cell_volume 6435.684604
_symmetry_space_group_name_H-M "I -4 M 2"
_symmetry_group_IT_number 119
_symmetry_cell_setting 'tetragonal'
loop_
_space_group_symop_operation_xyz
x,y,z
y,-x,-z
-x,-y,z
-y,x,-z
y,x,-z
-y,-x,-z
-x,y,z
x,-y,z
1/2+x,1/2+y,1/2+z
1/2+y,1/2-x,1/2-z
1/2-x,1/2-y,1/2+z
1/2-y,1/2+x,1/2-z
1/2+y,1/2+x,1/2-z
1/2-y,1/2-x,1/2-z
1/2-x,1/2+y,1/2+z
1/2+x,1/2-y,1/2+z
loop_
_atom_site_type_symbol
_atom_site_label
_atom_site_fract_x
_atom_site_fract_y
_atom_site_fract_z
Si Si1 0.607116 0.395961 0.575858
Si Si2 0.600383 0.609035 0.673688
Si Si3 0.600317 0.399684 0.000000
Si Si4 0.287617 0.895783 0.461692
Si Si5 0.607775 0.787492 0.287617
Si Si6 0.895408 0.394398 0.874995
Si Si7 0.293197 0.706804 0.500000
O O1 0.500000 0.396340 0.564162
O O2 0.646592 0.500000 0.570769
O O3 0.624322 0.356522 0.624695
O O4 0.657294 0.327268 0.543344
O O5 0.500000 0.647752 0.689039
O O6 0.594428 0.500000 0.669922
O O7 0.679869 0.636571 0.708086
O O8 0.609024 0.324006 0.038691
O O9 0.500000 0.389541 0.977142
O O10 0.326551 0.869329 0.414222
O O11 0.317246 0.816516 0.496198
O O12 0.321335 0.000000 0.475014
O O13 0.500000 0.800265 0.276306
O O14 0.668579 0.831422 0.250000
O O15 0.632512 0.834523 0.333422
O O16 0.885217 0.500000 0.860877
O O17 0.000000 0.372560 0.890089
#
# Coordination Sequence:
#
# PCOD8310716 Si02
#       7
#    16  16   8  16  16  16   8
#     4   9  17  28  42  62  85 106 131 163 197 234
#     4   8  15  28  43  58  80 109 134 157 192 238
#     4   8  14  27  46  61  72  94 134 180 214 234
#     4   9  18  29  39  55  79 107 139 169 198 236
#     4  10  18  27  42  63  84 105 131 162 193 230
#     4   9  17  28  40  55  80 111 134 155 191 239
#     4  11  18  24  40  60  80 107 136 170 204 229
#
# _framework density 14.916827
#
# number of rings (size 3 to 8) (size 9 to 14) (size 15 to 20)
#    0.000    2.917    0.000    3.000    0.000    4.167 
#    0.000    0.000    0.000    1.000    0.000    5.833 
#    0.000    1.667    0.000    0.000    0.000    0.000 
#
# Total GULP energy -594698.983256 kJ/mol
# GULP energy per Si atom -12389.562151 kJ/mol
# Density = 1.488288 g / cm^3
# Si number density = 14.916827 Si / 1000 Ang^3
#
#
#
# Elastic Constant Matrix: (Units=GPa)
#
#
# Indices 1 2 3 4 5 6 
#
# 1 75.7804 51.9776 56.7380 0.0000 0.0000 0.0000
# 2 51.9776 75.7816 56.7380 0.0000 0.0000 0.0000
# 3 56.7380 56.7380 78.2941 0.0000 0.0000 0.0000
# 4 0.0000 0.0000 0.0000 22.6082 0.0000 0.0000
# 5 0.0000 0.0000 0.0000 0.0000 22.6083 0.0000
# 6 0.0000 0.0000 0.0000 0.0000 0.0000 15.5370
#
#
#
# Elastic Compliance Matrix: (Units=1/GPa)
#
#
# Indices 1 2 3 4 5 6 
#
# 1 0.031989 -0.010022 -0.015919 0.000000 0.000000 0.000000
# 2 -0.010022 0.031988 -0.015918 0.000000 0.000000 0.000000
# 3 -0.015919 -0.015918 0.035843 0.000000 0.000000 0.000000
# 4 0.000000 0.000000 0.000000 0.044232 0.000000 0.000000
# 5 0.000000 0.000000 0.000000 0.000000 0.044231 0.000000
# 6 0.000000 0.000000 0.000000 0.000000 0.000000 0.064363
#
#
# Mechanical properties :
#
#
# Convention : Reuss Voigt Hill
#
# Bulk Modulus (GPa) = 62.10220 62.30703 62.20461
# Shear Modulus (GPa) = 14.63138 16.44419 15.53779
#
# Velocity S-wave (km/s) = 3.13527 3.32383 3.23093
# Velocity P-wave (km/s) = 7.40468 7.52268 7.46391
#
# Compressibility (1/GPa) = 0.01610249
#
# Stress axis : x y z
#
# Youngs Moduli (GPa) = 31.26089 31.26192 27.89909
#
# Poissons Ratio (x) = 0.31332 0.44411
# Poissons Ratio (y) = 0.31331 0.44409
# Poissons Ratio (z) = 0.49763 0.49762
#
# Static dielectric constant tensor:
#      x y z
#    x 3.107240 0.000000 0.000000 
#    y 0.000000 3.107210 0.000000 
#    z 0.000000 0.000000 2.710690 
# 
# 
# High freq. dielectric constant tensor:
#      x y z
#    x 1.566010 0.000000 0.000000 
#    y 0.000000 1.566000 0.000000 
#    z 0.000000 0.000000 1.544060 
# 
# From -- ./inp_files/9520.got.cif
#   From: 2010.03.12/outbox.cif.g09.slc.cpg/sg119_5_cif.got.tgz:9520.got - 2010.04.14 02:25:26.
