data_PCOD8310985
_publ_section_title
;
Structure prediction by ZEFSAII (Michael W. Deem and Ramdas Pophale) SiO2 
 PCOD8310985
Probable space group: I -4 M 2
;
_chemical_formula_sum "Si O2"
_cell_formula_units_Z 112
_cell_length_a 13.997583
_cell_length_b 13.997583
_cell_length_c 26.961962
_cell_angle_alpha 90.000000
_cell_angle_beta 90.000000
_cell_angle_gamma 90.000000
_cell_volume 5282.720032
_symmetry_space_group_name_H-M "I -4 M 2"
_symmetry_group_IT_number 119
_symmetry_cell_setting 'tetragonal'
loop_
_space_group_symop_operation_xyz
x,y,z
y,-x,-z
-x,-y,z
-y,x,-z
y,x,-z
-y,-x,-z
-x,y,z
x,-y,z
1/2+x,1/2+y,1/2+z
1/2+y,1/2-x,1/2-z
1/2-x,1/2-y,1/2+z
1/2-y,1/2+x,1/2-z
1/2+y,1/2+x,1/2-z
1/2-y,1/2-x,1/2-z
1/2-x,1/2+y,1/2+z
1/2+x,1/2-y,1/2+z
loop_
_atom_site_type_symbol
_atom_site_label
_atom_site_fract_x
_atom_site_fract_y
_atom_site_fract_z
Si Si1 0.889492 0.724114 0.444972
Si Si2 0.606687 0.753516 0.487819
Si Si3 0.107241 0.106246 0.289429
Si Si4 0.892069 0.388111 0.344869
Si Si5 0.393776 0.194972 0.376714
Si Si6 0.108638 0.796657 0.612166
Si Si7 0.212510 0.804107 0.792491
O O1 0.838496 0.674654 0.491867
O O2 0.878950 0.650901 0.400041
O O3 0.836713 0.824292 0.431887
O O4 0.000000 0.744229 0.458635
O O5 0.650417 0.650417 0.500000
O O6 0.500000 0.763153 0.510485
O O7 0.600767 0.752703 0.428858
O O8 0.166144 0.152853 0.335341
O O9 0.110557 0.160631 0.237082
O O10 0.000000 0.104796 0.308995
O O11 0.147624 0.000000 0.280912
O O12 0.871341 0.500000 0.346563
O O13 0.817616 0.338029 0.308408
O O14 0.000000 0.366612 0.325558
O O15 0.500000 0.158011 0.361195
O O16 0.318611 0.108517 0.383348
O O17 0.354242 0.271369 0.337339
O O18 0.000000 0.832081 0.603297
O O19 0.221919 0.721919 0.750000
#
# Coordination Sequence:
#
# PCOD8310985 Si02
#       7
#    16  16  16  16  16  16  16
#     4  11  22  41  68  99 136 176 216 260 319 393
#     4  11  23  43  70  99 133 172 216 269 325 383
#     4  10  21  37  61  94 128 168 219 265 316 388
#     4  10  21  36  59  96 136 170 209 259 320 393
#     4  11  24  43  65  92 126 164 214 272 327 382
#     4  11  22  41  67  96 132 173 214 266 328 388
#     4  12  21  38  62  88 123 173 211 267 326 381
#
# _framework density 21.201198999999999
#
# number of rings (size 3 to 8) (size 9 to 14) (size 15 to 20)
#    0.000    1.143    4.286    1.714    0.000    5.000 
#    0.000    2.857    0.000    1.714    0.000    0.000 
#    0.000    0.000    0.000    0.000    0.000    0.000 
#
# Total GULP energy -694232.200031 kJ/mol
# GULP energy per Si atom -12397.003572 kJ/mol
# Density = 2.115294 g / cm^3
# Si number density = 21.201199 Si / 1000 Ang^3
#
#
#
# Elastic Constant Matrix: (Units=GPa)
#
#
# Indices 1 2 3 4 5 6 
#
# 1 135.6458 47.6942 45.5889 0.0000 0.0000 0.0000
# 2 47.6942 135.6458 45.5889 0.0000 0.0000 0.0000
# 3 45.5889 45.5889 96.3385 0.0000 0.0000 0.0000
# 4 0.0000 0.0000 0.0000 30.4605 0.0000 0.0000
# 5 0.0000 0.0000 0.0000 0.0000 30.4605 0.0000
# 6 0.0000 0.0000 0.0000 0.0000 0.0000 27.2768
#
#
#
# Elastic Compliance Matrix: (Units=1/GPa)
#
#
# Indices 1 2 3 4 5 6 
#
# 1 0.009251 -0.002118 -0.003375 0.000000 0.000000 0.000000
# 2 -0.002118 0.009251 -0.003375 0.000000 0.000000 0.000000
# 3 -0.003375 -0.003375 0.013575 0.000000 0.000000 0.000000
# 4 0.000000 0.000000 0.000000 0.032829 0.000000 0.000000
# 5 0.000000 0.000000 0.000000 0.000000 0.032829 0.000000
# 6 0.000000 0.000000 0.000000 0.000000 0.000000 0.036661
#
#
# Mechanical properties :
#
#
# Convention : Reuss Voigt Hill
#
# Bulk Modulus (GPa) = 69.74032 71.70824 70.72428
# Shear Modulus (GPa) = 31.86419 32.89010 32.37714
#
# Velocity S-wave (km/s) = 3.88099 3.94297 3.91210
# Velocity P-wave (km/s) = 7.28345 7.39091 7.33738
#
# Compressibility (1/GPa) = 0.01433891
#
# Stress axis : x y z
#
# Youngs Moduli (GPa) = 108.09112 108.09112 73.66637
#
# Poissons Ratio (x) = 0.22898 0.24866
# Poissons Ratio (y) = 0.22898 0.24866
# Poissons Ratio (z) = 0.36486 0.36486
#
# Static dielectric constant tensor:
#      x y z
#    x 3.971740 0.000000 0.000000 
#    y 0.000000 3.971740 0.000000 
#    z 0.000000 0.000000 3.799990 
# 
# 
# High freq. dielectric constant tensor:
#      x y z
#    x 1.830970 0.000000 0.000000 
#    y 0.000000 1.830970 0.000000 
#    z 0.000000 0.000000 1.834140 
# 
# From -- ./inp_files/8827.got.cif
#   From: 2010.03.12/outbox.cif.g09.slc.cpg/sg119_5_cif.got.tgz:8827.got - 2010.04.14 02:25:26.
