data_PCOD8310346
_publ_section_title
;
Structure prediction by ZEFSAII (Michael W. Deem and Ramdas Pophale) SiO2 
 PCOD8310346
Probable space group: P -4 B 2
;
_chemical_formula_sum "Si O2"
_cell_formula_units_Z 40
_cell_length_a 11.230736
_cell_length_b 11.230736
_cell_length_c 16.692229
_cell_angle_alpha 90.000000
_cell_angle_beta 90.000000
_cell_angle_gamma 90.000000
_cell_volume 2105.381348
_symmetry_space_group_name_H-M "P -4 B 2"
_symmetry_group_IT_number 117
_symmetry_cell_setting 'tetragonal'
loop_
_space_group_symop_operation_xyz
x,y,z
y,-x,-z
-x,-y,z
-y,x,-z
1/2+y,1/2+x,-z
1/2-y,1/2-x,-z
1/2-x,1/2+y,z
1/2+x,1/2-y,z
loop_
_atom_site_type_symbol
_atom_site_label
_atom_site_fract_x
_atom_site_fract_y
_atom_site_fract_z
Si Si1 0.905506 0.602593 0.698959
Si Si2 0.099917 0.399683 0.883215
Si Si3 0.961038 0.805280 0.000484
Si Si4 0.529762 0.306301 0.412183
Si Si5 0.687357 0.539758 0.410258
O O1 0.875072 0.628004 0.790883
O O2 0.785481 0.568231 0.654551
O O3 0.964842 0.717519 0.659891
O O4 0.000000 0.500000 0.689714
O O5 0.223891 0.444642 0.920952
O O6 0.000000 0.500000 0.896415
O O7 0.055353 0.276982 0.922554
O O8 0.092414 0.860963 0.000091
O O9 0.609536 0.422464 0.404176
O O10 0.545319 0.251905 0.501563
O O11 0.392941 0.342675 0.397645
#
# Coordination Sequence:
#
# PCOD8310346 Si02
#       5
#     8   8   8   8   8
#     4  11  24  38  56  90 122 153 192 236 292 349
#     4  10  24  40  60  88 125 153 181 237 296 340
#     4  10  22  41  67  91 110 148 197 234 280 351
#     4   9  20  39  60  83 115 157 202 246 289 333
#     4   9  20  39  60  83 115 157 202 246 289 333
#
# _framework density 18.998933999999998
#
# number of rings (size 3 to 8) (size 9 to 14) (size 15 to 20)
#    0.000    2.200    0.000    3.000    8.400    4.800 
#    0.000    4.000    0.000    0.000    0.000    0.000 
#    0.000    0.000    0.000    0.000    0.000    0.000 
#
# Total GULP energy -496019.642724 kJ/mol
# GULP energy per Si atom -12400.491068 kJ/mol
# Density = 1.895569 g / cm^3
# Si number density = 18.998934 Si / 1000 Ang^3
#
#
#
# Elastic Constant Matrix: (Units=GPa)
#
#
# Indices 1 2 3 4 5 6 
#
# 1 98.0356 42.0312 68.4196 0.0000 0.0000 0.0000
# 2 42.0312 98.0356 68.4196 0.0000 0.0000 0.0000
# 3 68.4196 68.4196 172.6723 0.0000 0.0000 0.0000
# 4 0.0000 0.0000 0.0000 119.9652 0.0000 0.0000
# 5 0.0000 0.0000 0.0000 0.0000 119.9652 0.0000
# 6 0.0000 0.0000 0.0000 0.0000 0.0000 24.3894
#
#
#
# Elastic Compliance Matrix: (Units=1/GPa)
#
#
# Indices 1 2 3 4 5 6 
#
# 1 0.014752 -0.003103 -0.004616 0.000000 0.000000 0.000000
# 2 -0.003103 0.014752 -0.004616 0.000000 0.000000 0.000000
# 3 -0.004616 -0.004616 0.009449 0.000000 0.000000 0.000000
# 4 0.000000 0.000000 0.000000 0.008336 0.000000 0.000000
# 5 0.000000 0.000000 0.000000 0.000000 0.008336 0.000000
# 6 0.000000 0.000000 0.000000 0.000000 0.000000 0.041001
#
#
# Mechanical properties :
#
#
# Convention : Reuss Voigt Hill
#
# Bulk Modulus (GPa) = 70.00880 80.72046 75.36463
# Shear Modulus (GPa) = 39.66434 65.52215 52.59325
#
# Velocity S-wave (km/s) = 4.57411 5.87896 5.26710
# Velocity P-wave (km/s) = 8.05142 9.41605 8.76035
#
# Compressibility (1/GPa) = 0.01428392
#
# Stress axis : x y z
#
# Youngs Moduli (GPa) = 67.78617 67.78617 105.82935
#
# Poissons Ratio (x) = 0.21037 0.48848
# Poissons Ratio (y) = 0.21037 0.48848
# Poissons Ratio (z) = 0.31288 0.31288
#
# Static dielectric constant tensor:
#      x y z
#    x 3.098060 0.000000 0.000000 
#    y 0.000000 3.098060 0.000000 
#    z 0.000000 0.000000 3.778030 
# 
# 
# High freq. dielectric constant tensor:
#      x y z
#    x 1.746360 0.000000 0.000000 
#    y 0.000000 1.746360 0.000000 
#    z 0.000000 0.000000 1.740910 
# 
# From -- ./inp_files/3119.got.cif
#   From: 2010.03.12/outbox.cif.g09.slc.cpg/sg117_2_cif.got.tgz:3119.got - 2010.04.14 02:19:01.
