data_PCOD8310819
_publ_section_title
;
Structure prediction by ZEFSAII (Michael W. Deem and Ramdas Pophale) SiO2 
 PCOD8310819
Probable space group: I -4 M 2
;
_chemical_formula_sum "Si O2"
_cell_formula_units_Z 112
_cell_length_a 15.256330
_cell_length_b 15.256330
_cell_length_c 23.668684
_cell_angle_alpha 90.000000
_cell_angle_beta 90.000000
_cell_angle_gamma 90.000000
_cell_volume 5509.018866
_symmetry_space_group_name_H-M "I -4 M 2"
_symmetry_group_IT_number 119
_symmetry_cell_setting 'tetragonal'
loop_
_space_group_symop_operation_xyz
x,y,z
y,-x,-z
-x,-y,z
-y,x,-z
y,x,-z
-y,-x,-z
-x,y,z
x,-y,z
1/2+x,1/2+y,1/2+z
1/2+y,1/2-x,1/2-z
1/2-x,1/2-y,1/2+z
1/2-y,1/2+x,1/2-z
1/2+y,1/2+x,1/2-z
1/2-y,1/2-x,1/2-z
1/2-x,1/2+y,1/2+z
1/2+x,1/2-y,1/2+z
loop_
_atom_site_type_symbol
_atom_site_label
_atom_site_fract_x
_atom_site_fract_y
_atom_site_fract_z
Si Si1 0.898991 0.322035 0.694342
Si Si2 0.248006 0.101963 0.507925
Si Si3 0.395819 0.099739 0.078426
Si Si4 0.310515 0.096237 0.634269
Si Si5 0.104446 0.902932 0.062197
Si Si6 0.099008 0.224102 0.154282
Si Si7 0.701136 0.660113 0.228318
O O1 0.875574 0.375574 0.750000
O O2 0.855759 0.365908 0.638425
O O3 0.874518 0.220219 0.701774
O O4 0.000000 0.326802 0.683595
O O5 0.162173 0.162173 0.500000
O O6 0.330706 0.133756 0.469725
O O7 0.275669 0.113593 0.572280
O O8 0.224104 0.000000 0.494510
O O9 0.500000 0.096243 0.080365
O O10 0.360935 0.000000 0.066002
O O11 0.372895 0.174660 0.653605
O O12 0.230469 0.094144 0.679016
O O13 0.356986 0.000000 0.637232
O O14 0.147755 0.835958 0.107426
O O15 0.000000 0.908209 0.066433
O O16 0.143466 0.000000 0.073588
O O17 0.131201 0.868800 0.000000
O O18 0.107975 0.175172 0.214912
O O19 0.000000 0.225746 0.135649
O O20 0.778151 0.721850 0.250000
#
# Coordination Sequence:
#
# PCOD8310819 Si02
#       7
#    16  16  16  16  16  16  16
#     4  10  19  32  53  80 111 147 184 224 274 337
#     4  10  21  37  59  85 114 150 192 243 302 362
#     4   9  18  33  54  82 116 152 191 238 291 348
#     4  10  21  37  56  76 103 142 185 235 294 351
#     4   8  15  30  52  79 114 153 188 225 274 336
#     4  10  20  34  55  82 110 145 190 239 292 347
#     4   9  19  35  52  73 105 141 178 225 279 337
#
# _framework density 20.330297999999999
#
# number of rings (size 3 to 8) (size 9 to 14) (size 15 to 20)
#    0.000    2.571    0.000    2.143    0.000    2.857 
#    0.000    1.429    0.000   12.429    0.000    0.000 
#    0.000    0.286    0.000    0.286    0.000    0.000 
#
# Total GULP energy -693793.926029 kJ/mol
# GULP energy per Si atom -12389.177251 kJ/mol
# Density = 2.028403 g / cm^3
# Si number density = 20.330298 Si / 1000 Ang^3
#
#
#
# Elastic Constant Matrix: (Units=GPa)
#
#
# Indices 1 2 3 4 5 6 
#
# 1 71.2770 28.2509 36.7448 0.0000 0.0000 0.0000
# 2 28.2509 71.2745 36.7434 0.0000 0.0000 0.0000
# 3 36.7448 36.7434 166.2702 0.0000 0.0000 0.0000
# 4 0.0000 0.0000 0.0000 27.0754 0.0000 0.0000
# 5 0.0000 0.0000 0.0000 0.0000 27.0759 0.0000
# 6 0.0000 0.0000 0.0000 0.0000 0.0000 19.9542
#
#
#
# Elastic Compliance Matrix: (Units=1/GPa)
#
#
# Indices 1 2 3 4 5 6 
#
# 1 0.017624 -0.005618 -0.002653 0.000000 0.000000 0.000000
# 2 -0.005618 0.017625 -0.002653 0.000000 0.000000 0.000000
# 3 -0.002653 -0.002653 0.007187 0.000000 0.000000 0.000000
# 4 0.000000 0.000000 0.000000 0.036934 0.000000 0.000000
# 5 0.000000 0.000000 0.000000 0.000000 0.036933 0.000000
# 6 0.000000 0.000000 0.000000 0.000000 0.000000 0.050115
#
#
# Mechanical properties :
#
#
# Convention : Reuss Voigt Hill
#
# Bulk Modulus (GPa) = 48.57425 56.92222 52.74824
# Shear Modulus (GPa) = 25.62400 28.62660 27.12530
#
# Velocity S-wave (km/s) = 3.55404 3.75650 3.65667
# Velocity P-wave (km/s) = 6.38639 6.84650 6.62045
#
# Compressibility (1/GPa) = 0.02058704
#
# Stress axis : x y z
#
# Youngs Moduli (GPa) = 56.73982 56.73817 139.13916
#
# Poissons Ratio (x) = 0.31874 0.36919
# Poissons Ratio (y) = 0.31875 0.36918
# Poissons Ratio (z) = 0.15055 0.15055
#
# Static dielectric constant tensor:
#      x y z
#    x 3.723970 0.000000 0.000000 
#    y 0.000000 3.724010 0.000000 
#    z 0.000000 0.000000 4.236570 
# 
# 
# High freq. dielectric constant tensor:
#      x y z
#    x 1.776450 0.000000 0.000000 
#    y 0.000000 1.776450 0.000000 
#    z 0.000000 0.000000 1.815890 
# 
# From -- ./inp_files/8842.got.cif
#   From: 2010.03.12/outbox.cif.g09.slc.cpg/sg119_5_cif.got.tgz:8842.got - 2010.04.14 02:25:26.
