data_PCOD8310043
_publ_section_title
;
Structure prediction by ZEFSAII (Michael W. Deem and Ramdas Pophale) SiO2 
 PCOD8310043
Probable space group: P -4 M 2
;
_chemical_formula_sum "Si O2"
_cell_formula_units_Z 40
_cell_length_a 13.914035
_cell_length_b 13.914035
_cell_length_c 12.716503
_cell_angle_alpha 90.000000
_cell_angle_beta 90.000000
_cell_angle_gamma 90.000000
_cell_volume 2461.919686
_symmetry_space_group_name_H-M "P -4 M 2"
_symmetry_group_IT_number 115
_symmetry_cell_setting 'tetragonal'
loop_
_space_group_symop_operation_xyz
x,y,z
y,-x,-z
-x,-y,z
-y,x,-z
y,x,-z
-y,-x,-z
-x,y,z
x,-y,z
loop_
_atom_site_type_symbol
_atom_site_label
_atom_site_fract_x
_atom_site_fract_y
_atom_site_fract_z
Si Si1 0.771126 0.612268 0.771361
Si Si2 0.890013 0.734540 0.621240
Si Si3 0.391825 0.238868 1.000000
Si Si4 0.109987 0.265461 0.378760
Si Si5 0.771126 0.387732 0.228639
O O1 0.748243 0.500000 0.752293
O O2 0.852055 0.645567 0.689728
O O3 0.815750 0.630705 0.889614
O O4 0.673038 0.673038 0.754501
O O5 0.877885 0.704966 0.500000
O O6 0.830949 0.830949 0.647917
O O7 0.000000 0.755998 0.649938
O O8 0.500000 0.272272 0.000000
O O9 0.338829 0.338829 0.000000
O O10 0.369295 0.184250 0.889614
O O11 0.147945 0.354433 0.310272
O O12 0.000000 0.244003 0.350062
O O13 0.748243 0.500000 0.247707
#
# Coordination Sequence:
#
# PCOD8310043 Si02
#       5
#     8   8   8   8   8
#     4   9  17  29  45  66  92 120 150 182 215 254
#     4   9  18  32  49  68  88 111 142 181 224 267
#     4   8  14  25  41  61  86 116 148 182 217 250
#     4   9  18  32  49  68  88 111 142 181 224 267
#     4   9  17  29  45  66  92 120 150 182 215 254
#
# _framework density 16.247482999999999
#
# number of rings (size 3 to 8) (size 9 to 14) (size 15 to 20)
#    0.000    3.200    0.000    0.000    0.000    2.600 
#    0.000    9.000    0.000    3.600    0.000    5.600 
#    0.000    8.000    0.000    0.000    0.000    0.000 
#
# Total GULP energy -495521.870746 kJ/mol
# GULP energy per Si atom -12388.046769 kJ/mol
# Density = 1.621050 g / cm^3
# Si number density = 16.247483 Si / 1000 Ang^3
#
#
#
# Elastic Constant Matrix: (Units=GPa)
#
#
# Indices 1 2 3 4 5 6 
#
# 1 88.8938 36.9441 56.5861 0.0000 0.0000 0.0000
# 2 36.9441 88.8938 56.5861 0.0000 0.0000 0.0000
# 3 56.5861 56.5861 100.9569 0.0000 0.0000 0.0000
# 4 0.0000 0.0000 0.0000 22.1632 0.0000 0.0000
# 5 0.0000 0.0000 0.0000 0.0000 22.1632 0.0000
# 6 0.0000 0.0000 0.0000 0.0000 0.0000 11.5876
#
#
#
# Elastic Compliance Matrix: (Units=1/GPa)
#
#
# Indices 1 2 3 4 5 6 
#
# 1 0.017637 -0.001613 -0.008982 0.000000 0.000000 0.000000
# 2 -0.001613 0.017637 -0.008982 0.000000 0.000000 0.000000
# 3 -0.008982 -0.008982 0.019974 0.000000 0.000000 0.000000
# 4 0.000000 0.000000 0.000000 0.045120 0.000000 0.000000
# 5 0.000000 0.000000 0.000000 0.000000 0.045120 0.000000
# 6 0.000000 0.000000 0.000000 0.000000 0.000000 0.086299
#
#
# Mechanical properties :
#
#
# Convention : Reuss Voigt Hill
#
# Bulk Modulus (GPa) = 62.12800 64.33082 63.22941
# Shear Modulus (GPa) = 18.09611 19.75803 18.92707
#
# Velocity S-wave (km/s) = 3.34095 3.49100 3.41680
# Velocity P-wave (km/s) = 7.29412 7.47862 7.38694
#
# Compressibility (1/GPa) = 0.01609580
#
# Stress axis : x y z
#
# Youngs Moduli (GPa) = 56.69940 56.69940 50.06621
#
# Poissons Ratio (x) = 0.09143 0.44967
# Poissons Ratio (y) = 0.09143 0.44967
# Poissons Ratio (z) = 0.50925 0.50925
#
# Static dielectric constant tensor:
#      x y z
#    x 2.920970 0.000000 0.000000 
#    y 0.000000 2.920970 0.000000 
#    z 0.000000 0.000000 3.545240 
# 
# 
# High freq. dielectric constant tensor:
#      x y z
#    x 1.607380 0.000000 0.000000 
#    y 0.000000 1.607380 0.000000 
#    z 0.000000 0.000000 1.642390 
# 
# From -- ./inp_files/3584.got.cif
#   From: 2010.03.12/outbox.cif.g09.slc.cpg/sg115_2_cif.got.tgz:3584.got - 2010.04.14 02:11:21.
