data_PCOD8310057
_publ_section_title
;
Structure prediction by ZEFSAII (Michael W. Deem and Ramdas Pophale) SiO2 
 PCOD8310057
Probable space group: P -4 M 2
;
_chemical_formula_sum "Si O2"
_cell_formula_units_Z 36
_cell_length_a 9.000000
_cell_length_b 9.000000
_cell_length_c 24.000000
_cell_angle_alpha 90.000000
_cell_angle_beta 90.000000
_cell_angle_gamma 90.000000
_cell_volume 1944.000000
_symmetry_space_group_name_H-M "P -4 M 2"
_symmetry_group_IT_number 115
_symmetry_cell_setting 'tetragonal'
loop_
_space_group_symop_operation_xyz
x,y,z
y,-x,-z
-x,-y,z
-y,x,-z
y,x,-z
-y,-x,-z
-x,y,z
x,-y,z
loop_
_atom_site_type_symbol
_atom_site_label
_atom_site_fract_x
_atom_site_fract_y
_atom_site_fract_z
Si Si1 0.676544 0.833634 0.325759
Si Si2 0.675529 0.324472 0.000000
Si Si3 0.326379 0.674990 0.786472
Si Si4 0.175139 0.824725 0.892511
Si Si5 0.176370 0.667452 0.551010
O O1 0.500000 0.838711 0.327607
O O2 0.730328 0.729961 0.274533
O O3 0.729027 0.774046 0.387234
O O4 0.738956 0.000000 0.315183
O O5 0.746934 0.253617 0.944885
O O6 0.500000 0.292053 0.999818
O O7 0.500000 0.712272 0.790990
O O8 0.296080 0.500000 0.793992
O O9 0.239955 0.761346 0.834889
O O10 0.000000 0.790976 0.894788
O O11 0.207266 0.000000 0.895508
O O12 0.235412 0.764589 0.500000
O O13 0.235904 0.500000 0.542870
O O14 0.000000 0.670895 0.549145
#
# Coordination Sequence:
#
# PCOD8310057 Si02
#       5
#     8   4   8   8   8
#     4   8  15  30  51  73 100 136 176 218 264 314
#     4  11  24  41  62  88 114 141 178 221 264 312
#     4  10  20  34  55  83 110 137 175 221 267 317
#     4  11  24  40  58  82 112 146 183 219 259 311
#     4   9  18  32  50  74 103 135 174 218 264 318
#
# _framework density 18.518519000000001
#
# number of rings (size 3 to 8) (size 9 to 14) (size 15 to 20)
#    0.000    2.333    0.000    4.000    0.000    9.333 
#    0.000    3.333    0.000    1.333    0.000    0.000 
#    0.000    0.000    0.000    0.000    0.000    0.000 
#
# Total GULP energy -446256.886372 kJ/mol
# GULP energy per Si atom -12396.024621 kJ/mol
# Density = 1.847637 g / cm^3
# Si number density = 18.518519 Si / 1000 Ang^3
#
#
#
# Elastic Constant Matrix: (Units=GPa)
#
#
# Indices 1 2 3 4 5 6 
#
# 1 94.0955 48.1624 69.8117 0.0000 0.0000 0.0000
# 2 48.1624 94.0948 69.8112 0.0000 0.0000 0.0000
# 3 69.8117 69.8112 214.5353 0.0000 0.0000 0.0000
# 4 0.0000 0.0000 0.0000 38.5705 0.0000 0.0000
# 5 0.0000 0.0000 0.0000 0.0000 38.5704 0.0000
# 6 0.0000 0.0000 0.0000 0.0000 0.0000 28.3029
#
#
#
# Elastic Compliance Matrix: (Units=1/GPa)
#
#
# Indices 1 2 3 4 5 6 
#
# 1 0.016049 -0.005721 -0.003361 0.000000 0.000000 0.000000
# 2 -0.005721 0.016050 -0.003361 0.000000 0.000000 0.000000
# 3 -0.003361 -0.003361 0.006849 0.000000 0.000000 0.000000
# 4 0.000000 0.000000 0.000000 0.025927 0.000000 0.000000
# 5 0.000000 0.000000 0.000000 0.000000 0.025927 0.000000
# 6 0.000000 0.000000 0.000000 0.000000 0.000000 0.035332
#
#
# Mechanical properties :
#
#
# Convention : Reuss Voigt Hill
#
# Bulk Modulus (GPa) = 71.11689 86.47736 78.79712
# Shear Modulus (GPa) = 32.11178 35.41813 33.76495
#
# Velocity S-wave (km/s) = 4.16869 4.37805 4.27465
# Velocity P-wave (km/s) = 7.85221 8.50621 8.18574
#
# Compressibility (1/GPa) = 0.01406136
#
# Stress axis : x y z
#
# Youngs Moduli (GPa) = 62.30729 62.30693 146.01680
#
# Poissons Ratio (x) = 0.35648 0.49074
# Poissons Ratio (y) = 0.35649 0.49074
# Poissons Ratio (z) = 0.20941 0.20940
#
# Static dielectric constant tensor:
#      x y z
#    x 3.424730 0.000000 0.000000 
#    y 0.000000 3.424710 0.000000 
#    z 0.000000 0.000000 3.948620 
# 
# 
# High freq. dielectric constant tensor:
#      x y z
#    x 1.712850 0.000000 0.000000 
#    y 0.000000 1.712850 0.000000 
#    z 0.000000 0.000000 1.758230 
# 
# From -- ./inp_files/5115.got.cif
#   From: 2010.03.12/outbox.ucp.g09.slc.cvg/sg115_3_cif.got.tgz:5115.got - 2010.05.04 20:22:28.
