data_PCOD8310316
_publ_section_title
;
Structure prediction by ZEFSAII (Michael W. Deem and Ramdas Pophale) SiO2 
 PCOD8310316
Probable space group: P -4 B 2
;
_chemical_formula_sum "Si O2"
_cell_formula_units_Z 20
_cell_length_a 10.027890
_cell_length_b 10.027890
_cell_length_c 8.899568
_cell_angle_alpha 90.000000
_cell_angle_beta 90.000000
_cell_angle_gamma 90.000000
_cell_volume 894.927902
_symmetry_space_group_name_H-M "P -4 B 2"
_symmetry_group_IT_number 117
_symmetry_cell_setting 'tetragonal'
loop_
_space_group_symop_operation_xyz
x,y,z
y,-x,-z
-x,-y,z
-y,x,-z
1/2+y,1/2+x,-z
1/2-y,1/2-x,-z
1/2-x,1/2+y,z
1/2+x,1/2-y,z
loop_
_atom_site_type_symbol
_atom_site_label
_atom_site_fract_x
_atom_site_fract_y
_atom_site_fract_z
Si Si1 0.854045 0.138694 0.739519
Si Si2 0.500000 0.500000 0.000000
Si Si3 0.062138 0.367919 0.670109
Si Si4 0.500000 0.500000 0.500000
O O1 0.698881 0.179579 0.751563
O O2 0.872524 0.027699 0.607902
O O3 0.950022 0.257084 0.687647
O O4 0.895579 0.082434 0.900682
O O5 0.099523 0.400478 0.500000
O O6 0.000000 0.500000 0.747288
#
# Coordination Sequence:
#
# PCOD8310316 Si02
#       4
#     8   2   8   2
#     4  11  24  46  68 105 144 194 245 305 372 442
#     4  10  28  46  72  98 152 206 236 298 380 450
#     4  11  26  42  75 111 142 187 252 316 374 437
#     4  10  20  38  72  90 140 190 240 306 352 426
#
# _framework density 22.348168999999999
#
# number of rings (size 3 to 8) (size 9 to 14) (size 15 to 20)
#    0.000    1.200    4.000    0.000   16.800    1.600 
#    0.000    2.000    0.000    0.000    0.000    0.000 
#    0.000    0.000    0.000    0.000    0.000    0.000 
#
# Total GULP energy -247937.832862 kJ/mol
# GULP energy per Si atom -12396.891643 kJ/mol
# Density = 2.229730 g / cm^3
# Si number density = 22.348169 Si / 1000 Ang^3
#
#
#
# Elastic Constant Matrix: (Units=GPa)
#
#
# Indices 1 2 3 4 5 6 
#
# 1 156.3646 70.1954 45.4088 0.0000 0.0000 0.0000
# 2 70.1954 156.3647 45.4089 0.0000 0.0000 0.0000
# 3 45.4088 45.4089 107.2603 0.0000 0.0000 0.0000
# 4 0.0000 0.0000 0.0000 20.1533 0.0000 0.0000
# 5 0.0000 0.0000 0.0000 0.0000 20.1532 0.0000
# 6 0.0000 0.0000 0.0000 0.0000 0.0000 50.6419
#
#
#
# Elastic Compliance Matrix: (Units=1/GPa)
#
#
# Indices 1 2 3 4 5 6 
#
# 1 0.008461 -0.003145 -0.002251 0.000000 0.000000 0.000000
# 2 -0.003145 0.008461 -0.002251 0.000000 0.000000 0.000000
# 3 -0.002251 -0.002251 0.011229 0.000000 0.000000 0.000000
# 4 0.000000 0.000000 0.000000 0.049620 0.000000 0.000000
# 5 0.000000 0.000000 0.000000 0.000000 0.049620 0.000000
# 6 0.000000 0.000000 0.000000 0.000000 0.000000 0.019746
#
#
# Mechanical properties :
#
#
# Convention : Reuss Voigt Hill
#
# Bulk Modulus (GPa) = 77.76967 82.44620 80.10794
# Shear Modulus (GPa) = 29.99161 35.45477 32.72319
#
# Velocity S-wave (km/s) = 3.66733 3.98738 3.83070
# Velocity P-wave (km/s) = 7.26685 7.62697 7.44909
#
# Compressibility (1/GPa) = 0.01285848
#
# Stress axis : x y z
#
# Youngs Moduli (GPa) = 118.19603 118.19604 89.05792
#
# Poissons Ratio (x) = 0.37167 0.20043
# Poissons Ratio (y) = 0.37167 0.20043
# Poissons Ratio (z) = 0.26600 0.26600
#
# Static dielectric constant tensor:
#      x y z
#    x 4.472830 0.000000 0.000000 
#    y 0.000000 4.472830 0.000000 
#    z 0.000000 0.000000 3.838240 
# 
# 
# High freq. dielectric constant tensor:
#      x y z
#    x 1.886080 0.000000 0.000000 
#    y 0.000000 1.886080 0.000000 
#    z 0.000000 0.000000 1.862320 
# 
# From -- ./inp_files/1169.got.cif
#   From: 2010.03.12/outbox.cif.g09.slc.cpg/sg117_1_cif.got.tgz:1169.got - 2010.04.14 02:19:01.
