data_PCOD8310892
_publ_section_title
;
Structure prediction by ZEFSAII (Michael W. Deem and Ramdas Pophale) SiO2 
 PCOD8310892
Probable space group: I -4 M 2
;
_chemical_formula_sum "Si O2"
_cell_formula_units_Z 80
_cell_length_a 14.433128
_cell_length_b 14.433128
_cell_length_c 21.558819
_cell_angle_alpha 90.000000
_cell_angle_beta 90.000000
_cell_angle_gamma 90.000000
_cell_volume 4491.029344
_symmetry_space_group_name_H-M "I -4 M 2"
_symmetry_group_IT_number 119
_symmetry_cell_setting 'tetragonal'
loop_
_space_group_symop_operation_xyz
x,y,z
y,-x,-z
-x,-y,z
-y,x,-z
y,x,-z
-y,-x,-z
-x,y,z
x,-y,z
1/2+x,1/2+y,1/2+z
1/2+y,1/2-x,1/2-z
1/2-x,1/2-y,1/2+z
1/2-y,1/2+x,1/2-z
1/2+y,1/2+x,1/2-z
1/2-y,1/2-x,1/2-z
1/2-x,1/2+y,1/2+z
1/2+x,1/2-y,1/2+z
loop_
_atom_site_type_symbol
_atom_site_label
_atom_site_fract_x
_atom_site_fract_y
_atom_site_fract_z
Si Si1 0.394433 0.393602 0.176014
Si Si2 0.783176 0.109116 0.446624
Si Si3 0.102049 0.281486 0.961795
Si Si4 0.253029 0.892715 0.776106
Si Si5 0.690125 0.394820 0.411997
O O1 0.500000 0.376461 0.195214
O O2 0.376722 0.500000 0.157336
O O3 0.365982 0.331877 0.117710
O O4 0.335886 0.363369 0.235709
O O5 0.836827 0.163174 0.500000
O O6 0.677820 0.144276 0.440202
O O7 0.785251 0.000000 0.460981
O O8 0.112210 0.180501 0.929355
O O9 0.000000 0.319385 0.944249
O O10 0.110448 0.270336 0.036125
O O11 0.342531 0.842531 0.750000
O O12 0.235276 0.865281 0.847096
O O13 0.274775 0.000000 0.769561
O O14 0.648303 0.500000 0.408722
#
# Coordination Sequence:
#
# PCOD8310892 Si02
#       5
#    16  16  16  16  16
#     4   9  19  35  54  78 103 129 169 220 266 306
#     4  11  21  35  56  78 105 138 175 216 264 316
#     4  10  20  35  54  78 110 139 172 216 262 314
#     4  10  20  33  52  75 106 141 174 213 257 309
#     4   9  18  34  54  77 105 138 179 218 255 305
#
# _framework density 17.813286999999999
#
# number of rings (size 3 to 8) (size 9 to 14) (size 15 to 20)
#    0.000    2.200    2.000    1.800    0.000    2.800 
#    0.000    4.000    0.000    3.600    0.000    0.000 
#    0.000    4.800    0.000    0.000    0.000    0.200 
#
# Total GULP energy -495969.091413 kJ/mol
# GULP energy per Si atom -12399.227285 kJ/mol
# Density = 1.777274 g / cm^3
# Si number density = 17.813287 Si / 1000 Ang^3
#
#
#
# Elastic Constant Matrix: (Units=GPa)
#
#
# Indices 1 2 3 4 5 6 
#
# 1 85.8622 50.4434 49.4337 0.0000 0.0000 0.0000
# 2 50.4434 85.8624 49.4330 0.0000 0.0000 0.0000
# 3 49.4337 49.4330 123.6042 0.0000 0.0000 0.0000
# 4 0.0000 0.0000 0.0000 21.6778 0.0000 0.0000
# 5 0.0000 0.0000 0.0000 0.0000 21.6778 0.0000
# 6 0.0000 0.0000 0.0000 0.0000 0.0000 27.2178
#
#
#
# Elastic Compliance Matrix: (Units=1/GPa)
#
#
# Indices 1 2 3 4 5 6 
#
# 1 0.019284 -0.008950 -0.004133 0.000000 0.000000 0.000000
# 2 -0.008950 0.019284 -0.004133 0.000000 0.000000 0.000000
# 3 -0.004133 -0.004133 0.011396 0.000000 0.000000 0.000000
# 4 0.000000 0.000000 0.000000 0.046130 0.000000 0.000000
# 5 0.000000 0.000000 0.000000 0.000000 0.046130 0.000000
# 6 0.000000 0.000000 0.000000 0.000000 0.000000 0.036741
#
#
# Mechanical properties :
#
#
# Convention : Reuss Voigt Hill
#
# Bulk Modulus (GPa) = 64.38043 65.99433 65.18738
# Shear Modulus (GPa) = 22.87558 23.84926 23.36242
#
# Velocity S-wave (km/s) = 3.58744 3.66299 3.62542
# Velocity P-wave (km/s) = 7.30616 7.41743 7.36200
#
# Compressibility (1/GPa) = 0.01553267
#
# Stress axis : x y z
#
# Youngs Moduli (GPa) = 51.85650 51.85712 87.74868
#
# Poissons Ratio (x) = 0.46410 0.36268
# Poissons Ratio (y) = 0.46410 0.36265
# Poissons Ratio (z) = 0.21433 0.21432
#
# Static dielectric constant tensor:
#      x y z
#    x 3.271120 0.000000 0.000000 
#    y 0.000000 3.271120 0.000000 
#    z 0.000000 0.000000 3.481350 
# 
# 
# High freq. dielectric constant tensor:
#      x y z
#    x 1.682110 0.000000 0.000000 
#    y 0.000000 1.682110 0.000000 
#    z 0.000000 0.000000 1.695470 
# 
# From -- ./inp_files/7531.got.cif
#   From: 2010.03.12/outbox.cif.g09.slc.cpg/sg119_4_cif.got.tgz:7531.got - 2010.04.14 02:25:26.
