data_PCOD8310950
_publ_section_title
;
Structure prediction by ZEFSAII (Michael W. Deem and Ramdas Pophale) SiO2 
 PCOD8310950
Probable space group: I -4 M 2
;
_chemical_formula_sum "Si O2"
_cell_formula_units_Z 50
_cell_length_a 11.297488
_cell_length_b 11.297488
_cell_length_c 19.401859
_cell_angle_alpha 90.000000
_cell_angle_beta 90.000000
_cell_angle_gamma 90.000000
_cell_volume 2476.322031
_symmetry_space_group_name_H-M "I -4 M 2"
_symmetry_group_IT_number 119
_symmetry_cell_setting 'tetragonal'
loop_
_space_group_symop_operation_xyz
x,y,z
y,-x,-z
-x,-y,z
-y,x,-z
y,x,-z
-y,-x,-z
-x,y,z
x,-y,z
1/2+x,1/2+y,1/2+z
1/2+y,1/2-x,1/2-z
1/2-x,1/2-y,1/2+z
1/2-y,1/2+x,1/2-z
1/2+y,1/2+x,1/2-z
1/2-y,1/2-x,1/2-z
1/2-x,1/2+y,1/2+z
1/2+x,1/2-y,1/2+z
loop_
_atom_site_type_symbol
_atom_site_label
_atom_site_fract_x
_atom_site_fract_y
_atom_site_fract_z
Si Si1 0.500000 0.500000 0.000000
Si Si2 0.747053 0.139503 0.064301
Si Si3 0.634037 0.727379 0.697744
Si Si4 0.866871 0.000000 0.288524
Si Si5 0.500000 0.750130 0.072155
O O1 0.500000 0.617824 0.044476
O O2 0.786653 0.219518 0.129243
O O3 0.612973 0.175939 0.046160
O O4 0.756486 0.000000 0.080764
O O5 0.831361 0.168640 0.000000
O O6 0.500000 0.745481 0.673129
O O7 0.666909 0.833092 0.750000
O O8 0.653846 0.610160 0.740359
O O9 0.764060 0.000000 0.345463
O O10 0.000000 0.000000 0.320282
#
# Coordination Sequence:
#
# PCOD8310950 Si02
#       5
#     2  16  16   8   8
#     4  12  24  44  72  96 128 188 218 260 348 412
#     4  12  26  44  67  98 134 174 219 275 334 399
#     4  11  23  41  67  97 130 171 217 266 326 393
#     4  10  20  37  67  94 123 164 213 262 317 385
#     4  12  23  42  71 100 130 168 225 277 328 394
#
# _framework density 20.191233
#
# number of rings (size 3 to 8) (size 9 to 14) (size 15 to 20)
#    0.000    0.640    7.200    1.440    0.000    1.920 
#    2.880    0.000    0.000    0.000    0.000    0.000 
#    0.000    0.000    0.000    0.000    0.000    0.000 
#
# Total GULP energy -310056.835435 kJ/mol
# GULP energy per Si atom -12402.273417 kJ/mol
# Density = 2.014528 g / cm^3
# Si number density = 20.191233 Si / 1000 Ang^3
#
#
#
# Elastic Constant Matrix: (Units=GPa)
#
#
# Indices 1 2 3 4 5 6 
#
# 1 97.4298 26.1567 30.2355 0.0000 0.0000 0.0000
# 2 26.1567 97.4282 30.2355 0.0000 0.0000 0.0000
# 3 30.2355 30.2355 89.5946 0.0000 0.0000 0.0000
# 4 0.0000 0.0000 0.0000 251.6601 0.0000 0.0000
# 5 0.0000 0.0000 0.0000 0.0000 250.8666 0.0000
# 6 0.0000 0.0000 0.0000 0.0000 0.0000 -241.3985
#
#
#
# Elastic Compliance Matrix: (Units=1/GPa)
#
#
# Indices 1 2 3 4 5 6 
#
# 1 0.011861 -0.002169 -0.003271 0.000000 0.000000 0.000000
# 2 -0.002169 0.011861 -0.003271 0.000000 0.000000 0.000000
# 3 -0.003271 -0.003271 0.013369 0.000000 0.000000 0.000000
# 4 0.000000 0.000000 0.000000 0.003974 0.000000 0.000000
# 5 0.000000 0.000000 0.000000 0.000000 0.003986 0.000000
# 6 0.000000 0.000000 0.000000 0.000000 0.000000 -0.004143
#
#
# Mechanical properties :
#
#
# Convention : Reuss Voigt Hill
#
# Bulk Modulus (GPa) = 50.83920 50.85644 50.84782
# Shear Modulus (GPa) = 77.05682 65.41397 71.23539
#
# Velocity S-wave (km/s) = 6.18436 5.69803 5.94617
# Velocity P-wave (km/s) = 8.73090 8.27841 8.50767
#
# Compressibility (1/GPa) = 0.01966986
#
# Stress axis : x y z
#
# Youngs Moduli (GPa) = 84.30839 84.30693 74.80024
#
# Poissons Ratio (x) = 0.18289 0.24465
# Poissons Ratio (y) = 0.18290 0.24465
# Poissons Ratio (z) = 0.27575 0.27575
#
# Static dielectric constant tensor:
#      x y z
#    x 3.580250 0.000000 0.000000 
#    y 0.000000 3.580250 0.000000 
#    z 0.000000 0.000000 3.655120 
# 
# 
# High freq. dielectric constant tensor:
#      x y z
#    x 1.790570 0.000000 0.000000 
#    y 0.000000 1.790570 0.000000 
#    z 0.000000 0.000000 1.794720 
# 
# From -- ./inp_files/7168.got.cif
#   From: 2010.03.12/outbox.cif.g09.slc.cpg/sg119_4_cif.got.tgz:7168.got - 2010.04.14 02:25:26.
