data_PCOD8310930
_publ_section_title
;
Structure prediction by ZEFSAII (Michael W. Deem and Ramdas Pophale) SiO2 
 PCOD8310930
Probable space group: I -4 M 2
;
_chemical_formula_sum "Si O2"
_cell_formula_units_Z 58
_cell_length_a 11.290804
_cell_length_b 11.290804
_cell_length_c 24.638214
_cell_angle_alpha 90.000000
_cell_angle_beta 90.000000
_cell_angle_gamma 90.000000
_cell_volume 3140.935079
_symmetry_space_group_name_H-M "I -4 M 2"
_symmetry_group_IT_number 119
_symmetry_cell_setting 'tetragonal'
loop_
_space_group_symop_operation_xyz
x,y,z
y,-x,-z
-x,-y,z
-y,x,-z
y,x,-z
-y,-x,-z
-x,y,z
x,-y,z
1/2+x,1/2+y,1/2+z
1/2+y,1/2-x,1/2-z
1/2-x,1/2-y,1/2+z
1/2-y,1/2+x,1/2-z
1/2+y,1/2+x,1/2-z
1/2-y,1/2-x,1/2-z
1/2-x,1/2+y,1/2+z
1/2+x,1/2-y,1/2+z
loop_
_atom_site_type_symbol
_atom_site_label
_atom_site_fract_x
_atom_site_fract_y
_atom_site_fract_z
Si Si1 0.135096 0.635096 0.750000
Si Si2 0.637183 0.799848 0.133497
Si Si3 0.256988 0.360566 0.054728
Si Si4 0.754566 0.000000 0.066817
Si Si5 0.363930 0.000000 0.956566
Si Si6 0.000000 0.000000 0.000000
O O1 0.155987 0.500000 0.732043
O O2 0.212757 0.669211 0.802667
O O3 0.500000 0.841506 0.127670
O O4 0.657569 0.672891 0.104956
O O5 0.730431 0.886161 0.104139
O O6 0.262041 0.500000 0.045046
O O7 0.122988 0.313210 0.067956
O O8 0.297469 0.297469 0.000000
O O9 0.885368 0.000000 0.039524
O O10 0.655103 0.000000 0.020864
O O11 0.500000 0.000000 0.943203
#
# Coordination Sequence:
#
# PCOD8310930 Si02
#       6
#     8  16  16   8   8   2
#     4   9  18  34  58  84 103 136 190 242 285 336
#     4  11  21  35  59  83 112 145 187 242 293 341
#     4  11  22  35  55  83 116 150 187 230 283 345
#     4  12  20  36  56  82 114 152 186 238 279 349
#     4  10  20  36  56  82 110 148 194 227 276 344
#     4  12  28  36  52  84 132 160 196 224 298 360
#
# _framework density 18.465838999999999
#
# number of rings (size 3 to 8) (size 9 to 14) (size 15 to 20)
#    0.000    1.241    4.138    3.724    0.000    1.931 
#    0.000    0.000    6.069    0.000    0.000    0.000 
#    0.000    0.000    0.000    0.000    0.000    0.000 
#
# Total GULP energy -359354.516973 kJ/mol
# GULP energy per Si atom -12391.535068 kJ/mol
# Density = 1.842381 g / cm^3
# Si number density = 18.465839 Si / 1000 Ang^3
#
#
#
# Elastic Constant Matrix: (Units=GPa)
#
#
# Indices 1 2 3 4 5 6 
#
# 1 77.7583 49.3333 44.3249 0.0000 0.0000 0.0000
# 2 49.3333 77.7583 44.3249 0.0000 0.0000 0.0000
# 3 44.3249 44.3249 125.9313 0.0000 0.0000 0.0000
# 4 0.0000 0.0000 0.0000 26.4778 0.0000 0.0000
# 5 0.0000 0.0000 0.0000 0.0000 26.4778 0.0000
# 6 0.0000 0.0000 0.0000 0.0000 0.0000 24.5723
#
#
#
# Elastic Compliance Matrix: (Units=1/GPa)
#
#
# Indices 1 2 3 4 5 6 
#
# 1 0.022805 -0.012376 -0.003671 0.000000 0.000000 0.000000
# 2 -0.012376 0.022805 -0.003671 0.000000 0.000000 0.000000
# 3 -0.003671 -0.003671 0.010525 0.000000 0.000000 0.000000
# 4 0.000000 0.000000 0.000000 0.037768 0.000000 0.000000
# 5 0.000000 0.000000 0.000000 0.000000 0.037768 0.000000
# 6 0.000000 0.000000 0.000000 0.000000 0.000000 0.040696
#
#
# Mechanical properties :
#
#
# Convention : Reuss Voigt Hill
#
# Bulk Modulus (GPa) = 59.88166 61.93488 60.90827
# Shear Modulus (GPa) = 23.00269 25.06990 24.03629
#
# Velocity S-wave (km/s) = 3.53326 3.68861 3.61177
# Velocity P-wave (km/s) = 7.01028 7.19404 7.10275
#
# Compressibility (1/GPa) = 0.01669960
#
# Stress axis : x y z
#
# Youngs Moduli (GPa) = 43.85098 43.85098 95.01350
#
# Poissons Ratio (x) = 0.54269 0.34876
# Poissons Ratio (y) = 0.54269 0.34876
# Poissons Ratio (z) = 0.16096 0.16096
#
# Static dielectric constant tensor:
#      x y z
#    x 3.569570 0.000000 0.000000 
#    y 0.000000 3.569570 0.000000 
#    z 0.000000 0.000000 3.321900 
# 
# 
# High freq. dielectric constant tensor:
#      x y z
#    x 1.711870 0.000000 0.000000 
#    y 0.000000 1.711870 0.000000 
#    z 0.000000 0.000000 1.698060 
# 
# From -- ./inp_files/8436.got.cif
#   From: 2010.03.12/outbox.cif.g09.slc.cpg/sg119_5_cif.got.tgz:8436.got - 2010.04.14 02:25:26.
