data_PCOD8310434
_publ_section_title
;
Structure prediction by ZEFSAII (Michael W. Deem and Ramdas Pophale) SiO2 
 PCOD8310434
Probable space group: P -4 N 2
;
_chemical_formula_sum "Si O2"
_cell_formula_units_Z 58
_cell_length_a 16.778173
_cell_length_b 16.778173
_cell_length_c 9.477517
_cell_angle_alpha 90.000000
_cell_angle_beta 90.000000
_cell_angle_gamma 90.000000
_cell_volume 2667.988224
_symmetry_space_group_name_H-M "P -4 N 2"
_symmetry_group_IT_number 118
_symmetry_cell_setting 'tetragonal'
loop_
_space_group_symop_operation_xyz
x,y,z
y,-x,-z
-x,-y,z
-y,x,-z
1/2+y,1/2+x,1/2-z
1/2-y,1/2-x,1/2-z
1/2-x,1/2+y,1/2+z
1/2+x,1/2-y,1/2+z
loop_
_atom_site_type_symbol
_atom_site_label
_atom_site_fract_x
_atom_site_fract_y
_atom_site_fract_z
Si Si1 0.869262 0.455928 0.868104
Si Si2 0.000000 0.000000 0.000000
Si Si3 0.392045 0.418005 0.309590
Si Si4 0.739076 0.638023 0.506057
Si Si5 0.815208 0.091135 0.547154
Si Si6 0.769860 0.306861 0.909869
Si Si7 0.207551 0.975818 0.252926
Si Si8 0.913354 0.630509 0.406736
O O1 0.937180 0.437180 0.750000
O O2 0.837507 0.373430 0.939234
O O3 0.796980 0.495709 0.782393
O O4 0.902336 0.513804 0.993694
O O5 0.077067 0.991276 0.902284
O O6 0.307708 0.390161 0.368816
O O7 0.375017 0.453630 0.154565
O O8 0.454090 0.344593 0.314192
O O9 0.724086 0.733086 0.519022
O O10 0.707444 0.598577 0.647847
O O11 0.830977 0.613126 0.486892
O O12 0.844103 0.182924 0.563046
O O13 0.832702 0.056972 0.394369
O O14 0.725444 0.077435 0.601721
O O15 0.775213 0.275213 0.750000
O O16 0.910728 0.589273 0.250000
#
# Coordination Sequence:
#
# PCOD8310434 Si02
#       8
#     8   2   8   8   8   8   8   8
#     4  10  21  40  69 105 135 174 226 296 359 417
#     4  12  28  36  62  96 136 192 226 268 344 428
#     4  12  21  43  60  92 139 180 226 273 343 408
#     4  11  21  40  70  97 132 183 237 279 335 423
#     4  10  20  37  67  96 136 172 223 284 339 411
#     4  10  17  36  69  98 128 178 225 278 344 409
#     4  11  24  38  65 104 135 179 233 281 346 419
#     4  10  20  39  70 109 126 179 236 288 353 419
#
# _framework density 21.739225999999999
#
# number of rings (size 3 to 8) (size 9 to 14) (size 15 to 20)
#    0.000    1.379    5.517    1.655    0.000    6.069 
#    0.000    2.759    0.000    5.793    3.586    0.000 
#    0.000    0.000    0.000    0.000    0.000    0.000 
#
# Total GULP energy -718917.283681 kJ/mol
# GULP energy per Si atom -12395.125581 kJ/mol
# Density = 2.168975 g / cm^3
# Si number density = 21.739226 Si / 1000 Ang^3
#
#
#
# Elastic Constant Matrix: (Units=GPa)
#
#
# Indices 1 2 3 4 5 6 
#
# 1 82.9380 27.8405 59.9613 0.0000 0.0000 0.0000
# 2 27.8405 82.9378 59.9613 0.0000 0.0000 0.0000
# 3 59.9613 59.9613 156.1997 0.0000 0.0000 0.0000
# 4 0.0000 0.0000 0.0000 43.0486 0.0000 0.0000
# 5 0.0000 0.0000 0.0000 0.0000 43.0486 0.0000
# 6 0.0000 0.0000 0.0000 0.0000 0.0000 24.8369
#
#
#
# Elastic Compliance Matrix: (Units=1/GPa)
#
#
# Indices 1 2 3 4 5 6 
#
# 1 0.016798 -0.001352 -0.005929 0.000000 0.000000 0.000000
# 2 -0.001352 0.016798 -0.005929 0.000000 0.000000 0.000000
# 3 -0.005929 -0.005929 0.010954 0.000000 0.000000 0.000000
# 4 0.000000 0.000000 0.000000 0.023230 0.000000 0.000000
# 5 0.000000 0.000000 0.000000 0.000000 0.023230 0.000000
# 6 0.000000 0.000000 0.000000 0.000000 0.000000 0.040263
#
#
# Mechanical properties :
#
#
# Convention : Reuss Voigt Hill
#
# Bulk Modulus (GPa) = 55.16117 68.62241 61.89179
# Shear Modulus (GPa) = 30.53712 33.80764 32.17238
#
# Velocity S-wave (km/s) = 3.75200 3.94781 3.85115
# Velocity P-wave (km/s) = 6.64824 7.23982 6.95033
#
# Compressibility (1/GPa) = 0.01812870
#
# Stress axis : x y z
#
# Youngs Moduli (GPa) = 59.53212 59.53194 91.28892
#
# Poissons Ratio (x) = 0.08049 0.54127
# Poissons Ratio (y) = 0.08049 0.54127
# Poissons Ratio (z) = 0.35298 0.35298
#
# Static dielectric constant tensor:
#      x y z
#    x 3.954510 0.000000 0.000000 
#    y 0.000000 3.954510 0.000000 
#    z 0.000000 0.000000 4.002860 
# 
# 
# High freq. dielectric constant tensor:
#      x y z
#    x 1.846240 0.000000 0.000000 
#    y 0.000000 1.846240 0.000000 
#    z 0.000000 0.000000 1.850420 
# 
# From -- ./inp_files/2224.got.cif
#   From: 2010.03.12/outbox.cif.g09.slc.cpg/sg118_2_cif.got.tgz:2224.got - 2010.04.14 02:21:17.
