data_PCOD8310938
_publ_section_title
;
Structure prediction by ZEFSAII (Michael W. Deem and Ramdas Pophale) SiO2 
 PCOD8310938
Probable space group: I -4 M 2
;
_chemical_formula_sum "Si O2"
_cell_formula_units_Z 58
_cell_length_a 11.686532
_cell_length_b 11.686532
_cell_length_c 20.388515
_cell_angle_alpha 90.000000
_cell_angle_beta 90.000000
_cell_angle_gamma 90.000000
_cell_volume 2784.562052
_symmetry_space_group_name_H-M "I -4 M 2"
_symmetry_group_IT_number 119
_symmetry_cell_setting 'tetragonal'
loop_
_space_group_symop_operation_xyz
x,y,z
y,-x,-z
-x,-y,z
-y,x,-z
y,x,-z
-y,-x,-z
-x,y,z
x,-y,z
1/2+x,1/2+y,1/2+z
1/2+y,1/2-x,1/2-z
1/2-x,1/2-y,1/2+z
1/2-y,1/2+x,1/2-z
1/2+y,1/2+x,1/2-z
1/2-y,1/2-x,1/2-z
1/2-x,1/2+y,1/2+z
1/2+x,1/2-y,1/2+z
loop_
_atom_site_type_symbol
_atom_site_label
_atom_site_fract_x
_atom_site_fract_y
_atom_site_fract_z
Si Si1 0.368894 0.209562 0.881582
Si Si2 0.500000 0.133167 0.418178
Si Si3 0.000000 0.000000 0.000000
Si Si4 0.369342 0.202136 0.179898
Si Si5 0.123395 0.876605 0.500000
Si Si6 0.753516 0.000000 0.941413
O O1 0.500000 0.176269 0.862307
O O2 0.312900 0.286822 0.824355
O O3 0.365740 0.278642 0.948128
O O4 0.287879 0.103203 0.895894
O O5 0.612472 0.166075 0.376835
O O6 0.500000 0.199186 0.486480
O O7 0.500000 0.000000 0.435443
O O8 0.000000 0.109583 0.048618
O O9 0.500000 0.241352 0.170863
O O10 0.357179 0.142822 0.250000
O O11 0.000000 0.866147 0.535786
#
# Coordination Sequence:
#
# PCOD8310938 Si02
#       6
#    16   8   2  16   8   8
#     4  11  23  39  62  91 130 173 216 265 328 411
#     4  10  20  36  68  98 132 178 218 280 348 410
#     4  12  24  36  64 100 140 168 212 268 344 410
#     4  11  22  40  65  94 130 172 229 287 338 400
#     4   9  17  32  57  91 124 156 204 261 317 368
#     4  12  24  42  64  98 138 170 212 274 344 423
#
# _framework density 20.829129999999999
#
# number of rings (size 3 to 8) (size 9 to 14) (size 15 to 20)
#    0.000    1.241    1.379    6.207    0.000    6.069 
#    2.483    0.000    0.000    0.000    0.000    0.000 
#    0.000    0.000    0.000    0.000    0.000    0.000 
#
# Total GULP energy -359533.092180 kJ/mol
# GULP energy per Si atom -12397.692834 kJ/mol
# Density = 2.078172 g / cm^3
# Si number density = 20.829130 Si / 1000 Ang^3
#
#
#
# Elastic Constant Matrix: (Units=GPa)
#
#
# Indices 1 2 3 4 5 6 
#
# 1 131.9054 67.2094 21.6261 0.0000 0.0000 0.0000
# 2 67.2094 131.9061 21.6261 0.0000 0.0000 0.0000
# 3 21.6261 21.6261 63.0947 0.0000 0.0000 0.0000
# 4 0.0000 0.0000 0.0000 24.2720 0.0000 0.0000
# 5 0.0000 0.0000 0.0000 0.0000 24.2752 0.0000
# 6 0.0000 0.0000 0.0000 0.0000 0.0000 34.6351
#
#
#
# Elastic Compliance Matrix: (Units=1/GPa)
#
#
# Indices 1 2 3 4 5 6 
#
# 1 0.010442 -0.005015 -0.001860 0.000000 0.000000 0.000000
# 2 -0.005015 0.010441 -0.001860 0.000000 0.000000 0.000000
# 3 -0.001860 -0.001860 0.017124 0.000000 0.000000 0.000000
# 4 0.000000 0.000000 0.000000 0.041200 0.000000 0.000000
# 5 0.000000 0.000000 0.000000 0.000000 0.041194 0.000000
# 6 0.000000 0.000000 0.000000 0.000000 0.000000 0.028872
#
#
# Mechanical properties :
#
#
# Convention : Reuss Voigt Hill
#
# Bulk Modulus (GPa) = 48.69233 60.86994 54.78114
# Shear Modulus (GPa) = 28.80359 31.06610 29.93485
#
# Velocity S-wave (km/s) = 3.72270 3.86615 3.79511
# Velocity P-wave (km/s) = 6.47347 7.01544 6.74990
#
# Compressibility (1/GPa) = 0.02053711
#
# Stress axis : x y z
#
# Youngs Moduli (GPa) = 95.77128 95.77177 58.39704
#
# Poissons Ratio (x) = 0.48032 0.10861
# Poissons Ratio (y) = 0.48032 0.10861
# Poissons Ratio (z) = 0.17812 0.17812
#
# Static dielectric constant tensor:
#      x y z
#    x 4.309100 0.000000 0.000000 
#    y 0.000000 4.309140 0.000000 
#    z 0.000000 0.000000 3.462560 
# 
# 
# High freq. dielectric constant tensor:
#      x y z
#    x 1.826550 0.000000 0.000000 
#    y 0.000000 1.826550 0.000000 
#    z 0.000000 0.000000 1.787200 
# 
# From -- ./inp_files/7419.got.cif
#   From: 2010.03.12/outbox.cif.g09.slc.cpg/sg119_4_cif.got.tgz:7419.got - 2010.04.14 02:25:26.
