data_PCOD8310833
_publ_section_title
;
Structure prediction by ZEFSAII (Michael W. Deem and Ramdas Pophale) SiO2 
 PCOD8310833
Probable space group: I -4 M 2
;
_chemical_formula_sum "Si O2"
_cell_formula_units_Z 120
_cell_length_a 14.802283
_cell_length_b 14.802283
_cell_length_c 30.069127
_cell_angle_alpha 90.000000
_cell_angle_beta 90.000000
_cell_angle_gamma 90.000000
_cell_volume 6588.373710
_symmetry_space_group_name_H-M "I -4 M 2"
_symmetry_group_IT_number 119
_symmetry_cell_setting 'tetragonal'
loop_
_space_group_symop_operation_xyz
x,y,z
y,-x,-z
-x,-y,z
-y,x,-z
y,x,-z
-y,-x,-z
-x,y,z
x,-y,z
1/2+x,1/2+y,1/2+z
1/2+y,1/2-x,1/2-z
1/2-x,1/2-y,1/2+z
1/2-y,1/2+x,1/2-z
1/2+y,1/2+x,1/2-z
1/2-y,1/2-x,1/2-z
1/2-x,1/2+y,1/2+z
1/2+x,1/2-y,1/2+z
loop_
_atom_site_type_symbol
_atom_site_label
_atom_site_fract_x
_atom_site_fract_y
_atom_site_fract_z
Si Si1 0.158270 0.216945 0.425120
Si Si2 0.601703 0.167039 0.059245
Si Si3 0.898995 0.779863 0.327699
Si Si4 0.601810 0.100952 0.153372
Si Si5 0.903140 0.903140 0.500000
Si Si6 0.898421 0.605884 0.037821
Si Si7 0.712482 0.746008 0.298602
Si Si8 0.600315 0.397505 0.256688
O O1 0.256712 0.175189 0.430372
O O2 0.113552 0.188175 0.378363
O O3 0.097768 0.177419 0.464677
O O4 0.159304 0.325982 0.431389
O O5 0.500000 0.208267 0.055157
O O6 0.605516 0.097085 0.099865
O O7 0.628421 0.116195 0.014103
O O8 0.813309 0.715786 0.315337
O O9 0.888752 0.862950 0.293638
O O10 0.000000 0.735644 0.322005
O O11 0.500000 0.130474 0.168582
O O12 0.677362 0.170756 0.169914
O O13 0.622584 0.000000 0.171168
O O14 0.000000 0.895215 0.524740
O O15 0.887119 0.500000 0.047370
O O16 0.000000 0.637366 0.050709
O O17 0.711261 0.788740 0.250000
O O18 0.654809 0.654768 0.295282
O O19 0.500000 0.357480 0.255309
O O20 0.601891 0.500000 0.272739
#
# Coordination Sequence:
#
# PCOD8310833 Si02
#       8
#    16  16  16  16   8  16  16  16
#     4  12  20  34  53  76 107 141 183 225 270 316
#     4  10  19  33  53  75 106 145 180 217 267 321
#     4  10  21  35  53  76 109 147 181 220 272 328
#     4  10  20  33  51  77 108 141 176 215 265 327
#     4  11  22  32  46  74 110 146 177 212 264 318
#     4  10  20  34  52  73 102 143 186 225 262 307
#     4  10  20  35  53  77 105 138 177 223 272 321
#     4   9  19  36  58  82 106 138 180 223 273 336
#
# _framework density 18.213903999999999
#
# number of rings (size 3 to 8) (size 9 to 14) (size 15 to 20)
#    0.000    1.800    2.667    2.400    0.000    5.333 
#    0.000    2.667    0.000    2.000    0.000    4.667 
#    0.000    8.533    0.000    0.000    0.000    0.133 
#
# Total GULP energy -743452.169881 kJ/mol
# GULP energy per Si atom -12390.869498 kJ/mol
# Density = 1.817245 g / cm^3
# Si number density = 18.213904 Si / 1000 Ang^3
#
#
#
# Elastic Constant Matrix: (Units=GPa)
#
#
# Indices 1 2 3 4 5 6 
#
# 1 114.4089 48.4019 33.7029 0.0000 0.0000 0.0000
# 2 48.4019 114.4088 33.7029 0.0000 0.0000 0.0000
# 3 33.7029 33.7029 70.7995 0.0000 0.0000 0.0000
# 4 0.0000 0.0000 0.0000 20.2234 0.0000 0.0000
# 5 0.0000 0.0000 0.0000 0.0000 20.2234 0.0000
# 6 0.0000 0.0000 0.0000 0.0000 0.0000 25.4378
#
#
#
# Elastic Compliance Matrix: (Units=1/GPa)
#
#
# Indices 1 2 3 4 5 6 
#
# 1 0.011400 -0.003750 -0.003642 0.000000 0.000000 0.000000
# 2 -0.003750 0.011400 -0.003642 0.000000 0.000000 0.000000
# 3 -0.003642 -0.003642 0.017591 0.000000 0.000000 0.000000
# 4 0.000000 0.000000 0.000000 0.049448 0.000000 0.000000
# 5 0.000000 0.000000 0.000000 0.000000 0.049448 0.000000
# 6 0.000000 0.000000 0.000000 0.000000 0.000000 0.039312
#
#
# Mechanical properties :
#
#
# Convention : Reuss Voigt Hill
#
# Bulk Modulus (GPa) = 54.57104 59.02584 56.79844
# Shear Modulus (GPa) = 24.18119 25.43091 24.80605
#
# Velocity S-wave (km/s) = 3.64761 3.74068 3.69444
# Velocity P-wave (km/s) = 6.91132 7.15082 7.03209
#
# Compressibility (1/GPa) = 0.01832474
#
# Stress axis : x y z
#
# Youngs Moduli (GPa) = 87.72068 87.72057 56.84611
#
# Poissons Ratio (x) = 0.32896 0.20701
# Poissons Ratio (y) = 0.32896 0.20701
# Poissons Ratio (z) = 0.31944 0.31944
#
# Static dielectric constant tensor:
#      x y z
#    x 3.416240 0.000000 0.000000 
#    y 0.000000 3.416230 0.000000 
#    z 0.000000 0.000000 3.392150 
# 
# 
# High freq. dielectric constant tensor:
#      x y z
#    x 1.694320 0.000000 0.000000 
#    y 0.000000 1.694320 0.000000 
#    z 0.000000 0.000000 1.700030 
# 
# From -- ./inp_files/10580.got.cif
#   From: 2010.03.12/outbox.cif.g09.slc.cpg/sg119_6_cif.got.tgz:10580.got - 2010.04.14 02:25:26.
