data_PCOD8310413
_publ_section_title
;
Structure prediction by ZEFSAII (Michael W. Deem and Ramdas Pophale) SiO2 
 PCOD8310413
Probable space group: P -4 B 2
;
_chemical_formula_sum "Si O2"
_cell_formula_units_Z 26
_cell_length_a 13.338582
_cell_length_b 13.338582
_cell_length_c 6.921014
_cell_angle_alpha 90.000000
_cell_angle_beta 90.000000
_cell_angle_gamma 90.000000
_cell_volume 1231.371375
_symmetry_space_group_name_H-M "P -4 B 2"
_symmetry_group_IT_number 117
_symmetry_cell_setting 'tetragonal'
loop_
_space_group_symop_operation_xyz
x,y,z
y,-x,-z
-x,-y,z
-y,x,-z
1/2+y,1/2+x,-z
1/2-y,1/2-x,-z
1/2-x,1/2+y,z
1/2+x,1/2-y,z
loop_
_atom_site_type_symbol
_atom_site_label
_atom_site_fract_x
_atom_site_fract_y
_atom_site_fract_z
Si Si1 0.248412 0.408251 0.405925
Si Si2 0.179564 0.047564 0.744315
Si Si3 0.500000 0.500000 0.000000
Si Si4 0.506235 0.155519 0.960456
O O1 0.165233 0.334768 0.500000
O O2 0.336553 0.343391 0.306504
O O3 0.299079 0.481098 0.558737
O O4 0.199708 0.487790 0.255763
O O5 0.271144 0.044535 0.888725
O O6 0.092625 0.991377 0.857700
O O7 0.441788 0.058213 0.000000
O O8 0.622321 0.122321 0.000000
#
# Coordination Sequence:
#
# PCOD8310413 Si02
#       4
#     8   8   2   8
#     4  12  27  46  73 111 145 191 250 303 369 444
#     4  12  26  45  72 105 146 193 241 307 363 440
#     4  12  24  46  72 100 154 192 248 302 376 424
#     4  11  26  49  73 104 144 188 241 306 369 435
#
# _framework density 21.11467
#
# number of rings (size 3 to 8) (size 9 to 14) (size 15 to 20)
#    0.000    0.308    6.154    1.846    4.308    1.231 
#    0.000    0.000    0.000    0.000    0.000    0.000 
#    0.000    0.000    0.000    0.000    0.000    0.000 
#
# Total GULP energy -322189.200485 kJ/mol
# GULP energy per Si atom -12391.892326 kJ/mol
# Density = 2.106661 g / cm^3
# Si number density = 21.114670 Si / 1000 Ang^3
#
#
#
# Elastic Constant Matrix: (Units=GPa)
#
#
# Indices 1 2 3 4 5 6 
#
# 1 111.9443 53.7884 68.6201 0.0000 0.0000 0.0000
# 2 53.7884 111.9467 68.6209 0.0000 0.0000 0.0000
# 3 68.6201 68.6209 166.0871 0.0000 0.0000 0.0000
# 4 0.0000 0.0000 0.0000 56.4863 0.0000 0.0000
# 5 0.0000 0.0000 0.0000 0.0000 56.4874 0.0000
# 6 0.0000 0.0000 0.0000 0.0000 0.0000 32.8744
#
#
#
# Elastic Compliance Matrix: (Units=1/GPa)
#
#
# Indices 1 2 3 4 5 6 
#
# 1 0.013183 -0.004012 -0.003789 0.000000 0.000000 0.000000
# 2 -0.004012 0.013183 -0.003789 0.000000 0.000000 0.000000
# 3 -0.003789 -0.003789 0.009152 0.000000 0.000000 0.000000
# 4 0.000000 0.000000 0.000000 0.017703 0.000000 0.000000
# 5 0.000000 0.000000 0.000000 0.000000 0.017703 0.000000
# 6 0.000000 0.000000 0.000000 0.000000 0.000000 0.030419
#
#
# Mechanical properties :
#
#
# Convention : Reuss Voigt Hill
#
# Bulk Modulus (GPa) = 81.05014 85.78186 83.41600
# Shear Modulus (GPa) = 38.86901 42.43287 40.65094
#
# Velocity S-wave (km/s) = 4.29517 4.48776 4.39252
# Velocity P-wave (km/s) = 7.94148 8.21999 8.08193
#
# Compressibility (1/GPa) = 0.01233804
#
# Stress axis : x y z
#
# Youngs Moduli (GPa) = 75.85318 75.85468 109.26383
#
# Poissons Ratio (x) = 0.30430 0.41404
# Poissons Ratio (y) = 0.30429 0.41404
# Poissons Ratio (z) = 0.28744 0.28744
#
# Static dielectric constant tensor:
#      x y z
#    x 3.865000 0.000000 0.000000 
#    y 0.000000 3.865010 0.000000 
#    z 0.000000 0.000000 4.623940 
# 
# 
# High freq. dielectric constant tensor:
#      x y z
#    x 1.839590 0.000000 0.000000 
#    y 0.000000 1.839590 0.000000 
#    z 0.000000 0.000000 1.846260 
# 
# From -- ./inp_files/291.got.cif
#   From: 2010.03.12/outbox.cif.g09.slc.cpg/sg117_1_cif.got.tgz:291.got - 2010.04.14 02:19:01.
