data_PCOD8310327
_publ_section_title
;
Structure prediction by ZEFSAII (Michael W. Deem and Ramdas Pophale) SiO2 
 PCOD8310327
Probable space group: P -4 B 2
;
_chemical_formula_sum "Si O2"
_cell_formula_units_Z 56
_cell_length_a 13.517577
_cell_length_b 13.517577
_cell_length_c 15.588356
_cell_angle_alpha 90.000000
_cell_angle_beta 90.000000
_cell_angle_gamma 90.000000
_cell_volume 2848.380603
_symmetry_space_group_name_H-M "P -4 B 2"
_symmetry_group_IT_number 117
_symmetry_cell_setting 'tetragonal'
loop_
_space_group_symop_operation_xyz
x,y,z
y,-x,-z
-x,-y,z
-y,x,-z
1/2+y,1/2+x,-z
1/2-y,1/2-x,-z
1/2-x,1/2+y,z
1/2+x,1/2-y,z
loop_
_atom_site_type_symbol
_atom_site_label
_atom_site_fract_x
_atom_site_fract_y
_atom_site_fract_z
Si Si1 0.736782 0.898391 0.046925
Si Si2 0.260278 0.903903 0.756991
Si Si3 0.259687 0.099902 0.244027
Si Si4 0.161535 0.495932 0.498299
Si Si5 0.901119 0.736604 0.044795
Si Si6 0.596027 0.758113 0.337754
Si Si7 0.092568 0.261231 0.666747
O O1 0.705727 0.899323 0.146139
O O2 0.828715 0.827638 0.030362
O O3 0.638850 0.861151 0.000000
O O4 0.769083 0.000211 0.003645
O O5 0.163707 0.838324 0.742545
O O6 0.291876 0.909600 0.855556
O O7 0.349219 0.860316 0.697255
O O8 0.231778 0.015872 0.733889
O O9 0.346028 0.143064 0.306840
O O10 0.232992 0.985291 0.259801
O O11 0.113564 0.386437 0.500000
O O12 0.230750 0.529717 0.576429
O O13 0.225787 0.484054 0.412663
O O14 0.076751 0.576751 0.500000
O O15 0.861994 0.638007 0.000000
O O16 0.672315 0.668390 0.350700
#
# Coordination Sequence:
#
# PCOD8310327 Si02
#       7
#     8   8   8   8   8   8   8
#     4  10  21  38  59  86 121 160 204 253 307 362
#     4  10  22  39  60  88 123 160 201 255 306 359
#     4  10  22  39  60  88 123 160 201 255 306 359
#     4  11  22  40  64  91 118 156 199 250 302 363
#     4  10  21  38  59  86 121 160 204 253 307 362
#     4  11  23  40  64  90 122 162 203 248 306 369
#     4  11  23  40  64  90 122 162 203 248 306 369
#
# _framework density 19.660295000000001
#
# number of rings (size 3 to 8) (size 9 to 14) (size 15 to 20)
#    0.000    1.571    2.857    1.714    0.000    6.857 
#    0.000    5.714    0.000    0.000    0.000    0.000 
#    0.000    0.000    0.000    0.000    0.000    0.000 
#
# Total GULP energy -694041.365937 kJ/mol
# GULP energy per Si atom -12393.595820 kJ/mol
# Density = 1.961555 g / cm^3
# Si number density = 19.660295 Si / 1000 Ang^3
#
#
#
# Elastic Constant Matrix: (Units=GPa)
#
#
# Indices 1 2 3 4 5 6 
#
# 1 98.4063 40.4044 54.6568 0.0000 0.0000 0.0000
# 2 40.4044 98.4065 54.6560 0.0000 0.0000 0.0000
# 3 54.6568 54.6560 97.7518 0.0000 0.0000 0.0000
# 4 0.0000 0.0000 0.0000 34.6890 0.0000 0.0000
# 5 0.0000 0.0000 0.0000 0.0000 34.6889 0.0000
# 6 0.0000 0.0000 0.0000 0.0000 0.0000 0.8132
#
#
#
# Elastic Compliance Matrix: (Units=1/GPa)
#
#
# Indices 1 2 3 4 5 6 
#
# 1 0.015056 -0.002185 -0.007197 0.000000 0.000000 0.000000
# 2 -0.002185 0.015056 -0.007197 0.000000 0.000000 0.000000
# 3 -0.007197 -0.007197 0.018278 0.000000 0.000000 0.000000
# 4 0.000000 0.000000 0.000000 0.028828 0.000000 0.000000
# 5 0.000000 0.000000 0.000000 0.000000 0.028828 0.000000
# 6 0.000000 0.000000 0.000000 0.000000 0.000000 1.229691
#
#
# Mechanical properties :
#
#
# Convention : Reuss Voigt Hill
#
# Bulk Modulus (GPa) = 65.64474 65.99989 65.82232
# Shear Modulus (GPa) = 3.63909 23.69471 13.66690
#
# Velocity S-wave (km/s) = 1.36198 3.47537 2.63943
# Velocity P-wave (km/s) = 5.99461 7.05318 6.54533
#
# Compressibility (1/GPa) = 0.01523351
#
# Stress axis : x y z
#
# Youngs Moduli (GPa) = 66.41730 66.41831 54.71015
#
# Poissons Ratio (x) = 0.14510 0.39376
# Poissons Ratio (y) = 0.14509 0.39374
# Poissons Ratio (z) = 0.47801 0.47800
#
# Static dielectric constant tensor:
#      x y z
#    x 3.520180 0.000000 0.000000 
#    y 0.000000 3.520180 0.000000 
#    z 0.000000 0.000000 3.804770 
# 
# 
# High freq. dielectric constant tensor:
#      x y z
#    x 1.761700 0.000000 0.000000 
#    y 0.000000 1.761700 0.000000 
#    z 0.000000 0.000000 1.782480 
# 
# From -- ./inp_files/3239.got.cif
#   From: 2010.03.12/outbox.cif.g09.slc.cpg/sg117_2_cif.got.tgz:3239.got - 2010.04.14 02:19:01.
