data_PCOD8310054
_publ_section_title
;
Structure prediction by ZEFSAII (Michael W. Deem and Ramdas Pophale) SiO2 
 PCOD8310054
Probable space group: P -4 M 2
;
_chemical_formula_sum "Si O2"
_cell_formula_units_Z 48
_cell_length_a 9.447935
_cell_length_b 9.447935
_cell_length_c 30.744779
_cell_angle_alpha 90.000000
_cell_angle_beta 90.000000
_cell_angle_gamma 90.000000
_cell_volume 2744.385835
_symmetry_space_group_name_H-M "P -4 M 2"
_symmetry_group_IT_number 115
_symmetry_cell_setting 'tetragonal'
loop_
_space_group_symop_operation_xyz
x,y,z
y,-x,-z
-x,-y,z
-y,x,-z
y,x,-z
-y,-x,-z
-x,y,z
x,-y,z
loop_
_atom_site_type_symbol
_atom_site_label
_atom_site_fract_x
_atom_site_fract_y
_atom_site_fract_z
Si Si1 0.335884 0.664117 0.000000
Si Si2 0.668304 0.660243 0.333492
Si Si3 0.836469 0.164024 0.166886
Si Si4 0.836379 0.665334 0.748844
Si Si5 0.836468 0.665383 0.584239
Si Si6 0.164009 0.664117 0.083428
Si Si7 0.836510 0.836510 0.500000
O O1 0.250230 0.718568 0.041770
O O2 0.500000 0.694338 0.009049
O O3 0.500000 0.661676 0.333534
O O4 0.727281 0.500000 0.333450
O O5 0.723427 0.742246 0.290910
O O6 0.723669 0.742045 0.376091
O O7 0.747178 0.214256 0.208328
O O8 0.782014 0.250728 0.125337
O O9 0.000000 0.196775 0.176706
O O10 0.810377 0.000000 0.156827
O O11 0.811261 0.500000 0.757012
O O12 0.000000 0.697272 0.737914
O O13 0.811575 0.500000 0.576235
O O14 0.786043 0.746379 0.541238
O O15 0.000000 0.697742 0.595194
O O16 0.194037 0.500000 0.092439
O O17 0.000000 0.694569 0.074237
O O18 0.000000 0.807772 0.489267
#
# Coordination Sequence:
#
# PCOD8310054 Si02
#       7
#     4   8   8   8   8   8   4
#     4   9  18  32  48  67  92 120 150 185 224 266
#     4   9  17  29  46  69  94 118 148 187 226 264
#     4   9  18  32  48  67  92 120 150 185 224 266
#     4   9  17  30  48  68  90 118 152 187 222 263
#     4   9  17  30  48  67  88 118 152 183 220 266
#     4   9  18  32  48  66  90 120 150 181 222 269
#     4   9  18  32  48  67  92 120 150 185 224 266
#
# _framework density 17.490252000000002
#
# number of rings (size 3 to 8) (size 9 to 14) (size 15 to 20)
#    0.000    3.000    0.000    0.500    0.000    4.667 
#    0.000    0.833    0.000    5.000    0.000    0.000 
#    0.000    0.000    0.000    0.000    0.000    0.000 
#
# Total GULP energy -595278.252820 kJ/mol
# GULP energy per Si atom -12401.630267 kJ/mol
# Density = 1.745044 g / cm^3
# Si number density = 17.490252 Si / 1000 Ang^3
#
#
#
# Elastic Constant Matrix: (Units=GPa)
#
#
# Indices 1 2 3 4 5 6 
#
# 1 64.0890 35.8857 78.4740 0.0000 0.0000 0.0000
# 2 35.8857 64.0886 78.4740 0.0000 0.0000 0.0000
# 3 78.4740 78.4740 200.2029 0.0000 0.0000 0.0000
# 4 0.0000 0.0000 0.0000 35.4708 0.0000 0.0000
# 5 0.0000 0.0000 0.0000 0.0000 35.4708 0.0000
# 6 0.0000 0.0000 0.0000 0.0000 0.0000 17.0676
#
#
#
# Elastic Compliance Matrix: (Units=1/GPa)
#
#
# Indices 1 2 3 4 5 6 
#
# 1 0.030730 -0.004726 -0.010193 0.000000 0.000000 0.000000
# 2 -0.004726 0.030731 -0.010193 0.000000 0.000000 0.000000
# 3 -0.010193 -0.010193 0.012986 0.000000 0.000000 0.000000
# 4 0.000000 0.000000 0.000000 0.028192 0.000000 0.000000
# 5 0.000000 0.000000 0.000000 0.000000 0.028192 0.000000
# 6 0.000000 0.000000 0.000000 0.000000 0.000000 0.058591
#
#
# Mechanical properties :
#
#
# Convention : Reuss Voigt Hill
#
# Bulk Modulus (GPa) = 41.28419 79.33866 60.31142
# Shear Modulus (GPa) = 20.18403 26.63829 23.41116
#
# Velocity S-wave (km/s) = 3.40077 3.90684 3.66256
# Velocity P-wave (km/s) = 6.25105 8.11242 7.24179
#
# Compressibility (1/GPa) = 0.02422235
#
# Stress axis : x y z
#
# Youngs Moduli (GPa) = 32.54103 32.54061 77.00815
#
# Poissons Ratio (x) = 0.15380 0.78493
# Poissons Ratio (y) = 0.15380 0.78495
# Poissons Ratio (z) = 0.33169 0.33169
#
# Static dielectric constant tensor:
#      x y z
#    x 3.161520 0.000000 0.000000 
#    y 0.000000 3.161530 0.000000 
#    z 0.000000 0.000000 3.399790 
# 
# 
# High freq. dielectric constant tensor:
#      x y z
#    x 1.662240 0.000000 0.000000 
#    y 0.000000 1.662240 0.000000 
#    z 0.000000 0.000000 1.684880 
# 
# From -- ./inp_files/6221.got.cif
#   From: 2010.03.12/outbox.cif.g09.slc.cpg/sg115_4_cif.got.tgz:6221.got - 2010.04.14 02:11:21.
