data_PCOD8310962
_publ_section_title
;
Structure prediction by ZEFSAII (Michael W. Deem and Ramdas Pophale) SiO2 
 PCOD8310962
Probable space group: I -4 M 2
;
_chemical_formula_sum "Si O2"
_cell_formula_units_Z 58
_cell_length_a 11.469526
_cell_length_b 11.469526
_cell_length_c 20.685734
_cell_angle_alpha 90.000000
_cell_angle_beta 90.000000
_cell_angle_gamma 90.000000
_cell_volume 2721.208859
_symmetry_space_group_name_H-M "I -4 M 2"
_symmetry_group_IT_number 119
_symmetry_cell_setting 'tetragonal'
loop_
_space_group_symop_operation_xyz
x,y,z
y,-x,-z
-x,-y,z
-y,x,-z
y,x,-z
-y,-x,-z
-x,y,z
x,-y,z
1/2+x,1/2+y,1/2+z
1/2+y,1/2-x,1/2-z
1/2-x,1/2-y,1/2+z
1/2-y,1/2+x,1/2-z
1/2+y,1/2+x,1/2-z
1/2-y,1/2-x,1/2-z
1/2-x,1/2+y,1/2+z
1/2+x,1/2-y,1/2+z
loop_
_atom_site_type_symbol
_atom_site_label
_atom_site_fract_x
_atom_site_fract_y
_atom_site_fract_z
Si Si1 0.500000 0.500000 0.000000
Si Si2 0.871698 0.369642 0.860121
Si Si3 0.853086 0.000000 0.726184
Si Si4 0.257005 0.757005 0.750000
Si Si5 0.229959 0.000000 0.580091
Si Si6 0.864972 0.315249 0.003972
O O1 0.500000 0.387315 0.957939
O O2 0.873489 0.500000 0.832828
O O3 0.780935 0.302122 0.816657
O O4 0.836046 0.375299 0.935351
O O5 0.000000 0.312040 0.853547
O O6 0.785608 0.109418 0.759172
O O7 0.809989 0.000000 0.653208
O O8 0.000000 0.000000 0.732681
O O9 0.304835 0.885871 0.562062
O O10 0.000000 0.309899 0.019937
O O11 0.815916 0.184085 0.000000
#
# Coordination Sequence:
#
# PCOD8310962 Si02
#       6
#     2  16   8   8   8  16
#     4  12  24  36  80 112 124 168 212 308 358 404
#     4  10  20  39  68  97 128 168 233 298 351 396
#     4  12  28  50  72 101 143 190 242 298 358 439
#     4  12  26  44  68  98 140 188 230 287 348 435
#     4  12  23  44  73 108 138 173 232 300 368 409
#     4  11  23  40  64  99 137 180 226 287 347 417
#
# _framework density 21.314056000000001
#
# number of rings (size 3 to 8) (size 9 to 14) (size 15 to 20)
#    0.000    0.828    3.448    4.552    0.000    1.655 
#   12.414    0.000    0.000    0.000    0.000    0.000 
#    0.000    0.000    0.000    0.000    0.000    0.000 
#
# Total GULP energy -359323.101147 kJ/mol
# GULP energy per Si atom -12390.451764 kJ/mol
# Density = 2.126554 g / cm^3
# Si number density = 21.314056 Si / 1000 Ang^3
#
#
#
# Elastic Constant Matrix: (Units=GPa)
#
#
# Indices 1 2 3 4 5 6 
#
# 1 138.6962 64.3254 24.1974 0.0000 0.0000 0.0000
# 2 64.3254 138.6982 24.1963 0.0000 0.0000 0.0000
# 3 24.1974 24.1963 58.4153 0.0000 0.0000 0.0000
# 4 0.0000 0.0000 0.0000 28.1060 0.0000 0.0000
# 5 0.0000 0.0000 0.0000 0.0000 28.1048 0.0000
# 6 0.0000 0.0000 0.0000 0.0000 0.0000 38.6487
#
#
#
# Elastic Compliance Matrix: (Units=1/GPa)
#
#
# Indices 1 2 3 4 5 6 
#
# 1 0.009456 -0.003990 -0.002264 0.000000 0.000000 0.000000
# 2 -0.003990 0.009455 -0.002264 0.000000 0.000000 0.000000
# 3 -0.002264 -0.002264 0.018994 0.000000 0.000000 0.000000
# 4 0.000000 0.000000 0.000000 0.035580 0.000000 0.000000
# 5 0.000000 0.000000 0.000000 0.000000 0.035581 0.000000
# 6 0.000000 0.000000 0.000000 0.000000 0.000000 0.025874
#
#
# Mechanical properties :
#
#
# Convention : Reuss Voigt Hill
#
# Bulk Modulus (GPa) = 47.91703 62.36089 55.13896
# Shear Modulus (GPa) = 31.45988 33.84460 32.65224
#
# Velocity S-wave (km/s) = 3.84606 3.98917 3.91827
# Velocity P-wave (km/s) = 6.50024 7.10912 6.81149
#
# Compressibility (1/GPa) = 0.02086941
#
# Stress axis : x y z
#
# Youngs Moduli (GPa) = 105.75664 105.75907 52.64759
#
# Poissons Ratio (x) = 0.42202 0.11919
# Poissons Ratio (y) = 0.42201 0.11917
# Poissons Ratio (z) = 0.23943 0.23940
#
# Static dielectric constant tensor:
#      x y z
#    x 4.168480 0.000000 0.000000 
#    y 0.000000 4.168470 0.000000 
#    z 0.000000 0.000000 3.853660 
# 
# 
# High freq. dielectric constant tensor:
#      x y z
#    x 1.840760 0.000000 0.000000 
#    y 0.000000 1.840760 0.000000 
#    z 0.000000 0.000000 1.833610 
# 
# From -- ./inp_files/7423.got.cif
#   From: 2010.03.12/outbox.cif.g09.slc.cpg/sg119_4_cif.got.tgz:7423.got - 2010.04.14 02:25:26.
