data_PCOD8310002
_publ_section_title
;
Structure prediction by ZEFSAII (Michael W. Deem and Ramdas Pophale) SiO2 
 PCOD8310002
Probable space group: P -4 M 2
;
_chemical_formula_sum "Si O2"
_cell_formula_units_Z 34
_cell_length_a 11.850214
_cell_length_b 11.850214
_cell_length_c 11.742697
_cell_angle_alpha 90.000000
_cell_angle_beta 90.000000
_cell_angle_gamma 90.000000
_cell_volume 1648.998427
_symmetry_space_group_name_H-M "P -4 M 2"
_symmetry_group_IT_number 115
_symmetry_cell_setting 'tetragonal'
loop_
_space_group_symop_operation_xyz
x,y,z
y,-x,-z
-x,-y,z
-y,x,-z
y,x,-z
-y,-x,-z
-x,y,z
x,-y,z
loop_
_atom_site_type_symbol
_atom_site_label
_atom_site_fract_x
_atom_site_fract_y
_atom_site_fract_z
Si Si1 0.000000 0.000000 0.843979
Si Si2 0.817643 0.633442 0.770946
Si Si3 0.748091 0.000000 0.810209
Si Si4 0.000000 0.249106 0.923718
Si Si5 0.632397 0.876831 0.478054
Si Si6 0.218470 0.632722 0.289259
O O1 0.881540 0.000000 0.773550
O O2 0.000000 0.886024 0.918035
O O3 0.829522 0.500000 0.788710
O O4 0.888772 0.697106 0.866983
O O5 0.856890 0.681560 0.647924
O O6 0.686385 0.671818 0.773087
O O7 0.686228 0.891524 0.763931
O O8 0.725115 0.000000 0.944328
O O9 0.500000 0.877341 0.460244
O O10 0.662328 0.784242 0.574667
O O11 0.674411 0.000000 0.521053
O O12 0.221514 0.500000 0.267263
#
# Coordination Sequence:
#
# PCOD8310002 Si02
#       6
#     2   8   4   4   8   8
#     4  12  25  44  68  93 122 157 196 252 317 374
#     4  11  23  39  62  90 124 165 207 251 301 363
#     4  12  24  41  65  92 122 157 201 253 312 372
#     4  12  24  41  65  92 122 157 201 253 312 372
#     4   9  17  34  59  87 119 157 200 247 302 356
#     4  11  23  39  62  90 124 165 207 251 301 363
#
# _framework density 20.618575
#
# number of rings (size 3 to 8) (size 9 to 14) (size 15 to 20)
#    0.000    1.176    4.706    2.471    0.000    2.353 
#    0.000    0.000    0.000    5.647    0.000    3.294 
#    0.000    0.000    0.000    0.000    0.000    0.000 
#
# Total GULP energy -421277.177726 kJ/mol
# GULP energy per Si atom -12390.505227 kJ/mol
# Density = 2.057165 g / cm^3
# Si number density = 20.618575 Si / 1000 Ang^3
#
#
#
# Elastic Constant Matrix: (Units=GPa)
#
#
# Indices 1 2 3 4 5 6 
#
# 1 108.6838 34.9119 43.6270 0.0000 0.0000 0.0000
# 2 34.9119 108.6838 43.6270 0.0000 0.0000 0.0000
# 3 43.6270 43.6270 95.6467 0.0000 0.0000 0.0000
# 4 0.0000 0.0000 0.0000 15.2427 0.0000 0.0000
# 5 0.0000 0.0000 0.0000 0.0000 15.2427 0.0000
# 6 0.0000 0.0000 0.0000 0.0000 0.0000 -21.7782
#
#
#
# Elastic Compliance Matrix: (Units=1/GPa)
#
#
# Indices 1 2 3 4 5 6 
#
# 1 0.011595 -0.001961 -0.004394 0.000000 0.000000 0.000000
# 2 -0.001961 0.011595 -0.004394 0.000000 0.000000 0.000000
# 3 -0.004394 -0.004394 0.014464 0.000000 0.000000 0.000000
# 4 0.000000 0.000000 0.000000 0.065605 0.000000 0.000000
# 5 0.000000 0.000000 0.000000 0.000000 0.065605 0.000000
# 6 0.000000 0.000000 0.000000 0.000000 0.000000 -0.045918
#
#
# Mechanical properties :
#
#
# Convention : Reuss Voigt Hill
#
# Bulk Modulus (GPa) = 61.90145 61.92733 61.91439
# Shear Modulus (GPa) = 33.37108 14.46466 23.91787
#
# Velocity S-wave (km/s) = 4.02742 2.65153 3.40960
# Velocity P-wave (km/s) = 7.19125 6.28284 6.75234
#
# Compressibility (1/GPa) = 0.01615471
#
# Stress axis : x y z
#
# Youngs Moduli (GPa) = 86.24599 86.24599 69.13744
#
# Poissons Ratio (x) = 0.16909 0.30382
# Poissons Ratio (y) = 0.16909 0.30382
# Poissons Ratio (z) = 0.37900 0.37900
#
# Static dielectric constant tensor:
#      x y z
#    x 3.907830 0.000000 0.000000 
#    y 0.000000 3.907830 0.000000 
#    z 0.000000 0.000000 3.794480 
# 
# 
# High freq. dielectric constant tensor:
#      x y z
#    x 1.805820 0.000000 0.000000 
#    y 0.000000 1.805820 0.000000 
#    z 0.000000 0.000000 1.803900 
# 
# From -- ./inp_files/2672.got.cif
#   From: 2010.03.12/outbox.cif.g09.slc.cpg/sg115_2_cif.got.tgz:2672.got - 2010.04.14 02:11:21.
