data_PCOD8310896
_publ_section_title
;
Structure prediction by ZEFSAII (Michael W. Deem and Ramdas Pophale) SiO2 
 PCOD8310896
Probable space group: I -4 M 2
;
_chemical_formula_sum "Si O2"
_cell_formula_units_Z 112
_cell_length_a 13.833993
_cell_length_b 13.833993
_cell_length_c 31.376741
_cell_angle_alpha 90.000000
_cell_angle_beta 90.000000
_cell_angle_gamma 90.000000
_cell_volume 6004.860684
_symmetry_space_group_name_H-M "I -4 M 2"
_symmetry_group_IT_number 119
_symmetry_cell_setting 'tetragonal'
loop_
_space_group_symop_operation_xyz
x,y,z
y,-x,-z
-x,-y,z
-y,x,-z
y,x,-z
-y,-x,-z
-x,y,z
x,-y,z
1/2+x,1/2+y,1/2+z
1/2+y,1/2-x,1/2-z
1/2-x,1/2-y,1/2+z
1/2-y,1/2+x,1/2-z
1/2+y,1/2+x,1/2-z
1/2-y,1/2-x,1/2-z
1/2-x,1/2+y,1/2+z
1/2+x,1/2-y,1/2+z
loop_
_atom_site_type_symbol
_atom_site_label
_atom_site_fract_x
_atom_site_fract_y
_atom_site_fract_z
Si Si1 0.891179 0.109141 0.258683
Si Si2 0.612350 0.716265 0.326909
Si Si3 0.387303 0.256152 0.525690
Si Si4 0.389065 0.716963 0.844615
Si Si5 0.389378 0.110210 0.044413
Si Si6 0.386491 0.766550 0.622171
Si Si7 0.387616 0.212348 0.130293
O O1 0.813594 0.129758 0.221922
O O2 0.877083 0.189792 0.294923
O O3 0.000000 0.117100 0.239962
O O4 0.875093 0.000000 0.277062
O O5 0.500000 0.717892 0.338883
O O6 0.663175 0.636446 0.356816
O O7 0.658789 0.822592 0.333899
O O8 0.347632 0.347632 0.500000
O O9 0.500000 0.272546 0.528485
O O10 0.356202 0.162933 0.498479
O O11 0.348797 0.240614 0.573512
O O12 0.500000 0.709641 0.859438
O O13 0.349575 0.825340 0.853262
O O14 0.326081 0.638050 0.870583
O O15 0.500000 0.126035 0.034005
O O16 0.356204 0.173078 0.084393
O O17 0.364517 0.000000 0.056040
O O18 0.500000 0.791938 0.625766
O O19 0.500000 0.193046 0.140444
#
# Coordination Sequence:
#
# PCOD8310896 Si02
#       7
#    16  16  16  16  16  16  16
#     4   9  18  34  57  82 106 138 182 223 261 318
#     4  10  20  35  56  80 109 144 175 210 264 325
#     4  10  20  34  51  74 107 143 177 213 255 309
#     4  10  21  37  56  76 102 140 181 222 268 316
#     4   9  18  34  55  76 101 137 175 209 253 311
#     4  10  22  36  53  82 112 138 177 227 273 316
#     4  10  20  33  53  83 112 137 173 220 265 313
#
# _framework density 18.651555999999999
#
# number of rings (size 3 to 8) (size 9 to 14) (size 15 to 20)
#    0.000    2.286    0.000    3.000    0.000    7.571 
#    0.000    2.857    0.000    0.857    0.000   10.000 
#    0.000    8.000    0.000    0.000    0.000    0.000 
#
# Total GULP energy -694210.922644 kJ/mol
# GULP energy per Si atom -12396.623619 kJ/mol
# Density = 1.860910 g / cm^3
# Si number density = 18.651556 Si / 1000 Ang^3
#
#
#
# Elastic Constant Matrix: (Units=GPa)
#
#
# Indices 1 2 3 4 5 6 
#
# 1 106.9698 42.8943 56.8818 0.0000 0.0000 0.0000
# 2 42.8943 106.9698 56.8818 0.0000 0.0000 0.0000
# 3 56.8818 56.8818 113.3942 0.0000 0.0000 0.0000
# 4 0.0000 0.0000 0.0000 30.5890 0.0000 0.0000
# 5 0.0000 0.0000 0.0000 0.0000 30.5890 0.0000
# 6 0.0000 0.0000 0.0000 0.0000 0.0000 27.0038
#
#
#
# Elastic Compliance Matrix: (Units=1/GPa)
#
#
# Indices 1 2 3 4 5 6 
#
# 1 0.013191 -0.002415 -0.005406 0.000000 0.000000 0.000000
# 2 -0.002415 0.013191 -0.005406 0.000000 0.000000 0.000000
# 3 -0.005406 -0.005406 0.014242 0.000000 0.000000 0.000000
# 4 0.000000 0.000000 0.000000 0.032692 0.000000 0.000000
# 5 0.000000 0.000000 0.000000 0.000000 0.032692 0.000000
# 6 0.000000 0.000000 0.000000 0.000000 0.000000 0.037032
#
#
# Mechanical properties :
#
#
# Convention : Reuss Voigt Hill
#
# Bulk Modulus (GPa) = 70.56242 71.18329 70.87285
# Shear Modulus (GPa) = 28.69989 29.01474 28.85732
#
# Velocity S-wave (km/s) = 3.92693 3.94841 3.93769
# Velocity P-wave (km/s) = 7.64690 7.68338 7.66516
#
# Compressibility (1/GPa) = 0.01417185
#
# Stress axis : x y z
#
# Youngs Moduli (GPa) = 75.80697 75.80697 70.21453
#
# Poissons Ratio (x) = 0.18309 0.37956
# Poissons Ratio (y) = 0.18309 0.37956
# Poissons Ratio (z) = 0.40979 0.40979
#
# Static dielectric constant tensor:
#      x y z
#    x 3.508520 0.000000 0.000000 
#    y 0.000000 3.508520 0.000000 
#    z 0.000000 0.000000 3.540000 
# 
# 
# High freq. dielectric constant tensor:
#      x y z
#    x 1.724050 0.000000 0.000000 
#    y 0.000000 1.724050 0.000000 
#    z 0.000000 0.000000 1.722080 
# 
# From -- ./inp_files/9621.got.cif
#   From: 2010.03.12/outbox.cif.g09.slc.cpg/sg119_5_cif.got.tgz:9621.got - 2010.04.14 02:25:26.
