data_PCOD8310921
_publ_section_title
;
Structure prediction by ZEFSAII (Michael W. Deem and Ramdas Pophale) SiO2 
 PCOD8310921
Probable space group: I -4 M 2
;
_chemical_formula_sum "Si O2"
_cell_formula_units_Z 112
_cell_length_a 14.519429
_cell_length_b 14.519429
_cell_length_c 27.220227
_cell_angle_alpha 90.000000
_cell_angle_beta 90.000000
_cell_angle_gamma 90.000000
_cell_volume 5738.399994
_symmetry_space_group_name_H-M "I -4 M 2"
_symmetry_group_IT_number 119
_symmetry_cell_setting 'tetragonal'
loop_
_space_group_symop_operation_xyz
x,y,z
y,-x,-z
-x,-y,z
-y,x,-z
y,x,-z
-y,-x,-z
-x,y,z
x,-y,z
1/2+x,1/2+y,1/2+z
1/2+y,1/2-x,1/2-z
1/2-x,1/2-y,1/2+z
1/2-y,1/2+x,1/2-z
1/2+y,1/2+x,1/2-z
1/2-y,1/2-x,1/2-z
1/2-x,1/2+y,1/2+z
1/2+x,1/2-y,1/2+z
loop_
_atom_site_type_symbol
_atom_site_label
_atom_site_fract_x
_atom_site_fract_y
_atom_site_fract_z
Si Si1 0.392010 0.758080 0.776429
Si Si2 0.261894 0.894569 0.051676
Si Si3 0.357265 0.397132 0.055816
Si Si4 0.822953 0.600960 0.113906
Si Si5 0.600817 0.263764 0.560643
Si Si6 0.757470 0.611110 0.777135
Si Si7 0.400284 0.776820 0.112071
O O1 0.500000 0.748544 0.761276
O O2 0.347338 0.847338 0.750000
O O3 0.382389 0.772314 0.834676
O O4 0.336296 0.664980 0.760465
O O5 0.169039 0.847354 0.071308
O O6 0.344475 0.843208 0.077314
O O7 0.259229 0.000000 0.068459
O O8 0.276853 0.883104 0.993665
O O9 0.398092 0.500000 0.063430
O O10 0.250364 0.394455 0.069857
O O11 0.410557 0.326053 0.090371
O O12 0.366034 0.366034 0.000000
O O13 0.871584 0.500000 0.114125
O O14 0.893528 0.682532 0.101311
O O15 0.500000 0.307609 0.564554
O O16 0.748197 0.500000 0.768561
O O17 0.847475 0.652526 0.750000
O O18 0.772061 0.639818 0.833471
O O19 0.500000 0.822441 0.114825
#
# Coordination Sequence:
#
# PCOD8310921 Si02
#       7
#    16  16  16  16  16  16  16
#     4  10  21  39  62  88 118 153 195 243 293 349
#     4  10  21  37  55  77 108 145 191 246 295 343
#     4  11  21  34  54  86 127 162 190 223 270 336
#     4  10  20  36  58  84 119 158 190 228 282 347
#     4  10  20  35  56  79 108 148 192 238 292 349
#     4  10  22  40  62  87 115 151 196 246 297 351
#     4  11  22  37  59  85 115 154 193 230 284 350
#
# _framework density 19.517634000000001
#
# number of rings (size 3 to 8) (size 9 to 14) (size 15 to 20)
#    0.000    1.714    2.857    1.286    0.000    5.286 
#    0.000    7.143    0.000    0.000    0.000    4.000 
#    0.000    0.000    0.000    0.000    0.000    0.000 
#
# Total GULP energy -694115.219006 kJ/mol
# GULP energy per Si atom -12394.914625 kJ/mol
# Density = 1.947321 g / cm^3
# Si number density = 19.517634 Si / 1000 Ang^3
#
#
#
# Elastic Constant Matrix: (Units=GPa)
#
#
# Indices 1 2 3 4 5 6 
#
# 1 106.2685 62.8653 33.8855 0.0000 0.0000 0.0000
# 2 62.8653 106.2694 33.8871 0.0000 0.0000 0.0000
# 3 33.8855 33.8871 75.3586 0.0000 0.0000 0.0000
# 4 0.0000 0.0000 0.0000 16.7268 0.0000 0.0000
# 5 0.0000 0.0000 0.0000 0.0000 16.7265 0.0000
# 6 0.0000 0.0000 0.0000 0.0000 0.0000 -8.4110
#
#
#
# Elastic Compliance Matrix: (Units=1/GPa)
#
#
# Indices 1 2 3 4 5 6 
#
# 1 0.015126 -0.007914 -0.003243 0.000000 0.000000 0.000000
# 2 -0.007914 0.015126 -0.003243 0.000000 0.000000 0.000000
# 3 -0.003243 -0.003243 0.016186 0.000000 0.000000 0.000000
# 4 0.000000 0.000000 0.000000 0.059784 0.000000 0.000000
# 5 0.000000 0.000000 0.000000 0.000000 0.059785 0.000000
# 6 0.000000 0.000000 0.000000 0.000000 0.000000 -0.118891
#
#
# Mechanical properties :
#
#
# Convention : Reuss Voigt Hill
#
# Bulk Modulus (GPa) = 56.69452 61.01913 58.85683
# Shear Modulus (GPa) = 61.12825 15.49235 38.31030
#
# Velocity S-wave (km/s) = 5.60245 2.82043 4.43522
# Velocity P-wave (km/s) = 8.42383 6.47595 7.51328
#
# Compressibility (1/GPa) = 0.01763839
#
# Stress axis : x y z
#
# Youngs Moduli (GPa) = 66.11265 66.11228 61.78026
#
# Poissons Ratio (x) = 0.52320 0.20034
# Poissons Ratio (y) = 0.52320 0.20037
# Poissons Ratio (z) = 0.21438 0.21442
#
# Static dielectric constant tensor:
#      x y z
#    x 3.642150 0.000000 0.000000 
#    y 0.000000 3.642150 0.000000 
#    z 0.000000 0.000000 3.544640 
# 
# 
# High freq. dielectric constant tensor:
#      x y z
#    x 1.759210 0.000000 0.000000 
#    y 0.000000 1.759210 0.000000 
#    z 0.000000 0.000000 1.754460 
# 
# From -- ./inp_files/8811.got.cif
#   From: 2010.03.12/outbox.cif.g09.slc.cpg/sg119_5_cif.got.tgz:8811.got - 2010.04.14 02:25:26.
