data_PCOD8310558
_publ_section_title
;
Structure prediction by ZEFSAII (Michael W. Deem and Ramdas Pophale) SiO2 
 PCOD8310558
Probable space group: P -4 N 2
;
_chemical_formula_sum "Si O2"
_cell_formula_units_Z 56
_cell_length_a 13.932037
_cell_length_b 13.932037
_cell_length_c 13.155499
_cell_angle_alpha 90.000000
_cell_angle_beta 90.000000
_cell_angle_gamma 90.000000
_cell_volume 2553.504128
_symmetry_space_group_name_H-M "P -4 N 2"
_symmetry_group_IT_number 118
_symmetry_cell_setting 'tetragonal'
loop_
_space_group_symop_operation_xyz
x,y,z
y,-x,-z
-x,-y,z
-y,x,-z
1/2+y,1/2+x,1/2-z
1/2-y,1/2-x,1/2-z
1/2-x,1/2+y,1/2+z
1/2+x,1/2-y,1/2+z
loop_
_atom_site_type_symbol
_atom_site_label
_atom_site_fract_x
_atom_site_fract_y
_atom_site_fract_z
Si Si1 0.352852 0.699333 0.774910
Si Si2 0.059730 0.310667 0.444872
Si Si3 0.295769 0.958154 0.901405
Si Si4 0.664317 0.849305 0.631555
Si Si5 0.850223 0.735291 0.650765
Si Si6 0.443911 0.633294 0.460156
Si Si7 0.110735 0.984160 0.264168
O O1 0.253055 0.753055 0.750000
O O2 0.387982 0.720587 0.890050
O O3 0.438141 0.733889 0.700039
O O4 0.335000 0.586167 0.762920
O O5 0.101002 0.407204 0.391926
O O6 0.089339 0.318363 0.563271
O O7 0.946612 0.305405 0.425667
O O8 0.307886 0.070270 0.921740
O O9 0.238726 0.915004 0.999406
O O10 0.637555 0.862446 0.750000
O O11 0.745360 0.769172 0.614318
O O12 0.834579 0.665422 0.750000
O O13 0.911321 0.833085 0.664178
O O14 0.556822 0.618738 0.479466
O O15 0.427432 0.618905 0.341655
O O16 0.000000 0.000000 0.297502
#
# Coordination Sequence:
#
# PCOD8310558 Si02
#       7
#     8   8   8   8   8   8   8
#     4  10  22  39  65 100 133 167 222 297 346 400
#     4  11  24  44  64  98 136 182 227 287 350 429
#     4  11  22  38  68  99 132 164 225 294 359 404
#     4  11  24  42  70  99 135 180 235 293 352 412
#     4  11  28  45  67  96 146 192 234 284 357 437
#     4  11  21  35  63  96 126 161 214 280 345 406
#     4  12  23  42  66  94 134 179 231 285 341 421
#
# _framework density 21.930648999999999
#
# number of rings (size 3 to 8) (size 9 to 14) (size 15 to 20)
#    0.000    1.000    4.286    2.143   10.000    0.571 
#    0.000    0.000    0.000    0.000    0.000    0.000 
#    0.000    0.000    0.000    0.000    0.000    0.000 
#
# Total GULP energy -694351.224601 kJ/mol
# GULP energy per Si atom -12399.129011 kJ/mol
# Density = 2.188073 g / cm^3
# Si number density = 21.930649 Si / 1000 Ang^3
#
#
#
# Elastic Constant Matrix: (Units=GPa)
#
#
# Indices 1 2 3 4 5 6 
#
# 1 78.9315 8.9730 15.3949 0.0000 0.0000 0.0000
# 2 8.9730 78.9316 15.3948 0.0000 0.0000 0.0000
# 3 15.3949 15.3948 90.6533 0.0000 0.0000 0.0000
# 4 0.0000 0.0000 0.0000 31.0668 0.0000 0.0000
# 5 0.0000 0.0000 0.0000 0.0000 31.0667 0.0000
# 6 0.0000 0.0000 0.0000 0.0000 0.0000 24.0170
#
#
#
# Elastic Compliance Matrix: (Units=1/GPa)
#
#
# Indices 1 2 3 4 5 6 
#
# 1 0.013195 -0.001099 -0.002054 0.000000 0.000000 0.000000
# 2 -0.001099 0.013195 -0.002054 0.000000 0.000000 0.000000
# 3 -0.002054 -0.002054 0.011729 0.000000 0.000000 0.000000
# 4 0.000000 0.000000 0.000000 0.032189 0.000000 0.000000
# 5 0.000000 0.000000 0.000000 0.000000 0.032189 0.000000
# 6 0.000000 0.000000 0.000000 0.000000 0.000000 0.041637
#
#
# Mechanical properties :
#
#
# Convention : Reuss Voigt Hill
#
# Bulk Modulus (GPa) = 36.09676 36.44908 36.27292
# Shear Modulus (GPa) = 30.52829 31.14700 30.83765
#
# Velocity S-wave (km/s) = 3.73505 3.77271 3.75393
# Velocity P-wave (km/s) = 5.92419 5.96942 5.94685
#
# Compressibility (1/GPa) = 0.02770332
#
# Stress axis : x y z
#
# Youngs Moduli (GPa) = 75.78738 75.78748 85.26105
#
# Poissons Ratio (x) = 0.08332 0.17513
# Poissons Ratio (y) = 0.08332 0.17513
# Poissons Ratio (z) = 0.15567 0.15567
#
# Static dielectric constant tensor:
#      x y z
#    x 3.910890 0.000000 0.000000 
#    y 0.000000 3.910890 0.000000 
#    z 0.000000 0.000000 4.084410 
# 
# 
# High freq. dielectric constant tensor:
#      x y z
#    x 1.860110 0.000000 0.000000 
#    y 0.000000 1.860110 0.000000 
#    z 0.000000 0.000000 1.850290 
# 
# From -- ./inp_files/3419.got.cif
#   From: 2010.03.12/outbox.cif.g09.slc.cpg/sg118_2_cif.got.tgz:3419.got - 2010.04.14 02:21:17.
