data_PCOD8310867
_publ_section_title
;
Structure prediction by ZEFSAII (Michael W. Deem and Ramdas Pophale) SiO2 
 PCOD8310867
Probable space group: I -4 M 2
;
_chemical_formula_sum "Si O2"
_cell_formula_units_Z 72
_cell_length_a 30.104295
_cell_length_b 30.104295
_cell_length_c 5.255092
_cell_angle_alpha 90.000000
_cell_angle_beta 90.000000
_cell_angle_gamma 90.000000
_cell_volume 4762.524751
_symmetry_space_group_name_H-M "I -4 M 2"
_symmetry_group_IT_number 119
_symmetry_cell_setting 'tetragonal'
loop_
_space_group_symop_operation_xyz
x,y,z
y,-x,-z
-x,-y,z
-y,x,-z
y,x,-z
-y,-x,-z
-x,y,z
x,-y,z
1/2+x,1/2+y,1/2+z
1/2+y,1/2-x,1/2-z
1/2-x,1/2-y,1/2+z
1/2-y,1/2+x,1/2-z
1/2+y,1/2+x,1/2-z
1/2-y,1/2-x,1/2-z
1/2-x,1/2+y,1/2+z
1/2+x,1/2-y,1/2+z
loop_
_atom_site_type_symbol
_atom_site_label
_atom_site_fract_x
_atom_site_fract_y
_atom_site_fract_z
Si Si1 0.549638 0.112919 0.874168
Si Si2 0.290388 0.949831 0.734285
Si Si3 0.266864 0.306148 0.749404
Si Si4 0.127586 0.627586 0.750000
Si Si5 0.102795 0.277882 0.790349
O O1 0.500000 0.103321 0.979682
O O2 0.567543 0.067543 0.750000
O O3 0.549136 0.156569 0.693656
O O4 0.583474 0.126563 0.088144
O O5 0.280778 0.923209 0.475664
O O6 0.273302 0.000000 0.693607
O O7 0.264121 0.929107 0.974905
O O8 0.294953 0.294953 0.500000
O O9 0.220672 0.279329 0.750000
O O10 0.258013 0.358631 0.746146
O O11 0.295101 0.295101 0.000000
O O12 0.125238 0.675586 0.884213
#
# Coordination Sequence:
#
# PCOD8310867 Si02
#       5
#    16  16  16   8  16
#     4  10  20  33  45  59  80 103 137 192 236 292
#     4  10  21  33  50  70  88 112 154 196 228 273
#     4  10  20  32  46  71  98 118 147 183 224 287
#     4  10  20  32  46  65  76 108 148 170 226 306
#     4  11  19  33  53  67  91 120 145 181 238 276
#
# _framework density 15.118029999999999
#
# number of rings (size 3 to 8) (size 9 to 14) (size 15 to 20)
#    0.000    1.778    3.333    2.000    0.000    2.000 
#    0.000    0.000    0.000    0.000    0.000    0.000 
#    0.000    0.000    0.000    0.000    0.000    0.000 
#
# Total GULP energy -446024.764540 kJ/mol
# GULP energy per Si atom -12389.576793 kJ/mol
# Density = 1.508362 g / cm^3
# Si number density = 15.118030 Si / 1000 Ang^3
#
#
#
# Elastic Constant Matrix: (Units=GPa)
#
#
# Indices 1 2 3 4 5 6 
#
# 1 69.6329 58.1507 40.8220 0.0000 0.0000 0.0000
# 2 58.1507 69.6311 40.8214 0.0000 0.0000 0.0000
# 3 40.8220 40.8214 106.7391 0.0000 0.0000 0.0000
# 4 0.0000 0.0000 0.0000 12.6337 0.0000 0.0000
# 5 0.0000 0.0000 0.0000 0.0000 12.6302 0.0000
# 6 0.0000 0.0000 0.0000 0.0000 0.0000 22.5918
#
#
#
# Elastic Compliance Matrix: (Units=1/GPa)
#
#
# Indices 1 2 3 4 5 6 
#
# 1 0.048727 -0.038371 -0.003961 0.000000 0.000000 0.000000
# 2 -0.038371 0.048728 -0.003961 0.000000 0.000000 0.000000
# 3 -0.003961 -0.003961 0.012398 0.000000 0.000000 0.000000
# 4 0.000000 0.000000 0.000000 0.079153 0.000000 0.000000
# 5 0.000000 0.000000 0.000000 0.000000 0.079175 0.000000
# 6 0.000000 0.000000 0.000000 0.000000 0.000000 0.044264
#
#
# Mechanical properties :
#
#
# Convention : Reuss Voigt Hill
#
# Bulk Modulus (GPa) = 57.91063 58.39906 58.15484
# Shear Modulus (GPa) = 12.17178 16.65174 14.41176
#
# Velocity S-wave (km/s) = 2.84054 3.32241 3.09088
# Velocity P-wave (km/s) = 7.01049 7.30962 7.16162
#
# Compressibility (1/GPa) = 0.01726799
#
# Stress axis : x y z
#
# Youngs Moduli (GPa) = 20.52259 20.52206 80.65714
#
# Poissons Ratio (x) = 0.78745 0.31946
# Poissons Ratio (y) = 0.78747 0.31946
# Poissons Ratio (z) = 0.08128 0.08128
#
# Static dielectric constant tensor:
#      x y z
#    x 2.915320 0.000000 0.000000 
#    y 0.000000 2.915320 0.000000 
#    z 0.000000 0.000000 3.014760 
# 
# 
# High freq. dielectric constant tensor:
#      x y z
#    x 1.551810 0.000000 0.000000 
#    y 0.000000 1.551810 0.000000 
#    z 0.000000 0.000000 1.584470 
# 
# From -- ./inp_files/919.got.cif
#   From: 2010.03.12/outbox.cif.g09.slc.cpg/sg119_1_cif.got.tgz:919.got - 2010.04.14 02:25:26.
