data_PCOD8310523
_publ_section_title
;
Structure prediction by ZEFSAII (Michael W. Deem and Ramdas Pophale) SiO2 
 PCOD8310523
Probable space group: P -4 N 2
;
_chemical_formula_sum "Si O2"
_cell_formula_units_Z 54
_cell_length_a 15.062841
_cell_length_b 15.062841
_cell_length_c 11.173234
_cell_angle_alpha 90.000000
_cell_angle_beta 90.000000
_cell_angle_gamma 90.000000
_cell_volume 2535.085889
_symmetry_space_group_name_H-M "P -4 N 2"
_symmetry_group_IT_number 118
_symmetry_cell_setting 'tetragonal'
loop_
_space_group_symop_operation_xyz
x,y,z
y,-x,-z
-x,-y,z
-y,x,-z
1/2+y,1/2+x,1/2-z
1/2-y,1/2-x,1/2-z
1/2-x,1/2+y,1/2+z
1/2+x,1/2-y,1/2+z
loop_
_atom_site_type_symbol
_atom_site_label
_atom_site_fract_x
_atom_site_fract_y
_atom_site_fract_z
Si Si1 0.800077 0.358770 0.546789
Si Si2 0.401954 0.027864 0.865170
Si Si3 0.759124 0.684622 0.624283
Si Si4 0.104165 0.237450 0.463757
Si Si5 0.676174 0.493882 0.663843
Si Si6 0.353409 0.853409 0.750000
Si Si7 0.927957 0.207084 0.582225
Si Si8 0.500000 0.500000 0.500000
O O1 0.858617 0.430552 0.479798
O O2 0.737767 0.312524 0.450521
O O3 0.735537 0.408158 0.637271
O O4 0.865322 0.291144 0.616266
O O5 0.406249 0.093751 0.750000
O O6 0.500000 0.000000 0.902918
O O7 0.347533 0.939773 0.833218
O O8 0.766523 0.733478 0.750000
O O9 0.854439 0.693759 0.559580
O O10 0.730538 0.582798 0.636697
O O11 0.140104 0.266034 0.332352
O O12 0.134388 0.135325 0.480550
O O13 0.998114 0.240067 0.481149
O O14 0.662718 0.482014 0.806954
O O15 0.585044 0.493120 0.587728
#
# Coordination Sequence:
#
# PCOD8310523 Si02
#       8
#     8   8   8   8   8   4   8   2
#     4  11  23  40  71  97 134 180 234 281 352 418
#     4   9  18  35  60  96 134 170 226 284 341 401
#     4  11  23  44  68  95 140 184 233 289 355 428
#     4  11  25  43  68  99 136 185 232 293 354 424
#     4  12  25  46  69 104 139 183 234 294 352 422
#     4  10  21  38  66  96 136 173 234 288 346 420
#     4  11  26  45  68  98 139 176 235 287 362 420
#     4  12  28  48  72 106 144 192 244 292 346 428
#
# _framework density 21.301055000000002
#
# number of rings (size 3 to 8) (size 9 to 14) (size 15 to 20)
#    0.000    1.333    2.963    3.556    4.148    3.852 
#    0.000    0.000    0.000    0.000    0.000    0.000 
#    0.000    0.000    0.000    0.000    0.000    0.000 
#
# Total GULP energy -669401.688013 kJ/mol
# GULP energy per Si atom -12396.327556 kJ/mol
# Density = 2.125257 g / cm^3
# Si number density = 21.301055 Si / 1000 Ang^3
#
#
#
# Elastic Constant Matrix: (Units=GPa)
#
#
# Indices 1 2 3 4 5 6 
#
# 1 105.2290 51.4030 35.1861 0.0000 0.0000 0.0000
# 2 51.4030 105.2272 35.1859 0.0000 0.0000 0.0000
# 3 35.1861 35.1859 83.7567 0.0000 0.0000 0.0000
# 4 0.0000 0.0000 0.0000 51.3619 0.0000 0.0000
# 5 0.0000 0.0000 0.0000 0.0000 51.3771 0.0000
# 6 0.0000 0.0000 0.0000 0.0000 0.0000 32.2752
#
#
#
# Elastic Compliance Matrix: (Units=1/GPa)
#
#
# Indices 1 2 3 4 5 6 
#
# 1 0.013224 -0.005354 -0.003306 0.000000 0.000000 0.000000
# 2 -0.005354 0.013224 -0.003306 0.000000 0.000000 0.000000
# 3 -0.003306 -0.003306 0.014717 0.000000 0.000000 0.000000
# 4 0.000000 0.000000 0.000000 0.019470 0.000000 0.000000
# 5 0.000000 0.000000 0.000000 0.000000 0.019464 0.000000
# 6 0.000000 0.000000 0.000000 0.000000 0.000000 0.030984
#
#
# Mechanical properties :
#
#
# Convention : Reuss Voigt Hill
#
# Bulk Modulus (GPa) = 58.03037 59.75145 58.89091
# Shear Modulus (GPa) = 35.52142 38.49869 37.01005
#
# Velocity S-wave (km/s) = 4.08804 4.25592 4.17283
# Velocity P-wave (km/s) = 7.04165 7.22927 7.13608
#
# Compressibility (1/GPa) = 0.01723236
#
# Stress axis : x y z
#
# Youngs Moduli (GPa) = 75.61928 75.61792 67.94817
#
# Poissons Ratio (x) = 0.40489 0.22464
# Poissons Ratio (y) = 0.40490 0.22464
# Poissons Ratio (z) = 0.25000 0.25000
#
# Static dielectric constant tensor:
#      x y z
#    x 3.875330 0.000000 0.000000 
#    y 0.000000 3.875340 0.000000 
#    z 0.000000 0.000000 3.804750 
# 
# 
# High freq. dielectric constant tensor:
#      x y z
#    x 1.839850 0.000000 0.000000 
#    y 0.000000 1.839850 0.000000 
#    z 0.000000 0.000000 1.833080 
# 
# From -- ./inp_files/3466.got.cif
#   From: 2010.03.12/outbox.cif.g09.slc.cpg/sg118_2_cif.got.tgz:3466.got - 2010.04.14 02:21:17.
