data_PCOD8310920
_publ_section_title
;
Structure prediction by ZEFSAII (Michael W. Deem and Ramdas Pophale) SiO2 
 PCOD8310920
Probable space group: I -4 M 2
;
_chemical_formula_sum "Si O2"
_cell_formula_units_Z 72
_cell_length_a 13.638205
_cell_length_b 13.638205
_cell_length_c 19.764291
_cell_angle_alpha 90.000000
_cell_angle_beta 90.000000
_cell_angle_gamma 90.000000
_cell_volume 3676.170689
_symmetry_space_group_name_H-M "I -4 M 2"
_symmetry_group_IT_number 119
_symmetry_cell_setting 'tetragonal'
loop_
_space_group_symop_operation_xyz
x,y,z
y,-x,-z
-x,-y,z
-y,x,-z
y,x,-z
-y,-x,-z
-x,y,z
x,-y,z
1/2+x,1/2+y,1/2+z
1/2+y,1/2-x,1/2-z
1/2-x,1/2-y,1/2+z
1/2-y,1/2+x,1/2-z
1/2+y,1/2+x,1/2-z
1/2-y,1/2-x,1/2-z
1/2-x,1/2+y,1/2+z
1/2+x,1/2-y,1/2+z
loop_
_atom_site_type_symbol
_atom_site_label
_atom_site_fract_x
_atom_site_fract_y
_atom_site_fract_z
Si Si1 0.388910 0.728505 0.325704
Si Si2 0.611059 0.111059 0.750000
Si Si3 0.715917 0.615187 0.437901
Si Si4 0.768529 0.888719 0.329816
Si Si5 0.227068 0.613301 0.114829
O O1 0.500000 0.744970 0.349812
O O2 0.339705 0.641485 0.368443
O O3 0.333628 0.831150 0.338808
O O4 0.384645 0.695799 0.247749
O O5 0.500000 0.127300 0.725246
O O6 0.637273 0.180152 0.812261
O O7 0.650638 0.650638 0.500000
O O8 0.732348 0.500000 0.442605
O O9 0.822402 0.668660 0.440536
O O10 0.851650 0.839760 0.377829
O O11 0.752802 0.000000 0.354160
O O12 0.220396 0.500000 0.093759
#
# Coordination Sequence:
#
# PCOD8310920 Si02
#       5
#    16   8  16  16  16
#     4   9  18  33  53  79 110 143 179 218 262 313
#     4   9  16  28  52  84 110 133 166 212 268 321
#     4  11  23  38  55  77 107 140 175 215 258 308
#     4   9  18  32  52  80 111 140 174 219 268 315
#     4  10  20  35  55  79 108 140 175 217 264 314
#
# _framework density 19.585595999999999
#
# number of rings (size 3 to 8) (size 9 to 14) (size 15 to 20)
#    0.000    2.333    0.000    4.000    0.000    6.444 
#    0.000    8.889    0.000    5.333    0.000    0.000 
#    0.000    0.000    0.000    0.000    0.000    0.000 
#
# Total GULP energy -446423.489422 kJ/mol
# GULP energy per Si atom -12400.652484 kJ/mol
# Density = 1.954102 g / cm^3
# Si number density = 19.585596 Si / 1000 Ang^3
#
#
#
# Elastic Constant Matrix: (Units=GPa)
#
#
# Indices 1 2 3 4 5 6 
#
# 1 139.3707 51.5359 31.7872 0.0000 0.0000 0.0000
# 2 51.5359 139.3707 31.7872 0.0000 0.0000 0.0000
# 3 31.7872 31.7872 30.8940 0.0000 0.0000 0.0000
# 4 0.0000 0.0000 0.0000 25.3650 0.0000 0.0000
# 5 0.0000 0.0000 0.0000 0.0000 25.3650 0.0000
# 6 0.0000 0.0000 0.0000 0.0000 0.0000 18.5402
#
#
#
# Elastic Compliance Matrix: (Units=1/GPa)
#
#
# Indices 1 2 3 4 5 6 
#
# 1 0.009677 -0.001708 -0.008199 0.000000 0.000000 0.000000
# 2 -0.001708 0.009677 -0.008199 0.000000 0.000000 0.000000
# 3 -0.008199 -0.008199 0.049241 0.000000 0.000000 0.000000
# 4 0.000000 0.000000 0.000000 0.039424 0.000000 0.000000
# 5 0.000000 0.000000 0.000000 0.000000 0.039424 0.000000
# 6 0.000000 0.000000 0.000000 0.000000 0.000000 0.053937
#
#
# Mechanical properties :
#
#
# Convention : Reuss Voigt Hill
#
# Bulk Modulus (GPa) = 30.88125 59.98400 45.43263
# Shear Modulus (GPa) = 20.12997 26.82239 23.47618
#
# Velocity S-wave (km/s) = 3.20940 3.70468 3.46590
# Velocity P-wave (km/s) = 5.43463 6.99948 6.26610
#
# Compressibility (1/GPa) = 0.03238210
#
# Stress axis : x y z
#
# Youngs Moduli (GPa) = 103.34045 103.34045 20.30842
#
# Poissons Ratio (x) = 0.17653 0.16651
# Poissons Ratio (y) = 0.17653 0.16651
# Poissons Ratio (z) = 0.84728 0.84728
#
# Static dielectric constant tensor:
#      x y z
#    x 3.658000 0.000000 0.000000 
#    y 0.000000 3.658000 0.000000 
#    z 0.000000 0.000000 3.363120 
# 
# 
# High freq. dielectric constant tensor:
#      x y z
#    x 1.765150 0.000000 0.000000 
#    y 0.000000 1.765150 0.000000 
#    z 0.000000 0.000000 1.735000 
# 
# From -- ./inp_files/6381.got.cif
#   From: 2010.03.12/outbox.cif.g09.slc.cpg/sg119_4_cif.got.tgz:6381.got - 2010.04.14 02:25:26.
