data_PCOD8310710
_publ_section_title
;
Structure prediction by ZEFSAII (Michael W. Deem and Ramdas Pophale) SiO2 
 PCOD8310710
Probable space group: I -4 M 2
;
_chemical_formula_sum "Si O2"
_cell_formula_units_Z 26
_cell_length_a 11.936725
_cell_length_b 11.936725
_cell_length_c 8.328031
_cell_angle_alpha 90.000000
_cell_angle_beta 90.000000
_cell_angle_gamma 90.000000
_cell_volume 1186.622859
_symmetry_space_group_name_H-M "I -4 M 2"
_symmetry_group_IT_number 119
_symmetry_cell_setting 'tetragonal'
loop_
_space_group_symop_operation_xyz
x,y,z
y,-x,-z
-x,-y,z
-y,x,-z
y,x,-z
-y,-x,-z
-x,y,z
x,-y,z
1/2+x,1/2+y,1/2+z
1/2+y,1/2-x,1/2-z
1/2-x,1/2-y,1/2+z
1/2-y,1/2+x,1/2-z
1/2+y,1/2+x,1/2-z
1/2-y,1/2-x,1/2-z
1/2-x,1/2+y,1/2+z
1/2+x,1/2-y,1/2+z
loop_
_atom_site_type_symbol
_atom_site_label
_atom_site_fract_x
_atom_site_fract_y
_atom_site_fract_z
Si Si1 0.500000 0.500000 0.500000
Si Si2 0.368841 0.868841 0.750000
Si Si3 0.374807 0.500000 0.804323
Si Si4 0.297006 0.297006 0.000000
O O1 0.387481 0.500000 0.610267
O O2 0.500000 0.841799 0.757151
O O3 0.321945 0.810039 0.588687
O O4 0.500000 0.500000 0.879840
O O5 0.308893 0.390274 0.861278
#
# Coordination Sequence:
#
# PCOD8310710 Si02
#       4
#     2   8   8   8
#     4   8  20  30  68 112 140 166 248 324 360 390
#     4  11  26  48  72 105 152 198 236 303 382 444
#     4  10  17  38  70 108 138 179 246 317 348 420
#     4  12  21  45  72 101 151 192 242 304 370 436
#
# _framework density 21.910921999999999
#
# number of rings (size 3 to 8) (size 9 to 14) (size 15 to 20)
#    0.923    0.308    6.154    0.000    0.000    2.462 
#    5.538    0.000    0.000    3.692    0.000    0.000 
#    0.000    0.000    0.000    0.000    0.000    0.000 
#
# Total GULP energy -161158.379671 kJ/mol
# GULP energy per Si atom -12396.798436 kJ/mol
# Density = 2.186105 g / cm^3
# Si number density = 21.910922 Si / 1000 Ang^3
#
#
#
# Elastic Constant Matrix: (Units=GPa)
#
#
# Indices 1 2 3 4 5 6 
#
# 1 76.4618 51.8183 52.1391 0.0000 0.0000 0.0000
# 2 51.8183 76.4618 52.1391 0.0000 0.0000 0.0000
# 3 52.1391 52.1391 177.8194 0.0000 0.0000 0.0000
# 4 0.0000 0.0000 0.0000 -27.4782 0.0000 0.0000
# 5 0.0000 0.0000 0.0000 0.0000 -27.4782 0.0000
# 6 0.0000 0.0000 0.0000 0.0000 0.0000 27.3291
#
#
#
# Elastic Compliance Matrix: (Units=1/GPa)
#
#
# Indices 1 2 3 4 5 6 
#
# 1 0.025407 -0.015172 -0.003001 0.000000 0.000000 0.000000
# 2 -0.015172 0.025407 -0.003001 0.000000 0.000000 0.000000
# 3 -0.003001 -0.003001 0.007384 0.000000 0.000000 0.000000
# 4 0.000000 0.000000 0.000000 -0.036393 0.000000 0.000000
# 5 0.000000 0.000000 0.000000 0.000000 -0.036393 0.000000
# 6 0.000000 0.000000 0.000000 0.000000 0.000000 0.036591
#
#
# Mechanical properties :
#
#
# Convention : Reuss Voigt Hill
#
# Bulk Modulus (GPa) = 63.09396 71.43732 67.26564
# Shear Modulus (GPa) = 71.80391 6.11765 38.96078
#
# Velocity S-wave (km/s) = 5.73079 1.67276 4.22138
# Velocity P-wave (km/s) = 8.52335 6.03367 7.38419
#
# Compressibility (1/GPa) = 0.01584938
#
# Stress axis : x y z
#
# Youngs Moduli (GPa) = 39.35952 39.35952 135.43573
#
# Poissons Ratio (x) = 0.59716 0.40645
# Poissons Ratio (y) = 0.59716 0.40645
# Poissons Ratio (z) = 0.11812 0.11812
#
# Static dielectric constant tensor:
#      x y z
#    x 3.811480 0.000000 0.000000 
#    y 0.000000 3.811480 0.000000 
#    z 0.000000 0.000000 3.876050 
# 
# 
# High freq. dielectric constant tensor:
#      x y z
#    x 1.846480 0.000000 0.000000 
#    y 0.000000 1.846480 0.000000 
#    z 0.000000 0.000000 1.873570 
# 
# From -- ./inp_files/1338.got.cif
#   From: 2010.03.12/outbox.cif.g09.slc.cpg/sg119_1_cif.got.tgz:1338.got - 2010.04.14 02:25:26.
