data_PCOD8310106
_publ_section_title
;
Structure prediction by ZEFSAII (Michael W. Deem and Ramdas Pophale) SiO2 
 PCOD8310106
Probable space group: P -4 C 2
;
_chemical_formula_sum "Si O2"
_cell_formula_units_Z 60
_cell_length_a 15.472326
_cell_length_b 15.472326
_cell_length_c 13.519128
_cell_angle_alpha 90.000000
_cell_angle_beta 90.000000
_cell_angle_gamma 90.000000
_cell_volume 3236.382877
_symmetry_space_group_name_H-M "P -4 C 2"
_symmetry_group_IT_number 116
_symmetry_cell_setting 'tetragonal'
loop_
_space_group_symop_operation_xyz
x,y,z
y,-x,-z
-x,-y,z
-y,x,-z
y,x,1/2-z
-y,-x,1/2-z
-x,y,1/2+z
x,-y,1/2+z
loop_
_atom_site_type_symbol
_atom_site_label
_atom_site_fract_x
_atom_site_fract_y
_atom_site_fract_z
Si Si1 0.986969 0.331593 0.372620
Si Si2 0.835619 0.835619 0.250000
Si Si3 0.762306 0.244807 0.552614
Si Si4 0.851578 0.601614 0.497354
Si Si5 0.984591 0.638033 0.644175
Si Si6 0.162092 0.092008 0.567427
Si Si7 0.995306 0.831785 0.127091
Si Si8 0.589857 0.860557 0.480082
O O1 0.989439 0.361961 0.260660
O O2 0.975256 0.227165 0.379037
O O3 0.902202 0.372573 0.420669
O O4 0.073257 0.368408 0.422321
O O5 0.805886 0.779767 0.344362
O O6 0.937606 0.826556 0.226361
O O7 0.662204 0.231635 0.521994
O O8 0.818309 0.207146 0.462815
O O9 0.785156 0.346805 0.562258
O O10 0.890727 0.605746 0.608379
O O11 0.821055 0.502400 0.487414
O O12 0.992903 0.732553 0.593560
O O13 0.063869 0.580193 0.602738
O O14 0.084735 0.116290 0.643787
O O15 0.123244 0.052602 0.465681
#
# Coordination Sequence:
#
# PCOD8310106 Si02
#       8
#     8   4   8   8   8   8   8   8
#     4  10  20  35  56  82 114 148 190 242 290 337
#     4  10  20  36  62  79 110 159 206 242 282 338
#     4  10  19  39  59  79 115 147 185 243 296 352
#     4  11  21  36  61  81 110 150 183 240 299 347
#     4  11  19  35  56  81 110 145 192 241 286 338
#     4  10  19  37  53  69 111 156 193 237 284 323
#     4  11  20  35  54  74 105 160 203 239 276 325
#     4  10  22  38  56  86 112 142 191 240 295 356
#
# _framework density 18.539216
#
# number of rings (size 3 to 8) (size 9 to 14) (size 15 to 20)
#    0.000    1.600    6.667    2.400    0.000    4.000 
#    0.000    1.333    0.000    0.400    0.000    0.000 
#    0.000    1.067    0.000    0.000    0.000    0.000 
#
# Total GULP energy -743526.814135 kJ/mol
# GULP energy per Si atom -12392.113569 kJ/mol
# Density = 1.849702 g / cm^3
# Si number density = 18.539216 Si / 1000 Ang^3
#
#
#
# Elastic Constant Matrix: (Units=GPa)
#
#
# Indices 1 2 3 4 5 6 
#
# 1 111.8935 38.4988 27.3477 0.0000 0.0000 0.0000
# 2 38.4988 111.8935 27.3477 0.0000 0.0000 0.0000
# 3 27.3477 27.3477 89.2797 0.0000 0.0000 0.0000
# 4 0.0000 0.0000 0.0000 11.4372 0.0000 0.0000
# 5 0.0000 0.0000 0.0000 0.0000 11.4372 0.0000
# 6 0.0000 0.0000 0.0000 0.0000 0.0000 19.2615
#
#
#
# Elastic Compliance Matrix: (Units=1/GPa)
#
#
# Indices 1 2 3 4 5 6 
#
# 1 0.010554 -0.003071 -0.002292 0.000000 0.000000 0.000000
# 2 -0.003071 0.010554 -0.002292 0.000000 0.000000 0.000000
# 3 -0.002292 -0.002292 0.012605 0.000000 0.000000 0.000000
# 4 0.000000 0.000000 0.000000 0.087434 0.000000 0.000000
# 5 0.000000 0.000000 0.000000 0.000000 0.087434 0.000000
# 6 0.000000 0.000000 0.000000 0.000000 0.000000 0.051917
#
#
# Mechanical properties :
#
#
# Convention : Reuss Voigt Hill
#
# Bulk Modulus (GPa) = 54.34112 55.49500 54.91806
# Shear Modulus (GPa) = 17.73411 23.08533 20.40972
#
# Velocity S-wave (km/s) = 3.09621 3.53259 3.32157
# Velocity P-wave (km/s) = 6.49285 6.82918 6.66314
#
# Compressibility (1/GPa) = 0.01840227
#
# Stress axis : x y z
#
# Youngs Moduli (GPa) = 94.75144 94.75144 79.33375
#
# Poissons Ratio (x) = 0.29099 0.18184
# Poissons Ratio (y) = 0.29099 0.18184
# Poissons Ratio (z) = 0.21718 0.21718
#
# Static dielectric constant tensor:
#      x y z
#    x 3.344310 0.000000 0.000000 
#    y 0.000000 3.344310 0.000000 
#    z 0.000000 0.000000 3.328610 
# 
# 
# High freq. dielectric constant tensor:
#      x y z
#    x 1.692040 0.000000 0.000000 
#    y 0.000000 1.692040 0.000000 
#    z 0.000000 0.000000 1.721310 
# 
# From -- ./inp_files/2783.got.cif
#   From: 2010.03.12/outbox.cif.g09.slc.cpg/sg116_2_cif.got.tgz:2783.got - 2010.04.14 02:15:44.
