data_PCOD8310161
_publ_section_title
;
Structure prediction by ZEFSAII (Michael W. Deem and Ramdas Pophale) SiO2 
 PCOD8310161
Probable space group: P -4 C 2
;
_chemical_formula_sum "Si O2"
_cell_formula_units_Z 34
_cell_length_a 11.399585
_cell_length_b 11.399585
_cell_length_c 13.087819
_cell_angle_alpha 90.000000
_cell_angle_beta 90.000000
_cell_angle_gamma 90.000000
_cell_volume 1700.769123
_symmetry_space_group_name_H-M "P -4 C 2"
_symmetry_group_IT_number 116
_symmetry_cell_setting 'tetragonal'
loop_
_space_group_symop_operation_xyz
x,y,z
y,-x,-z
-x,-y,z
-y,x,-z
y,x,1/2-z
-y,-x,1/2-z
-x,y,1/2+z
x,-y,1/2+z
loop_
_atom_site_type_symbol
_atom_site_label
_atom_site_fract_x
_atom_site_fract_y
_atom_site_fract_z
Si Si1 0.688716 0.146502 0.512619
Si Si2 0.120972 0.677136 0.502977
Si Si3 0.133020 0.505608 0.320917
Si Si4 0.500000 0.500000 0.500000
Si Si5 0.261953 0.508854 0.119357
O O1 0.819139 0.197389 0.523809
O O2 0.612542 0.157337 0.615302
O O3 0.634380 0.227900 0.424916
O O4 0.696990 0.014655 0.474024
O O5 0.141836 0.621447 0.391214
O O6 0.168312 0.587342 0.585949
O O7 0.241521 0.514766 0.241411
O O8 0.000000 0.500000 0.274249
O O9 0.476314 0.391674 0.422355
#
# Coordination Sequence:
#
# PCOD8310161 Si02
#       5
#     8   8   8   2   8
#     4  10  21  39  60  88 122 157 203 248 295 357
#     4  10  21  39  60  88 122 157 203 248 295 357
#     4   9  20  39  65  87 117 166 204 235 300 371
#     4  12  24  40  62  96 122 144 204 254 304 364
#     4  11  21  42  59  86 123 159 194 251 307 359
#
# _framework density 19.990953999999999
#
# number of rings (size 3 to 8) (size 9 to 14) (size 15 to 20)
#    0.000    1.882    2.353    3.529    0.000    2.353 
#    0.000    7.059    0.000    0.000    0.000    6.588 
#    0.000    0.000    0.000    0.000    0.000    0.000 
#
# Total GULP energy -421399.448331 kJ/mol
# GULP energy per Si atom -12394.101422 kJ/mol
# Density = 1.994545 g / cm^3
# Si number density = 19.990954 Si / 1000 Ang^3
#
#
#
# Elastic Constant Matrix: (Units=GPa)
#
#
# Indices 1 2 3 4 5 6 
#
# 1 89.4259 17.9200 19.0274 0.0000 0.0000 0.0000
# 2 17.9200 89.4259 19.0274 0.0000 0.0000 0.0000
# 3 19.0274 19.0274 79.8170 0.0000 0.0000 0.0000
# 4 0.0000 0.0000 0.0000 20.8868 0.0000 0.0000
# 5 0.0000 0.0000 0.0000 0.0000 20.8868 0.0000
# 6 0.0000 0.0000 0.0000 0.0000 0.0000 35.6093
#
#
#
# Elastic Compliance Matrix: (Units=1/GPa)
#
#
# Indices 1 2 3 4 5 6 
#
# 1 0.012080 -0.001905 -0.002426 0.000000 0.000000 0.000000
# 2 -0.001905 0.012080 -0.002426 0.000000 0.000000 0.000000
# 3 -0.002426 -0.002426 0.013685 0.000000 0.000000 0.000000
# 4 0.000000 0.000000 0.000000 0.047877 0.000000 0.000000
# 5 0.000000 0.000000 0.000000 0.000000 0.047877 0.000000
# 6 0.000000 0.000000 0.000000 0.000000 0.000000 0.028083
#
#
# Mechanical properties :
#
#
# Convention : Reuss Voigt Hill
#
# Bulk Modulus (GPa) = 41.09564 41.17979 41.13772
# Shear Modulus (GPa) = 27.27681 28.98951 28.13316
#
# Velocity S-wave (km/s) = 3.69786 3.81219 3.75546
# Velocity P-wave (km/s) = 6.23169 6.32621 6.27913
#
# Compressibility (1/GPa) = 0.02433348
#
# Stress axis : x y z
#
# Youngs Moduli (GPa) = 82.77980 82.77980 73.07166
#
# Poissons Ratio (x) = 0.15766 0.17725
# Poissons Ratio (y) = 0.15766 0.17725
# Poissons Ratio (z) = 0.20080 0.20080
#
# Static dielectric constant tensor:
#      x y z
#    x 3.725860 0.000000 0.000000 
#    y 0.000000 3.725860 0.000000 
#    z 0.000000 0.000000 3.473770 
# 
# 
# High freq. dielectric constant tensor:
#      x y z
#    x 1.779030 0.000000 0.000000 
#    y 0.000000 1.779030 0.000000 
#    z 0.000000 0.000000 1.765660 
# 
# From -- ./inp_files/1617.got.cif
#   From: 2010.03.12/outbox.cif.g09.slc.cpg/sg116_1_cif.got.tgz:1617.got - 2010.04.14 02:15:44.
