data_PCOD8310712
_publ_section_title
;
Structure prediction by ZEFSAII (Michael W. Deem and Ramdas Pophale) SiO2 
 PCOD8310712
Probable space group: I -4 M 2
;
_chemical_formula_sum "Si O2"
_cell_formula_units_Z 112
_cell_length_a 14.228710
_cell_length_b 14.228710
_cell_length_c 37.083384
_cell_angle_alpha 90.000000
_cell_angle_beta 90.000000
_cell_angle_gamma 90.000000
_cell_volume 7507.760573
_symmetry_space_group_name_H-M "I -4 M 2"
_symmetry_group_IT_number 119
_symmetry_cell_setting 'tetragonal'
loop_
_space_group_symop_operation_xyz
x,y,z
y,-x,-z
-x,-y,z
-y,x,-z
y,x,-z
-y,-x,-z
-x,y,z
x,-y,z
1/2+x,1/2+y,1/2+z
1/2+y,1/2-x,1/2-z
1/2-x,1/2-y,1/2+z
1/2-y,1/2+x,1/2-z
1/2+y,1/2+x,1/2-z
1/2-y,1/2-x,1/2-z
1/2-x,1/2+y,1/2+z
1/2+x,1/2-y,1/2+z
loop_
_atom_site_type_symbol
_atom_site_label
_atom_site_fract_x
_atom_site_fract_y
_atom_site_fract_z
Si Si1 0.105994 0.107574 0.397064
Si Si2 0.608640 0.210459 0.140692
Si Si3 0.896507 0.111459 0.039864
Si Si4 0.388563 0.895154 0.210672
Si Si5 0.288440 0.389996 0.032190
Si Si6 0.610492 0.787229 0.423324
Si Si7 0.610061 0.104189 0.004299
O O1 0.176575 0.120234 0.363193
O O2 0.145153 0.174122 0.429116
O O3 0.000000 0.135315 0.384990
O O4 0.108386 0.000000 0.410909
O O5 0.500000 0.180332 0.134885
O O6 0.645063 0.177748 0.179963
O O7 0.672949 0.160736 0.111437
O O8 0.820971 0.142956 0.069964
O O9 0.000000 0.154404 0.048639
O O10 0.904063 0.000000 0.038900
O O11 0.858568 0.141433 0.000000
O O12 0.500000 0.901813 0.211597
O O13 0.356199 0.856199 0.250000
O O14 0.347632 0.000000 0.202790
O O15 0.306798 0.500000 0.029864
O O16 0.177437 0.365064 0.027744
O O17 0.345460 0.345460 0.000000
O O18 0.500000 0.795112 0.416729
O O19 0.640452 0.845204 0.458593
O O20 0.500000 0.101174 0.011297
O O21 0.647901 0.000000 0.993595
#
# Coordination Sequence:
#
# PCOD8310712 Si02
#       7
#    16  16  16  16  16  16  16
#     4   9  18  30  41  55  75  99 132 170 198 222
#     4  10  18  27  41  60  82 106 127 151 188 229
#     4   8  15  28  41  51  68  97 134 173 204 228
#     4   8  14  25  41  62  87 109 124 139 166 214
#     4  10  18  27  40  55  73 100 132 166 201 234
#     4  10  18  25  37  58  79 100 127 159 197 239
#     4   9  18  30  40  52  73 100 130 164 201 240
#
# _framework density 14.917897
#
# number of rings (size 3 to 8) (size 9 to 14) (size 15 to 20)
#    0.000    2.857    0.000    3.000    0.000    6.143 
#    0.000    0.000    0.000    0.000    0.000    1.000 
#    0.000    5.714    0.000    0.000    0.000    0.000 
#
# Total GULP energy -693995.042127 kJ/mol
# GULP energy per Si atom -12392.768609 kJ/mol
# Density = 1.488394 g / cm^3
# Si number density = 14.917897 Si / 1000 Ang^3
#
#
#
# Elastic Constant Matrix: (Units=GPa)
#
#
# Indices 1 2 3 4 5 6 
#
# 1 40.4839 32.0541 49.0476 0.0000 0.0000 0.0000
# 2 32.0541 40.4838 49.0476 0.0000 0.0000 0.0000
# 3 49.0476 49.0476 102.9361 0.0000 0.0000 0.0000
# 4 0.0000 0.0000 0.0000 15.2693 0.0000 0.0000
# 5 0.0000 0.0000 0.0000 0.0000 15.2693 0.0000
# 6 0.0000 0.0000 0.0000 0.0000 0.0000 10.5538
#
#
#
# Elastic Compliance Matrix: (Units=1/GPa)
#
#
# Indices 1 2 3 4 5 6 
#
# 1 0.078695 -0.039932 -0.018470 0.000000 0.000000 0.000000
# 2 -0.039932 0.078696 -0.018471 0.000000 0.000000 0.000000
# 3 -0.018470 -0.018471 0.027317 0.000000 0.000000 0.000000
# 4 0.000000 0.000000 0.000000 0.065491 0.000000 0.000000
# 5 0.000000 0.000000 0.000000 0.000000 0.065491 0.000000
# 6 0.000000 0.000000 0.000000 0.000000 0.000000 0.094753
#
#
# Mechanical properties :
#
#
# Convention : Reuss Voigt Hill
#
# Bulk Modulus (GPa) = 32.29683 49.35582 40.82632
# Shear Modulus (GPa) = 8.70307 11.80211 10.25259
#
# Velocity S-wave (km/s) = 2.41798 2.81577 2.62442
# Velocity P-wave (km/s) = 5.43068 6.61273 6.05064
#
# Compressibility (1/GPa) = 0.03096279
#
# Stress axis : x y z
#
# Youngs Moduli (GPa) = 12.70722 12.70708 36.60751
#
# Poissons Ratio (x) = 0.50741 0.67616
# Poissons Ratio (y) = 0.50742 0.67617
# Poissons Ratio (z) = 0.23471 0.23471
#
# Static dielectric constant tensor:
#      x y z
#    x 3.054740 0.000000 0.000000 
#    y 0.000000 3.054740 0.000000 
#    z 0.000000 0.000000 2.851800 
# 
# 
# High freq. dielectric constant tensor:
#      x y z
#    x 1.566040 0.000000 0.000000 
#    y 0.000000 1.566040 0.000000 
#    z 0.000000 0.000000 1.528810 
# 
# From -- ./inp_files/10447.got.cif
#   From: 2010.03.12/outbox.cif.g09.slc.cpg/sg119_6_cif.got.tgz:10447.got - 2010.04.14 02:25:26.
