data_PCOD8310310
_publ_section_title
;
Structure prediction by ZEFSAII (Michael W. Deem and Ramdas Pophale) SiO2 
 PCOD8310310
Probable space group: P -4 B 2
;
_chemical_formula_sum "Si O2"
_cell_formula_units_Z 52
_cell_length_a 19.999001
_cell_length_b 19.999001
_cell_length_c 6.708429
_cell_angle_alpha 90.000000
_cell_angle_beta 90.000000
_cell_angle_gamma 90.000000
_cell_volume 2683.103538
_symmetry_space_group_name_H-M "P -4 B 2"
_symmetry_group_IT_number 117
_symmetry_cell_setting 'tetragonal'
loop_
_space_group_symop_operation_xyz
x,y,z
y,-x,-z
-x,-y,z
-y,x,-z
1/2+y,1/2+x,-z
1/2-y,1/2-x,-z
1/2-x,1/2+y,z
1/2+x,1/2-y,z
loop_
_atom_site_type_symbol
_atom_site_label
_atom_site_fract_x
_atom_site_fract_y
_atom_site_fract_z
Si Si1 0.284430 0.540325 0.693912
Si Si2 0.840296 0.659705 0.500000
Si Si3 0.423716 0.830847 0.884993
Si Si4 0.816584 0.425669 0.020667
Si Si5 0.269088 0.389724 0.774501
Si Si6 0.900015 0.195295 0.727768
Si Si7 0.968063 0.105010 0.001598
O O1 0.276681 0.460774 0.662109
O O2 0.290582 0.585666 0.500289
O O3 0.218704 0.566161 0.807233
O O4 0.353851 0.554727 0.805885
O O5 0.836202 0.596828 0.348000
O O6 0.775654 0.659026 0.639690
O O7 0.503277 0.835286 0.884607
O O8 0.395079 0.895079 0.000000
O O9 0.399181 0.763522 0.003994
O O10 0.766190 0.387350 0.167959
O O11 0.883981 0.383981 0.000000
O O12 0.339278 0.352913 0.786013
O O13 0.964898 0.156243 0.815303
O O14 0.043676 0.081868 0.027214
#
# Coordination Sequence:
#
# PCOD8310310 Si02
#       7
#     8   4   8   8   8   8   8
#     4  10  22  39  57  85 121 160 204 250 305 364
#     4  10  20  36  66  87 112 156 202 251 294 368
#     4   9  20  40  64  89 118 151 205 252 307 366
#     4  10  23  41  61  88 126 159 195 254 314 370
#     4  10  21  37  55  87 120 158 202 254 301 355
#     4  11  23  37  60  86 121 164 204 249 304 368
#     4  10  21  36  56  84 117 156 202 252 300 354
#
# _framework density 19.380542999999999
#
# number of rings (size 3 to 8) (size 9 to 14) (size 15 to 20)
#    0.000    2.000    1.538    0.923    2.154    6.462 
#    0.000    1.538    0.000    8.308    0.000    0.000 
#    0.000    0.000    0.000    0.000    0.000    0.000 
#
# Total GULP energy -644595.120782 kJ/mol
# GULP energy per Si atom -12396.060015 kJ/mol
# Density = 1.933643 g / cm^3
# Si number density = 19.380543 Si / 1000 Ang^3
#
#
#
# Elastic Constant Matrix: (Units=GPa)
#
#
# Indices 1 2 3 4 5 6 
#
# 1 77.5635 60.7387 40.7731 0.0000 0.0000 0.0000
# 2 60.7387 77.5629 40.7726 0.0000 0.0000 0.0000
# 3 40.7731 40.7726 117.1576 0.0000 0.0000 0.0000
# 4 0.0000 0.0000 0.0000 16.5073 0.0000 0.0000
# 5 0.0000 0.0000 0.0000 0.0000 16.5079 0.0000
# 6 0.0000 0.0000 0.0000 0.0000 0.0000 34.1424
#
#
#
# Elastic Compliance Matrix: (Units=1/GPa)
#
#
# Indices 1 2 3 4 5 6 
#
# 1 0.034267 -0.025170 -0.003166 0.000000 0.000000 0.000000
# 2 -0.025170 0.034267 -0.003166 0.000000 0.000000 0.000000
# 3 -0.003166 -0.003166 0.010739 0.000000 0.000000 0.000000
# 4 0.000000 0.000000 0.000000 0.060579 0.000000 0.000000
# 5 0.000000 0.000000 0.000000 0.000000 0.060577 0.000000
# 6 0.000000 0.000000 0.000000 0.000000 0.000000 0.029289
#
#
# Mechanical properties :
#
#
# Convention : Reuss Voigt Hill
#
# Bulk Modulus (GPa) = 61.46391 61.87254 61.66822
# Shear Modulus (GPa) = 16.77029 22.09815 19.43422
#
# Velocity S-wave (km/s) = 2.94482 3.38038 3.17009
# Velocity P-wave (km/s) = 6.58374 6.87244 6.72964
#
# Compressibility (1/GPa) = 0.01626971
#
# Stress axis : x y z
#
# Youngs Moduli (GPa) = 29.18247 29.18230 93.11703
#
# Poissons Ratio (x) = 0.73452 0.29482
# Poissons Ratio (y) = 0.73452 0.29480
# Poissons Ratio (z) = 0.09239 0.09239
#
# Static dielectric constant tensor:
#      x y z
#    x 3.542300 0.000000 0.000000 
#    y 0.000000 3.542300 0.000000 
#    z 0.000000 0.000000 3.568540 
# 
# 
# High freq. dielectric constant tensor:
#      x y z
#    x 1.755690 0.000000 0.000000 
#    y 0.000000 1.755690 0.000000 
#    z 0.000000 0.000000 1.752290 
# 
# From -- ./inp_files/869.got.cif
#   From: 2010.03.12/outbox.cif.g09.slc.cpg/sg117_1_cif.got.tgz:869.got - 2010.04.14 02:19:01.
