data_PCOD8310634
_publ_section_title
;
Structure prediction by ZEFSAII (Michael W. Deem and Ramdas Pophale) SiO2 
 PCOD8310634
Probable space group: P -4 N 2
;
_chemical_formula_sum "Si O2"
_cell_formula_units_Z 26
_cell_length_a 11.555648
_cell_length_b 11.555648
_cell_length_c 8.462581
_cell_angle_alpha 90.000000
_cell_angle_beta 90.000000
_cell_angle_gamma 90.000000
_cell_volume 1130.033835
_symmetry_space_group_name_H-M "P -4 N 2"
_symmetry_group_IT_number 118
_symmetry_cell_setting 'tetragonal'
loop_
_space_group_symop_operation_xyz
x,y,z
y,-x,-z
-x,-y,z
-y,x,-z
1/2+y,1/2+x,1/2-z
1/2-y,1/2-x,1/2-z
1/2-x,1/2+y,1/2+z
1/2+x,1/2-y,1/2+z
loop_
_atom_site_type_symbol
_atom_site_label
_atom_site_fract_x
_atom_site_fract_y
_atom_site_fract_z
Si Si1 0.500000 0.500000 0.500000
Si Si2 0.293523 0.851658 0.424914
Si Si3 0.752683 0.496957 0.381468
Si Si4 0.911189 0.292589 0.460724
O O1 0.614144 0.481632 0.393116
O O2 0.298525 0.798525 0.250000
O O3 0.382668 0.793136 0.544825
O O4 0.163497 0.823714 0.486254
O O5 0.307637 0.990226 0.406354
O O6 0.820044 0.396689 0.475723
O O7 0.790402 0.487036 0.199737
#
# Coordination Sequence:
#
# PCOD8310634 Si02
#       4
#     2   8   8   8
#     4  12  20  40  84 102 140 192 244 290 352 432
#     4  12  25  47  70 105 143 187 246 295 358 436
#     4  11  23  46  71 103 144 188 232 301 360 420
#     4  11  25  46  69 103 146 185 238 295 362 423
#
# _framework density 23.008161999999999
#
# number of rings (size 3 to 8) (size 9 to 14) (size 15 to 20)
#    0.000    0.615    6.154    1.846    0.000   10.462 
#    5.538    0.000    0.000    0.000    0.000    0.000 
#    0.000    0.000    0.000    0.000    0.000    0.000 
#
# Total GULP energy -322404.630583 kJ/mol
# GULP energy per Si atom -12400.178099 kJ/mol
# Density = 2.295579 g / cm^3
# Si number density = 23.008162 Si / 1000 Ang^3
#
#
#
# Elastic Constant Matrix: (Units=GPa)
#
#
# Indices 1 2 3 4 5 6 
#
# 1 160.5413 39.7157 26.3115 0.0000 0.0000 0.0000
# 2 39.7157 160.5413 26.3115 0.0000 0.0000 0.0000
# 3 26.3115 26.3115 39.5859 0.0000 0.0000 0.0000
# 4 0.0000 0.0000 0.0000 30.6076 0.0000 0.0000
# 5 0.0000 0.0000 0.0000 0.0000 30.6076 0.0000
# 6 0.0000 0.0000 0.0000 0.0000 0.0000 42.4106
#
#
#
# Elastic Compliance Matrix: (Units=1/GPa)
#
#
# Indices 1 2 3 4 5 6 
#
# 1 0.007163 -0.001113 -0.004021 0.000000 0.000000 0.000000
# 2 -0.001113 0.007163 -0.004021 0.000000 0.000000 0.000000
# 3 -0.004021 -0.004021 0.030607 0.000000 0.000000 0.000000
# 4 0.000000 0.000000 0.000000 0.032672 0.000000 0.000000
# 5 0.000000 0.000000 0.000000 0.000000 0.032672 0.000000
# 6 0.000000 0.000000 0.000000 0.000000 0.000000 0.023579
#
#
# Mechanical properties :
#
#
# Convention : Reuss Voigt Hill
#
# Bulk Modulus (GPa) = 37.56265 60.59401 49.07833
# Shear Modulus (GPa) = 31.04774 38.61383 34.83079
#
# Velocity S-wave (km/s) = 3.67743 4.10111 3.89504
# Velocity P-wave (km/s) = 5.86452 6.98703 6.45024
#
# Compressibility (1/GPa) = 0.02662219
#
# Stress axis : x y z
#
# Youngs Moduli (GPa) = 139.59926 139.59926 32.67182
#
# Poissons Ratio (x) = 0.15538 0.13139
# Poissons Ratio (y) = 0.15538 0.13139
# Poissons Ratio (z) = 0.56139 0.56139
#
# Static dielectric constant tensor:
#      x y z
#    x 4.314050 0.000000 0.000000 
#    y 0.000000 4.314050 0.000000 
#    z 0.000000 0.000000 3.832190 
# 
# 
# High freq. dielectric constant tensor:
#      x y z
#    x 1.925160 0.000000 0.000000 
#    y 0.000000 1.925160 0.000000 
#    z 0.000000 0.000000 1.880800 
# 
# From -- ./inp_files/1413.got.cif
#   From: 2010.03.12/outbox.cif.g09.slc.cpg/sg118_1_cif.got.tgz:1413.got - 2010.04.14 02:21:17.
