data_PCOD8310022
_publ_section_title
;
Structure prediction by ZEFSAII (Michael W. Deem and Ramdas Pophale) SiO2 
 PCOD8310022
Probable space group: P -4 M 2
;
_chemical_formula_sum "Si O2"
_cell_formula_units_Z 32
_cell_length_a 14.678935
_cell_length_b 14.678935
_cell_length_c 7.822924
_cell_angle_alpha 90.000000
_cell_angle_beta 90.000000
_cell_angle_gamma 90.000000
_cell_volume 1685.614296
_symmetry_space_group_name_H-M "P -4 M 2"
_symmetry_group_IT_number 115
_symmetry_cell_setting 'tetragonal'
loop_
_space_group_symop_operation_xyz
x,y,z
y,-x,-z
-x,-y,z
-y,x,-z
y,x,-z
-y,-x,-z
-x,y,z
x,-y,z
loop_
_atom_site_type_symbol
_atom_site_label
_atom_site_fract_x
_atom_site_fract_y
_atom_site_fract_z
Si Si1 0.891820 0.397271 0.341580
Si Si2 0.108200 0.601925 0.963254
Si Si3 0.892305 0.099450 0.808159
Si Si4 0.720348 0.108951 0.348351
O O1 0.855777 0.500000 0.377568
O O2 0.861141 0.364083 0.152571
O O3 0.851074 0.326564 0.480742
O O4 0.000000 0.398702 0.355917
O O5 0.145302 0.500000 0.931750
O O6 0.000000 0.601088 0.955559
O O7 0.147964 0.666652 0.816479
O O8 0.857433 0.174396 0.671679
O O9 0.000000 0.088800 0.797299
O O10 0.847411 0.000000 0.764987
O O11 0.867884 0.132117 0.000000
O O12 0.717235 0.000000 0.347434
#
# Coordination Sequence:
#
# PCOD8310022 Si02
#       4
#     8   8   8   8
#     4   8  13  20  30  47  69  84  93 113 151 205
#     4   8  13  20  30  47  69  84  93 113 151 205
#     4   8  14  24  36  48  61  81 114 156 196 221
#     4   9  14  20  34  49  59  79 107 130 162 213
#
# _framework density 18.984178
#
# number of rings (size 3 to 8) (size 9 to 14) (size 15 to 20)
#    0.000    3.750    0.000    3.000    0.000    3.000 
#    0.000    0.000    0.000    3.000    0.000   17.500 
#    0.000   12.000    0.000    0.000    0.000    0.000 
#
# Total GULP energy -396432.130375 kJ/mol
# GULP energy per Si atom -12388.504074 kJ/mol
# Density = 1.894097 g / cm^3
# Si number density = 18.984178 Si / 1000 Ang^3
#
#
#
# Elastic Constant Matrix: (Units=GPa)
#
#
# Indices 1 2 3 4 5 6 
#
# 1 52.5992 -4.1797 29.9490 0.0000 0.0000 0.0000
# 2 -4.1797 52.5990 29.9494 0.0000 0.0000 0.0000
# 3 29.9490 29.9494 114.2383 0.0000 0.0000 0.0000
# 4 0.0000 0.0000 0.0000 4.0497 0.0000 0.0000
# 5 0.0000 0.0000 0.0000 0.0000 4.0499 0.0000
# 6 0.0000 0.0000 0.0000 0.0000 0.0000 0.5919
#
#
#
# Elastic Compliance Matrix: (Units=1/GPa)
#
#
# Indices 1 2 3 4 5 6 
#
# 1 0.024089 0.006477 -0.008013 0.000000 0.000000 0.000000
# 2 0.006477 0.024089 -0.008013 0.000000 0.000000 0.000000
# 3 -0.008013 -0.008013 0.012955 0.000000 0.000000 0.000000
# 4 0.000000 0.000000 0.000000 0.246934 0.000000 0.000000
# 5 0.000000 0.000000 0.000000 0.000000 0.246919 0.000000
# 6 0.000000 0.000000 0.000000 0.000000 0.000000 1.689338
#
#
# Mechanical properties :
#
#
# Convention : Reuss Voigt Hill
#
# Bulk Modulus (GPa) = 23.79035 36.76377 30.27706
# Shear Modulus (GPa) = 2.19545 12.65283 7.42414
#
# Velocity S-wave (km/s) = 1.07656 2.58445 1.97969
# Velocity P-wave (km/s) = 3.75555 5.32103 4.60530
#
# Compressibility (1/GPa) = 0.04203385
#
# Stress axis : x y z
#
# Youngs Moduli (GPa) = 41.51280 41.51250 77.18898
#
# Poissons Ratio (x) = -0.26887 0.61853
# Poissons Ratio (y) = -0.26887 0.61854
# Poissons Ratio (z) = 0.33265 0.33265
#
# Static dielectric constant tensor:
#      x y z
#    x 3.232450 0.000000 0.000000 
#    y 0.000000 3.232460 0.000000 
#    z 0.000000 0.000000 3.948630 
# 
# 
# High freq. dielectric constant tensor:
#      x y z
#    x 1.677760 0.000000 0.000000 
#    y 0.000000 1.677760 0.000000 
#    z 0.000000 0.000000 1.759790 
# 
# From -- ./inp_files/1296.got.cif
#   From: 2010.03.12/outbox.cif.g09.slc.cpg/sg115_1_cif.got.tgz:1296.got - 2010.04.14 02:11:21.
