data_PCOD8310771
_publ_section_title
;
Structure prediction by ZEFSAII (Michael W. Deem and Ramdas Pophale) SiO2 
 PCOD8310771
Probable space group: I -4 M 2
;
_chemical_formula_sum "Si O2"
_cell_formula_units_Z 84
_cell_length_a 11.574491
_cell_length_b 11.574491
_cell_length_c 29.711480
_cell_angle_alpha 90.000000
_cell_angle_beta 90.000000
_cell_angle_gamma 90.000000
_cell_volume 3980.412567
_symmetry_space_group_name_H-M "I -4 M 2"
_symmetry_group_IT_number 119
_symmetry_cell_setting 'tetragonal'
loop_
_space_group_symop_operation_xyz
x,y,z
y,-x,-z
-x,-y,z
-y,x,-z
y,x,-z
-y,-x,-z
-x,y,z
x,-y,z
1/2+x,1/2+y,1/2+z
1/2+y,1/2-x,1/2-z
1/2-x,1/2-y,1/2+z
1/2-y,1/2+x,1/2-z
1/2+y,1/2+x,1/2-z
1/2-y,1/2-x,1/2-z
1/2-x,1/2+y,1/2+z
1/2+x,1/2-y,1/2+z
loop_
_atom_site_type_symbol
_atom_site_label
_atom_site_fract_x
_atom_site_fract_y
_atom_site_fract_z
Si Si1 0.235395 0.135758 0.788885
Si Si2 0.500000 0.372426 0.129023
Si Si3 0.252394 0.500000 0.688208
Si Si4 0.365961 0.750448 0.866698
Si Si5 0.000000 0.500000 0.840456
Si Si6 0.500000 0.162846 0.077383
Si Si7 0.298450 0.241121 0.449951
Si Si8 0.867325 0.000000 0.091994
O O1 0.318114 0.181887 0.750000
O O2 0.297247 0.158399 0.836528
O O3 0.111901 0.198294 0.786585
O O4 0.216460 0.000000 0.782585
O O5 0.500000 0.500000 0.109439
O O6 0.378917 0.351986 0.156028
O O7 0.500000 0.300115 0.083173
O O8 0.287205 0.500000 0.635911
O O9 0.113108 0.500000 0.691156
O O10 0.500000 0.786966 0.870331
O O11 0.310164 0.747988 0.916214
O O12 0.112251 0.500000 0.872132
O O13 0.618729 0.130579 0.052155
O O14 0.253381 0.253381 0.500000
O O15 0.387088 0.342812 0.437780
O O16 0.000000 0.000000 0.107502
#
# Coordination Sequence:
#
# PCOD8310771 Si02
#       8
#    16   8   8  16   4   8  16   8
#     4  12  27  47  71 101 137 182 227 284 356 433
#     4   8  16  33  59  87 121 164 213 267 328 387
#     4  12  24  46  76 105 137 177 234 293 362 426
#     4  10  21  40  65  94 132 176 226 280 340 414
#     4  12  20  42  75 102 134 188 220 284 369 414
#     4  10  18  38  58  87 134 174 224 277 342 406
#     4  11  24  38  64  97 130 182 231 286 346 410
#     4  12  24  44  66  92 137 183 229 287 346 422
#
# _framework density 21.103339999999999
#
# number of rings (size 3 to 8) (size 9 to 14) (size 15 to 20)
#    0.000    1.143    3.810    2.571    2.667    2.857 
#    0.000    1.905    0.000    0.000    0.000    0.000 
#    0.000    0.000    0.000    0.000    0.000    0.000 
#
# Total GULP energy -520640.785347 kJ/mol
# GULP energy per Si atom -12396.209175 kJ/mol
# Density = 2.105531 g / cm^3
# Si number density = 21.103340 Si / 1000 Ang^3
#
#
#
# Elastic Constant Matrix: (Units=GPa)
#
#
# Indices 1 2 3 4 5 6 
#
# 1 144.6122 44.2825 27.9260 0.0000 0.0000 0.0000
# 2 44.2825 144.6130 27.9268 0.0000 0.0000 0.0000
# 3 27.9260 27.9268 81.9946 0.0000 0.0000 0.0000
# 4 0.0000 0.0000 0.0000 27.3822 0.0000 0.0000
# 5 0.0000 0.0000 0.0000 0.0000 27.3822 0.0000
# 6 0.0000 0.0000 0.0000 0.0000 0.0000 28.6730
#
#
#
# Elastic Compliance Matrix: (Units=1/GPa)
#
#
# Indices 1 2 3 4 5 6 
#
# 1 0.007927 -0.002040 -0.002005 0.000000 0.000000 0.000000
# 2 -0.002040 0.007927 -0.002005 0.000000 0.000000 0.000000
# 3 -0.002005 -0.002005 0.013562 0.000000 0.000000 0.000000
# 4 0.000000 0.000000 0.000000 0.036520 0.000000 0.000000
# 5 0.000000 0.000000 0.000000 0.000000 0.036520 0.000000
# 6 0.000000 0.000000 0.000000 0.000000 0.000000 0.034876
#
#
# Mechanical properties :
#
#
# Convention : Reuss Voigt Hill
#
# Bulk Modulus (GPa) = 57.75223 63.49892 60.62558
# Shear Modulus (GPa) = 32.21574 34.75978 33.48776
#
# Velocity S-wave (km/s) = 3.91137 4.06288 3.98785
# Velocity P-wave (km/s) = 6.91551 7.22247 7.07066
#
# Compressibility (1/GPa) = 0.01731535
#
# Stress axis : x y z
#
# Youngs Moduli (GPa) = 126.15197 126.15226 73.73728
#
# Poissons Ratio (x) = 0.25737 0.14784
# Poissons Ratio (y) = 0.25737 0.14784
# Poissons Ratio (z) = 0.25292 0.25294
#
# Static dielectric constant tensor:
#      x y z
#    x 4.069660 0.000000 0.000000 
#    y 0.000000 4.069660 0.000000 
#    z 0.000000 0.000000 3.404770 
# 
# 
# High freq. dielectric constant tensor:
#      x y z
#    x 1.842880 0.000000 0.000000 
#    y 0.000000 1.842880 0.000000 
#    z 0.000000 0.000000 1.790840 
# 
# From -- ./inp_files/10313.got.cif
#   From: 2010.03.12/outbox.cif.g09.slc.cpg/sg119_6_cif.got.tgz:10313.got - 2010.04.14 02:25:26.
