data_PCOD8310911
_publ_section_title
;
Structure prediction by ZEFSAII (Michael W. Deem and Ramdas Pophale) SiO2 
 PCOD8310911
Probable space group: I -4 M 2
;
_chemical_formula_sum "Si O2"
_cell_formula_units_Z 72
_cell_length_a 11.719339
_cell_length_b 11.719339
_cell_length_c 29.195723
_cell_angle_alpha 90.000000
_cell_angle_beta 90.000000
_cell_angle_gamma 90.000000
_cell_volume 4009.825457
_symmetry_space_group_name_H-M "I -4 M 2"
_symmetry_group_IT_number 119
_symmetry_cell_setting 'tetragonal'
loop_
_space_group_symop_operation_xyz
x,y,z
y,-x,-z
-x,-y,z
-y,x,-z
y,x,-z
-y,-x,-z
-x,y,z
x,-y,z
1/2+x,1/2+y,1/2+z
1/2+y,1/2-x,1/2-z
1/2-x,1/2-y,1/2+z
1/2-y,1/2+x,1/2-z
1/2+y,1/2+x,1/2-z
1/2-y,1/2-x,1/2-z
1/2-x,1/2+y,1/2+z
1/2+x,1/2-y,1/2+z
loop_
_atom_site_type_symbol
_atom_site_label
_atom_site_fract_x
_atom_site_fract_y
_atom_site_fract_z
Si Si1 0.500000 0.677434 0.756297
Si Si2 0.129934 0.132342 0.553251
Si Si3 0.373787 0.256793 0.210906
Si Si4 0.864036 0.000000 0.850626
Si Si5 0.213477 0.275170 0.128523
Si Si6 0.370467 0.000000 0.676006
O O1 0.389808 0.613947 0.776215
O O2 0.500000 0.681917 0.701462
O O3 0.500000 0.806167 0.775294
O O4 0.153213 0.153213 0.500000
O O5 0.221804 0.208210 0.580386
O O6 0.000000 0.168462 0.565764
O O7 0.146645 0.000000 0.566200
O O8 0.500000 0.205691 0.205607
O O9 0.307385 0.192616 0.250000
O O10 0.308152 0.232977 0.164111
O O11 0.818688 0.886692 0.876395
O O12 0.000000 0.000000 0.851514
O O13 0.158019 0.391766 0.145214
O O14 0.500000 0.000000 0.690159
#
# Coordination Sequence:
#
# PCOD8310911 Si02
#       6
#     8  16  16   8  16   8
#     4  10  22  38  52  75 114 160 189 228 277 336
#     4   9  18  35  62  94 121 143 174 224 289 354
#     4  11  22  35  53  79 110 149 192 230 274 332
#     4  12  24  39  57  76 110 160 205 237 277 333
#     4  11  21  36  57  84 116 150 181 235 285 340
#     4  10  20  34  54  90 121 143 186 232 299 338
#
# _framework density 17.955893
#
# number of rings (size 3 to 8) (size 9 to 14) (size 15 to 20)
#    0.000    1.556    4.444    2.333    0.000    0.222 
#    2.000    0.000    2.444    2.000    0.000    0.000 
#    0.000    0.000    0.000    0.000    0.000    0.000 
#
# Total GULP energy -446424.359329 kJ/mol
# GULP energy per Si atom -12400.676648 kJ/mol
# Density = 1.791502 g / cm^3
# Si number density = 17.955893 Si / 1000 Ang^3
#
#
#
# Elastic Constant Matrix: (Units=GPa)
#
#
# Indices 1 2 3 4 5 6 
#
# 1 107.3039 54.9700 51.5120 0.0000 0.0000 0.0000
# 2 54.9700 107.2976 51.5126 0.0000 0.0000 0.0000
# 3 51.5120 51.5126 96.9954 0.0000 0.0000 0.0000
# 4 0.0000 0.0000 0.0000 15.5275 0.0000 0.0000
# 5 0.0000 0.0000 0.0000 0.0000 15.5273 0.0000
# 6 0.0000 0.0000 0.0000 0.0000 0.0000 7.5803
#
#
#
# Elastic Compliance Matrix: (Units=1/GPa)
#
#
# Indices 1 2 3 4 5 6 
#
# 1 0.014203 -0.004906 -0.004937 0.000000 0.000000 0.000000
# 2 -0.004906 0.014204 -0.004938 0.000000 0.000000 0.000000
# 3 -0.004937 -0.004938 0.015554 0.000000 0.000000 0.000000
# 4 0.000000 0.000000 0.000000 0.064402 0.000000 0.000000
# 5 0.000000 0.000000 0.000000 0.000000 0.064403 0.000000
# 6 0.000000 0.000000 0.000000 0.000000 0.000000 0.131920
#
#
# Mechanical properties :
#
#
# Convention : Reuss Voigt Hill
#
# Bulk Modulus (GPa) = 69.45158 69.73181 69.59169
# Shear Modulus (GPa) = 14.74719 17.96718 16.35719
#
# Velocity S-wave (km/s) = 2.86894 3.16670 3.02149
# Velocity P-wave (km/s) = 7.05248 7.23119 7.14239
#
# Compressibility (1/GPa) = 0.01439852
#
# Stress axis : x y z
#
# Youngs Moduli (GPa) = 70.40902 70.40301 64.29059
#
# Poissons Ratio (x) = 0.34539 0.31742
# Poissons Ratio (y) = 0.34542 0.31747
# Poissons Ratio (z) = 0.34763 0.34765
#
# Static dielectric constant tensor:
#      x y z
#    x 3.316890 0.000000 0.000000 
#    y 0.000000 3.316890 0.000000 
#    z 0.000000 0.000000 3.191990 
# 
# 
# High freq. dielectric constant tensor:
#      x y z
#    x 1.692770 0.000000 0.000000 
#    y 0.000000 1.692770 0.000000 
#    z 0.000000 0.000000 1.674590 
# 
# From -- ./inp_files/9385.got.cif
#   From: 2010.03.12/outbox.cif.g09.slc.cpg/sg119_5_cif.got.tgz:9385.got - 2010.04.14 02:25:26.
