data_PCOD8310871
_publ_section_title
;
Structure prediction by ZEFSAII (Michael W. Deem and Ramdas Pophale) SiO2 
 PCOD8310871
Probable space group: I -4 M 2
;
_chemical_formula_sum "Si O2"
_cell_formula_units_Z 96
_cell_length_a 14.540296
_cell_length_b 14.540296
_cell_length_c 24.098886
_cell_angle_alpha 90.000000
_cell_angle_beta 90.000000
_cell_angle_gamma 90.000000
_cell_volume 5094.991485
_symmetry_space_group_name_H-M "I -4 M 2"
_symmetry_group_IT_number 119
_symmetry_cell_setting 'tetragonal'
loop_
_space_group_symop_operation_xyz
x,y,z
y,-x,-z
-x,-y,z
-y,x,-z
y,x,-z
-y,-x,-z
-x,y,z
x,-y,z
1/2+x,1/2+y,1/2+z
1/2+y,1/2-x,1/2-z
1/2-x,1/2-y,1/2+z
1/2-y,1/2+x,1/2-z
1/2+y,1/2+x,1/2-z
1/2-y,1/2-x,1/2-z
1/2-x,1/2+y,1/2+z
1/2+x,1/2-y,1/2+z
loop_
_atom_site_type_symbol
_atom_site_label
_atom_site_fract_x
_atom_site_fract_y
_atom_site_fract_z
Si Si1 0.794452 0.900257 0.955377
Si Si2 0.397073 0.395182 0.655960
Si Si3 0.101021 0.650874 0.477714
Si Si4 0.399797 0.648132 0.938444
Si Si5 0.107551 0.294160 0.800696
Si Si6 0.708032 0.897262 0.396696
O O1 0.828886 0.871612 0.894888
O O2 0.683748 0.911138 0.954918
O O3 0.836256 0.000000 0.971026
O O4 0.824536 0.824536 0.000000
O O5 0.500000 0.373055 0.679747
O O6 0.393542 0.500000 0.634164
O O7 0.317334 0.381116 0.702223
O O8 0.104994 0.742626 0.441823
O O9 0.119657 0.670526 0.542065
O O10 0.000000 0.603877 0.470471
O O11 0.500000 0.618372 0.914217
O O12 0.318929 0.615020 0.897401
O O13 0.393058 0.606943 0.000000
O O14 0.160209 0.339792 0.750000
O O15 0.154843 0.327558 0.857170
O O16 0.000000 0.322150 0.799629
O O17 0.686680 0.000000 0.375546
#
# Coordination Sequence:
#
# PCOD8310871 Si02
#       6
#    16  16  16  16  16  16
#     4  11  20  30  49  76 107 140 171 204 243 295
#     4   9  19  36  57  80 104 130 161 201 252 303
#     4   9  18  31  47  70 103 142 179 211 247 295
#     4   9  16  28  48  72 102 140 175 208 249 298
#     4  11  23  39  58  76  97 128 167 211 255 301
#     4  10  20  32  47  71 103 137 174 214 253 296
#
# _framework density 18.842033000000001
#
# number of rings (size 3 to 8) (size 9 to 14) (size 15 to 20)
#    0.000    2.167    0.000    6.000    0.000    5.500 
#    0.000    2.500    0.000    3.000    0.000    0.000 
#    0.000    0.000    0.000    0.000    0.000    0.000 
#
# Total GULP energy -594864.467638 kJ/mol
# GULP energy per Si atom -12393.009742 kJ/mol
# Density = 1.879915 g / cm^3
# Si number density = 18.842033 Si / 1000 Ang^3
#
#
#
# Elastic Constant Matrix: (Units=GPa)
#
#
# Indices 1 2 3 4 5 6 
#
# 1 115.8064 44.5572 41.9164 0.0000 0.0000 0.0000
# 2 44.5572 115.8073 41.9158 0.0000 0.0000 0.0000
# 3 41.9164 41.9158 53.2612 0.0000 0.0000 0.0000
# 4 0.0000 0.0000 0.0000 22.6428 0.0000 0.0000
# 5 0.0000 0.0000 0.0000 0.0000 22.6425 0.0000
# 6 0.0000 0.0000 0.0000 0.0000 0.0000 24.7851
#
#
#
# Elastic Compliance Matrix: (Units=1/GPa)
#
#
# Indices 1 2 3 4 5 6 
#
# 1 0.012315 -0.001720 -0.008338 0.000000 0.000000 0.000000
# 2 -0.001720 0.012315 -0.008338 0.000000 0.000000 0.000000
# 3 -0.008338 -0.008338 0.031899 0.000000 0.000000 0.000000
# 4 0.000000 0.000000 0.000000 0.044164 0.000000 0.000000
# 5 0.000000 0.000000 0.000000 0.000000 0.044165 0.000000
# 6 0.000000 0.000000 0.000000 0.000000 0.000000 0.040347
#
#
# Mechanical properties :
#
#
# Convention : Reuss Voigt Hill
#
# Bulk Modulus (GPa) = 50.66680 60.18375 55.42527
# Shear Modulus (GPa) = 21.87466 24.44644 23.16055
#
# Velocity S-wave (km/s) = 3.41097 3.60591 3.50979
# Velocity P-wave (km/s) = 6.51626 7.02477 6.77528
#
# Compressibility (1/GPa) = 0.01973679
#
# Stress axis : x y z
#
# Youngs Moduli (GPa) = 81.20210 81.20391 31.34904
#
# Poissons Ratio (x) = 0.13970 0.26139
# Poissons Ratio (y) = 0.13969 0.26138
# Poissons Ratio (z) = 0.67706 0.67704
#
# Static dielectric constant tensor:
#      x y z
#    x 3.677970 0.000000 0.000000 
#    y 0.000000 3.677970 0.000000 
#    z 0.000000 0.000000 2.944360 
# 
# 
# High freq. dielectric constant tensor:
#      x y z
#    x 1.745580 0.000000 0.000000 
#    y 0.000000 1.745580 0.000000 
#    z 0.000000 0.000000 1.671680 
# 
# From -- ./inp_files/7764.got.cif
#   From: 2010.03.12/outbox.cif.g09.slc.cpg/sg119_4_cif.got.tgz:7764.got - 2010.04.14 02:25:26.
