data_PCOD8310215
_publ_section_title
;
Structure prediction by ZEFSAII (Michael W. Deem and Ramdas Pophale) SiO2 
 PCOD8310215
Probable space group: P -4 C 2
;
_chemical_formula_sum "Si O2"
_cell_formula_units_Z 40
_cell_length_a 13.941953
_cell_length_b 13.941953
_cell_length_c 8.178740
_cell_angle_alpha 90.000000
_cell_angle_beta 90.000000
_cell_angle_gamma 90.000000
_cell_volume 1589.767561
_symmetry_space_group_name_H-M "P -4 C 2"
_symmetry_group_IT_number 116
_symmetry_cell_setting 'tetragonal'
loop_
_space_group_symop_operation_xyz
x,y,z
y,-x,-z
-x,-y,z
-y,x,-z
y,x,1/2-z
-y,-x,1/2-z
-x,y,1/2+z
x,-y,1/2+z
loop_
_atom_site_type_symbol
_atom_site_label
_atom_site_fract_x
_atom_site_fract_y
_atom_site_fract_z
Si Si1 0.435108 0.817836 0.680193
Si Si2 0.000000 0.000000 0.000000
Si Si3 0.135440 0.634178 0.460891
Si Si4 0.500000 0.500000 0.000000
Si Si5 0.926596 0.276587 0.982408
Si Si6 0.791617 0.791617 0.750000
Si Si7 0.109748 0.890253 0.750000
Si Si8 0.394440 0.394440 0.250000
O O1 0.542709 0.860015 0.659979
O O2 0.373788 0.866575 0.536749
O O3 0.417554 0.705285 0.661513
O O4 0.400204 0.840289 0.860665
O O5 0.908224 0.031919 0.893955
O O6 0.213983 0.708739 0.388262
O O7 0.037045 0.693347 0.476915
O O8 0.473767 0.592357 0.890918
O O9 0.904118 0.215033 0.820108
O O10 0.892866 0.221947 0.150212
#
# Coordination Sequence:
#
# PCOD8310215 Si02
#       8
#     8   2   8   2   8   4   4   4
#     4  12  26  49  76 118 161 210 274 342 426 515
#     4  10  28  46  76 106 140 202 260 350 416 506
#     4  12  28  49  80 116 165 214 281 352 428 517
#     4  10  24  42  72 106 148 198 248 314 380 462
#     4  12  28  48  75 113 157 214 273 351 428 518
#     4  12  28  48  78 110 160 226 284 354 438 514
#     4  11  27  48  74 108 153 197 276 336 426 509
#     4  11  23  44  74 108 151 199 252 312 392 479
#
# _framework density 25.160912
#
# number of rings (size 3 to 8) (size 9 to 14) (size 15 to 20)
#    0.000    0.400    0.000    7.200    8.400    4.800 
#    0.000    0.000    0.000    0.000    0.000    0.000 
#    0.000    0.000    0.000    0.000    0.000    0.000 
#
# Total GULP energy -495797.562445 kJ/mol
# GULP energy per Si atom -12394.939061 kJ/mol
# Density = 2.510365 g / cm^3
# Si number density = 25.160912 Si / 1000 Ang^3
#
#
#
# Elastic Constant Matrix: (Units=GPa)
#
#
# Indices 1 2 3 4 5 6 
#
# 1 122.1500 53.1680 46.4700 0.0000 0.0000 0.0000
# 2 53.1680 122.1502 46.4692 0.0000 0.0000 0.0000
# 3 46.4700 46.4692 132.4050 0.0000 0.0000 0.0000
# 4 0.0000 0.0000 0.0000 38.2207 0.0000 0.0000
# 5 0.0000 0.0000 0.0000 0.0000 38.2208 0.0000
# 6 0.0000 0.0000 0.0000 0.0000 0.0000 50.1856
#
#
#
# Elastic Compliance Matrix: (Units=1/GPa)
#
#
# Indices 1 2 3 4 5 6 
#
# 1 0.010752 -0.003744 -0.002460 0.000000 0.000000 0.000000
# 2 -0.003744 0.010752 -0.002459 0.000000 0.000000 0.000000
# 3 -0.002460 -0.002459 0.009279 0.000000 0.000000 0.000000
# 4 0.000000 0.000000 0.000000 0.026164 0.000000 0.000000
# 5 0.000000 0.000000 0.000000 0.000000 0.026164 0.000000
# 6 0.000000 0.000000 0.000000 0.000000 0.000000 0.019926
#
#
# Mechanical properties :
#
#
# Convention : Reuss Voigt Hill
#
# Bulk Modulus (GPa) = 74.31334 74.32440 74.31887
# Shear Modulus (GPa) = 40.04838 40.69864 40.37351
#
# Velocity S-wave (km/s) = 3.99393 4.02622 4.01011
# Velocity P-wave (km/s) = 7.13218 7.15665 7.14443
#
# Compressibility (1/GPa) = 0.01345653
#
# Stress axis : x y z
#
# Youngs Moduli (GPa) = 93.00453 93.00524 107.77065
#
# Poissons Ratio (x) = 0.34825 0.26507
# Poissons Ratio (y) = 0.34825 0.26505
# Poissons Ratio (z) = 0.22875 0.22874
#
# Static dielectric constant tensor:
#      x y z
#    x 4.865380 0.000000 0.000000 
#    y 0.000000 4.865410 0.000000 
#    z 0.000000 0.000000 4.635500 
# 
# 
# High freq. dielectric constant tensor:
#      x y z
#    x 2.006070 0.000000 0.000000 
#    y 0.000000 2.006070 0.000000 
#    z 0.000000 0.000000 2.024260 
# 
# From -- ./inp_files/889.got.cif
#   From: 2010.03.12/outbox.cif.g09.slc.cpg/sg116_1_cif.got.tgz:889.got - 2010.04.14 02:15:44.
