data_PCOD8310451
_publ_section_title
;
Structure prediction by ZEFSAII (Michael W. Deem and Ramdas Pophale) SiO2 
 PCOD8310451
Probable space group: P -4 N 2
;
_chemical_formula_sum "Si O2"
_cell_formula_units_Z 32
_cell_length_a 7.326549
_cell_length_b 7.326549
_cell_length_c 27.879368
_cell_angle_alpha 90.000000
_cell_angle_beta 90.000000
_cell_angle_gamma 90.000000
_cell_volume 1496.517644
_symmetry_space_group_name_H-M "P -4 N 2"
_symmetry_group_IT_number 118
_symmetry_cell_setting 'tetragonal'
loop_
_space_group_symop_operation_xyz
x,y,z
y,-x,-z
-x,-y,z
-y,x,-z
1/2+y,1/2+x,1/2-z
1/2-y,1/2-x,1/2-z
1/2-x,1/2+y,1/2+z
1/2+x,1/2-y,1/2+z
loop_
_atom_site_type_symbol
_atom_site_label
_atom_site_fract_x
_atom_site_fract_y
_atom_site_fract_z
Si Si1 0.000000 0.291011 0.516448
Si Si2 0.799037 0.717109 0.197764
Si Si3 0.000001 0.783132 0.624763
Si Si4 0.782893 0.299036 0.302236
O O1 0.181894 0.181895 0.500000
O O2 0.000000 0.500000 0.495512
O O3 0.000000 0.311257 0.573541
O O4 0.721399 0.778602 0.250000
O O5 0.674264 0.787088 0.154514
O O6 0.805473 0.500001 0.198468
O O7 0.000001 0.799019 0.188798
O O8 0.825737 0.712913 0.654514
O O9 0.000000 0.000000 0.617639
O O10 0.721399 0.221399 0.250000
#
# Coordination Sequence:
#
# PCOD8310451 Si02
#       4
#     8   8   8   8
#     4  11  25  48  71  97 134 173 231 294 351 406
#     4   8  15  29  51  82 123 165 205 249 309 388
#     4  10  18  35  61  90 121 169 216 267 331 393
#     4   8  15  29  51  82 123 165 205 249 309 388
#
# _framework density 21.382978000000001
#
# number of rings (size 3 to 8) (size 9 to 14) (size 15 to 20)
#    0.000    2.750    2.500    1.500    0.000    2.500 
#    4.500    0.000    0.000    0.000    0.000    0.000 
#    0.000    0.000    0.000    0.000    0.000    0.000 
#
# Total GULP energy -396541.333150 kJ/mol
# GULP energy per Si atom -12391.916661 kJ/mol
# Density = 2.133431 g / cm^3
# Si number density = 21.382978 Si / 1000 Ang^3
#
#
#
# Elastic Constant Matrix: (Units=GPa)
#
#
# Indices 1 2 3 4 5 6 
#
# 1 115.8829 34.1059 39.5732 0.0000 0.0000 0.0000
# 2 34.1059 115.8828 39.5732 0.0000 0.0000 0.0000
# 3 39.5732 39.5732 156.3992 0.0000 0.0000 0.0000
# 4 0.0000 0.0000 0.0000 -3.4185 0.0000 0.0000
# 5 0.0000 0.0000 0.0000 0.0000 -3.4178 0.0000
# 6 0.0000 0.0000 0.0000 0.0000 0.0000 3.6413
#
#
#
# Elastic Compliance Matrix: (Units=1/GPa)
#
#
# Indices 1 2 3 4 5 6 
#
# 1 0.009961 -0.002267 -0.001947 0.000000 0.000000 0.000000
# 2 -0.002267 0.009961 -0.001947 0.000000 0.000000 0.000000
# 3 -0.001947 -0.001947 0.007379 0.000000 0.000000 0.000000
# 4 0.000000 0.000000 0.000000 -0.292526 0.000000 0.000000
# 5 0.000000 0.000000 0.000000 0.000000 -0.292589 0.000000
# 6 0.000000 0.000000 0.000000 0.000000 0.000000 0.274631
#
#
# Mechanical properties :
#
#
# Convention : Reuss Voigt Hill
#
# Bulk Modulus (GPa) = 66.75345 68.29662 67.52503
# Shear Modulus (GPa) = -18.80640 17.68851 -0.55895
#
# Velocity S-wave (km/s) = -2.96886 2.87927 -0.51183
# Velocity P-wave (km/s) = 4.41969 6.56221 5.59447
#
# Compressibility (1/GPa) = 0.01498050
#
# Stress axis : x y z
#
# Youngs Moduli (GPa) = 100.38703 100.38693 135.51716
#
# Poissons Ratio (x) = 0.22757 0.26384
# Poissons Ratio (y) = 0.22757 0.26384
# Poissons Ratio (z) = 0.19545 0.19545
#
# Static dielectric constant tensor:
#      x y z
#    x 3.946640 0.000000 0.000000 
#    y 0.000000 3.946650 0.000000 
#    z 0.000000 0.000000 3.938650 
# 
# 
# High freq. dielectric constant tensor:
#      x y z
#    x 1.826320 0.000000 0.000000 
#    y 0.000000 1.826320 0.000000 
#    z 0.000000 0.000000 1.834910 
# 
# From -- ./inp_files/5899.got.cif
#   From: 2010.03.12/outbox.cif.g09.slc.cpg/sg118_3_cif.got.tgz:5899.got - 2010.04.14 02:21:17.
