data_PCOD8310369
_publ_section_title
;
Structure prediction by ZEFSAII (Michael W. Deem and Ramdas Pophale) SiO2 
 PCOD8310369
Probable space group: P -4 B 2
;
_chemical_formula_sum "Si O2"
_cell_formula_units_Z 36
_cell_length_a 13.466038
_cell_length_b 13.466038
_cell_length_c 9.343170
_cell_angle_alpha 90.000000
_cell_angle_beta 90.000000
_cell_angle_gamma 90.000000
_cell_volume 1694.236065
_symmetry_space_group_name_H-M "P -4 B 2"
_symmetry_group_IT_number 117
_symmetry_cell_setting 'tetragonal'
loop_
_space_group_symop_operation_xyz
x,y,z
y,-x,-z
-x,-y,z
-y,x,-z
1/2+y,1/2+x,-z
1/2-y,1/2-x,-z
1/2-x,1/2+y,z
1/2+x,1/2-y,z
loop_
_atom_site_type_symbol
_atom_site_label
_atom_site_fract_x
_atom_site_fract_y
_atom_site_fract_z
Si Si1 0.634836 0.578951 0.953263
Si Si2 0.060889 0.336136 0.710894
Si Si3 0.500000 0.500000 0.500000
Si Si4 0.000000 0.500000 0.500000
Si Si5 0.729172 0.229172 0.500000
Si Si6 0.850901 0.649100 0.000000
Si Si7 0.830350 0.916778 0.330313
O O1 0.639255 0.601301 0.784622
O O2 0.630529 0.460062 0.971750
O O3 0.733824 0.627696 0.017550
O O4 0.154959 0.289231 0.631051
O O5 0.000255 0.405669 0.603222
O O6 0.981300 0.251939 0.753228
O O7 0.099107 0.394582 0.854363
O O8 0.496351 0.399174 0.590054
O O9 0.840441 0.217931 0.558477
#
# Coordination Sequence:
#
# PCOD8310369 Si02
#       7
#     8   8   2   2   4   4   8
#     4  11  24  44  67  98 141 181 229 291 346 413
#     4  11  24  46  68  98 139 182 230 289 344 425
#     4  12  24  36  70 100 128 172 236 282 344 408
#     4  10  26  50  68 100 142 180 232 288 352 422
#     4  11  23  41  68  97 139 177 228 284 350 408
#     4  12  24  45  70 101 136 184 236 282 352 418
#     4  12  23  42  67 102 132 180 229 288 347 410
#
# _framework density 21.248515000000001
#
# number of rings (size 3 to 8) (size 9 to 14) (size 15 to 20)
#    0.000    0.667    6.667    2.000    0.000    0.444 
#    4.000    0.000    0.000    0.000    0.000    0.000 
#    0.000    0.000    0.000    0.000    0.000    0.000 
#
# Total GULP energy -446393.032776 kJ/mol
# GULP energy per Si atom -12399.806466 kJ/mol
# Density = 2.120015 g / cm^3
# Si number density = 21.248515 Si / 1000 Ang^3
#
#
#
# Elastic Constant Matrix: (Units=GPa)
#
#
# Indices 1 2 3 4 5 6 
#
# 1 95.2873 56.0591 38.1872 0.0000 0.0000 0.0000
# 2 56.0591 95.2889 38.1871 0.0000 0.0000 0.0000
# 3 38.1872 38.1871 134.9716 0.0000 0.0000 0.0000
# 4 0.0000 0.0000 0.0000 25.8778 0.0000 0.0000
# 5 0.0000 0.0000 0.0000 0.0000 25.8775 0.0000
# 6 0.0000 0.0000 0.0000 0.0000 0.0000 36.0725
#
#
#
# Elastic Compliance Matrix: (Units=1/GPa)
#
#
# Indices 1 2 3 4 5 6 
#
# 1 0.016600 -0.008892 -0.002181 0.000000 0.000000 0.000000
# 2 -0.008892 0.016599 -0.002181 0.000000 0.000000 0.000000
# 3 -0.002181 -0.002181 0.008643 0.000000 0.000000 0.000000
# 4 0.000000 0.000000 0.000000 0.038643 0.000000 0.000000
# 5 0.000000 0.000000 0.000000 0.000000 0.038644 0.000000
# 6 0.000000 0.000000 0.000000 0.000000 0.000000 0.027722
#
#
# Mechanical properties :
#
#
# Convention : Reuss Voigt Hill
#
# Bulk Modulus (GPa) = 65.20792 65.60161 65.40476
# Shear Modulus (GPa) = 28.01602 30.43983 29.22793
#
# Velocity S-wave (km/s) = 3.63505 3.78903 3.71283
# Velocity P-wave (km/s) = 6.95506 7.07692 7.01626
#
# Compressibility (1/GPa) = 0.01533556
#
# Stress axis : x y z
#
# Youngs Moduli (GPa) = 60.24196 60.24311 115.70116
#
# Poissons Ratio (x) = 0.53567 0.25232
# Poissons Ratio (y) = 0.53566 0.25231
# Poissons Ratio (z) = 0.13138 0.13137
#
# Static dielectric constant tensor:
#      x y z
#    x 3.738500 0.000000 0.000000 
#    y 0.000000 3.738480 0.000000 
#    z 0.000000 0.000000 3.977420 
# 
# 
# High freq. dielectric constant tensor:
#      x y z
#    x 1.828240 0.000000 0.000000 
#    y 0.000000 1.828240 0.000000 
#    z 0.000000 0.000000 1.847080 
# 
# From -- ./inp_files/1660.got.cif
#   From: 2010.03.12/outbox.cif.g09.slc.cpg/sg117_1_cif.got.tgz:1660.got - 2010.04.14 02:19:01.
