data_PCOD8310619
_publ_section_title
;
Structure prediction by ZEFSAII (Michael W. Deem and Ramdas Pophale) SiO2 
 PCOD8310619
Probable space group: P -4 N 2
;
_chemical_formula_sum "Si O2"
_cell_formula_units_Z 40
_cell_length_a 7.841804
_cell_length_b 7.841804
_cell_length_c 27.636213
_cell_angle_alpha 90.000000
_cell_angle_beta 90.000000
_cell_angle_gamma 90.000000
_cell_volume 1699.458242
_symmetry_space_group_name_H-M "P -4 N 2"
_symmetry_group_IT_number 118
_symmetry_cell_setting 'tetragonal'
loop_
_space_group_symop_operation_xyz
x,y,z
y,-x,-z
-x,-y,z
-y,x,-z
1/2+y,1/2+x,1/2-z
1/2-y,1/2-x,1/2-z
1/2-x,1/2+y,1/2+z
1/2+x,1/2-y,1/2+z
loop_
_atom_site_type_symbol
_atom_site_label
_atom_site_fract_x
_atom_site_fract_y
_atom_site_fract_z
Si Si1 0.230338 0.648145 0.153498
Si Si2 0.149577 0.772940 0.053399
Si Si3 0.072070 0.683073 0.646537
Si Si4 0.624048 0.198546 0.695501
Si Si5 0.330126 0.266340 0.446807
O O1 0.240662 0.672166 0.096123
O O2 0.420611 0.702985 0.171027
O O3 0.201548 0.450702 0.162341
O O4 0.070329 0.747925 0.180110
O O5 0.948663 0.741970 0.060924
O O6 0.203505 0.968448 0.058183
O O7 0.207558 0.698393 0.001194
O O8 0.234905 0.657915 0.683372
O O9 0.136020 0.743575 0.593233
O O10 0.000000 0.500000 0.637642
O O11 0.631149 0.131149 0.750000
#
# Coordination Sequence:
#
# PCOD8310619 Si02
#       5
#     8   8   8   8   8
#     4  11  22  45  73  97 136 186 231 292 357 420
#     4   9  17  36  68  94 141 198 225 277 348 416
#     4  12  24  43  70 104 141 174 234 297 351 423
#     4  11  27  52  70  94 139 186 240 300 363 428
#     4   9  18  36  62 103 142 185 237 275 340 422
#
# _framework density 23.536909000000001
#
# number of rings (size 3 to 8) (size 9 to 14) (size 15 to 20)
#    0.000    1.600    4.000    3.000    0.000    1.200 
#   18.000    0.000    0.000    0.000    0.000    0.000 
#    0.000    0.000    0.000    0.000    0.000    0.000 
#
# Total GULP energy -495558.674102 kJ/mol
# GULP energy per Si atom -12388.966853 kJ/mol
# Density = 2.348334 g / cm^3
# Si number density = 23.536909 Si / 1000 Ang^3
#
#
#
# Elastic Constant Matrix: (Units=GPa)
#
#
# Indices 1 2 3 4 5 6 
#
# 1 81.2012 8.7330 19.3764 0.0000 0.0000 0.0000
# 2 8.7330 81.2012 19.3764 0.0000 0.0000 0.0000
# 3 19.3764 19.3764 118.8746 0.0000 0.0000 0.0000
# 4 0.0000 0.0000 0.0000 19.9005 0.0000 0.0000
# 5 0.0000 0.0000 0.0000 0.0000 19.9005 0.0000
# 6 0.0000 0.0000 0.0000 0.0000 0.0000 30.9291
#
#
#
# Elastic Compliance Matrix: (Units=1/GPa)
#
#
# Indices 1 2 3 4 5 6 
#
# 1 0.012879 -0.000920 -0.001949 0.000000 0.000000 0.000000
# 2 -0.000920 0.012879 -0.001949 0.000000 0.000000 0.000000
# 3 -0.001949 -0.001949 0.009048 0.000000 0.000000 0.000000
# 4 0.000000 0.000000 0.000000 0.050250 0.000000 0.000000
# 5 0.000000 0.000000 0.000000 0.000000 0.050250 0.000000
# 6 0.000000 0.000000 0.000000 0.000000 0.000000 0.032332
#
#
# Mechanical properties :
#
#
# Convention : Reuss Voigt Hill
#
# Bulk Modulus (GPa) = 39.73175 41.80541 40.76858
# Shear Modulus (GPa) = 26.93027 29.73212 28.33119
#
# Velocity S-wave (km/s) = 3.38623 3.55803 3.47319
# Velocity P-wave (km/s) = 5.67503 5.88894 5.78297
#
# Compressibility (1/GPa) = 0.02516879
#
# Stress axis : x y z
#
# Youngs Moduli (GPa) = 77.64463 77.64463 110.52525
#
# Poissons Ratio (x) = 0.07143 0.21545
# Poissons Ratio (y) = 0.07143 0.21545
# Poissons Ratio (z) = 0.15136 0.15136
#
# Static dielectric constant tensor:
#      x y z
#    x 4.623880 0.000000 0.000000 
#    y 0.000000 4.623880 0.000000 
#    z 0.000000 0.000000 4.320190 
# 
# 
# High freq. dielectric constant tensor:
#      x y z
#    x 1.918290 0.000000 0.000000 
#    y 0.000000 1.918290 0.000000 
#    z 0.000000 0.000000 1.929470 
# 
# From -- ./inp_files/6469.got.cif
#   From: 2010.03.12/outbox.cif.g09.slc.cpg/sg118_4_cif.got.tgz:6469.got - 2010.04.14 02:21:17.
