data_PCOD8310593
_publ_section_title
;
Structure prediction by ZEFSAII (Michael W. Deem and Ramdas Pophale) SiO2 
 PCOD8310593
Probable space group: P -4 N 2
;
_chemical_formula_sum "Si O2"
_cell_formula_units_Z 40
_cell_length_a 18.313542
_cell_length_b 18.313542
_cell_length_c 5.001355
_cell_angle_alpha 90.000000
_cell_angle_beta 90.000000
_cell_angle_gamma 90.000000
_cell_volume 1677.383551
_symmetry_space_group_name_H-M "P -4 N 2"
_symmetry_group_IT_number 118
_symmetry_cell_setting 'tetragonal'
loop_
_space_group_symop_operation_xyz
x,y,z
y,-x,-z
-x,-y,z
-y,x,-z
1/2+y,1/2+x,1/2-z
1/2-y,1/2-x,1/2-z
1/2-x,1/2+y,1/2+z
1/2+x,1/2-y,1/2+z
loop_
_atom_site_type_symbol
_atom_site_label
_atom_site_fract_x
_atom_site_fract_y
_atom_site_fract_z
Si Si1 0.570935 0.362630 0.274291
Si Si2 0.734339 0.966776 0.411143
Si Si3 0.665383 0.341450 0.801769
Si Si4 0.500000 0.000000 0.750000
Si Si5 0.520576 0.157031 0.560294
Si Si6 0.000000 0.000000 0.000000
Si Si7 0.822910 0.677091 0.250000
O O1 0.520903 0.294304 0.211372
O O2 0.630082 0.346755 0.507861
O O3 0.517476 0.429552 0.325222
O O4 0.613797 0.383860 0.007960
O O5 0.757597 0.883197 0.345778
O O6 0.711892 0.983657 0.718222
O O7 0.665689 0.985376 0.229830
O O8 0.673936 0.256602 0.892157
O O9 0.499804 0.926523 0.583053
O O10 0.608422 0.169998 0.548069
#
# Coordination Sequence:
#
# PCOD8310593 Si02
#       7
#     8   8   8   2   8   2   4
#     4  12  25  43  67 106 143 191 242 286 349 430
#     4  12  24  46  71 104 148 181 234 306 348 423
#     4  12  27  42  72 104 144 188 244 292 361 430
#     4  10  28  50  80 110 132 190 248 292 388 438
#     4  11  26  47  76 103 145 183 242 304 360 438
#     4  12  28  42  76 102 156 202 240 298 360 434
#     4  11  24  47  70 104 136 193 232 295 362 426
#
# _framework density 23.846661999999998
#
# number of rings (size 3 to 8) (size 9 to 14) (size 15 to 20)
#    0.000    0.400    6.000    1.200    2.800    9.600 
#    0.000    0.000    0.000    0.000    0.000    0.000 
#    0.000    0.000    0.000    0.000    0.000    0.000 
#
# Total GULP energy -495699.019065 kJ/mol
# GULP energy per Si atom -12392.475477 kJ/mol
# Density = 2.379239 g / cm^3
# Si number density = 23.846662 Si / 1000 Ang^3
#
#
#
# Elastic Constant Matrix: (Units=GPa)
#
#
# Indices 1 2 3 4 5 6 
#
# 1 139.6289 4.4672 3.8312 0.0000 0.0000 0.0000
# 2 4.4672 139.6276 3.8294 0.0000 0.0000 0.0000
# 3 3.8312 3.8294 66.9488 0.0000 0.0000 0.0000
# 4 0.0000 0.0000 0.0000 -4.1930 0.0000 0.0000
# 5 0.0000 0.0000 0.0000 0.0000 -4.1947 0.0000
# 6 0.0000 0.0000 0.0000 0.0000 0.0000 40.5704
#
#
#
# Elastic Compliance Matrix: (Units=1/GPa)
#
#
# Indices 1 2 3 4 5 6 
#
# 1 0.007180 -0.000219 -0.000398 0.000000 0.000000 0.000000
# 2 -0.000219 0.007180 -0.000398 0.000000 0.000000 0.000000
# 3 -0.000398 -0.000398 0.014982 0.000000 0.000000 0.000000
# 4 0.000000 0.000000 0.000000 -0.238493 0.000000 0.000000
# 5 0.000000 0.000000 0.000000 0.000000 -0.238395 0.000000
# 6 0.000000 0.000000 0.000000 0.000000 0.000000 0.024649
#
#
# Mechanical properties :
#
#
# Convention : Reuss Voigt Hill
#
# Bulk Modulus (GPa) = 36.61479 41.16231 38.88855
# Shear Modulus (GPa) = -12.14290 28.70837 8.28273
#
# Velocity S-wave (km/s) = -2.25901 3.47345 1.86571
# Velocity P-wave (km/s) = 2.92975 5.77799 4.58086
#
# Compressibility (1/GPa) = 0.02731137
#
# Stress axis : x y z
#
# Youngs Moduli (GPa) = 139.28025 139.27909 66.74519
#
# Poissons Ratio (x) = 0.03047 0.02659
# Poissons Ratio (y) = 0.03047 0.02658
# Poissons Ratio (z) = 0.05548 0.05545
#
# Static dielectric constant tensor:
#      x y z
#    x 5.509700 0.000000 0.000000 
#    y 0.000000 5.509790 0.000000 
#    z 0.000000 0.000000 4.257530 
# 
# 
# High freq. dielectric constant tensor:
#      x y z
#    x 1.957980 0.000000 0.000000 
#    y 0.000000 1.957980 0.000000 
#    z 0.000000 0.000000 1.932070 
# 
# From -- ./inp_files/673.got.cif
#   From: 2010.03.12/outbox.cif.g09.slc.cpg/sg118_1_cif.got.tgz:673.got - 2010.04.14 02:21:17.
