data_PCOD8310090
_publ_section_title
;
Structure prediction by ZEFSAII (Michael W. Deem and Ramdas Pophale) SiO2 
 PCOD8310090
Probable space group: P -4 C 2
;
_chemical_formula_sum "Si O2"
_cell_formula_units_Z 40
_cell_length_a 11.762725
_cell_length_b 11.762725
_cell_length_c 15.217788
_cell_angle_alpha 90.000000
_cell_angle_beta 90.000000
_cell_angle_gamma 90.000000
_cell_volume 2105.559009
_symmetry_space_group_name_H-M "P -4 C 2"
_symmetry_group_IT_number 116
_symmetry_cell_setting 'tetragonal'
loop_
_space_group_symop_operation_xyz
x,y,z
y,-x,-z
-x,-y,z
-y,x,-z
y,x,1/2-z
-y,-x,1/2-z
-x,y,1/2+z
x,-y,1/2+z
loop_
_atom_site_type_symbol
_atom_site_label
_atom_site_fract_x
_atom_site_fract_y
_atom_site_fract_z
Si Si1 0.525367 0.133050 0.631595
Si Si2 0.250697 0.075945 0.208827
Si Si3 0.179717 0.021401 0.023125
Si Si4 0.414992 0.901025 0.446078
Si Si5 0.845300 0.338041 0.233491
O O1 0.645598 0.157839 0.679180
O O2 0.533746 0.172162 0.528870
O O3 0.424491 0.189287 0.687731
O O4 0.500000 0.000000 0.628248
O O5 0.151872 0.151872 0.250000
O O6 0.199939 0.007944 0.126478
O O7 0.299994 0.977910 0.272421
O O8 0.296608 0.041673 0.973329
O O9 0.096340 0.127557 0.009378
O O10 0.396389 0.819835 0.361233
O O11 0.500000 0.000000 0.416467
O O12 0.772624 0.227377 0.250000
#
# Coordination Sequence:
#
# PCOD8310090 Si02
#       5
#     8   8   8   8   8
#     4   8  18  35  51  74 105 141 183 215 248 304
#     4  10  19  32  52  77 107 141 177 216 259 308
#     4  10  20  33  48  75 113 145 174 211 261 317
#     4  10  19  33  53  73 104 145 179 214 255 304
#     4  11  21  34  54  81 108 134 171 218 264 314
#
# _framework density 18.997329000000001
#
# number of rings (size 3 to 8) (size 9 to 14) (size 15 to 20)
#    0.000    2.200    0.000    5.400    0.000    2.000 
#    0.000    2.000    0.000    0.600    0.000    0.000 
#    0.000    7.200    0.000    0.000    0.000    0.000 
#
# Total GULP energy -495811.422814 kJ/mol
# GULP energy per Si atom -12395.285570 kJ/mol
# Density = 1.895409 g / cm^3
# Si number density = 18.997329 Si / 1000 Ang^3
#
#
#
# Elastic Constant Matrix: (Units=GPa)
#
#
# Indices 1 2 3 4 5 6 
#
# 1 69.5447 21.1029 33.8099 0.0000 0.0000 0.0000
# 2 21.1029 69.5474 33.8114 0.0000 0.0000 0.0000
# 3 33.8099 33.8114 135.0530 0.0000 0.0000 0.0000
# 4 0.0000 0.0000 0.0000 28.1475 0.0000 0.0000
# 5 0.0000 0.0000 0.0000 0.0000 28.1467 0.0000
# 6 0.0000 0.0000 0.0000 0.0000 0.0000 8.5544
#
#
#
# Elastic Compliance Matrix: (Units=1/GPa)
#
#
# Indices 1 2 3 4 5 6 
#
# 1 0.017104 -0.003539 -0.003396 0.000000 0.000000 0.000000
# 2 -0.003539 0.017104 -0.003396 0.000000 0.000000 0.000000
# 3 -0.003396 -0.003396 0.009105 0.000000 0.000000 0.000000
# 4 0.000000 0.000000 0.000000 0.035527 0.000000 0.000000
# 5 0.000000 0.000000 0.000000 0.000000 0.035528 0.000000
# 6 0.000000 0.000000 0.000000 0.000000 0.000000 0.116899
#
#
# Mechanical properties :
#
#
# Convention : Reuss Voigt Hill
#
# Bulk Modulus (GPa) = 44.14877 50.17704 47.16290
# Shear Modulus (GPa) = 19.26940 25.33113 22.30027
#
# Velocity S-wave (km/s) = 3.18830 3.65554 3.42989
# Velocity P-wave (km/s) = 6.06989 6.65487 6.36910
#
# Compressibility (1/GPa) = 0.02265069
#
# Stress axis : x y z
#
# Youngs Moduli (GPa) = 58.46564 58.46751 109.83132
#
# Poissons Ratio (x) = 0.20691 0.37298
# Poissons Ratio (y) = 0.20691 0.37299
# Poissons Ratio (z) = 0.19855 0.19856
#
# Static dielectric constant tensor:
#      x y z
#    x 3.330970 0.000000 0.000000 
#    y 0.000000 3.330970 0.000000 
#    z 0.000000 0.000000 3.963760 
# 
# 
# High freq. dielectric constant tensor:
#      x y z
#    x 1.708730 0.000000 0.000000 
#    y 0.000000 1.708730 0.000000 
#    z 0.000000 0.000000 1.763590 
# 
# From -- ./inp_files/2550.got.cif
#   From: 2010.03.12/outbox.cif.g09.slc.cpg/sg116_2_cif.got.tgz:2550.got - 2010.04.14 02:15:44.
