data_PCOD8310187
_publ_section_title
;
Structure prediction by ZEFSAII (Michael W. Deem and Ramdas Pophale) SiO2 
 PCOD8310187
Probable space group: P -4 C 2
;
_chemical_formula_sum "Si O2"
_cell_formula_units_Z 56
_cell_length_a 10.707384
_cell_length_b 10.707384
_cell_length_c 22.922726
_cell_angle_alpha 90.000000
_cell_angle_beta 90.000000
_cell_angle_gamma 90.000000
_cell_volume 2628.046344
_symmetry_space_group_name_H-M "P -4 C 2"
_symmetry_group_IT_number 116
_symmetry_cell_setting 'tetragonal'
loop_
_space_group_symop_operation_xyz
x,y,z
y,-x,-z
-x,-y,z
-y,x,-z
y,x,1/2-z
-y,-x,1/2-z
-x,y,1/2+z
x,-y,1/2+z
loop_
_atom_site_type_symbol
_atom_site_label
_atom_site_fract_x
_atom_site_fract_y
_atom_site_fract_z
Si Si1 0.722064 0.277937 0.250000
Si Si2 0.500000 0.500000 0.104824
Si Si3 0.284326 0.376879 0.956250
Si Si4 0.939259 0.364080 0.848116
Si Si5 0.364312 0.168595 0.030243
Si Si6 0.039891 0.827999 0.032094
Si Si7 0.696584 0.448692 0.797612
Si Si8 0.200183 0.835094 0.139369
O O1 0.586062 0.261023 0.222009
O O2 0.819553 0.254862 0.195980
O O3 0.403768 0.571748 0.062751
O O4 0.444057 0.385629 0.143135
O O5 0.189540 0.488091 0.970383
O O6 0.220735 0.302659 0.903824
O O7 0.296373 0.299450 0.015752
O O8 0.881073 0.318968 0.908469
O O9 0.823400 0.368913 0.803118
O O10 0.000000 0.500000 0.853287
O O11 0.037899 0.256152 0.831783
O O12 0.318492 0.066865 0.981453
O O13 0.073956 0.856312 0.100471
O O14 0.901173 0.868415 0.014473
O O15 0.607446 0.392555 0.750000
#
# Coordination Sequence:
#
# PCOD8310187 Si02
#       8
#     4   4   8   8   8   8   8   8
#     4  12  19  38  64  89 124 160 214 258 309 380
#     4  12  17  35  54  84 126 156 196 236 308 384
#     4  11  21  33  55  89 124 158 194 258 316 373
#     4  12  21  40  61  88 120 166 208 246 317 390
#     4  11  21  34  57  87 123 152 201 255 309 380
#     4  10  22  40  64  88 118 162 214 263 313 374
#     4  12  22  35  60  87 120 163 204 254 308 381
#     4  11  22  39  64  91 115 165 215 257 309 378
#
# _framework density 21.308606000000001
#
# number of rings (size 3 to 8) (size 9 to 14) (size 15 to 20)
#    0.000    0.714    8.571    0.857    0.000    0.000 
#    0.000    1.429    0.000    0.000   14.857    0.000 
#    0.000    0.000    0.000    0.000    0.000    0.000 
#
# Total GULP energy -693795.783579 kJ/mol
# GULP energy per Si atom -12389.210421 kJ/mol
# Density = 2.126011 g / cm^3
# Si number density = 21.308606 Si / 1000 Ang^3
#
#
#
# Elastic Constant Matrix: (Units=GPa)
#
#
# Indices 1 2 3 4 5 6 
#
# 1 45.7278 9.3176 15.5595 0.0000 0.0000 0.0000
# 2 9.3176 45.7199 15.5570 0.0000 0.0000 0.0000
# 3 15.5595 15.5570 83.1215 0.0000 0.0000 0.0000
# 4 0.0000 0.0000 0.0000 23.1609 0.0000 0.0000
# 5 0.0000 0.0000 0.0000 0.0000 23.1622 0.0000
# 6 0.0000 0.0000 0.0000 0.0000 0.0000 27.9986
#
#
#
# Elastic Compliance Matrix: (Units=1/GPa)
#
#
# Indices 1 2 3 4 5 6 
#
# 1 0.023891 -0.003575 -0.003803 0.000000 0.000000 0.000000
# 2 -0.003575 0.023895 -0.003803 0.000000 0.000000 0.000000
# 3 -0.003803 -0.003803 0.013454 0.000000 0.000000 0.000000
# 4 0.000000 0.000000 0.000000 0.043176 0.000000 0.000000
# 5 0.000000 0.000000 0.000000 0.000000 0.043174 0.000000
# 6 0.000000 0.000000 0.000000 0.000000 0.000000 0.035716
#
#
# Mechanical properties :
#
#
# Convention : Reuss Voigt Hill
#
# Bulk Modulus (GPa) = 25.72131 28.38194 27.05162
# Shear Modulus (GPa) = 22.86994 23.80667 23.33830
#
# Velocity S-wave (km/s) = 3.27964 3.34613 3.31305
# Velocity P-wave (km/s) = 5.14183 5.31763 5.23047
#
# Compressibility (1/GPa) = 0.03887827
#
# Stress axis : x y z
#
# Youngs Moduli (GPa) = 41.85672 41.84996 74.32603
#
# Poissons Ratio (x) = 0.14961 0.28267
# Poissons Ratio (y) = 0.14963 0.28266
# Poissons Ratio (z) = 0.15918 0.15915
#
# Static dielectric constant tensor:
#      x y z
#    x 4.044550 0.000000 0.000000 
#    y 0.000000 4.044550 0.000000 
#    z 0.000000 0.000000 4.022620 
# 
# 
# High freq. dielectric constant tensor:
#      x y z
#    x 1.827050 0.000000 0.000000 
#    y 0.000000 1.827050 0.000000 
#    z 0.000000 0.000000 1.827830 
# 
# From -- ./inp_files/4636.got.cif
#   From: 2010.03.12/outbox.cif.g09.slc.cpg/sg116_3_cif.got.tgz:4636.got - 2010.04.14 02:15:44.
