data_PCOD8310319
_publ_section_title
;
Structure prediction by ZEFSAII (Michael W. Deem and Ramdas Pophale) SiO2 
 PCOD8310319
Probable space group: P -4 B 2
;
_chemical_formula_sum "Si O2"
_cell_formula_units_Z 48
_cell_length_a 14.457011
_cell_length_b 14.457011
_cell_length_c 11.655406
_cell_angle_alpha 90.000000
_cell_angle_beta 90.000000
_cell_angle_gamma 90.000000
_cell_volume 2436.040078
_symmetry_space_group_name_H-M "P -4 B 2"
_symmetry_group_IT_number 117
_symmetry_cell_setting 'tetragonal'
loop_
_space_group_symop_operation_xyz
x,y,z
y,-x,-z
-x,-y,z
-y,x,-z
1/2+y,1/2+x,-z
1/2-y,1/2-x,-z
1/2-x,1/2+y,z
1/2+x,1/2-y,z
loop_
_atom_site_type_symbol
_atom_site_label
_atom_site_fract_x
_atom_site_fract_y
_atom_site_fract_z
Si Si1 0.675382 0.683898 0.178527
Si Si2 0.662986 0.162986 0.000000
Si Si3 0.500000 0.500000 0.500000
Si Si4 0.840262 0.972793 0.150742
Si Si5 0.000000 0.000000 0.000000
Si Si6 0.690227 0.954366 0.966444
Si Si7 0.449749 0.323618 0.597784
Si Si8 0.711489 0.663500 0.436173
O O1 0.766213 0.687020 0.100619
O O2 0.635320 0.580242 0.173209
O O3 0.597512 0.757199 0.137830
O O4 0.703449 0.706404 0.309151
O O5 0.672652 0.062424 0.940078
O O6 0.444529 0.433797 0.583927
O O7 0.930255 0.937892 0.079079
O O8 0.813961 0.921564 0.269200
O O9 0.750383 0.949350 0.080111
O O10 0.593968 0.906033 0.000000
O O11 0.551669 0.284230 0.568682
O O12 0.372104 0.288169 0.509230
O O13 0.805528 0.694473 0.500000
#
# Coordination Sequence:
#
# PCOD8310319 Si02
#       8
#     8   4   2   8   2   8   8   8
#     4  10  21  39  57  89 122 153 206 250 301 364
#     4  10  23  40  60  91 124 160 202 252 310 371
#     4   8  14  32  52  78 104 150 176 232 294 328
#     4  10  21  34  55  86 121 153 192 249 302 363
#     4  12  18  32  56  94 120 150 196 232 322 372
#     4  11  22  38  60  85 122 160 197 245 308 372
#     4   9  19  36  54  81 118 146 195 244 288 359
#     4  10  22  37  60  86 112 161 202 243 305 354
#
# _framework density 19.704108999999999
#
# number of rings (size 3 to 8) (size 9 to 14) (size 15 to 20)
#    0.000    2.000    2.500    0.750    2.333    2.667 
#    0.000    0.000    0.000    0.500    0.000    0.000 
#    0.000    0.000    0.000    0.000    0.000    0.000 
#
# Total GULP energy -594726.031073 kJ/mol
# GULP energy per Si atom -12390.125647 kJ/mol
# Density = 1.965926 g / cm^3
# Si number density = 19.704109 Si / 1000 Ang^3
#
#
#
# Elastic Constant Matrix: (Units=GPa)
#
#
# Indices 1 2 3 4 5 6 
#
# 1 60.7490 31.9380 33.2221 0.0000 0.0000 0.0000
# 2 31.9380 60.7499 33.2239 0.0000 0.0000 0.0000
# 3 33.2221 33.2239 139.2211 0.0000 0.0000 0.0000
# 4 0.0000 0.0000 0.0000 25.9717 0.0000 0.0000
# 5 0.0000 0.0000 0.0000 0.0000 25.9713 0.0000
# 6 0.0000 0.0000 0.0000 0.0000 0.0000 25.0372
#
#
#
# Elastic Compliance Matrix: (Units=1/GPa)
#
#
# Indices 1 2 3 4 5 6 
#
# 1 0.023862 -0.010846 -0.003106 0.000000 0.000000 0.000000
# 2 -0.010846 0.023862 -0.003106 0.000000 0.000000 0.000000
# 3 -0.003106 -0.003106 0.008665 0.000000 0.000000 0.000000
# 4 0.000000 0.000000 0.000000 0.038503 0.000000 0.000000
# 5 0.000000 0.000000 0.000000 0.000000 0.038504 0.000000
# 6 0.000000 0.000000 0.000000 0.000000 0.000000 0.039940
#
#
# Mechanical properties :
#
#
# Convention : Reuss Voigt Hill
#
# Bulk Modulus (GPa) = 44.89849 50.83200 47.86525
# Shear Modulus (GPa) = 23.26903 26.21846 24.74374
#
# Velocity S-wave (km/s) = 3.44018 3.65171 3.54752
# Velocity P-wave (km/s) = 6.21415 6.60558 6.41285
#
# Compressibility (1/GPa) = 0.02227246
#
# Stress axis : x y z
#
# Youngs Moduli (GPa) = 41.90764 41.90774 115.40413
#
# Poissons Ratio (x) = 0.45455 0.35842
# Poissons Ratio (y) = 0.45455 0.35847
# Poissons Ratio (z) = 0.13015 0.13017
#
# Static dielectric constant tensor:
#      x y z
#    x 3.630230 0.000000 0.000000 
#    y 0.000000 3.630240 0.000000 
#    z 0.000000 0.000000 4.191340 
# 
# 
# High freq. dielectric constant tensor:
#      x y z
#    x 1.756040 0.000000 0.000000 
#    y 0.000000 1.756040 0.000000 
#    z 0.000000 0.000000 1.775910 
# 
# From -- ./inp_files/2838.got.cif
#   From: 2010.03.12/outbox.cif.g09.slc.cpg/sg117_2_cif.got.tgz:2838.got - 2010.04.14 02:19:01.
