data_PCOD8310068
_publ_section_title
;
Structure prediction by ZEFSAII (Michael W. Deem and Ramdas Pophale) SiO2 
 PCOD8310068
Probable space group: P -4 C 2
;
_chemical_formula_sum "Si O2"
_cell_formula_units_Z 48
_cell_length_a 11.523493
_cell_length_b 11.523493
_cell_length_c 20.390419
_cell_angle_alpha 90.000000
_cell_angle_beta 90.000000
_cell_angle_gamma 90.000000
_cell_volume 2707.661905
_symmetry_space_group_name_H-M "P -4 C 2"
_symmetry_group_IT_number 116
_symmetry_cell_setting 'tetragonal'
loop_
_space_group_symop_operation_xyz
x,y,z
y,-x,-z
-x,-y,z
-y,x,-z
y,x,1/2-z
-y,-x,1/2-z
-x,y,1/2+z
x,-y,1/2+z
loop_
_atom_site_type_symbol
_atom_site_label
_atom_site_fract_x
_atom_site_fract_y
_atom_site_fract_z
Si Si1 0.624630 0.942880 0.642594
Si Si2 0.647762 0.665249 0.086630
Si Si3 0.236894 0.470569 0.766928
Si Si4 0.754361 0.596353 0.955102
Si Si5 0.424184 0.626968 0.353881
Si Si6 0.282090 0.833997 0.693856
O O1 0.624582 0.848702 0.701262
O O2 0.645128 0.877123 0.572841
O O3 0.500000 0.000000 0.636927
O O4 0.723365 0.038442 0.659856
O O5 0.542435 0.743820 0.058955
O O6 0.588039 0.551680 0.120089
O O7 0.726396 0.737574 0.137084
O O8 0.739147 0.624930 0.031262
O O9 0.259285 0.437904 0.691631
O O10 0.356388 0.471174 0.809983
O O11 0.180245 0.596678 0.768264
O O12 0.651130 0.662453 0.916857
O O13 0.182966 0.817035 0.750000
#
# Coordination Sequence:
#
# PCOD8310068 Si02
#       6
#     8   8   8   8   8   8
#     4   9  18  36  50  67 103 150 180 207 271 321
#     4  12  20  28  46  78 108 145 177 207 267 331
#     4   9  18  29  47  72 107 144 166 212 268 324
#     4  11  21  30  48  72 114 151 169 215 258 345
#     4  10  18  27  43  76 108 135 172 209 263 332
#     4  11  20  32  54  74 100 140 187 225 261 319
#
# _framework density 17.727471000000001
#
# number of rings (size 3 to 8) (size 9 to 14) (size 15 to 20)
#    0.000    1.667    8.333    0.500    0.000    0.000 
#    0.000    0.000    7.333    0.000    0.000    9.333 
#    0.000    0.000    0.000    0.000    0.000    0.000 
#
# Total GULP energy -594750.619487 kJ/mol
# GULP energy per Si atom -12390.637906 kJ/mol
# Density = 1.768712 g / cm^3
# Si number density = 17.727471 Si / 1000 Ang^3
#
#
#
# Elastic Constant Matrix: (Units=GPa)
#
#
# Indices 1 2 3 4 5 6 
#
# 1 72.1700 22.7461 33.8376 0.0000 0.0000 0.0000
# 2 22.7461 72.1698 33.8375 0.0000 0.0000 0.0000
# 3 33.8376 33.8375 93.9672 0.0000 0.0000 0.0000
# 4 0.0000 0.0000 0.0000 26.4562 0.0000 0.0000
# 5 0.0000 0.0000 0.0000 0.0000 26.4562 0.0000
# 6 0.0000 0.0000 0.0000 0.0000 0.0000 12.5110
#
#
#
# Elastic Compliance Matrix: (Units=1/GPa)
#
#
# Indices 1 2 3 4 5 6 
#
# 1 0.017204 -0.003029 -0.005104 0.000000 0.000000 0.000000
# 2 -0.003029 0.017204 -0.005104 0.000000 0.000000 0.000000
# 3 -0.005104 -0.005104 0.014318 0.000000 0.000000 0.000000
# 4 0.000000 0.000000 0.000000 0.037798 0.000000 0.000000
# 5 0.000000 0.000000 0.000000 0.000000 0.037798 0.000000
# 6 0.000000 0.000000 0.000000 0.000000 0.000000 0.079930
#
#
# Mechanical properties :
#
#
# Convention : Reuss Voigt Hill
#
# Bulk Modulus (GPa) = 44.94253 46.57216 45.75734
# Shear Modulus (GPa) = 20.99554 22.94372 21.96963
#
# Velocity S-wave (km/s) = 3.44517 3.60147 3.52419
# Velocity P-wave (km/s) = 6.42126 6.60472 6.51363
#
# Compressibility (1/GPa) = 0.02225064
#
# Stress axis : x y z
#
# Youngs Moduli (GPa) = 58.12563 58.12549 69.84107
#
# Poissons Ratio (x) = 0.17606 0.35650
# Poissons Ratio (y) = 0.17606 0.35650
# Poissons Ratio (z) = 0.29670 0.29670
#
# Static dielectric constant tensor:
#      x y z
#    x 3.178000 0.000000 0.000000 
#    y 0.000000 3.178000 0.000000 
#    z 0.000000 0.000000 3.524570 
# 
# 
# High freq. dielectric constant tensor:
#      x y z
#    x 1.647290 0.000000 0.000000 
#    y 0.000000 1.647290 0.000000 
#    z 0.000000 0.000000 1.693730 
# 
# From -- ./inp_files/4068.got.cif
#   From: 2010.03.12/outbox.cif.g09.slc.cpg/sg116_3_cif.got.tgz:4068.got - 2010.04.14 02:15:44.
