data_PCOD8310735
_publ_section_title
;
Structure prediction by ZEFSAII (Michael W. Deem and Ramdas Pophale) SiO2 
 PCOD8310735
Probable space group: I -4 M 2
;
_chemical_formula_sum "Si O2"
_cell_formula_units_Z 72
_cell_length_a 13.578335
_cell_length_b 13.578335
_cell_length_c 21.385182
_cell_angle_alpha 90.000000
_cell_angle_beta 90.000000
_cell_angle_gamma 90.000000
_cell_volume 3942.811269
_symmetry_space_group_name_H-M "I -4 M 2"
_symmetry_group_IT_number 119
_symmetry_cell_setting 'tetragonal'
loop_
_space_group_symop_operation_xyz
x,y,z
y,-x,-z
-x,-y,z
-y,x,-z
y,x,-z
-y,-x,-z
-x,y,z
x,-y,z
1/2+x,1/2+y,1/2+z
1/2+y,1/2-x,1/2-z
1/2-x,1/2-y,1/2+z
1/2-y,1/2+x,1/2-z
1/2+y,1/2+x,1/2-z
1/2-y,1/2-x,1/2-z
1/2-x,1/2+y,1/2+z
1/2+x,1/2-y,1/2+z
loop_
_atom_site_type_symbol
_atom_site_label
_atom_site_fract_x
_atom_site_fract_y
_atom_site_fract_z
Si Si1 0.211282 0.711282 0.250000
Si Si2 0.884799 0.885172 0.192241
Si Si3 0.108537 0.382518 0.504108
Si Si4 0.390649 0.883773 0.634215
Si Si5 0.384970 0.303558 0.438034
O O1 0.184905 0.826897 0.241244
O O2 0.154715 0.679146 0.311866
O O3 0.856545 0.841052 0.123455
O O4 0.000000 0.865008 0.204630
O O5 0.860131 0.000000 0.199331
O O6 0.103034 0.500000 0.502386
O O7 0.143008 0.347565 0.434733
O O8 0.191048 0.344777 0.553158
O O9 0.000000 0.340251 0.521999
O O10 0.500000 0.838477 0.643658
O O11 0.396993 0.000000 0.639296
O O12 0.366196 0.366196 0.500000
O O13 0.500000 0.299211 0.426778
#
# Coordination Sequence:
#
# PCOD8310735 Si02
#       5
#     8  16  16  16  16
#     4  12  20  31  50  67  92 134 174 204 250 312
#     4  10  22  37  51  72 101 130 165 211 257 302
#     4   8  15  28  45  68  99 128 154 190 235 284
#     4   9  16  25  42  73 105 127 154 197 249 305
#     4  10  18  29  48  73 101 133 165 199 249 309
#
# _framework density 18.261081999999998
#
# number of rings (size 3 to 8) (size 9 to 14) (size 15 to 20)
#    0.000    2.444    0.000    5.333    0.000    3.778 
#    0.000    1.111    0.000    1.667    0.000    0.000 
#    0.000    0.444    0.000    1.111    0.000    0.000 
#
# Total GULP energy -446114.918305 kJ/mol
# GULP energy per Si atom -12392.081064 kJ/mol
# Density = 1.821952 g / cm^3
# Si number density = 18.261082 Si / 1000 Ang^3
#
#
#
# Elastic Constant Matrix: (Units=GPa)
#
#
# Indices 1 2 3 4 5 6 
#
# 1 61.2412 40.5412 43.0923 0.0000 0.0000 0.0000
# 2 40.5412 61.2412 43.0923 0.0000 0.0000 0.0000
# 3 43.0923 43.0923 70.8682 0.0000 0.0000 0.0000
# 4 0.0000 0.0000 0.0000 29.3739 0.0000 0.0000
# 5 0.0000 0.0000 0.0000 0.0000 29.3739 0.0000
# 6 0.0000 0.0000 0.0000 0.0000 0.0000 21.1611
#
#
#
# Elastic Compliance Matrix: (Units=1/GPa)
#
#
# Indices 1 2 3 4 5 6 
#
# 1 0.034281 -0.014028 -0.012315 0.000000 0.000000 0.000000
# 2 -0.014028 0.034281 -0.012315 0.000000 0.000000 0.000000
# 3 -0.012315 -0.012315 0.029087 0.000000 0.000000 0.000000
# 4 0.000000 0.000000 0.000000 0.034044 0.000000 0.000000
# 5 0.000000 0.000000 0.000000 0.000000 0.034044 0.000000
# 6 0.000000 0.000000 0.000000 0.000000 0.000000 0.047257
#
#
# Mechanical properties :
#
#
# Convention : Reuss Voigt Hill
#
# Bulk Modulus (GPa) = 49.18149 49.64469 49.41309
# Shear Modulus (GPa) = 16.83012 20.42343 18.62678
#
# Velocity S-wave (km/s) = 3.03914 3.34790 3.19725
# Velocity P-wave (km/s) = 6.26946 6.49535 6.38340
#
# Compressibility (1/GPa) = 0.02033285
#
# Stress axis : x y z
#
# Youngs Moduli (GPa) = 29.17083 29.17083 34.37954
#
# Poissons Ratio (x) = 0.40922 0.42338
# Poissons Ratio (y) = 0.40922 0.42338
# Poissons Ratio (z) = 0.35923 0.35923
#
# Static dielectric constant tensor:
#      x y z
#    x 3.424520 0.000000 0.000000 
#    y 0.000000 3.424520 0.000000 
#    z 0.000000 0.000000 3.436730 
# 
# 
# High freq. dielectric constant tensor:
#      x y z
#    x 1.694720 0.000000 0.000000 
#    y 0.000000 1.694720 0.000000 
#    z 0.000000 0.000000 1.693790 
# 
# From -- ./inp_files/6407.got.cif
#   From: 2010.03.12/outbox.cif.g09.slc.cpg/sg119_4_cif.got.tgz:6407.got - 2010.04.14 02:25:26.
