data_PCOD8310556
_publ_section_title
;
Structure prediction by ZEFSAII (Michael W. Deem and Ramdas Pophale) SiO2 
 PCOD8310556
Probable space group: P -4 N 2
;
_chemical_formula_sum "Si O2"
_cell_formula_units_Z 36
_cell_length_a 9.525117
_cell_length_b 9.525117
_cell_length_c 17.724353
_cell_angle_alpha 90.000000
_cell_angle_beta 90.000000
_cell_angle_gamma 90.000000
_cell_volume 1608.092509
_symmetry_space_group_name_H-M "P -4 N 2"
_symmetry_group_IT_number 118
_symmetry_cell_setting 'tetragonal'
loop_
_space_group_symop_operation_xyz
x,y,z
y,-x,-z
-x,-y,z
-y,x,-z
1/2+y,1/2+x,1/2-z
1/2-y,1/2-x,1/2-z
1/2-x,1/2+y,1/2+z
1/2+x,1/2-y,1/2+z
loop_
_atom_site_type_symbol
_atom_site_label
_atom_site_fract_x
_atom_site_fract_y
_atom_site_fract_z
Si Si1 0.337922 0.837922 0.250000
Si Si2 0.646990 0.290846 0.607569
Si Si3 0.152549 0.666712 0.143570
Si Si4 0.000000 0.000000 0.000000
Si Si5 0.842917 0.342917 0.750000
Si Si6 0.500000 0.000000 0.750000
Si Si7 0.858529 0.162841 0.498116
O O1 0.241595 0.793051 0.179666
O O2 0.497723 0.816833 0.223006
O O3 0.505672 0.218608 0.634729
O O4 0.614030 0.426025 0.554713
O O5 0.735970 0.325504 0.681410
O O6 0.736588 0.184421 0.557842
O O7 0.138698 0.522842 0.195410
O O8 0.216808 0.631258 0.063889
O O9 0.010158 0.165512 0.539972
#
# Coordination Sequence:
#
# PCOD8310556 Si02
#       7
#     4   8   8   2   4   2   8
#     4  10  24  44  68 102 140 184 236 302 358 430
#     4  12  24  44  69 103 141 189 238 295 360 435
#     4  11  22  43  69 100 142 187 236 299 359 440
#     4  12  24  44  68 108 144 192 246 304 368 440
#     4  11  25  44  71 103 142 186 242 292 366 430
#     4  10  22  38  66 102 136 182 232 288 368 416
#     4  11  25  44  69 101 141 186 242 300 362 429
#
# _framework density 22.386773999999999
#
# number of rings (size 3 to 8) (size 9 to 14) (size 15 to 20)
#    0.000    0.889    2.222    4.667    0.000    1.778 
#    0.000    2.222    0.000    0.000    0.000    0.000 
#    0.000    0.000    0.000    0.000    0.000    0.000 
#
# Total GULP energy -446018.475654 kJ/mol
# GULP energy per Si atom -12389.402102 kJ/mol
# Density = 2.233582 g / cm^3
# Si number density = 22.386774 Si / 1000 Ang^3
#
#
#
# Elastic Constant Matrix: (Units=GPa)
#
#
# Indices 1 2 3 4 5 6 
#
# 1 149.9515 75.8855 66.3020 0.0000 0.0000 0.0000
# 2 75.8855 149.9515 66.3020 0.0000 0.0000 0.0000
# 3 66.3020 66.3020 134.1627 0.0000 0.0000 0.0000
# 4 0.0000 0.0000 0.0000 35.2390 0.0000 0.0000
# 5 0.0000 0.0000 0.0000 0.0000 35.2390 0.0000
# 6 0.0000 0.0000 0.0000 0.0000 0.0000 40.1374
#
#
#
# Elastic Compliance Matrix: (Units=1/GPa)
#
#
# Indices 1 2 3 4 5 6 
#
# 1 0.009870 -0.003632 -0.003083 0.000000 0.000000 0.000000
# 2 -0.003632 0.009870 -0.003083 0.000000 0.000000 0.000000
# 3 -0.003083 -0.003083 0.010501 0.000000 0.000000 0.000000
# 4 0.000000 0.000000 0.000000 0.028378 0.000000 0.000000
# 5 0.000000 0.000000 0.000000 0.000000 0.028378 0.000000
# 6 0.000000 0.000000 0.000000 0.000000 0.000000 0.024914
#
#
# Mechanical properties :
#
#
# Convention : Reuss Voigt Hill
#
# Bulk Modulus (GPa) = 93.93571 94.56053 94.24812
# Shear Modulus (GPa) = 37.02247 37.16148 37.09198
#
# Velocity S-wave (km/s) = 4.07106 4.07870 4.07488
# Velocity P-wave (km/s) = 8.00934 8.03195 8.02065
#
# Compressibility (1/GPa) = 0.01064558
#
# Stress axis : x y z
#
# Youngs Moduli (GPa) = 101.31932 101.31932 95.23225
#
# Poissons Ratio (x) = 0.36796 0.29358
# Poissons Ratio (y) = 0.36796 0.29358
# Poissons Ratio (z) = 0.31235 0.31235
#
# Static dielectric constant tensor:
#      x y z
#    x 4.250530 0.000000 0.000000 
#    y 0.000000 4.250530 0.000000 
#    z 0.000000 0.000000 4.237080 
# 
# 
# High freq. dielectric constant tensor:
#      x y z
#    x 1.891000 0.000000 0.000000 
#    y 0.000000 1.891000 0.000000 
#    z 0.000000 0.000000 1.884840 
# 
# From -- ./inp_files/5543.got.cif
#   From: 2010.03.12/outbox.cif.g09.slc.cpg/sg118_3_cif.got.tgz:5543.got - 2010.04.14 02:21:17.
