data_PCOD8310936
_publ_section_title
;
Structure prediction by ZEFSAII (Michael W. Deem and Ramdas Pophale) SiO2 
 PCOD8310936
Probable space group: I -4 M 2
;
_chemical_formula_sum "Si O2"
_cell_formula_units_Z 48
_cell_length_a 14.617655
_cell_length_b 14.617655
_cell_length_c 9.125887
_cell_angle_alpha 90.000000
_cell_angle_beta 90.000000
_cell_angle_gamma 90.000000
_cell_volume 1949.981549
_symmetry_space_group_name_H-M "I -4 M 2"
_symmetry_group_IT_number 119
_symmetry_cell_setting 'tetragonal'
loop_
_space_group_symop_operation_xyz
x,y,z
y,-x,-z
-x,-y,z
-y,x,-z
y,x,-z
-y,-x,-z
-x,y,z
x,-y,z
1/2+x,1/2+y,1/2+z
1/2+y,1/2-x,1/2-z
1/2-x,1/2-y,1/2+z
1/2-y,1/2+x,1/2-z
1/2+y,1/2+x,1/2-z
1/2-y,1/2-x,1/2-z
1/2-x,1/2+y,1/2+z
1/2+x,1/2-y,1/2+z
loop_
_atom_site_type_symbol
_atom_site_label
_atom_site_fract_x
_atom_site_fract_y
_atom_site_fract_z
Si Si1 0.206411 0.601585 0.049690
Si Si2 0.224877 0.103635 0.872994
Si Si3 0.102270 0.250960 0.759390
O O1 0.159575 0.500000 0.049543
O O2 0.129620 0.682565 0.037543
O O3 0.259385 0.616450 0.199783
O O4 0.278648 0.607480 0.913339
O O5 0.142098 0.179623 0.883732
O O6 0.194073 0.000000 0.907750
O O7 0.151883 0.348118 0.750000
O O8 0.000000 0.266091 0.813729
#
# Coordination Sequence:
#
# PCOD8310936 Si02
#       3
#    16  16  16
#     4   9  19  37  61  88 119 156 198 243 295 356
#     4  10  20  36  63  91 118 155 199 249 302 355
#     4  11  23  39  60  86 122 160 200 249 302 361
#
# _framework density 24.615618000000001
#
# number of rings (size 3 to 8) (size 9 to 14) (size 15 to 20)
#    0.000    2.000    3.333    1.000    0.000    3.000 
#    0.000    6.667    0.000    6.000    0.000    4.667 
#    0.000    0.000    0.000    0.000    0.000    0.000 
#
# Total GULP energy -297334.723805 kJ/mol
# GULP energy per Si atom -12388.946825 kJ/mol
# Density = 2.455959 g / cm^3
# Si number density = 24.615618 Si / 1000 Ang^3
#
#
#
# Elastic Constant Matrix: (Units=GPa)
#
#
# Indices 1 2 3 4 5 6 
#
# 1 165.2947 105.4820 27.1915 0.0000 0.0000 0.0000
# 2 105.4820 165.2927 27.1929 0.0000 0.0000 0.0000
# 3 27.1915 27.1929 111.7383 0.0000 0.0000 0.0000
# 4 0.0000 0.0000 0.0000 31.1611 0.0000 0.0000
# 5 0.0000 0.0000 0.0000 0.0000 31.1616 0.0000
# 6 0.0000 0.0000 0.0000 0.0000 0.0000 14.8653
#
#
#
# Elastic Compliance Matrix: (Units=1/GPa)
#
#
# Indices 1 2 3 4 5 6 
#
# 1 0.010301 -0.006418 -0.000945 0.000000 0.000000 0.000000
# 2 -0.006418 0.010301 -0.000945 0.000000 0.000000 0.000000
# 3 -0.000945 -0.000945 0.009409 0.000000 0.000000 0.000000
# 4 0.000000 0.000000 0.000000 0.032091 0.000000 0.000000
# 5 0.000000 0.000000 0.000000 0.000000 0.032091 0.000000
# 6 0.000000 0.000000 0.000000 0.000000 0.000000 0.067271
#
#
# Mechanical properties :
#
#
# Convention : Reuss Voigt Hill
#
# Bulk Modulus (GPa) = 74.65218 84.67316 79.66267
# Shear Modulus (GPa) = 27.39043 34.26820 30.82931
#
# Velocity S-wave (km/s) = 3.33937 3.73518 3.54281
# Velocity P-wave (km/s) = 6.72767 7.28525 7.01200
#
# Compressibility (1/GPa) = 0.01339546
#
# Stress axis : x y z
#
# Youngs Moduli (GPa) = 97.07871 97.07707 106.27678
#
# Poissons Ratio (x) = 0.62305 0.10041
# Poissons Ratio (y) = 0.62306 0.10044
# Poissons Ratio (z) = 0.09172 0.09174
#
# Static dielectric constant tensor:
#      x y z
#    x 4.345310 0.000000 0.000000 
#    y 0.000000 4.345320 0.000000 
#    z 0.000000 0.000000 5.798370 
# 
# 
# High freq. dielectric constant tensor:
#      x y z
#    x 1.949510 0.000000 0.000000 
#    y 0.000000 1.949510 0.000000 
#    z 0.000000 0.000000 2.072430 
# 
# From -- ./inp_files/3313.got.cif
#   From: 2010.03.12/outbox.cif.g09.slc.cpg/sg119_2_cif.got.tgz:3313.got - 2010.04.14 02:25:26.
