data_PCOD8310125
_publ_section_title
;
Structure prediction by ZEFSAII (Michael W. Deem and Ramdas Pophale) SiO2 
 PCOD8310125
Probable space group: P -4 C 2
;
_chemical_formula_sum "Si O2"
_cell_formula_units_Z 42
_cell_length_a 11.562049
_cell_length_b 11.562049
_cell_length_c 18.551700
_cell_angle_alpha 90.000000
_cell_angle_beta 90.000000
_cell_angle_gamma 90.000000
_cell_volume 2480.009382
_symmetry_space_group_name_H-M "P -4 C 2"
_symmetry_group_IT_number 116
_symmetry_cell_setting 'tetragonal'
loop_
_space_group_symop_operation_xyz
x,y,z
y,-x,-z
-x,-y,z
-y,x,-z
y,x,1/2-z
-y,-x,1/2-z
-x,y,1/2+z
x,-y,1/2+z
loop_
_atom_site_type_symbol
_atom_site_label
_atom_site_fract_x
_atom_site_fract_y
_atom_site_fract_z
Si Si1 0.000000 0.000000 0.750000
Si Si2 0.010804 0.760410 0.666394
Si Si3 0.994664 0.188508 0.505383
Si Si4 0.632379 0.992269 0.123692
Si Si5 0.360416 0.174508 0.747774
Si Si6 0.191149 0.370588 0.256853
O O1 0.999821 0.109630 0.697158
O O2 0.122867 0.697685 0.696024
O O3 0.027801 0.753233 0.581544
O O4 0.896801 0.688384 0.685093
O O5 0.008496 0.285581 0.444852
O O6 0.885570 0.110402 0.485720
O O7 0.651962 0.872258 0.166732
O O8 0.500000 0.000000 0.097550
O O9 0.663407 0.101425 0.174832
O O10 0.298138 0.298138 0.750000
O O11 0.494754 0.195969 0.760392
O O12 0.321250 0.321250 0.250000
#
# Coordination Sequence:
#
# PCOD8310125 Si02
#       6
#     2   8   8   8   8   8
#     4  12  20  32  58  76 108 140 162 212 260 320
#     4  11  21  33  54  79 106 136 172 210 259 308
#     4  11  22  31  49  79 105 133 169 208 249 312
#     4   9  20  37  52  70 105 142 166 208 268 308
#     4  10  20  35  55  75 102 138 176 216 260 306
#     4  10  20  35  55  75 102 138 176 216 260 306
#
# _framework density 16.935421000000002
#
# number of rings (size 3 to 8) (size 9 to 14) (size 15 to 20)
#    0.000    1.714    1.905    5.143    5.333    1.905 
#    0.000    0.000    0.000    0.000    0.000    0.000 
#    0.000    9.143    0.000    0.000    0.000    0.000 
#
# Total GULP energy -520782.125974 kJ/mol
# GULP energy per Si atom -12399.574428 kJ/mol
# Density = 1.689688 g / cm^3
# Si number density = 16.935421 Si / 1000 Ang^3
#
#
#
# Elastic Constant Matrix: (Units=GPa)
#
#
# Indices 1 2 3 4 5 6 
#
# 1 102.8614 37.6601 21.1284 0.0000 0.0000 0.0000
# 2 37.6601 102.8614 21.1284 0.0000 0.0000 0.0000
# 3 21.1284 21.1284 77.4034 0.0000 0.0000 0.0000
# 4 0.0000 0.0000 0.0000 0.2562 0.0000 0.0000
# 5 0.0000 0.0000 0.0000 0.0000 0.2562 0.0000
# 6 0.0000 0.0000 0.0000 0.0000 0.0000 27.0556
#
#
#
# Elastic Compliance Matrix: (Units=1/GPa)
#
#
# Indices 1 2 3 4 5 6 
#
# 1 0.011545 -0.003792 -0.002116 0.000000 0.000000 0.000000
# 2 -0.003792 0.011545 -0.002116 0.000000 0.000000 0.000000
# 3 -0.002116 -0.002116 0.014075 0.000000 0.000000 0.000000
# 4 0.000000 0.000000 0.000000 3.903198 0.000000 0.000000
# 5 0.000000 0.000000 0.000000 0.000000 3.903198 0.000000
# 6 0.000000 0.000000 0.000000 0.000000 0.000000 0.036961
#
#
# Mechanical properties :
#
#
# Convention : Reuss Voigt Hill
#
# Bulk Modulus (GPa) = 47.35924 49.21779 48.28851
# Shear Modulus (GPa) = 0.63262 19.06088 9.84675
#
# Velocity S-wave (km/s) = 0.61185 3.35849 2.41390
# Velocity P-wave (km/s) = 5.34083 6.64563 6.02864
#
# Compressibility (1/GPa) = 0.02111520
#
# Stress axis : x y z
#
# Youngs Moduli (GPa) = 86.61818 86.61818 71.04976
#
# Poissons Ratio (x) = 0.32847 0.15036
# Poissons Ratio (y) = 0.32847 0.15036
# Poissons Ratio (z) = 0.18330 0.18330
#
# Static dielectric constant tensor:
#      x y z
#    x 3.266900 0.000000 0.000000 
#    y 0.000000 3.266900 0.000000 
#    z 0.000000 0.000000 3.062040 
# 
# 
# High freq. dielectric constant tensor:
#      x y z
#    x 1.654870 0.000000 0.000000 
#    y 0.000000 1.654870 0.000000 
#    z 0.000000 0.000000 1.645400 
# 
# From -- ./inp_files/3294.got.cif
#   From: 2010.03.12/outbox.cif.g09.slc.cpg/sg116_2_cif.got.tgz:3294.got - 2010.04.14 02:15:44.
