data_PCOD8310139
_publ_section_title
;
Structure prediction by ZEFSAII (Michael W. Deem and Ramdas Pophale) SiO2 
 PCOD8310139
Probable space group: P -4 C 2
;
_chemical_formula_sum "Si O2"
_cell_formula_units_Z 40
_cell_length_a 11.865375
_cell_length_b 11.865375
_cell_length_c 13.794412
_cell_angle_alpha 90.000000
_cell_angle_beta 90.000000
_cell_angle_gamma 90.000000
_cell_volume 1942.075591
_symmetry_space_group_name_H-M "P -4 C 2"
_symmetry_group_IT_number 116
_symmetry_cell_setting 'tetragonal'
loop_
_space_group_symop_operation_xyz
x,y,z
y,-x,-z
-x,-y,z
-y,x,-z
y,x,1/2-z
-y,-x,1/2-z
-x,y,1/2+z
x,-y,1/2+z
loop_
_atom_site_type_symbol
_atom_site_label
_atom_site_fract_x
_atom_site_fract_y
_atom_site_fract_z
Si Si1 0.878288 0.690761 0.510597
Si Si2 0.586603 0.586603 0.864749
Si Si3 0.121712 0.309239 0.989403
Si Si4 0.503116 0.826765 0.364289
Si Si5 0.503116 0.826765 0.135711
O O1 0.784686 0.784686 0.538174
O O2 0.906418 0.596463 0.594400
O O3 0.841828 0.625256 0.412572
O O4 0.000000 0.752127 0.500000
O O5 0.500000 0.500000 0.912010
O O6 0.582123 0.582123 0.750000
O O7 0.549561 0.708670 0.899843
O O8 0.708670 0.549560 0.899843
O O9 0.158172 0.374744 0.087428
O O10 0.093582 0.403537 0.905600
O O11 0.517559 0.841872 0.250000
#
# Coordination Sequence:
#
# PCOD8310139 Si02
#       5
#     8   8   8   8   8
#     4  11  24  40  59  87 119 158 205 246 292 349
#     4   9  16  28  52  84 116 148 178 219 286 356
#     4  11  24  40  59  87 119 158 205 246 292 349
#     4  10  20  38  61  88 121 153 192 244 299 357
#     4  10  20  38  61  88 121 153 192 244 299 357
#
# _framework density 20.596519000000001
#
# number of rings (size 3 to 8) (size 9 to 14) (size 15 to 20)
#    0.000    1.800    2.000    3.600    0.000    6.000 
#    0.000    0.000    0.000    0.000    0.000    5.600 
#    0.000    0.000    0.000    0.000    0.000    0.000 
#
# Total GULP energy -495604.808042 kJ/mol
# GULP energy per Si atom -12390.120201 kJ/mol
# Density = 2.054964 g / cm^3
# Si number density = 20.596519 Si / 1000 Ang^3
#
#
#
# Elastic Constant Matrix: (Units=GPa)
#
#
# Indices 1 2 3 4 5 6 
#
# 1 80.8050 21.4254 9.9341 0.0000 0.0000 0.0000
# 2 21.4254 80.8050 9.9341 0.0000 0.0000 0.0000
# 3 9.9341 9.9341 119.3865 0.0000 0.0000 0.0000
# 4 0.0000 0.0000 0.0000 15.5693 0.0000 0.0000
# 5 0.0000 0.0000 0.0000 0.0000 15.5693 0.0000
# 6 0.0000 0.0000 0.0000 0.0000 0.0000 21.9819
#
#
#
# Elastic Compliance Matrix: (Units=1/GPa)
#
#
# Indices 1 2 3 4 5 6 
#
# 1 0.013392 -0.003449 -0.000827 0.000000 0.000000 0.000000
# 2 -0.003449 0.013392 -0.000827 0.000000 0.000000 0.000000
# 3 -0.000827 -0.000827 0.008514 0.000000 0.000000 0.000000
# 4 0.000000 0.000000 0.000000 0.064229 0.000000 0.000000
# 5 0.000000 0.000000 0.000000 0.000000 0.064229 0.000000
# 6 0.000000 0.000000 0.000000 0.000000 0.000000 0.045492
#
#
# Mechanical properties :
#
#
# Convention : Reuss Voigt Hill
#
# Bulk Modulus (GPa) = 39.85686 40.39819 40.12752
# Shear Modulus (GPa) = 21.94735 26.60428 24.27581
#
# Velocity S-wave (km/s) = 3.26787 3.59791 3.43685
# Velocity P-wave (km/s) = 5.79930 6.07590 5.93921
#
# Compressibility (1/GPa) = 0.02508979
#
# Stress axis : x y z
#
# Youngs Moduli (GPa) = 74.67304 74.67304 117.45585
#
# Poissons Ratio (x) = 0.25755 0.09717
# Poissons Ratio (y) = 0.25755 0.09717
# Poissons Ratio (z) = 0.06178 0.06178
#
# Static dielectric constant tensor:
#      x y z
#    x 3.823290 0.000000 0.000000 
#    y 0.000000 3.823290 0.000000 
#    z 0.000000 0.000000 3.522500 
# 
# 
# High freq. dielectric constant tensor:
#      x y z
#    x 1.800710 0.000000 0.000000 
#    y 0.000000 1.800710 0.000000 
#    z 0.000000 0.000000 1.804170 
# 
# From -- ./inp_files/2541.got.cif
#   From: 2010.03.12/outbox.cif.g09.slc.cpg/sg116_2_cif.got.tgz:2541.got - 2010.04.14 02:15:44.
