data_PCOD8310759
_publ_section_title
;
Structure prediction by ZEFSAII (Michael W. Deem and Ramdas Pophale) SiO2 
 PCOD8310759
Probable space group: I -4 M 2
;
_chemical_formula_sum "Si O2"
_cell_formula_units_Z 88
_cell_length_a 18.601474
_cell_length_b 18.601474
_cell_length_c 12.865214
_cell_angle_alpha 90.000000
_cell_angle_beta 90.000000
_cell_angle_gamma 90.000000
_cell_volume 4451.554899
_symmetry_space_group_name_H-M "I -4 M 2"
_symmetry_group_IT_number 119
_symmetry_cell_setting 'tetragonal'
loop_
_space_group_symop_operation_xyz
x,y,z
y,-x,-z
-x,-y,z
-y,x,-z
y,x,-z
-y,-x,-z
-x,y,z
x,-y,z
1/2+x,1/2+y,1/2+z
1/2+y,1/2-x,1/2-z
1/2-x,1/2-y,1/2+z
1/2-y,1/2+x,1/2-z
1/2+y,1/2+x,1/2-z
1/2-y,1/2-x,1/2-z
1/2-x,1/2+y,1/2+z
1/2+x,1/2-y,1/2+z
loop_
_atom_site_type_symbol
_atom_site_label
_atom_site_fract_x
_atom_site_fract_y
_atom_site_fract_z
Si Si1 0.416787 0.306720 0.041778
Si Si2 0.628084 0.128084 0.750000
Si Si3 0.338880 0.279951 0.254773
Si Si4 0.578156 0.154970 0.965151
Si Si5 0.277208 0.416234 0.342403
Si Si6 0.917499 0.710184 0.940764
O O1 0.500000 0.325701 0.064600
O O2 0.376351 0.279100 0.143841
O O3 0.378142 0.378142 0.000000
O O4 0.410259 0.241860 0.957204
O O5 0.580082 0.115084 0.852535
O O6 0.611038 0.208251 0.718130
O O7 0.261294 0.238707 0.250000
O O8 0.336902 0.362041 0.298208
O O9 0.392013 0.239962 0.332029
O O10 0.500000 0.139626 0.013891
O O11 0.636459 0.124244 0.042431
O O12 0.295548 0.500000 0.317899
O O13 0.266672 0.403830 0.465655
O O14 0.000000 0.689889 0.934407
#
# Coordination Sequence:
#
# PCOD8310759 Si02
#       6
#    16   8  16  16  16  16
#     4  11  25  42  63  92 128 167 210 263 318 375
#     4  10  18  32  56  83 120 160 200 247 304 362
#     4  12  22  38  67  93 119 163 216 259 309 373
#     4  10  21  37  58  87 124 165 211 255 308 374
#     4  10  21  36  58  91 125 158 202 259 311 364
#     4  10  22  39  60  89 126 161 203 258 315 373
#
# _framework density 19.768374000000001
#
# number of rings (size 3 to 8) (size 9 to 14) (size 15 to 20)
#    0.000    1.455    2.727    2.727    2.545    3.455 
#    0.000    0.000    0.000    5.182    0.000    5.091 
#    0.000    0.000    0.000    0.000    0.000    0.000 
#
# Total GULP energy -545288.131690 kJ/mol
# GULP energy per Si atom -12392.912084 kJ/mol
# Density = 1.972338 g / cm^3
# Si number density = 19.768374 Si / 1000 Ang^3
#
#
#
# Elastic Constant Matrix: (Units=GPa)
#
#
# Indices 1 2 3 4 5 6 
#
# 1 -66.9825 222.3962 31.6984 0.0000 0.0000 0.0000
# 2 222.3962 -66.9637 31.7055 0.0000 0.0000 0.0000
# 3 31.6984 31.7055 88.9714 0.0000 0.0000 0.0000
# 4 0.0000 0.0000 0.0000 13.0834 0.0000 0.0000
# 5 0.0000 0.0000 0.0000 0.0000 13.0844 0.0000
# 6 0.0000 0.0000 0.0000 0.0000 0.0000 20.5540
#
#
#
# Elastic Compliance Matrix: (Units=1/GPa)
#
#
# Indices 1 2 3 4 5 6 
#
# 1 0.002036 0.005492 -0.002683 0.000000 0.000000 0.000000
# 2 0.005492 0.002036 -0.002682 0.000000 0.000000 0.000000
# 3 -0.002683 -0.002682 0.013151 0.000000 0.000000 0.000000
# 4 0.000000 0.000000 0.000000 0.076433 0.000000 0.000000
# 5 0.000000 0.000000 0.000000 0.000000 0.076427 0.000000
# 6 0.000000 0.000000 0.000000 0.000000 0.000000 0.048652
#
#
# Mechanical properties :
#
#
# Convention : Reuss Voigt Hill
#
# Bulk Modulus (GPa) = 57.21482 58.51394 57.86438
# Shear Modulus (GPa) = 22.29083 -12.70732 4.79175
#
# Velocity S-wave (km/s) = 3.36162 -2.53812 1.55859
# Velocity P-wave (km/s) = 6.63873 4.59071 5.70734
#
# Compressibility (1/GPa) = 0.01747799
#
# Stress axis : x y z
#
# Youngs Moduli (GPa) = 491.13451 491.04873 76.03873
#
# Poissons Ratio (x) = -2.69687 0.20398
# Poissons Ratio (y) = -2.69735 0.20397
# Poissons Ratio (z) = 1.31749 1.31719
#
# Static dielectric constant tensor:
#      x y z
#    x 3.788830 0.000000 0.000000 
#    y 0.000000 3.788830 0.000000 
#    z 0.000000 0.000000 3.917290 
# 
# 
# High freq. dielectric constant tensor:
#      x y z
#    x 1.762060 0.000000 0.000000 
#    y 0.000000 1.762060 0.000000 
#    z 0.000000 0.000000 1.777720 
# 
# From -- ./inp_files/5382.got.cif
#   From: 2010.03.12/outbox.cif.g09.slc.cpg/sg119_3_cif.got.tgz:5382.got - 2010.04.14 02:25:26.
