data_PCOD8310112
_publ_section_title
;
Structure prediction by ZEFSAII (Michael W. Deem and Ramdas Pophale) SiO2 
 PCOD8310112
Probable space group: P -4 C 2
;
_chemical_formula_sum "Si O2"
_cell_formula_units_Z 42
_cell_length_a 14.197439
_cell_length_b 14.197439
_cell_length_c 10.051853
_cell_angle_alpha 90.000000
_cell_angle_beta 90.000000
_cell_angle_gamma 90.000000
_cell_volume 2026.124609
_symmetry_space_group_name_H-M "P -4 C 2"
_symmetry_group_IT_number 116
_symmetry_cell_setting 'tetragonal'
loop_
_space_group_symop_operation_xyz
x,y,z
y,-x,-z
-x,-y,z
-y,x,-z
y,x,1/2-z
-y,-x,1/2-z
-x,y,1/2+z
x,-y,1/2+z
loop_
_atom_site_type_symbol
_atom_site_label
_atom_site_fract_x
_atom_site_fract_y
_atom_site_fract_z
Si Si1 0.000000 0.000000 0.000000
Si Si2 0.589261 0.744661 0.750636
Si Si3 0.498148 0.652905 0.501625
Si Si4 0.860029 0.860326 0.901832
Si Si5 0.713887 0.005536 0.981218
Si Si6 0.033858 0.603115 0.267736
O O1 0.065075 0.944174 0.102746
O O2 0.686976 0.686976 0.750000
O O3 0.524858 0.717678 0.625714
O O4 0.529817 0.721622 0.882108
O O5 0.613685 0.854163 0.746384
O O6 0.586244 0.588818 0.456470
O O7 0.833285 0.833285 0.750000
O O8 0.774081 0.908353 0.982190
O O9 0.898566 0.770033 0.982315
O O10 0.673042 0.018218 0.834177
O O11 0.629981 0.995276 0.086983
O O12 0.000000 0.500000 0.232396
#
# Coordination Sequence:
#
# PCOD8310112 Si02
#       6
#     2   8   8   8   8   8
#     4   8  18  28  64  94 136 158 192 258 336 382
#     4  10  23  40  69  96 134 173 223 271 319 398
#     4   9  18  38  67 102 132 166 211 272 336 387
#     4  10  19  40  66 100 130 158 217 267 333 386
#     4  11  25  43  73  96 132 174 215 277 331 395
#     4  12  28  46  64  93 135 185 223 268 331 397
#
# _framework density 20.729227999999999
#
# number of rings (size 3 to 8) (size 9 to 14) (size 15 to 20)
#    0.000    1.714    1.905    1.429    8.000    3.048 
#    0.000    0.000    4.190    0.000    0.000    0.000 
#    0.000    0.000    0.000    0.000    0.000    0.000 
#
# Total GULP energy -520773.070064 kJ/mol
# GULP energy per Si atom -12399.358811 kJ/mol
# Density = 2.068205 g / cm^3
# Si number density = 20.729228 Si / 1000 Ang^3
#
#
#
# Elastic Constant Matrix: (Units=GPa)
#
#
# Indices 1 2 3 4 5 6 
#
# 1 88.6009 36.5686 39.3969 0.0000 0.0000 0.0000
# 2 36.5686 88.6009 39.3969 0.0000 0.0000 0.0000
# 3 39.3969 39.3969 113.2548 0.0000 0.0000 0.0000
# 4 0.0000 0.0000 0.0000 29.5317 0.0000 0.0000
# 5 0.0000 0.0000 0.0000 0.0000 29.5317 0.0000
# 6 0.0000 0.0000 0.0000 0.0000 0.0000 27.6793
#
#
#
# Elastic Compliance Matrix: (Units=1/GPa)
#
#
# Indices 1 2 3 4 5 6 
#
# 1 0.014724 -0.004495 -0.003558 0.000000 0.000000 0.000000
# 2 -0.004495 0.014724 -0.003558 0.000000 0.000000 0.000000
# 3 -0.003558 -0.003558 0.011305 0.000000 0.000000 0.000000
# 4 0.000000 0.000000 0.000000 0.033862 0.000000 0.000000
# 5 0.000000 0.000000 0.000000 0.000000 0.033862 0.000000
# 6 0.000000 0.000000 0.000000 0.000000 0.000000 0.036128
#
#
# Mechanical properties :
#
#
# Convention : Reuss Voigt Hill
#
# Bulk Modulus (GPa) = 57.04432 57.90906 57.47669
# Shear Modulus (GPa) = 28.79001 29.02150 28.90575
#
# Velocity S-wave (km/s) = 3.73078 3.74575 3.73828
# Velocity P-wave (km/s) = 6.79241 6.83404 6.81326
#
# Compressibility (1/GPa) = 0.01753023
#
# Stress axis : x y z
#
# Youngs Moduli (GPa) = 67.91642 67.91642 88.45460
#
# Poissons Ratio (x) = 0.30528 0.31475
# Poissons Ratio (y) = 0.30528 0.31475
# Poissons Ratio (z) = 0.24167 0.24167
#
# Static dielectric constant tensor:
#      x y z
#    x 3.788530 0.000000 0.000000 
#    y 0.000000 3.788530 0.000000 
#    z 0.000000 0.000000 3.716410 
# 
# 
# High freq. dielectric constant tensor:
#      x y z
#    x 1.811220 0.000000 0.000000 
#    y 0.000000 1.811220 0.000000 
#    z 0.000000 0.000000 1.811740 
# 
# From -- ./inp_files/830.got.cif
#   From: 2010.03.12/outbox.cif.g09.slc.cpg/sg116_1_cif.got.tgz:830.got - 2010.04.14 02:15:44.
