data_PCOD8310324
_publ_section_title
;
Structure prediction by ZEFSAII (Michael W. Deem and Ramdas Pophale) SiO2 
 PCOD8310324
Probable space group: P -4 B 2
;
_chemical_formula_sum "Si O2"
_cell_formula_units_Z 44
_cell_length_a 13.533679
_cell_length_b 13.533679
_cell_length_c 13.072848
_cell_angle_alpha 90.000000
_cell_angle_beta 90.000000
_cell_angle_gamma 90.000000
_cell_volume 2394.428948
_symmetry_space_group_name_H-M "P -4 B 2"
_symmetry_group_IT_number 117
_symmetry_cell_setting 'tetragonal'
loop_
_space_group_symop_operation_xyz
x,y,z
y,-x,-z
-x,-y,z
-y,x,-z
1/2+y,1/2+x,-z
1/2-y,1/2-x,-z
1/2-x,1/2+y,z
1/2+x,1/2-y,z
loop_
_atom_site_type_symbol
_atom_site_label
_atom_site_fract_x
_atom_site_fract_y
_atom_site_fract_z
Si Si1 0.887010 0.276050 0.204376
Si Si2 0.760219 0.886485 0.314528
Si Si3 0.739781 0.613518 0.314529
Si Si4 0.749998 0.750003 0.500000
Si Si5 0.612990 0.223951 0.204376
Si Si6 0.887569 0.387569 0.000000
Si Si7 0.387568 0.887568 0.000000
O O1 0.850396 0.369117 0.272279
O O2 0.830628 0.175995 0.237764
O O3 0.868463 0.305254 0.086551
O O4 1.000000 0.257136 0.228945
O O5 0.759106 0.847700 0.430634
O O6 0.830629 0.824007 0.237766
O O7 0.792719 0.000001 0.312527
O O8 0.740892 0.652306 0.430633
O O9 0.850396 0.630885 0.272280
O O10 0.631538 0.194748 0.086551
O O11 0.875007 0.500001 0.042276
#
# Coordination Sequence:
#
# PCOD8310324 Si02
#       7
#     8   8   8   4   8   4   4
#     4   9  19  35  54  78 109 141 175 216 261 313
#     4  10  21  36  55  79 106 138 177 222 270 317
#     4  10  21  36  55  79 106 138 177 222 270 317
#     4   8  20  36  52  74 108 140 176 220 268 322
#     4   9  19  35  54  78 109 141 175 216 261 313
#     4   9  16  29  54  84 110 142 182 218 258 312
#     4   9  16  29  54  84 110 142 182 218 258 312
#
# _framework density 18.375989000000001
#
# number of rings (size 3 to 8) (size 9 to 14) (size 15 to 20)
#    0.000    3.091    0.000    1.091    0.000   11.636 
#    0.000    0.000    0.000    0.000    0.000   10.182 
#    0.000    0.000    0.000    0.000    0.000    0.000 
#
# Total GULP energy -545083.814698 kJ/mol
# GULP energy per Si atom -12388.268516 kJ/mol
# Density = 1.833416 g / cm^3
# Si number density = 18.375989 Si / 1000 Ang^3
#
#
#
# Elastic Constant Matrix: (Units=GPa)
#
#
# Indices 1 2 3 4 5 6 
#
# 1 92.5064 95.4953 62.9825 0.0000 0.0000 0.0000
# 2 95.4953 92.5064 62.9825 0.0000 0.0000 0.0000
# 3 62.9825 62.9825 117.9009 0.0000 0.0000 0.0000
# 4 0.0000 0.0000 0.0000 23.2492 0.0000 0.0000
# 5 0.0000 0.0000 0.0000 0.0000 23.2492 0.0000
# 6 0.0000 0.0000 0.0000 0.0000 0.0000 20.9662
#
#
#
# Elastic Compliance Matrix: (Units=1/GPa)
#
#
# Indices 1 2 3 4 5 6 
#
# 1 -0.163141 0.171426 -0.004425 0.000000 0.000000 0.000000
# 2 0.171426 -0.163141 -0.004425 0.000000 0.000000 0.000000
# 3 -0.004425 -0.004425 0.013210 0.000000 0.000000 0.000000
# 4 0.000000 0.000000 0.000000 0.043012 0.000000 0.000000
# 5 0.000000 0.000000 0.000000 0.000000 0.043012 0.000000
# 6 0.000000 0.000000 0.000000 0.000000 0.000000 0.047696
#
#
# Mechanical properties :
#
#
# Convention : Reuss Voigt Hill
#
# Bulk Modulus (GPa) = 82.80496 82.87048 82.83772
# Shear Modulus (GPa) = -9.99048 18.92316 4.46634
#
# Velocity S-wave (km/s) = -2.33420 3.21249 1.56071
# Velocity P-wave (km/s) = 6.15586 7.67823 6.95880
#
# Compressibility (1/GPa) = 0.01207657
#
# Stress axis : x y z
#
# Youngs Moduli (GPa) = -6.12966 -6.12966 75.70139
#
# Poissons Ratio (x) = 1.05078 0.33501
# Poissons Ratio (y) = 1.05078 0.33501
# Poissons Ratio (z) = -0.02713 -0.02713
#
# Static dielectric constant tensor:
#      x y z
#    x 3.348620 0.000000 0.000000 
#    y 0.000000 3.348620 0.000000 
#    z 0.000000 0.000000 3.480460 
# 
# 
# High freq. dielectric constant tensor:
#      x y z
#    x 1.704420 0.000000 0.000000 
#    y 0.000000 1.704420 0.000000 
#    z 0.000000 0.000000 1.718900 
# 
# From -- ./inp_files/2721.got.cif
#   From: 2010.03.12/outbox.cif.g09.slc.cpg/sg117_2_cif.got.tgz:2721.got - 2010.04.14 02:19:01.
