data_PCOD8310460
_publ_section_title
;
Structure prediction by ZEFSAII (Michael W. Deem and Ramdas Pophale) SiO2 
 PCOD8310460
Probable space group: P -4 N 2
;
_chemical_formula_sum "Si O2"
_cell_formula_units_Z 40
_cell_length_a 7.676799
_cell_length_b 7.676799
_cell_length_c 32.908969
_cell_angle_alpha 90.000000
_cell_angle_beta 90.000000
_cell_angle_gamma 90.000000
_cell_volume 1939.432263
_symmetry_space_group_name_H-M "P -4 N 2"
_symmetry_group_IT_number 118
_symmetry_cell_setting 'tetragonal'
loop_
_space_group_symop_operation_xyz
x,y,z
y,-x,-z
-x,-y,z
-y,x,-z
1/2+y,1/2+x,1/2-z
1/2-y,1/2-x,1/2-z
1/2-x,1/2+y,1/2+z
1/2+x,1/2-y,1/2+z
loop_
_atom_site_type_symbol
_atom_site_label
_atom_site_fract_x
_atom_site_fract_y
_atom_site_fract_z
Si Si1 0.798035 0.798035 1.000000
Si Si2 0.000000 0.292222 0.651039
Si Si3 0.200518 0.806717 0.792731
Si Si4 0.295826 1.000000 0.439033
Si Si5 0.693282 0.700518 0.707269
O O1 0.676028 0.740380 0.037483
O O2 0.740380 0.676029 0.962517
O O3 1.000000 0.766502 0.012243
O O4 1.000000 0.209889 0.605762
O O5 0.170642 0.222753 0.674684
O O6 0.000000 0.500000 0.648646
O O7 0.829358 0.222753 0.674684
O O8 0.299372 0.799372 0.750000
O O9 1.000000 0.762081 0.783789
O O10 0.223868 1.000000 0.811178
O O11 0.500000 0.000000 0.433542
O O12 0.700628 0.799372 0.750000
#
# Coordination Sequence:
#
# PCOD8310460 Si02
#       5
#     8   8   8   8   8
#     4   9  18  33  56  82 110 147 186 229 278 340
#     4   9  18  32  54  84 116 146 188 244 276 334
#     4  10  19  32  55  81 108 149 192 229 281 337
#     4   9  18  33  55  85 114 147 191 230 287 341
#     4  10  19  32  55  81 108 149 192 229 281 337
#
# _framework density 20.624593000000001
#
# number of rings (size 3 to 8) (size 9 to 14) (size 15 to 20)
#    0.000    2.600    2.000    0.000    0.000    2.400 
#    0.000    8.000    8.800    0.000    0.000    0.000 
#    0.000    0.000    0.000    0.000    0.000    0.000 
#
# Total GULP energy -495883.539992 kJ/mol
# GULP energy per Si atom -12397.088500 kJ/mol
# Density = 2.057765 g / cm^3
# Si number density = 20.624593 Si / 1000 Ang^3
#
#
#
# Elastic Constant Matrix: (Units=GPa)
#
#
# Indices 1 2 3 4 5 6 
#
# 1 100.2375 29.6302 60.7766 0.0000 0.0000 0.0000
# 2 29.6302 100.2375 60.7766 0.0000 0.0000 0.0000
# 3 60.7766 60.7766 189.1749 0.0000 0.0000 0.0000
# 4 0.0000 0.0000 0.0000 8.7459 0.0000 0.0000
# 5 0.0000 0.0000 0.0000 0.0000 8.7459 0.0000
# 6 0.0000 0.0000 0.0000 0.0000 0.0000 9.9138
#
#
#
# Elastic Compliance Matrix: (Units=1/GPa)
#
#
# Indices 1 2 3 4 5 6 
#
# 1 0.012587 -0.001576 -0.003538 0.000000 0.000000 0.000000
# 2 -0.001576 0.012587 -0.003538 0.000000 0.000000 0.000000
# 3 -0.003538 -0.003538 0.007559 0.000000 0.000000 0.000000
# 4 0.000000 0.000000 0.000000 0.114339 0.000000 0.000000
# 5 0.000000 0.000000 0.000000 0.000000 0.114339 0.000000
# 6 0.000000 0.000000 0.000000 0.000000 0.000000 0.100869
#
#
# Mechanical properties :
#
#
# Convention : Reuss Voigt Hill
#
# Bulk Modulus (GPa) = 64.80346 76.89075 70.84710
# Shear Modulus (GPa) = 12.99622 21.37888 17.18755
#
# Velocity S-wave (km/s) = 2.51297 3.22308 2.88992
# Velocity P-wave (km/s) = 6.31733 7.15633 6.74988
#
# Compressibility (1/GPa) = 0.01543128
#
# Stress axis : x y z
#
# Youngs Moduli (GPa) = 79.44664 79.44664 132.28930
#
# Poissons Ratio (x) = 0.12519 0.46799
# Poissons Ratio (y) = 0.12519 0.46799
# Poissons Ratio (z) = 0.28105 0.28105
#
# Static dielectric constant tensor:
#      x y z
#    x 3.626280 0.000000 0.000000 
#    y 0.000000 3.626280 0.000000 
#    z 0.000000 0.000000 3.887700 
# 
# 
# High freq. dielectric constant tensor:
#      x y z
#    x 1.797970 0.000000 0.000000 
#    y 0.000000 1.797970 0.000000 
#    z 0.000000 0.000000 1.790880 
# 
# From -- ./inp_files/6451.got.cif
#   From: 2010.03.12/outbox.cif.g09.slc.cpg/sg118_4_cif.got.tgz:6451.got - 2010.04.14 02:21:17.
