data_PCOD8310345
_publ_section_title
;
Structure prediction by ZEFSAII (Michael W. Deem and Ramdas Pophale) SiO2 
 PCOD8310345
Probable space group: P -4 B 2
;
_chemical_formula_sum "Si O2"
_cell_formula_units_Z 34
_cell_length_a 9.693767
_cell_length_b 9.693767
_cell_length_c 17.841283
_cell_angle_alpha 90.000000
_cell_angle_beta 90.000000
_cell_angle_gamma 90.000000
_cell_volume 1676.529639
_symmetry_space_group_name_H-M "P -4 B 2"
_symmetry_group_IT_number 117
_symmetry_cell_setting 'tetragonal'
loop_
_space_group_symop_operation_xyz
x,y,z
y,-x,-z
-x,-y,z
-y,x,-z
1/2+y,1/2+x,-z
1/2-y,1/2-x,-z
1/2-x,1/2+y,z
1/2+x,1/2-y,z
loop_
_atom_site_type_symbol
_atom_site_label
_atom_site_fract_x
_atom_site_fract_y
_atom_site_fract_z
Si Si1 0.721602 0.250623 0.272779
Si Si2 0.582560 0.694326 0.025119
Si Si3 0.838418 0.470379 0.823820
Si Si4 0.500000 0.500000 0.500000
Si Si5 0.502028 0.349841 0.643429
O O1 0.574460 0.222154 0.236620
O O2 0.717813 0.354182 0.342755
O O3 0.762371 0.110591 0.311837
O O4 0.818122 0.314617 0.208633
O O5 0.516313 0.741652 0.103317
O O6 0.668732 0.549635 0.030441
O O7 0.681029 0.818972 0.000000
O O8 0.000000 0.500000 0.841766
O O9 0.526951 0.366166 0.553380
O O10 0.500000 0.500000 0.681924
#
# Coordination Sequence:
#
# PCOD8310345 Si02
#       5
#     8   8   8   2   8
#     4  12  23  43  70 100 137 178 229 288 334 411
#     4  11  28  48  68  98 137 180 230 289 353 424
#     4  12  26  42  72 101 132 178 233 284 354 405
#     4   8  20  44  64 100 140 192 210 284 344 404
#     4  10  22  41  65 100 140 177 223 279 337 400
#
# _framework density 20.279986999999998
#
# number of rings (size 3 to 8) (size 9 to 14) (size 15 to 20)
#    0.706    0.235    4.706    1.412    6.588    4.706 
#    0.000    0.000    0.000    0.000    0.000    0.000 
#    0.000    0.000    0.000    0.000    0.000    0.000 
#
# Total GULP energy -421304.085185 kJ/mol
# GULP energy per Si atom -12391.296623 kJ/mol
# Density = 2.023383 g / cm^3
# Si number density = 20.279987 Si / 1000 Ang^3
#
#
#
# Elastic Constant Matrix: (Units=GPa)
#
#
# Indices 1 2 3 4 5 6 
#
# 1 96.8094 27.3922 34.0735 0.0000 0.0000 0.0000
# 2 27.3922 96.8080 34.0740 0.0000 0.0000 0.0000
# 3 34.0735 34.0740 98.9015 0.0000 0.0000 0.0000
# 4 0.0000 0.0000 0.0000 -97.9909 0.0000 0.0000
# 5 0.0000 0.0000 0.0000 0.0000 -98.0239 0.0000
# 6 0.0000 0.0000 0.0000 0.0000 0.0000 32.9086
#
#
#
# Elastic Compliance Matrix: (Units=1/GPa)
#
#
# Indices 1 2 3 4 5 6 
#
# 1 0.012167 -0.002239 -0.003420 0.000000 0.000000 0.000000
# 2 -0.002239 0.012167 -0.003421 0.000000 0.000000 0.000000
# 3 -0.003420 -0.003421 0.012468 0.000000 0.000000 0.000000
# 4 0.000000 0.000000 0.000000 -0.010205 0.000000 0.000000
# 5 0.000000 0.000000 0.000000 0.000000 -0.010202 0.000000
# 6 0.000000 0.000000 0.000000 0.000000 0.000000 0.030387
#
#
# Mechanical properties :
#
#
# Convention : Reuss Voigt Hill
#
# Bulk Modulus (GPa) = 53.64104 53.73316 53.68710
# Shear Modulus (GPa) = 70.26785 -19.48931 25.38927
#
# Velocity S-wave (km/s) = 5.89271 -3.10338 3.54211
# Velocity P-wave (km/s) = 8.53267 3.70295 6.57717
#
# Compressibility (1/GPa) = 0.01864244
#
# Stress axis : x y z
#
# Youngs Moduli (GPa) = 82.19018 82.18847 80.20562
#
# Poissons Ratio (x) = 0.18400 0.27434
# Poissons Ratio (y) = 0.18400 0.27435
# Poissons Ratio (z) = 0.28113 0.28113
#
# Static dielectric constant tensor:
#      x y z
#    x 4.048760 0.000000 0.000000 
#    y 0.000000 4.048670 0.000000 
#    z 0.000000 0.000000 3.508210 
# 
# 
# High freq. dielectric constant tensor:
#      x y z
#    x 1.801850 0.000000 0.000000 
#    y 0.000000 1.801850 0.000000 
#    z 0.000000 0.000000 1.779990 
# 
# From -- ./inp_files/3411.got.cif
#   From: 2010.03.12/outbox.cif.g09.slc.cpg/sg117_2_cif.got.tgz:3411.got - 2010.04.14 02:19:01.
