data_PCOD8310069
_publ_section_title
;
Structure prediction by ZEFSAII (Michael W. Deem and Ramdas Pophale) SiO2 
 PCOD8310069
Probable space group: P -4 C 2
;
_chemical_formula_sum "Si O2"
_cell_formula_units_Z 48
_cell_length_a 13.449672
_cell_length_b 13.449672
_cell_length_c 14.866468
_cell_angle_alpha 90.000000
_cell_angle_beta 90.000000
_cell_angle_gamma 90.000000
_cell_volume 2689.250059
_symmetry_space_group_name_H-M "P -4 C 2"
_symmetry_group_IT_number 116
_symmetry_cell_setting 'tetragonal'
loop_
_space_group_symop_operation_xyz
x,y,z
y,-x,-z
-x,-y,z
-y,x,-z
y,x,1/2-z
-y,-x,1/2-z
-x,y,1/2+z
x,-y,1/2+z
loop_
_atom_site_type_symbol
_atom_site_label
_atom_site_fract_x
_atom_site_fract_y
_atom_site_fract_z
Si Si1 0.836883 0.002538 0.000646
Si Si2 0.739120 0.581781 0.071655
Si Si3 0.493850 0.340798 0.756700
Si Si4 0.271275 0.891242 0.850750
Si Si5 0.251166 0.425773 0.416467
Si Si6 0.896793 0.272705 0.850913
O O1 0.770216 0.987790 0.090115
O O2 0.768125 0.018813 0.912958
O O3 0.905133 0.098015 0.019947
O O4 0.713553 0.503497 0.148857
O O5 0.840838 0.635932 0.099236
O O6 0.647865 0.658513 0.055921
O O7 0.759976 0.515988 0.984929
O O8 0.381192 0.381192 0.750000
O O9 0.568585 0.431416 0.750000
O O10 0.520446 0.265132 0.678439
O O11 0.187427 0.809127 0.839422
O O12 0.300736 0.932083 0.750894
O O13 0.148329 0.365653 0.406033
#
# Coordination Sequence:
#
# PCOD8310069 Si02
#       6
#     8   8   8   8   8   8
#     4   9  18  32  55  84 102 118 157 210 256 307
#     4  10  18  29  47  71 101 139 176 209 245 286
#     4   9  16  26  42  68  98 129 174 220 246 273
#     4   9  17  32  53  75 102 134 164 201 256 311
#     4  10  18  29  47  71 101 139 176 209 245 286
#     4   9  17  32  53  75 102 134 164 201 256 311
#
# _framework density 17.848844
#
# number of rings (size 3 to 8) (size 9 to 14) (size 15 to 20)
#    0.000    2.667    1.667    1.000    0.000    2.333 
#    0.000    4.167    3.667    2.000    0.000    0.000 
#    0.000    0.000    0.000    0.000    0.000    0.000 
#
# Total GULP energy -594946.020801 kJ/mol
# GULP energy per Si atom -12394.708767 kJ/mol
# Density = 1.780822 g / cm^3
# Si number density = 17.848844 Si / 1000 Ang^3
#
#
#
# Elastic Constant Matrix: (Units=GPa)
#
#
# Indices 1 2 3 4 5 6 
#
# 1 55.7751 32.1761 34.3230 0.0000 0.0000 0.0000
# 2 32.1761 55.7750 34.3227 0.0000 0.0000 0.0000
# 3 34.3230 34.3227 99.4095 0.0000 0.0000 0.0000
# 4 0.0000 0.0000 0.0000 -0.4344 0.0000 0.0000
# 5 0.0000 0.0000 0.0000 0.0000 -0.4111 0.0000
# 6 0.0000 0.0000 0.0000 0.0000 0.0000 23.1560
#
#
#
# Elastic Compliance Matrix: (Units=1/GPa)
#
#
# Indices 1 2 3 4 5 6 
#
# 1 0.028970 -0.013405 -0.005374 0.000000 0.000000 0.000000
# 2 -0.013405 0.028969 -0.005374 0.000000 0.000000 0.000000
# 3 -0.005374 -0.005374 0.013770 0.000000 0.000000 0.000000
# 4 0.000000 0.000000 0.000000 -2.302147 0.000000 0.000000
# 5 0.000000 0.000000 0.000000 0.000000 -2.432777 0.000000
# 6 0.000000 0.000000 0.000000 0.000000 0.000000 0.043185
#
#
# Mechanical properties :
#
#
# Convention : Reuss Voigt Hill
#
# Bulk Modulus (GPa) = 42.72890 45.84480 44.28685
# Shear Modulus (GPa) = -1.09555 11.80462 5.35454
#
# Velocity S-wave (km/s) = -0.78430 2.57449 1.73391
# Velocity P-wave (km/s) = 4.81364 5.88032 5.37351
#
# Compressibility (1/GPa) = 0.02340336
#
# Stress axis : x y z
#
# Youngs Moduli (GPa) = 34.51901 34.51914 72.62057
#
# Poissons Ratio (x) = 0.46274 0.39026
# Poissons Ratio (y) = 0.46274 0.39024
# Poissons Ratio (z) = 0.18550 0.18550
#
# Static dielectric constant tensor:
#      x y z
#    x 3.267860 0.000000 0.000000 
#    y 0.000000 3.268120 0.000000 
#    z 0.000000 0.000000 3.587110 
# 
# 
# High freq. dielectric constant tensor:
#      x y z
#    x 1.664680 0.000000 0.000000 
#    y 0.000000 1.664680 0.000000 
#    z 0.000000 0.000000 1.702080 
# 
# From -- ./inp_files/1925.got.cif
#   From: 2010.03.12/outbox.cif.g09.slc.cpg/sg116_1_cif.got.tgz:1925.got - 2010.04.14 02:15:44.
