data_PCOD8310643
_publ_section_title
;
Structure prediction by ZEFSAII (Michael W. Deem and Ramdas Pophale) SiO2 
 PCOD8310643
Probable space group: P -4 N 2
;
_chemical_formula_sum "Si O2"
_cell_formula_units_Z 40
_cell_length_a 8.809528
_cell_length_b 8.809528
_cell_length_c 22.586917
_cell_angle_alpha 90.000000
_cell_angle_beta 90.000000
_cell_angle_gamma 90.000000
_cell_volume 1752.920566
_symmetry_space_group_name_H-M "P -4 N 2"
_symmetry_group_IT_number 118
_symmetry_cell_setting 'tetragonal'
loop_
_space_group_symop_operation_xyz
x,y,z
y,-x,-z
-x,-y,z
-y,x,-z
1/2+y,1/2+x,1/2-z
1/2-y,1/2-x,1/2-z
1/2-x,1/2+y,1/2+z
1/2+x,1/2-y,1/2+z
loop_
_atom_site_type_symbol
_atom_site_label
_atom_site_fract_x
_atom_site_fract_y
_atom_site_fract_z
Si Si1 0.535433 0.835219 0.893853
Si Si2 0.320239 0.229488 0.112393
Si Si3 0.728889 0.617965 0.827282
Si Si4 0.908761 0.233517 0.000588
Si Si5 0.322379 0.506950 0.698715
O O1 0.377676 0.761835 0.914459
O O2 0.590810 0.732630 0.838836
O O3 0.500000 0.000000 0.867319
O O4 0.658480 0.847960 0.946684
O O5 0.496401 0.265532 0.120884
O O6 0.319616 0.102574 0.061679
O O7 0.241572 0.166131 0.173144
O O8 0.701886 0.518931 0.768321
O O9 0.877442 0.721465 0.831353
O O10 0.083910 0.193190 0.007476
O O11 0.500000 0.500000 0.681218
#
# Coordination Sequence:
#
# PCOD8310643 Si02
#       5
#     8   8   8   8   8
#     4  12  25  46  69 110 149 202 258 321 399 467
#     4  12  25  43  74 103 151 193 253 323 384 474
#     4  11  26  46  72 108 153 195 254 317 391 461
#     4  11  26  46  72 105 145 199 255 317 394 476
#     4  11  24  46  75 107 144 204 254 313 384 472
#
# _framework density 22.819061999999999
#
# number of rings (size 3 to 8) (size 9 to 14) (size 15 to 20)
#    0.000    0.600    2.000    5.400    5.600    3.200 
#    0.000    6.000    0.000    0.000    0.000    0.000 
#    0.000    0.000    0.000    0.000    0.000    0.000 
#
# Total GULP energy -495823.811004 kJ/mol
# GULP energy per Si atom -12395.595275 kJ/mol
# Density = 2.276712 g / cm^3
# Si number density = 22.819062 Si / 1000 Ang^3
#
#
#
# Elastic Constant Matrix: (Units=GPa)
#
#
# Indices 1 2 3 4 5 6 
#
# 1 140.8501 52.8047 46.3580 0.0000 0.0000 0.0000
# 2 52.8047 140.8501 46.3580 0.0000 0.0000 0.0000
# 3 46.3580 46.3580 110.1883 0.0000 0.0000 0.0000
# 4 0.0000 0.0000 0.0000 28.7450 0.0000 0.0000
# 5 0.0000 0.0000 0.0000 0.0000 28.7450 0.0000
# 6 0.0000 0.0000 0.0000 0.0000 0.0000 45.8567
#
#
#
# Elastic Compliance Matrix: (Units=1/GPa)
#
#
# Indices 1 2 3 4 5 6 
#
# 1 0.008912 -0.002446 -0.002720 0.000000 0.000000 0.000000
# 2 -0.002446 0.008912 -0.002720 0.000000 0.000000 0.000000
# 3 -0.002720 -0.002720 0.011364 0.000000 0.000000 0.000000
# 4 0.000000 0.000000 0.000000 0.034789 0.000000 0.000000
# 5 0.000000 0.000000 0.000000 0.000000 0.034789 0.000000
# 6 0.000000 0.000000 0.000000 0.000000 0.000000 0.021807
#
#
# Mechanical properties :
#
#
# Convention : Reuss Voigt Hill
#
# Bulk Modulus (GPa) = 74.54247 75.88109 75.21178
# Shear Modulus (GPa) = 35.50683 37.09387 36.30035
#
# Velocity S-wave (km/s) = 3.94892 4.03620 3.99280
# Velocity P-wave (km/s) = 7.31639 7.41935 7.36805
#
# Compressibility (1/GPa) = 0.01341517
#
# Stress axis : x y z
#
# Youngs Moduli (GPa) = 112.20772 112.20772 87.99355
#
# Poissons Ratio (x) = 0.27443 0.23938
# Poissons Ratio (y) = 0.27443 0.23938
# Poissons Ratio (z) = 0.30526 0.30526
#
# Static dielectric constant tensor:
#      x y z
#    x 4.285190 0.000000 0.000000 
#    y 0.000000 4.285190 0.000000 
#    z 0.000000 0.000000 3.887450 
# 
# 
# High freq. dielectric constant tensor:
#      x y z
#    x 1.915680 0.000000 0.000000 
#    y 0.000000 1.915680 0.000000 
#    z 0.000000 0.000000 1.890940 
# 
# From -- ./inp_files/6011.got.cif
#   From: 2010.03.12/outbox.cif.g09.slc.cpg/sg118_4_cif.got.tgz:6011.got - 2010.04.14 02:21:17.
