data_PCOD8310452
_publ_section_title
;
Structure prediction by ZEFSAII (Michael W. Deem and Ramdas Pophale) SiO2 
 PCOD8310452
Probable space group: P -4 N 2
;
_chemical_formula_sum "Si O2"
_cell_formula_units_Z 40
_cell_length_a 15.254177
_cell_length_b 15.254177
_cell_length_c 9.383532
_cell_angle_alpha 90.000000
_cell_angle_beta 90.000000
_cell_angle_gamma 90.000000
_cell_volume 2183.453272
_symmetry_space_group_name_H-M "P -4 N 2"
_symmetry_group_IT_number 118
_symmetry_cell_setting 'tetragonal'
loop_
_space_group_symop_operation_xyz
x,y,z
y,-x,-z
-x,-y,z
-y,x,-z
1/2+y,1/2+x,1/2-z
1/2-y,1/2-x,1/2-z
1/2-x,1/2+y,1/2+z
1/2+x,1/2-y,1/2+z
loop_
_atom_site_type_symbol
_atom_site_label
_atom_site_fract_x
_atom_site_fract_y
_atom_site_fract_z
Si Si1 0.439957 0.195356 0.687095
Si Si2 0.163775 0.373572 0.408494
Si Si3 0.769939 0.824951 0.052756
Si Si4 0.034435 0.233698 0.450765
Si Si5 0.303444 0.621420 0.859238
O O1 0.383898 0.116103 0.750000
O O2 0.521935 0.152681 0.600860
O O3 0.386506 0.258473 0.583040
O O4 0.472168 0.257896 0.813323
O O5 0.170132 0.329869 0.250000
O O6 0.253773 0.345343 0.485881
O O7 0.080196 0.328324 0.484541
O O8 0.677682 0.777782 0.082245
O O9 0.801729 0.881740 0.187913
O O10 0.105993 0.159628 0.419440
O O11 0.978145 0.206247 0.587340
#
# Coordination Sequence:
#
# PCOD8310452 Si02
#       5
#     8   8   8   8   8
#     4  11  20  34  61  93 109 146 200 236 281 347
#     4   9  18  37  58  81 115 150 186 234 289 333
#     4  10  18  36  58  79 117 152 182 230 297 346
#     4  10  20  37  60  82 111 154 195 233 281 348
#     4  10  19  38  58  80 113 155 190 232 292 342
#
# _framework density 18.319604999999999
#
# number of rings (size 3 to 8) (size 9 to 14) (size 15 to 20)
#    0.000    2.000    8.000    0.000    0.000    4.000 
#    3.600    1.000    0.000    3.000    0.000    0.000 
#    0.000    0.000    0.000    0.000    0.000    0.000 
#
# Total GULP energy -495970.948816 kJ/mol
# GULP energy per Si atom -12399.273720 kJ/mol
# Density = 1.827791 g / cm^3
# Si number density = 18.319605 Si / 1000 Ang^3
#
#
#
# Elastic Constant Matrix: (Units=GPa)
#
#
# Indices 1 2 3 4 5 6 
#
# 1 106.2008 48.9741 51.8260 0.0000 0.0000 0.0000
# 2 48.9741 106.2018 51.8259 0.0000 0.0000 0.0000
# 3 51.8260 51.8259 74.7241 0.0000 0.0000 0.0000
# 4 0.0000 0.0000 0.0000 31.8825 0.0000 0.0000
# 5 0.0000 0.0000 0.0000 0.0000 31.8823 0.0000
# 6 0.0000 0.0000 0.0000 0.0000 0.0000 22.6053
#
#
#
# Elastic Compliance Matrix: (Units=1/GPa)
#
#
# Indices 1 2 3 4 5 6 
#
# 1 0.014741 -0.002734 -0.008328 0.000000 0.000000 0.000000
# 2 -0.002734 0.014740 -0.008327 0.000000 0.000000 0.000000
# 3 -0.008328 -0.008327 0.024934 0.000000 0.000000 0.000000
# 4 0.000000 0.000000 0.000000 0.031365 0.000000 0.000000
# 5 0.000000 0.000000 0.000000 0.000000 0.031365 0.000000
# 6 0.000000 0.000000 0.000000 0.000000 0.000000 0.044237
#
#
# Mechanical properties :
#
#
# Convention : Reuss Voigt Hill
#
# Bulk Modulus (GPa) = 63.94878 65.81985 64.88432
# Shear Modulus (GPa) = 24.34597 26.24072 25.29335
#
# Velocity S-wave (km/s) = 3.64944 3.78879 3.71977
# Velocity P-wave (km/s) = 7.26230 7.42607 7.34464
#
# Compressibility (1/GPa) = 0.01563751
#
# Stress axis : x y z
#
# Youngs Moduli (GPa) = 67.83976 67.84076 40.10607
#
# Poissons Ratio (x) = 0.18546 0.33399
# Poissons Ratio (y) = 0.18545 0.33398
# Poissons Ratio (z) = 0.56494 0.56494
#
# Static dielectric constant tensor:
#      x y z
#    x 3.371050 0.000000 0.000000 
#    y 0.000000 3.371050 0.000000 
#    z 0.000000 0.000000 3.199950 
# 
# 
# High freq. dielectric constant tensor:
#      x y z
#    x 1.705870 0.000000 0.000000 
#    y 0.000000 1.705870 0.000000 
#    z 0.000000 0.000000 1.686470 
# 
# From -- ./inp_files/1856.got.cif
#   From: 2010.03.12/outbox.cif.g09.slc.cpg/sg118_1_cif.got.tgz:1856.got - 2010.04.14 02:21:17.
