data_PCOD8310760
_publ_section_title
;
Structure prediction by ZEFSAII (Michael W. Deem and Ramdas Pophale) SiO2 
 PCOD8310760
Probable space group: I -4 M 2
;
_chemical_formula_sum "Si O2"
_cell_formula_units_Z 112
_cell_length_a 14.419842
_cell_length_b 14.419842
_cell_length_c 27.497780
_cell_angle_alpha 90.000000
_cell_angle_beta 90.000000
_cell_angle_gamma 90.000000
_cell_volume 5717.664082
_symmetry_space_group_name_H-M "I -4 M 2"
_symmetry_group_IT_number 119
_symmetry_cell_setting 'tetragonal'
loop_
_space_group_symop_operation_xyz
x,y,z
y,-x,-z
-x,-y,z
-y,x,-z
y,x,-z
-y,-x,-z
-x,y,z
x,-y,z
1/2+x,1/2+y,1/2+z
1/2+y,1/2-x,1/2-z
1/2-x,1/2-y,1/2+z
1/2-y,1/2+x,1/2-z
1/2+y,1/2+x,1/2-z
1/2-y,1/2-x,1/2-z
1/2-x,1/2+y,1/2+z
1/2+x,1/2-y,1/2+z
loop_
_atom_site_type_symbol
_atom_site_label
_atom_site_fract_x
_atom_site_fract_y
_atom_site_fract_z
Si Si1 0.277200 0.896299 0.867332
Si Si2 0.399778 0.333067 0.320249
Si Si3 0.717320 0.397429 0.788537
Si Si4 0.610738 0.213289 0.794735
Si Si5 0.108478 0.399291 0.957443
Si Si6 0.609915 0.260708 0.525165
Si Si7 0.639434 0.105317 0.148803
O O1 0.186223 0.899813 0.832007
O O2 0.362159 0.840669 0.843779
O O3 0.250516 0.853456 0.919636
O O4 0.313826 0.000000 0.873854
O O5 0.500000 0.386085 0.322369
O O6 0.387156 0.278906 0.269553
O O7 0.398389 0.250088 0.359057
O O8 0.678287 0.500000 0.802373
O O9 0.645799 0.317848 0.805364
O O10 0.821239 0.388629 0.809608
O O11 0.500000 0.211543 0.785927
O O12 0.663908 0.163908 0.750000
O O13 0.130279 0.500000 0.980065
O O14 0.145829 0.397952 0.902177
O O15 0.000000 0.379021 0.954179
O O16 0.152396 0.324016 0.993602
O O17 0.645602 0.354399 0.500000
O O18 0.500000 0.265790 0.525212
O O19 0.602213 0.000000 0.160669
#
# Coordination Sequence:
#
# PCOD8310760 Si02
#       7
#    16  16  16  16  16  16  16
#     4  11  23  40  61  86 116 155 203 253 302 350
#     4  10  20  35  55  81 119 158 193 234 287 353
#     4  11  22  37  60  89 123 161 197 240 297 362
#     4  12  25  43  64  87 119 157 206 259 303 352
#     4   9  18  33  54  81 112 147 188 236 288 344
#     4  10  22  38  59  86 118 153 192 242 298 358
#     4  10  18  32  57  88 124 162 195 230 283 353
#
# _framework density 19.588418000000001
#
# number of rings (size 3 to 8) (size 9 to 14) (size 15 to 20)
#    0.000    1.571    2.857    2.143    0.000    4.857 
#    0.000    5.000    0.000    6.857    0.000    0.000 
#    0.000    0.286    0.000    0.000    0.000    0.000 
#
# Total GULP energy -693896.137585 kJ/mol
# GULP energy per Si atom -12391.002457 kJ/mol
# Density = 1.954383 g / cm^3
# Si number density = 19.588418 Si / 1000 Ang^3
#
#
#
# Elastic Constant Matrix: (Units=GPa)
#
#
# Indices 1 2 3 4 5 6 
#
# 1 101.1206 38.0014 40.9554 0.0000 0.0000 0.0000
# 2 38.0014 101.1182 40.9550 0.0000 0.0000 0.0000
# 3 40.9554 40.9550 106.5003 0.0000 0.0000 0.0000
# 4 0.0000 0.0000 0.0000 24.1391 0.0000 0.0000
# 5 0.0000 0.0000 0.0000 0.0000 24.1394 0.0000
# 6 0.0000 0.0000 0.0000 0.0000 0.0000 16.0801
#
#
#
# Elastic Compliance Matrix: (Units=1/GPa)
#
#
# Indices 1 2 3 4 5 6 
#
# 1 0.012567 -0.003276 -0.003573 0.000000 0.000000 0.000000
# 2 -0.003276 0.012568 -0.003573 0.000000 0.000000 0.000000
# 3 -0.003573 -0.003573 0.012138 0.000000 0.000000 0.000000
# 4 0.000000 0.000000 0.000000 0.041427 0.000000 0.000000
# 5 0.000000 0.000000 0.000000 0.000000 0.041426 0.000000
# 6 0.000000 0.000000 0.000000 0.000000 0.000000 0.062189
#
#
# Mechanical properties :
#
#
# Convention : Reuss Voigt Hill
#
# Bulk Modulus (GPa) = 60.86945 60.95143 60.91044
# Shear Modulus (GPa) = 23.96530 25.46019 24.71274
#
# Velocity S-wave (km/s) = 3.50157 3.60913 3.55575
# Velocity P-wave (km/s) = 6.89127 6.96788 6.92968
#
# Compressibility (1/GPa) = 0.01642860
#
# Stress axis : x y z
#
# Youngs Moduli (GPa) = 79.57081 79.56891 82.38698
#
# Poissons Ratio (x) = 0.26065 0.29438
# Poissons Ratio (y) = 0.26066 0.29439
# Poissons Ratio (z) = 0.28432 0.28432
#
# Static dielectric constant tensor:
#      x y z
#    x 3.499940 0.000000 0.000000 
#    y 0.000000 3.499940 0.000000 
#    z 0.000000 0.000000 3.705630 
# 
# 
# High freq. dielectric constant tensor:
#      x y z
#    x 1.749620 0.000000 0.000000 
#    y 0.000000 1.749620 0.000000 
#    z 0.000000 0.000000 1.760040 
# 
# From -- ./inp_files/9601.got.cif
#   From: 2010.03.12/outbox.cif.g09.slc.cpg/sg119_5_cif.got.tgz:9601.got - 2010.04.14 02:25:26.
