data_PCOD8310368
_publ_section_title
;
Structure prediction by ZEFSAII (Michael W. Deem and Ramdas Pophale) SiO2 
 PCOD8310368
Probable space group: P -4 B 2
;
_chemical_formula_sum "Si O2"
_cell_formula_units_Z 40
_cell_length_a 14.333962
_cell_length_b 14.333962
_cell_length_c 8.715077
_cell_angle_alpha 90.000000
_cell_angle_beta 90.000000
_cell_angle_gamma 90.000000
_cell_volume 1790.621217
_symmetry_space_group_name_H-M "P -4 B 2"
_symmetry_group_IT_number 117
_symmetry_cell_setting 'tetragonal'
loop_
_space_group_symop_operation_xyz
x,y,z
y,-x,-z
-x,-y,z
-y,x,-z
1/2+y,1/2+x,-z
1/2-y,1/2-x,-z
1/2-x,1/2+y,z
1/2+x,1/2-y,z
loop_
_atom_site_type_symbol
_atom_site_label
_atom_site_fract_x
_atom_site_fract_y
_atom_site_fract_z
Si Si1 0.912710 0.840717 0.310938
Si Si2 0.012422 0.791043 0.818585
Si Si3 0.342745 0.630763 0.638864
Si Si4 0.658690 0.855819 0.828273
Si Si5 0.812136 0.555059 0.903551
O O1 0.879558 0.919019 0.189766
O O2 0.846120 0.846820 0.458862
O O3 0.894268 0.737681 0.239635
O O4 0.020600 0.860728 0.344643
O O5 0.068661 0.698226 0.761291
O O6 0.922688 0.806613 0.714381
O O7 0.982018 0.774587 0.993937
O O8 0.244863 0.660015 0.713655
O O9 0.630926 0.965188 0.842582
O O10 0.683428 0.816573 0.000000
O O11 0.877814 0.622187 0.000000
#
# Coordination Sequence:
#
# PCOD8310368 Si02
#       5
#     8   8   8   8   8
#     4  11  24  43  67 103 141 183 235 285 371 433
#     4  11  24  39  70 100 135 185 232 289 355 425
#     4  11  23  45  67 100 148 185 228 301 361 431
#     4   9  23  45  67 104 136 183 244 290 357 425
#     4  10  25  45  70 100 142 183 242 298 353 421
#
# _framework density 22.338616999999999
#
# number of rings (size 3 to 8) (size 9 to 14) (size 15 to 20)
#    0.000    1.600    2.000    0.600   11.200    4.400 
#    0.000    0.000    0.000    0.000   10.400    0.000 
#    0.000    0.000    0.000    0.000    0.000    0.000 
#
# Total GULP energy -495872.668337 kJ/mol
# GULP energy per Si atom -12396.816708 kJ/mol
# Density = 2.228777 g / cm^3
# Si number density = 22.338617 Si / 1000 Ang^3
#
#
#
# Elastic Constant Matrix: (Units=GPa)
#
#
# Indices 1 2 3 4 5 6 
#
# 1 103.0143 69.8521 60.1483 0.0000 0.0000 0.0000
# 2 69.8521 103.0114 60.1478 0.0000 0.0000 0.0000
# 3 60.1483 60.1478 91.3286 0.0000 0.0000 0.0000
# 4 0.0000 0.0000 0.0000 39.5159 0.0000 0.0000
# 5 0.0000 0.0000 0.0000 0.0000 39.5161 0.0000
# 6 0.0000 0.0000 0.0000 0.0000 0.0000 51.1688
#
#
#
# Elastic Compliance Matrix: (Units=1/GPa)
#
#
# Indices 1 2 3 4 5 6 
#
# 1 0.020417 -0.009738 -0.007033 0.000000 0.000000 0.000000
# 2 -0.009738 0.020418 -0.007033 0.000000 0.000000 0.000000
# 3 -0.007033 -0.007033 0.020214 0.000000 0.000000 0.000000
# 4 0.000000 0.000000 0.000000 0.025306 0.000000 0.000000
# 5 0.000000 0.000000 0.000000 0.000000 0.025306 0.000000
# 6 0.000000 0.000000 0.000000 0.000000 0.000000 0.019543
#
#
# Mechanical properties :
#
#
# Convention : Reuss Voigt Hill
#
# Bulk Modulus (GPa) = 74.41000 75.29452 74.85226
# Shear Modulus (GPa) = 27.27855 33.18724 30.23290
#
# Velocity S-wave (km/s) = 3.49827 3.85859 3.68284
# Velocity P-wave (km/s) = 7.04979 7.32330 7.18785
#
# Compressibility (1/GPa) = 0.01343905
#
# Stress axis : x y z
#
# Youngs Moduli (GPa) = 48.97790 48.97618 49.47181
#
# Poissons Ratio (x) = 0.47695 0.34794
# Poissons Ratio (y) = 0.47697 0.34796
# Poissons Ratio (z) = 0.34447 0.34447
#
# Static dielectric constant tensor:
#      x y z
#    x 4.045650 0.000000 0.000000 
#    y 0.000000 4.045650 0.000000 
#    z 0.000000 0.000000 4.157420 
# 
# 
# High freq. dielectric constant tensor:
#      x y z
#    x 1.879890 0.000000 0.000000 
#    y 0.000000 1.879890 0.000000 
#    z 0.000000 0.000000 1.874660 
# 
# From -- ./inp_files/1723.got.cif
#   From: 2010.03.12/outbox.cif.g09.slc.cpg/sg117_1_cif.got.tgz:1723.got - 2010.04.14 02:19:01.
