data_PCOD8310062
_publ_section_title
;
Structure prediction by ZEFSAII (Michael W. Deem and Ramdas Pophale) SiO2 
 PCOD8310062
Probable space group: P -4 C 2
;
_chemical_formula_sum "Si O2"
_cell_formula_units_Z 64
_cell_length_a 26.502112
_cell_length_b 26.502112
_cell_length_c 5.155224
_cell_angle_alpha 90.000000
_cell_angle_beta 90.000000
_cell_angle_gamma 90.000000
_cell_volume 3620.833132
_symmetry_space_group_name_H-M "P -4 C 2"
_symmetry_group_IT_number 116
_symmetry_cell_setting 'tetragonal'
loop_
_space_group_symop_operation_xyz
x,y,z
y,-x,-z
-x,-y,z
-y,x,-z
y,x,1/2-z
-y,-x,1/2-z
-x,y,1/2+z
x,-y,1/2+z
loop_
_atom_site_type_symbol
_atom_site_label
_atom_site_fract_x
_atom_site_fract_y
_atom_site_fract_z
Si Si1 0.033861 0.118170 0.235742
Si Si2 0.532533 0.137554 0.803833
Si Si3 0.202630 0.627897 0.770083
Si Si4 0.556203 0.022703 0.799706
Si Si5 0.329877 0.749589 0.245187
Si Si6 0.170799 0.754161 0.294268
Si Si7 0.766953 0.969260 0.226465
Si Si8 0.128290 0.716485 0.804564
O O1 0.082739 0.082739 0.250000
O O2 0.053200 0.176332 0.240436
O O3 0.996205 0.106823 0.472172
O O4 0.488350 0.142832 0.594051
O O5 0.571235 0.183182 0.762256
O O6 0.558026 0.082817 0.771146
O O7 0.236799 0.643994 0.526296
O O8 0.150825 0.660212 0.801507
O O9 0.239407 0.631047 0.019989
O O10 0.500000 0.000000 0.832936
O O11 0.584771 0.996048 0.559240
O O12 0.308327 0.691674 0.250000
O O13 0.282949 0.785360 0.305377
O O14 0.188496 0.811505 0.250000
O O15 0.160590 0.748196 0.596985
O O16 0.126371 0.741686 0.091743
O O17 0.722343 0.929157 0.288724
O O18 0.759341 0.013425 0.432072
#
# Coordination Sequence:
#
# PCOD8310062 Si02
#       8
#     8   8   8   8   8   8   8   8
#     4  10  21  35  51  72  92 116 143 173 215 270
#     4  12  21  33  51  71 103 138 168 228 278 307
#     4  10  21  33  50  79 100 126 173 206 259 318
#     4  10  16  30  47  63  83 121 171 206 261 327
#     4   9  17  33  52  71 101 130 154 200 253 307
#     4   9  17  28  48  74  93 112 139 176 235 281
#     4  10  21  37  52  64  90 122 145 174 224 279
#     4  10  19  34  50  67  95 119 149 198 224 281
#
# _framework density 17.675488999999999
#
# number of rings (size 3 to 8) (size 9 to 14) (size 15 to 20)
#    0.000    2.000    2.500    2.625    0.000    4.750 
#    0.000    1.250    0.000    0.000    0.000    0.000 
#    0.000    0.000    0.000    0.000    0.000    0.000 
#
# Total GULP energy -793083.234601 kJ/mol
# GULP energy per Si atom -12391.925541 kJ/mol
# Density = 1.763526 g / cm^3
# Si number density = 17.675489 Si / 1000 Ang^3
#
#
#
# Elastic Constant Matrix: (Units=GPa)
#
#
# Indices 1 2 3 4 5 6 
#
# 1 36.3353 23.2143 12.7473 0.0000 0.0000 0.0000
# 2 23.2143 36.3355 12.7471 0.0000 0.0000 0.0000
# 3 12.7473 12.7471 104.2078 0.0000 0.0000 0.0000
# 4 0.0000 0.0000 0.0000 12.9586 0.0000 0.0000
# 5 0.0000 0.0000 0.0000 0.0000 12.9586 0.0000
# 6 0.0000 0.0000 0.0000 0.0000 0.0000 24.3848
#
#
#
# Elastic Compliance Matrix: (Units=1/GPa)
#
#
# Indices 1 2 3 4 5 6 
#
# 1 0.046967 -0.029246 -0.002168 0.000000 0.000000 0.000000
# 2 -0.029246 0.046967 -0.002168 0.000000 0.000000 0.000000
# 3 -0.002168 -0.002168 0.010127 0.000000 0.000000 0.000000
# 4 0.000000 0.000000 0.000000 0.077169 0.000000 0.000000
# 5 0.000000 0.000000 0.000000 0.000000 0.077169 0.000000
# 6 0.000000 0.000000 0.000000 0.000000 0.000000 0.041009
#
#
# Mechanical properties :
#
#
# Convention : Reuss Voigt Hill
#
# Bulk Modulus (GPa) = 27.10230 30.47734 28.78982
# Shear Modulus (GPa) = 13.19717 18.60507 15.90112
#
# Velocity S-wave (km/s) = 2.73543 3.24789 3.00261
# Velocity P-wave (km/s) = 5.03422 5.59868 5.32393
#
# Compressibility (1/GPa) = 0.03689723
#
# Stress axis : x y z
#
# Youngs Moduli (GPa) = 21.29148 21.29166 98.75049
#
# Poissons Ratio (x) = 0.62270 0.21407
# Poissons Ratio (y) = 0.62270 0.21405
# Poissons Ratio (z) = 0.04616 0.04615
#
# Static dielectric constant tensor:
#      x y z
#    x 2.961940 0.000000 0.000000 
#    y 0.000000 2.961940 0.000000 
#    z 0.000000 0.000000 3.981370 
# 
# 
# High freq. dielectric constant tensor:
#      x y z
#    x 1.641490 0.000000 0.000000 
#    y 0.000000 1.641490 0.000000 
#    z 0.000000 0.000000 1.715070 
# 
# From -- ./inp_files/272.got.cif
#   From: 2010.03.12/outbox.cif.g09.slc.cpg/sg116_1_cif.got.tgz:272.got - 2010.04.14 02:15:44.
