data_PCOD8310906
_publ_section_title
;
Structure prediction by ZEFSAII (Michael W. Deem and Ramdas Pophale) SiO2 
 PCOD8310906
Probable space group: I -4 M 2
;
_chemical_formula_sum "Si O2"
_cell_formula_units_Z 96
_cell_length_a 23.328170
_cell_length_b 23.328170
_cell_length_c 9.739917
_cell_angle_alpha 90.000000
_cell_angle_beta 90.000000
_cell_angle_gamma 90.000000
_cell_volume 5300.497073
_symmetry_space_group_name_H-M "I -4 M 2"
_symmetry_group_IT_number 119
_symmetry_cell_setting 'tetragonal'
loop_
_space_group_symop_operation_xyz
x,y,z
y,-x,-z
-x,-y,z
-y,x,-z
y,x,-z
-y,-x,-z
-x,y,z
x,-y,z
1/2+x,1/2+y,1/2+z
1/2+y,1/2-x,1/2-z
1/2-x,1/2-y,1/2+z
1/2-y,1/2+x,1/2-z
1/2+y,1/2+x,1/2-z
1/2-y,1/2-x,1/2-z
1/2-x,1/2+y,1/2+z
1/2+x,1/2-y,1/2+z
loop_
_atom_site_type_symbol
_atom_site_label
_atom_site_fract_x
_atom_site_fract_y
_atom_site_fract_z
Si Si1 0.563066 0.155886 0.270054
Si Si2 0.935356 0.261325 0.531091
Si Si3 0.134451 0.161329 0.648133
Si Si4 0.567127 0.245638 0.499375
Si Si5 0.934419 0.128693 0.888263
Si Si6 0.239017 0.642781 0.230857
O O1 0.500000 0.136374 0.318064
O O2 0.600739 0.100739 0.250000
O O3 0.587222 0.199915 0.384666
O O4 0.559121 0.181628 0.118304
O O5 0.901764 0.219249 0.634687
O O6 0.899599 0.275261 0.394660
O O7 0.000000 0.238445 0.495270
O O8 0.131878 0.131878 0.500000
O O9 0.103550 0.117942 0.752862
O O10 0.199420 0.172391 0.700814
O O11 0.500000 0.239264 0.535020
O O12 0.580649 0.308543 0.443532
O O13 0.604706 0.237129 0.633792
O O14 0.000000 0.122125 0.846904
O O15 0.919038 0.080963 0.000000
O O16 0.192948 0.692948 0.250000
#
# Coordination Sequence:
#
# PCOD8310906 Si02
#       6
#    16  16  16  16  16  16
#     4  10  20  34  54  80 108 146 188 231 282 332
#     4  10  20  37  57  78 110 152 195 229 272 343
#     4  10  21  37  54  84 115 147 188 226 285 341
#     4  10  20  36  58  82 110 148 192 231 277 339
#     4  11  21  39  61  83 112 147 190 237 278 329
#     4  11  22  36  54  86 120 149 184 233 294 341
#
# _framework density 18.111509000000002
#
# number of rings (size 3 to 8) (size 9 to 14) (size 15 to 20)
#    0.000    1.667    3.333    2.000    0.000    1.000 
#    9.000    0.833    0.000    0.000    0.000    0.000 
#    0.000   12.000    0.000    0.000    0.000    0.000 
#
# Total GULP energy -595046.110640 kJ/mol
# GULP energy per Si atom -12396.793972 kJ/mol
# Density = 1.807029 g / cm^3
# Si number density = 18.111509 Si / 1000 Ang^3
#
#
#
# Elastic Constant Matrix: (Units=GPa)
#
#
# Indices 1 2 3 4 5 6 
#
# 1 92.9893 51.5070 48.2704 0.0000 0.0000 0.0000
# 2 51.5070 92.9918 48.2707 0.0000 0.0000 0.0000
# 3 48.2704 48.2707 118.8836 0.0000 0.0000 0.0000
# 4 0.0000 0.0000 0.0000 26.0430 0.0000 0.0000
# 5 0.0000 0.0000 0.0000 0.0000 26.0429 0.0000
# 6 0.0000 0.0000 0.0000 0.0000 0.0000 29.0918
#
#
#
# Elastic Compliance Matrix: (Units=1/GPa)
#
#
# Indices 1 2 3 4 5 6 
#
# 1 0.016802 -0.007305 -0.003856 0.000000 0.000000 0.000000
# 2 -0.007305 0.016801 -0.003856 0.000000 0.000000 0.000000
# 3 -0.003856 -0.003856 0.011543 0.000000 0.000000 0.000000
# 4 0.000000 0.000000 0.000000 0.038398 0.000000 0.000000
# 5 0.000000 0.000000 0.000000 0.000000 0.038398 0.000000
# 6 0.000000 0.000000 0.000000 0.000000 0.000000 0.034374
#
#
# Mechanical properties :
#
#
# Convention : Reuss Voigt Hill
#
# Bulk Modulus (GPa) = 66.17044 66.77341 66.47193
# Shear Modulus (GPa) = 26.12515 26.68998 26.40756
#
# Velocity S-wave (km/s) = 3.80210 3.84298 3.82259
# Velocity P-wave (km/s) = 7.47589 7.52591 7.50094
#
# Compressibility (1/GPa) = 0.01511249
#
# Stress axis : x y z
#
# Youngs Moduli (GPa) = 59.51807 59.51993 86.63328
#
# Poissons Ratio (x) = 0.43477 0.33406
# Poissons Ratio (y) = 0.43475 0.33405
# Poissons Ratio (z) = 0.22951 0.22950
#
# Static dielectric constant tensor:
#      x y z
#    x 3.358160 0.000000 0.000000 
#    y 0.000000 3.358160 0.000000 
#    z 0.000000 0.000000 3.527080 
# 
# 
# High freq. dielectric constant tensor:
#      x y z
#    x 1.693330 0.000000 0.000000 
#    y 0.000000 1.693330 0.000000 
#    z 0.000000 0.000000 1.718350 
# 
# From -- ./inp_files/2662.got.cif
#   From: 2010.03.12/outbox.cif.g09.slc.cpg/sg119_2_cif.got.tgz:2662.got - 2010.04.14 02:25:26.
