data_PCOD8310673
_publ_section_title
;
Structure prediction by ZEFSAII (Michael W. Deem and Ramdas Pophale) SiO2 
 PCOD8310673
Probable space group: I -4 M 2
;
_chemical_formula_sum "Si O2"
_cell_formula_units_Z 112
_cell_length_a 23.084204
_cell_length_b 23.084204
_cell_length_c 18.446381
_cell_angle_alpha 90.000000
_cell_angle_beta 90.000000
_cell_angle_gamma 90.000000
_cell_volume 9829.716257
_symmetry_space_group_name_H-M "I -4 M 2"
_symmetry_group_IT_number 119
_symmetry_cell_setting 'tetragonal'
loop_
_space_group_symop_operation_xyz
x,y,z
y,-x,-z
-x,-y,z
-y,x,-z
y,x,-z
-y,-x,-z
-x,y,z
x,-y,z
1/2+x,1/2+y,1/2+z
1/2+y,1/2-x,1/2-z
1/2-x,1/2-y,1/2+z
1/2-y,1/2+x,1/2-z
1/2+y,1/2+x,1/2-z
1/2-y,1/2-x,1/2-z
1/2-x,1/2+y,1/2+z
1/2+x,1/2-y,1/2+z
loop_
_atom_site_type_symbol
_atom_site_label
_atom_site_fract_x
_atom_site_fract_y
_atom_site_fract_z
Si Si1 0.608461 0.431038 0.075551
Si Si2 0.891539 0.931038 0.924449
Si Si3 0.500000 0.431434 0.169464
Si Si4 0.068608 0.784495 0.169464
Si Si5 0.431392 0.715505 0.830535
Si Si6 0.000000 0.068566 0.830535
Si Si7 0.156129 0.435390 0.336326
Si Si8 0.064610 0.656129 0.336326
O O1 0.606391 0.500000 0.062262
O O2 0.556874 0.410352 0.127654
O O3 0.667998 0.409337 0.112277
O O4 0.602209 0.397792 0.000000
O O5 0.832002 0.909338 0.887725
O O6 0.943126 0.910352 0.872345
O O7 0.893610 0.000000 0.937739
O O8 0.897791 0.897791 0.000000
O O9 0.500000 0.500000 0.175216
O O10 0.500000 0.404139 0.250000
O O11 0.094825 0.796236 0.249999
O O12 0.085936 0.720465 0.140977
O O13 0.000000 0.788604 0.175949
O O14 0.500000 0.711395 0.824050
O O15 0.414064 0.779534 0.859022
O O16 0.000000 0.000000 0.824783
O O17 0.143369 0.500000 0.366713
O O18 0.108820 0.391180 0.369188
O O19 0.152733 0.436762 0.250000
O O20 0.000000 0.643369 0.366713
#
# Coordination Sequence:
#
# PCOD8310673 Si02
#       8
#    16  16   8  16  16   8  16  16
#     4  10  16  22  31  43  61  80 103 137 169 194
#     4  10  16  22  31  43  61  80 103 137 169 194
#     4   9  16  22  30  42  58  80 102 130 171 206
#     4   8  14  23  33  44  60  83 108 128 151 190
#     4   8  14  23  33  44  60  83 108 128 151 190
#     4   9  16  22  30  42  58  80 102 130 171 206
#     4   8  13  21  33  49  66  82 101 126 152 179
#     4   8  13  21  33  49  66  82 101 126 152 179
#
# _framework density 11.394022
#
# number of rings (size 3 to 8) (size 9 to 14) (size 15 to 20)
#    0.000    3.286    1.429    2.571    0.000    3.714 
#    0.000    1.429    0.000    0.857    0.000    0.000 
#    0.000    0.000    0.000    0.000    0.000    0.000 
#
# Total GULP energy -693973.785701 kJ/mol
# GULP energy per Si atom -12392.389030 kJ/mol
# Density = 1.136809 g / cm^3
# Si number density = 11.394022 Si / 1000 Ang^3
#
#
#
# Elastic Constant Matrix: (Units=GPa)
#
#
# Indices 1 2 3 4 5 6 
#
# 1 66.1719 39.5746 33.0084 0.0000 0.0000 0.0000
# 2 39.5746 66.1719 33.0084 0.0000 0.0000 0.0000
# 3 33.0084 33.0084 66.8892 0.0000 0.0000 0.0000
# 4 0.0000 0.0000 0.0000 5.4998 0.0000 0.0000
# 5 0.0000 0.0000 0.0000 0.0000 5.4993 0.0000
# 6 0.0000 0.0000 0.0000 0.0000 0.0000 7.7125
#
#
#
# Elastic Compliance Matrix: (Units=1/GPa)
#
#
# Indices 1 2 3 4 5 6 
#
# 1 0.025632 -0.011965 -0.006744 0.000000 0.000000 0.000000
# 2 -0.011965 0.025632 -0.006744 0.000000 0.000000 0.000000
# 3 -0.006744 -0.006744 0.021607 0.000000 0.000000 0.000000
# 4 0.000000 0.000000 0.000000 0.181824 0.000000 0.000000
# 5 0.000000 0.000000 0.000000 0.000000 0.181842 0.000000
# 6 0.000000 0.000000 0.000000 0.000000 0.000000 0.129660
#
#
# Mechanical properties :
#
#
# Convention : Reuss Voigt Hill
#
# Bulk Modulus (GPa) = 45.53103 45.60175 45.56639
# Shear Modulus (GPa) = 8.00734 9.98509 8.99622
#
# Velocity S-wave (km/s) = 2.65385 2.96352 2.81295
# Velocity P-wave (km/s) = 7.03120 7.19857 7.11538
#
# Compressibility (1/GPa) = 0.02196304
#
# Stress axis : x y z
#
# Youngs Moduli (GPa) = 39.01311 39.01307 46.28229
#
# Poissons Ratio (x) = 0.46681 0.31215
# Poissons Ratio (y) = 0.46681 0.31215
# Poissons Ratio (z) = 0.26312 0.26312
#
# Static dielectric constant tensor:
#      x y z
#    x 2.418570 0.000000 0.000000 
#    y 0.000000 2.418570 0.000000 
#    z 0.000000 0.000000 2.328400 
# 
# 
# High freq. dielectric constant tensor:
#      x y z
#    x 1.408720 0.000000 0.000000 
#    y 0.000000 1.408720 0.000000 
#    z 0.000000 0.000000 1.405080 
# 
# From -- ./inp_files/8143.got.cif
#   From: 2010.03.12/outbox.cif.g09.slc.cpg/sg119_5_cif.got.tgz:8143.got - 2010.04.14 02:25:26.
