data_PCOD8310283
_publ_section_title
;
Structure prediction by ZEFSAII (Michael W. Deem and Ramdas Pophale) SiO2 
 PCOD8310283
Probable space group: P -4 B 2
;
_chemical_formula_sum "Si O2"
_cell_formula_units_Z 40
_cell_length_a 15.337424
_cell_length_b 15.337424
_cell_length_c 8.818386
_cell_angle_alpha 90.000000
_cell_angle_beta 90.000000
_cell_angle_gamma 90.000000
_cell_volume 2074.406919
_symmetry_space_group_name_H-M "P -4 B 2"
_symmetry_group_IT_number 117
_symmetry_cell_setting 'tetragonal'
loop_
_space_group_symop_operation_xyz
x,y,z
y,-x,-z
-x,-y,z
-y,x,-z
1/2+y,1/2+x,-z
1/2-y,1/2-x,-z
1/2-x,1/2+y,z
1/2+x,1/2-y,z
loop_
_atom_site_type_symbol
_atom_site_label
_atom_site_fract_x
_atom_site_fract_y
_atom_site_fract_z
Si Si1 0.274846 0.119334 0.379046
Si Si2 0.123606 0.220281 0.258325
Si Si3 0.636146 0.493089 0.542750
Si Si4 0.897891 0.503896 0.241223
Si Si5 0.133156 0.366845 0.500000
Si Si6 0.139254 0.360747 0.000000
O O1 0.311434 0.188567 0.500000
O O2 0.209024 0.161281 0.258525
O O3 0.224565 0.039866 0.462408
O O4 0.354633 0.090105 0.269079
O O5 0.129421 0.278953 0.406865
O O6 0.035529 0.162217 0.291506
O O7 0.128347 0.274265 0.102442
O O8 0.568799 0.411543 0.559524
O O9 0.873109 0.550290 0.394970
O O10 0.000000 0.500000 0.212310
O O11 0.855290 0.552400 0.099391
#
# Coordination Sequence:
#
# PCOD8310283 Si02
#       6
#     8   8   8   8   4   4
#     4  11  21  35  63  97 115 156 212 266 308 355
#     4  10  20  39  59  89 121 160 205 253 314 369
#     4   9  19  36  62  93 121 153 208 269 308 360
#     4  11  22  38  57  85 120 161 206 246 308 366
#     4  10  17  34  60  80 113 148 198 256 292 346
#     4  10  25  40  54  82 129 172 186 250 318 384
#
# _framework density 19.282620000000001
#
# number of rings (size 3 to 8) (size 9 to 14) (size 15 to 20)
#    0.000    1.800    3.000    1.800    2.800    0.000 
#    3.600    2.000    0.000    0.000    0.000    0.000 
#    0.000    0.000    0.000    0.000    0.000    0.000 
#
# Total GULP energy -495579.775309 kJ/mol
# GULP energy per Si atom -12389.494383 kJ/mol
# Density = 1.923873 g / cm^3
# Si number density = 19.282620 Si / 1000 Ang^3
#
#
#
# Elastic Constant Matrix: (Units=GPa)
#
#
# Indices 1 2 3 4 5 6 
#
# 1 107.6942 50.0394 43.4662 0.0000 0.0000 0.0000
# 2 50.0394 107.6931 43.4655 0.0000 0.0000 0.0000
# 3 43.4662 43.4655 102.8761 0.0000 0.0000 0.0000
# 4 0.0000 0.0000 0.0000 32.7358 0.0000 0.0000
# 5 0.0000 0.0000 0.0000 0.0000 32.7336 0.0000
# 6 0.0000 0.0000 0.0000 0.0000 0.0000 37.7185
#
#
#
# Elastic Compliance Matrix: (Units=1/GPa)
#
#
# Indices 1 2 3 4 5 6 
#
# 1 0.012804 -0.004540 -0.003492 0.000000 0.000000 0.000000
# 2 -0.004540 0.012805 -0.003492 0.000000 0.000000 0.000000
# 3 -0.003492 -0.003492 0.012671 0.000000 0.000000 0.000000
# 4 0.000000 0.000000 0.000000 0.030548 0.000000 0.000000
# 5 0.000000 0.000000 0.000000 0.000000 0.030550 0.000000
# 6 0.000000 0.000000 0.000000 0.000000 0.000000 0.026512
#
#
# Mechanical properties :
#
#
# Convention : Reuss Voigt Hill
#
# Bulk Modulus (GPa) = 65.64856 65.80062 65.72459
# Shear Modulus (GPa) = 32.46454 32.72374 32.59414
#
# Velocity S-wave (km/s) = 4.10764 4.12401 4.11583
# Velocity P-wave (km/s) = 7.52438 7.54155 7.53297
#
# Compressibility (1/GPa) = 0.01523263
#
# Stress axis : x y z
#
# Youngs Moduli (GPa) = 78.09779 78.09736 78.92067
#
# Poissons Ratio (x) = 0.35458 0.27557
# Poissons Ratio (y) = 0.35459 0.27556
# Poissons Ratio (z) = 0.27270 0.27269
#
# Static dielectric constant tensor:
#      x y z
#    x 4.311320 0.000000 0.000000 
#    y 0.000000 4.311300 0.000000 
#    z 0.000000 0.000000 3.267070 
# 
# 
# High freq. dielectric constant tensor:
#      x y z
#    x 1.763650 0.000000 0.000000 
#    y 0.000000 1.763650 0.000000 
#    z 0.000000 0.000000 1.714270 
# 
# From -- ./inp_files/1774.got.cif
#   From: 2010.03.12/outbox.cif.g09.slc.cpg/sg117_1_cif.got.tgz:1774.got - 2010.04.14 02:19:01.
