data_PCOD8310339
_publ_section_title
;
Structure prediction by ZEFSAII (Michael W. Deem and Ramdas Pophale) SiO2 
 PCOD8310339
Probable space group: P -4 B 2
;
_chemical_formula_sum "Si O2"
_cell_formula_units_Z 38
_cell_length_a 10.055623
_cell_length_b 10.055623
_cell_length_c 20.491966
_cell_angle_alpha 90.000000
_cell_angle_beta 90.000000
_cell_angle_gamma 90.000000
_cell_volume 2072.056493
_symmetry_space_group_name_H-M "P -4 B 2"
_symmetry_group_IT_number 117
_symmetry_cell_setting 'tetragonal'
loop_
_space_group_symop_operation_xyz
x,y,z
y,-x,-z
-x,-y,z
-y,x,-z
1/2+y,1/2+x,-z
1/2-y,1/2-x,-z
1/2-x,1/2+y,z
1/2+x,1/2-y,z
loop_
_atom_site_type_symbol
_atom_site_label
_atom_site_fract_x
_atom_site_fract_y
_atom_site_fract_z
Si Si1 0.753690 0.743898 0.695002
Si Si2 0.748228 0.751773 0.000000
Si Si3 0.000000 0.500000 0.500000
Si Si4 0.345357 0.504231 0.229341
Si Si5 0.340831 0.498679 0.076110
Si Si6 0.994540 0.352820 0.374886
O O1 0.641114 0.720477 0.748526
O O2 0.887205 0.769842 0.734269
O O3 0.765368 0.616953 0.648790
O O4 0.721733 0.862222 0.645982
O O5 0.623055 0.741678 0.951671
O O6 0.875160 0.760993 0.953466
O O7 0.000879 0.631488 0.453905
O O8 0.500000 0.500000 0.247501
O O9 0.322251 0.491315 0.152860
O O10 0.500000 0.500000 0.058433
O O11 0.000000 0.500000 0.342338
#
# Coordination Sequence:
#
# PCOD8310339 Si02
#       6
#     8   4   2   8   8   8
#     4  12  21  41  64  93 123 166 206 250 318 362
#     4  12  20  46  60  82 120 164 198 252 316 362
#     4   8  20  44  56  96 128 164 200 270 296 352
#     4  11  23  38  63  94 121 159 205 258 312 368
#     4  11  24  42  61  88 126 155 205 264 306 368
#     4  10  22  39  62  90 130 160 202 258 300 359
#
# _framework density 18.339268000000001
#
# number of rings (size 3 to 8) (size 9 to 14) (size 15 to 20)
#    0.632    0.421    6.316    1.263    0.000    1.263 
#    0.000    2.105    0.000    0.000    0.000    0.000 
#    0.000    0.000    0.000    0.000    0.000    0.000 
#
# Total GULP energy -471032.109552 kJ/mol
# GULP energy per Si atom -12395.581830 kJ/mol
# Density = 1.829753 g / cm^3
# Si number density = 18.339268 Si / 1000 Ang^3
#
#
#
# Elastic Constant Matrix: (Units=GPa)
#
#
# Indices 1 2 3 4 5 6 
#
# 1 106.1737 35.7924 39.0910 0.0000 0.0000 0.0000
# 2 35.7924 106.1732 39.0905 0.0000 0.0000 0.0000
# 3 39.0910 39.0905 123.6101 0.0000 0.0000 0.0000
# 4 0.0000 0.0000 0.0000 12.6920 0.0000 0.0000
# 5 0.0000 0.0000 0.0000 0.0000 12.6920 0.0000
# 6 0.0000 0.0000 0.0000 0.0000 0.0000 35.4536
#
#
#
# Elastic Compliance Matrix: (Units=1/GPa)
#
#
# Indices 1 2 3 4 5 6 
#
# 1 0.011369 -0.002839 -0.002697 0.000000 0.000000 0.000000
# 2 -0.002839 0.011369 -0.002697 0.000000 0.000000 0.000000
# 3 -0.002697 -0.002697 0.009796 0.000000 0.000000 0.000000
# 4 0.000000 0.000000 0.000000 0.078790 0.000000 0.000000
# 5 0.000000 0.000000 0.000000 0.000000 0.078790 0.000000
# 6 0.000000 0.000000 0.000000 0.000000 0.000000 0.028206
#
#
# Mechanical properties :
#
#
# Convention : Reuss Voigt Hill
#
# Bulk Modulus (GPa) = 62.24571 62.65608 62.45089
# Shear Modulus (GPa) = 20.82098 26.96641 23.89370
#
# Velocity S-wave (km/s) = 3.37311 3.83876 3.61345
# Velocity P-wave (km/s) = 7.01323 7.34080 7.17888
#
# Compressibility (1/GPa) = 0.01606536
#
# Stress axis : x y z
#
# Youngs Moduli (GPa) = 87.95951 87.95932 102.08259
#
# Poissons Ratio (x) = 0.24976 0.27536
# Poissons Ratio (y) = 0.24976 0.27535
# Poissons Ratio (z) = 0.23726 0.23726
#
# Static dielectric constant tensor:
#      x y z
#    x 3.389110 0.000000 0.000000 
#    y 0.000000 3.389110 0.000000 
#    z 0.000000 0.000000 3.369740 
# 
# 
# High freq. dielectric constant tensor:
#      x y z
#    x 1.713990 0.000000 0.000000 
#    y 0.000000 1.713990 0.000000 
#    z 0.000000 0.000000 1.719570 
# 
# From -- ./inp_files/3533.got.cif
#   From: 2010.03.12/outbox.cif.g09.slc.cpg/sg117_2_cif.got.tgz:3533.got - 2010.04.14 02:19:01.
