data_PCOD8310321
_publ_section_title
;
Structure prediction by ZEFSAII (Michael W. Deem and Ramdas Pophale) SiO2 
 PCOD8310321
Probable space group: P -4 B 2
;
_chemical_formula_sum "Si O2"
_cell_formula_units_Z 36
_cell_length_a 14.675477
_cell_length_b 14.675477
_cell_length_c 8.423457
_cell_angle_alpha 90.000000
_cell_angle_beta 90.000000
_cell_angle_gamma 90.000000
_cell_volume 1814.156777
_symmetry_space_group_name_H-M "P -4 B 2"
_symmetry_group_IT_number 117
_symmetry_cell_setting 'tetragonal'
loop_
_space_group_symop_operation_xyz
x,y,z
y,-x,-z
-x,-y,z
-y,x,-z
1/2+y,1/2+x,-z
1/2-y,1/2-x,-z
1/2-x,1/2+y,z
1/2+x,1/2-y,z
loop_
_atom_site_type_symbol
_atom_site_label
_atom_site_fract_x
_atom_site_fract_y
_atom_site_fract_z
Si Si1 0.870292 0.938534 0.039884
Si Si2 0.183189 0.595651 0.866641
Si Si3 0.830263 0.669738 0.500000
Si Si4 0.219333 0.157732 0.315160
Si Si5 0.328341 0.031428 0.534612
O O1 0.857457 0.897986 0.217492
O O2 0.780289 0.921373 0.941675
O O3 0.953506 0.889015 0.949592
O O4 0.180561 0.694964 0.791317
O O5 0.173448 0.520597 0.727234
O O6 0.101067 0.601067 0.000000
O O7 0.819281 0.743767 0.362323
O O8 0.819035 0.564767 0.443293
O O9 0.248748 0.098820 0.469912
O O10 0.427311 0.072690 0.500000
#
# Coordination Sequence:
#
# PCOD8310321 Si02
#       5
#     8   8   4   8   8
#     4  10  21  35  55  84 119 158 202 250 308 366
#     4   9  18  37  58  78 121 154 188 250 299 360
#     4  12  21  36  66  87 114 166 200 254 326 365
#     4  10  21  37  57  87 115 158 202 251 306 376
#     4  10  21  38  59  88 122 151 206 254 307 374
#
# _framework density 19.843928999999999
#
# number of rings (size 3 to 8) (size 9 to 14) (size 15 to 20)
#    0.000    2.000    3.333    1.667    3.111    0.000 
#    0.000    0.000    0.000   13.333    0.000    0.000 
#    0.000    0.000    0.000    0.000    0.000    0.000 
#
# Total GULP energy -445985.761079 kJ/mol
# GULP energy per Si atom -12388.493363 kJ/mol
# Density = 1.979876 g / cm^3
# Si number density = 19.843929 Si / 1000 Ang^3
#
#
#
# Elastic Constant Matrix: (Units=GPa)
#
#
# Indices 1 2 3 4 5 6 
#
# 1 99.1388 28.1698 35.7293 0.0000 0.0000 0.0000
# 2 28.1698 99.1378 35.7305 0.0000 0.0000 0.0000
# 3 35.7293 35.7305 102.4629 0.0000 0.0000 0.0000
# 4 0.0000 0.0000 0.0000 26.4701 0.0000 0.0000
# 5 0.0000 0.0000 0.0000 0.0000 26.4691 0.0000
# 6 0.0000 0.0000 0.0000 0.0000 0.0000 23.2247
#
#
#
# Elastic Compliance Matrix: (Units=1/GPa)
#
#
# Indices 1 2 3 4 5 6 
#
# 1 0.011929 -0.002162 -0.003406 0.000000 0.000000 0.000000
# 2 -0.002162 0.011929 -0.003406 0.000000 0.000000 0.000000
# 3 -0.003406 -0.003406 0.012135 0.000000 0.000000 0.000000
# 4 0.000000 0.000000 0.000000 0.037779 0.000000 0.000000
# 5 0.000000 0.000000 0.000000 0.000000 0.037780 0.000000
# 6 0.000000 0.000000 0.000000 0.000000 0.000000 0.043058
#
#
# Mechanical properties :
#
#
# Convention : Reuss Voigt Hill
#
# Bulk Modulus (GPa) = 55.41637 55.55544 55.48591
# Shear Modulus (GPa) = 28.00017 28.64011 28.32014
#
# Velocity S-wave (km/s) = 3.76043 3.80316 3.78185
# Velocity P-wave (km/s) = 6.84406 6.88058 6.86234
#
# Compressibility (1/GPa) = 0.01804521
#
# Stress axis : x y z
#
# Youngs Moduli (GPa) = 83.83232 83.83055 82.40721
#
# Poissons Ratio (x) = 0.18125 0.28065
# Poissons Ratio (y) = 0.18125 0.28067
# Poissons Ratio (z) = 0.28550 0.28552
#
# Static dielectric constant tensor:
#      x y z
#    x 3.669990 0.000000 0.000000 
#    y 0.000000 3.670010 0.000000 
#    z 0.000000 0.000000 4.025820 
# 
# 
# High freq. dielectric constant tensor:
#      x y z
#    x 1.769860 0.000000 0.000000 
#    y 0.000000 1.769860 0.000000 
#    z 0.000000 0.000000 1.770700 
# 
# From -- ./inp_files/1575.got.cif
#   From: 2010.03.12/outbox.cif.g09.slc.cpg/sg117_1_cif.got.tgz:1575.got - 2010.04.14 02:19:01.
