data_PCOD8310486
_publ_section_title
;
Structure prediction by ZEFSAII (Michael W. Deem and Ramdas Pophale) SiO2 
 PCOD8310486
Probable space group: P -4 N 2
;
_chemical_formula_sum "Si O2"
_cell_formula_units_Z 40
_cell_length_a 12.412355
_cell_length_b 12.412355
_cell_length_c 13.322016
_cell_angle_alpha 90.000000
_cell_angle_beta 90.000000
_cell_angle_gamma 90.000000
_cell_volume 2052.477133
_symmetry_space_group_name_H-M "P -4 N 2"
_symmetry_group_IT_number 118
_symmetry_cell_setting 'tetragonal'
loop_
_space_group_symop_operation_xyz
x,y,z
y,-x,-z
-x,-y,z
-y,x,-z
1/2+y,1/2+x,1/2-z
1/2-y,1/2-x,1/2-z
1/2-x,1/2+y,1/2+z
1/2+x,1/2-y,1/2+z
loop_
_atom_site_type_symbol
_atom_site_label
_atom_site_fract_x
_atom_site_fract_y
_atom_site_fract_z
Si Si1 0.885377 0.207769 0.634934
Si Si2 0.444414 0.766645 0.513604
Si Si3 0.909642 0.409642 0.361300
Si Si4 0.444414 0.766645 0.986396
Si Si5 0.292231 0.614623 0.634934
O O1 0.828579 0.113282 0.572883
O O2 0.818055 0.318055 0.627131
O O3 0.895786 0.170586 0.750000
O O4 0.005065 0.225102 0.590744
O O5 0.544196 0.806048 0.581666
O O6 0.363075 0.863075 0.488273
O O7 0.386718 0.671421 0.572883
O O8 0.494935 0.725102 0.409256
O O9 0.873885 0.373885 0.250000
O O10 0.000000 0.500000 0.353963
O O11 0.955804 0.306048 0.418334
#
# Coordination Sequence:
#
# PCOD8310486 Si02
#       5
#     8   8   8   8   8
#     4  10  21  38  60  85 117 154 190 239 294 339
#     4  10  20  36  58  85 115 150 194 238 281 346
#     4   9  16  30  55  83 107 140 186 233 282 336
#     4  10  20  36  58  85 115 150 194 238 281 346
#     4  10  21  38  60  85 117 154 190 239 294 339
#
# _framework density 19.488644000000001
#
# number of rings (size 3 to 8) (size 9 to 14) (size 15 to 20)
#    0.000    2.200    2.000    1.200    0.000    6.400 
#    0.000    8.000    0.000    0.000    0.000    0.000 
#    0.000    0.000    0.000    0.000    0.000    0.000 
#
# Total GULP energy -496083.958888 kJ/mol
# GULP energy per Si atom -12402.098972 kJ/mol
# Density = 1.944429 g / cm^3
# Si number density = 19.488644 Si / 1000 Ang^3
#
#
#
# Elastic Constant Matrix: (Units=GPa)
#
#
# Indices 1 2 3 4 5 6 
#
# 1 87.2732 45.1784 61.1567 0.0000 0.0000 0.0000
# 2 45.1784 87.2732 61.1567 0.0000 0.0000 0.0000
# 3 61.1567 61.1567 134.7461 0.0000 0.0000 0.0000
# 4 0.0000 0.0000 0.0000 32.4971 0.0000 0.0000
# 5 0.0000 0.0000 0.0000 0.0000 32.4971 0.0000
# 6 0.0000 0.0000 0.0000 0.0000 0.0000 23.2910
#
#
#
# Elastic Compliance Matrix: (Units=1/GPa)
#
#
# Indices 1 2 3 4 5 6 
#
# 1 0.018377 -0.005379 -0.005899 0.000000 0.000000 0.000000
# 2 -0.005379 0.018377 -0.005899 0.000000 0.000000 0.000000
# 3 -0.005899 -0.005899 0.012776 0.000000 0.000000 0.000000
# 4 0.000000 0.000000 0.000000 0.030772 0.000000 0.000000
# 5 0.000000 0.000000 0.000000 0.000000 0.030772 0.000000
# 6 0.000000 0.000000 0.000000 0.000000 0.000000 0.042935
#
#
# Mechanical properties :
#
#
# Convention : Reuss Voigt Hill
#
# Bulk Modulus (GPa) = 65.89911 71.58623 68.74267
# Shear Modulus (GPa) = 25.85022 27.11040 26.48031
#
# Velocity S-wave (km/s) = 3.64596 3.73377 3.69013
# Velocity P-wave (km/s) = 7.18412 7.44313 7.31477
#
# Compressibility (1/GPa) = 0.01517471
#
# Stress axis : x y z
#
# Youngs Moduli (GPa) = 54.41662 54.41662 78.27051
#
# Poissons Ratio (x) = 0.29272 0.46173
# Poissons Ratio (y) = 0.29272 0.46173
# Poissons Ratio (z) = 0.32101 0.32101
#
# Static dielectric constant tensor:
#      x y z
#    x 3.392540 0.000000 0.000000 
#    y 0.000000 3.392540 0.000000 
#    z 0.000000 0.000000 3.681560 
# 
# 
# High freq. dielectric constant tensor:
#      x y z
#    x 1.746440 0.000000 0.000000 
#    y 0.000000 1.746440 0.000000 
#    z 0.000000 0.000000 1.763290 
# 
# From -- ./inp_files/3162.got.cif
#   From: 2010.03.12/outbox.cif.g09.slc.cpg/sg118_2_cif.got.tgz:3162.got - 2010.04.14 02:21:17.
