data_PCOD8310586
_publ_section_title
;
Structure prediction by ZEFSAII (Michael W. Deem and Ramdas Pophale) SiO2 
 PCOD8310586
Probable space group: P -4 N 2
;
_chemical_formula_sum "Si O2"
_cell_formula_units_Z 54
_cell_length_a 14.287395
_cell_length_b 14.287395
_cell_length_c 11.538862
_cell_angle_alpha 90.000000
_cell_angle_beta 90.000000
_cell_angle_gamma 90.000000
_cell_volume 2355.423929
_symmetry_space_group_name_H-M "P -4 N 2"
_symmetry_group_IT_number 118
_symmetry_cell_setting 'tetragonal'
loop_
_space_group_symop_operation_xyz
x,y,z
y,-x,-z
-x,-y,z
-y,x,-z
1/2+y,1/2+x,1/2-z
1/2-y,1/2-x,1/2-z
1/2-x,1/2+y,1/2+z
1/2+x,1/2-y,1/2+z
loop_
_atom_site_type_symbol
_atom_site_label
_atom_site_fract_x
_atom_site_fract_y
_atom_site_fract_z
Si Si1 0.000000 0.500000 0.750000
Si Si2 0.150054 0.985525 0.527193
Si Si3 0.776291 0.138662 0.189138
Si Si4 0.622061 0.230674 0.572009
Si Si5 0.778836 0.278836 0.750000
Si Si6 0.967880 0.235089 0.250970
Si Si7 0.035730 0.400680 0.370715
Si Si8 0.018097 0.706885 0.665156
O O1 0.999555 0.593820 0.669228
O O2 0.168477 0.970385 0.664343
O O3 0.249692 0.986108 0.458349
O O4 0.099258 0.085678 0.513913
O O5 0.689812 0.189812 0.250000
O O6 0.868905 0.189261 0.230754
O O7 0.765511 0.032395 0.233052
O O8 0.779487 0.134593 0.051071
O O9 0.697042 0.274410 0.657245
O O10 0.519355 0.249319 0.628232
O O11 0.637306 0.119281 0.547286
O O12 0.873075 0.273402 0.676859
O O13 0.953242 0.328331 0.333732
O O14 0.089744 0.410257 0.250000
O O15 0.000000 0.500000 0.419293
#
# Coordination Sequence:
#
# PCOD8310586 Si02
#       8
#     2   8   8   8   4   8   8   8
#     4  10  24  52  72 112 144 200 240 300 376 460
#     4  11  24  44  75 107 141 187 248 309 357 445
#     4  12  29  46  72 110 153 188 251 311 373 441
#     4  11  25  48  72 105 150 192 244 311 367 455
#     4  11  24  47  79 100 143 206 250 290 383 448
#     4  11  24  46  74 106 144 193 239 305 378 435
#     4   9  20  41  70 105 141 183 238 294 361 438
#     4  11  25  48  74 106 146 195 249 303 375 442
#
# _framework density 22.925809999999998
#
# number of rings (size 3 to 8) (size 9 to 14) (size 15 to 20)
#    0.000    1.185    4.444    0.889   10.370    0.000 
#    8.000    0.000    0.000    0.000    0.000    0.000 
#    0.000    0.000    0.000    0.000    0.000    0.000 
#
# Total GULP energy -669177.997231 kJ/mol
# GULP energy per Si atom -12392.185134 kJ/mol
# Density = 2.287363 g / cm^3
# Si number density = 22.925810 Si / 1000 Ang^3
#
#
#
# Elastic Constant Matrix: (Units=GPa)
#
#
# Indices 1 2 3 4 5 6 
#
# 1 102.4433 41.5625 20.6664 0.0000 0.0000 0.0000
# 2 41.5625 102.4433 20.6663 0.0000 0.0000 0.0000
# 3 20.6664 20.6663 120.7517 0.0000 0.0000 0.0000
# 4 0.0000 0.0000 0.0000 24.6368 0.0000 0.0000
# 5 0.0000 0.0000 0.0000 0.0000 24.6368 0.0000
# 6 0.0000 0.0000 0.0000 0.0000 0.0000 41.2408
#
#
#
# Elastic Compliance Matrix: (Units=1/GPa)
#
#
# Indices 1 2 3 4 5 6 
#
# 1 0.011864 -0.004561 -0.001250 0.000000 0.000000 0.000000
# 2 -0.004561 0.011864 -0.001250 0.000000 0.000000 0.000000
# 3 -0.001250 -0.001250 0.008709 0.000000 0.000000 0.000000
# 4 0.000000 0.000000 0.000000 0.040590 0.000000 0.000000
# 5 0.000000 0.000000 0.000000 0.000000 0.040590 0.000000
# 6 0.000000 0.000000 0.000000 0.000000 0.000000 0.024248
#
#
# Mechanical properties :
#
#
# Convention : Reuss Voigt Hill
#
# Bulk Modulus (GPa) = 54.59828 54.60319 54.60074
# Shear Modulus (GPa) = 31.62712 34.28576 32.95644
#
# Velocity S-wave (km/s) = 3.71825 3.87138 3.79558
# Velocity P-wave (km/s) = 6.50390 6.62212 6.56328
#
# Compressibility (1/GPa) = 0.01831560
#
# Stress axis : x y z
#
# Youngs Moduli (GPa) = 84.28705 84.28703 114.81997
#
# Poissons Ratio (x) = 0.38446 0.14351
# Poissons Ratio (y) = 0.38446 0.14351
# Poissons Ratio (z) = 0.10535 0.10535
#
# Static dielectric constant tensor:
#      x y z
#    x 4.249580 0.000000 0.000000 
#    y 0.000000 4.249580 0.000000 
#    z 0.000000 0.000000 4.059110 
# 
# 
# High freq. dielectric constant tensor:
#      x y z
#    x 1.910500 0.000000 0.000000 
#    y 0.000000 1.910500 0.000000 
#    z 0.000000 0.000000 1.904160 
# 
# From -- ./inp_files/3469.got.cif
#   From: 2010.03.12/outbox.cif.g09.slc.cpg/sg118_2_cif.got.tgz:3469.got - 2010.04.14 02:21:17.
