data_PCOD8310330
_publ_section_title
;
Structure prediction by ZEFSAII (Michael W. Deem and Ramdas Pophale) SiO2 
 PCOD8310330
Probable space group: P -4 B 2
;
_chemical_formula_sum "Si O2"
_cell_formula_units_Z 34
_cell_length_a 9.149174
_cell_length_b 9.149174
_cell_length_c 18.785081
_cell_angle_alpha 90.000000
_cell_angle_beta 90.000000
_cell_angle_gamma 90.000000
_cell_volume 1572.450005
_symmetry_space_group_name_H-M "P -4 B 2"
_symmetry_group_IT_number 117
_symmetry_cell_setting 'tetragonal'
loop_
_space_group_symop_operation_xyz
x,y,z
y,-x,-z
-x,-y,z
-y,x,-z
1/2+y,1/2+x,-z
1/2-y,1/2-x,-z
1/2-x,1/2+y,z
1/2+x,1/2-y,z
loop_
_atom_site_type_symbol
_atom_site_label
_atom_site_fract_x
_atom_site_fract_y
_atom_site_fract_z
Si Si1 0.919454 0.814227 0.870919
Si Si2 0.854672 0.084742 0.659068
Si Si3 0.908803 0.783037 0.186641
Si Si4 0.867275 0.391961 0.582324
Si Si5 0.500000 0.500000 0.000000
O O1 0.850645 0.654096 0.860843
O O2 0.070935 0.817024 0.829135
O O3 0.801866 0.923889 0.835882
O O4 0.947025 0.862457 0.952624
O O5 0.752250 0.103864 0.728888
O O6 0.888345 0.242940 0.626081
O O7 0.778581 0.979141 0.602192
O O8 0.000000 0.000000 0.683665
O O9 0.852177 0.352177 0.500000
O O10 0.000000 0.500000 0.598658
#
# Coordination Sequence:
#
# PCOD8310330 Si02
#       5
#     8   8   8   8   2
#     4  10  21  39  63  91 134 159 218 252 320 381
#     4  12  24  44  69  92 133 175 221 281 343 399
#     4  10  22  40  61  95 123 168 208 270 312 385
#     4  11  28  43  65  97 128 173 226 276 342 412
#     4   8  20  40  64  96 128 176 198 272 316 388
#
# _framework density 21.622309000000001
#
# number of rings (size 3 to 8) (size 9 to 14) (size 15 to 20)
#    0.000    1.647    2.353    2.824    9.882    4.706 
#    0.000    0.000    0.000   11.294    0.000    0.000 
#    0.000    0.000    0.000    0.000    0.000    0.000 
#
# Total GULP energy -421614.793461 kJ/mol
# GULP energy per Si atom -12400.435102 kJ/mol
# Density = 2.157310 g / cm^3
# Si number density = 21.622309 Si / 1000 Ang^3
#
#
#
# Elastic Constant Matrix: (Units=GPa)
#
#
# Indices 1 2 3 4 5 6 
#
# 1 57.1346 14.4514 22.9657 0.0000 0.0000 0.0000
# 2 14.4514 57.1346 22.9657 0.0000 0.0000 0.0000
# 3 22.9657 22.9657 153.2231 0.0000 0.0000 0.0000
# 4 0.0000 0.0000 0.0000 18.4163 0.0000 0.0000
# 5 0.0000 0.0000 0.0000 0.0000 18.4163 0.0000
# 6 0.0000 0.0000 0.0000 0.0000 0.0000 40.3456
#
#
#
# Elastic Compliance Matrix: (Units=1/GPa)
#
#
# Indices 1 2 3 4 5 6 
#
# 1 0.019442 -0.003986 -0.002317 0.000000 0.000000 0.000000
# 2 -0.003986 0.019442 -0.002317 0.000000 0.000000 0.000000
# 3 -0.002317 -0.002317 0.007221 0.000000 0.000000 0.000000
# 4 0.000000 0.000000 0.000000 0.054300 0.000000 0.000000
# 5 0.000000 0.000000 0.000000 0.000000 0.054300 0.000000
# 6 0.000000 0.000000 0.000000 0.000000 0.000000 0.024786
#
#
# Mechanical properties :
#
#
# Convention : Reuss Voigt Hill
#
# Bulk Modulus (GPa) = 34.64304 43.13974 38.89139
# Shear Modulus (GPa) = 24.23053 29.24293 26.73673
#
# Velocity S-wave (km/s) = 3.35121 3.68155 3.52025
# Velocity P-wave (km/s) = 5.57053 6.16981 5.87781
#
# Compressibility (1/GPa) = 0.02886582
#
# Stress axis : x y z
#
# Youngs Moduli (GPa) = 51.43506 51.43506 138.48774
#
# Poissons Ratio (x) = 0.20504 0.32081
# Poissons Ratio (y) = 0.20504 0.32081
# Poissons Ratio (z) = 0.11915 0.11915
#
# Static dielectric constant tensor:
#      x y z
#    x 3.821190 0.000000 0.000000 
#    y 0.000000 3.821190 0.000000 
#    z 0.000000 0.000000 3.899740 
# 
# 
# High freq. dielectric constant tensor:
#      x y z
#    x 1.844910 0.000000 0.000000 
#    y 0.000000 1.844910 0.000000 
#    z 0.000000 0.000000 1.857200 
# 
# From -- ./inp_files/3445.got.cif
#   From: 2010.03.12/outbox.cif.g09.slc.cpg/sg117_2_cif.got.tgz:3445.got - 2010.04.14 02:19:01.
