data_PCOD8310711
_publ_section_title
;
Structure prediction by ZEFSAII (Michael W. Deem and Ramdas Pophale) SiO2 
 PCOD8310711
Probable space group: I -4 M 2
;
_chemical_formula_sum "Si O2"
_cell_formula_units_Z 72
_cell_length_a 16.353665
_cell_length_b 16.353665
_cell_length_c 20.055650
_cell_angle_alpha 90.000000
_cell_angle_beta 90.000000
_cell_angle_gamma 90.000000
_cell_volume 5363.730346
_symmetry_space_group_name_H-M "I -4 M 2"
_symmetry_group_IT_number 119
_symmetry_cell_setting 'tetragonal'
loop_
_space_group_symop_operation_xyz
x,y,z
y,-x,-z
-x,-y,z
-y,x,-z
y,x,-z
-y,-x,-z
-x,y,z
x,-y,z
1/2+x,1/2+y,1/2+z
1/2+y,1/2-x,1/2-z
1/2-x,1/2-y,1/2+z
1/2-y,1/2+x,1/2-z
1/2+y,1/2+x,1/2-z
1/2-y,1/2-x,1/2-z
1/2-x,1/2+y,1/2+z
1/2+x,1/2-y,1/2+z
loop_
_atom_site_type_symbol
_atom_site_label
_atom_site_fract_x
_atom_site_fract_y
_atom_site_fract_z
Si Si1 0.094238 0.336899 0.184282
Si Si2 0.000000 0.906804 0.581731
Si Si3 0.676301 0.403074 0.243967
Si Si4 0.738000 0.902542 0.608992
Si Si5 0.092006 0.000000 0.260830
Si Si6 0.148339 0.851661 0.500000
O O1 0.108167 0.391834 0.250000
O O2 0.120910 0.242923 0.200140
O O3 0.145758 0.372115 0.122525
O O4 0.000000 0.341751 0.163505
O O5 0.921067 0.859696 0.555668
O O6 0.000000 0.906251 0.660190
O O7 0.000000 0.000000 0.555574
O O8 0.667721 0.500000 0.238749
O O9 0.706684 0.372758 0.171426
O O10 0.586005 0.365603 0.262456
O O11 0.766742 0.859365 0.540396
O O12 0.741409 0.000000 0.600185
O O13 0.000000 0.000000 0.232962
#
# Coordination Sequence:
#
# PCOD8310711 Si02
#       6
#    16   8  16  16   8   8
#     4   9  17  28  40  55  77 103 132 164 193 224
#     4  11  16  20  34  52  83 117 127 136 170 229
#     4   8  14  23  35  54  78 101 124 151 183 221
#     4  10  18  25  36  55  78 105 132 154 185 230
#     4   9  14  20  34  56  80 103 123 144 175 223
#     4  12  17  24  34  56  82 106 129 148 180 234
#
# _framework density 13.423493000000001
#
# number of rings (size 3 to 8) (size 9 to 14) (size 15 to 20)
#    0.000    2.444    4.444    2.000    0.000    1.556 
#    0.000    0.000    0.000    0.000    2.889    0.000 
#    0.000    0.000    0.000    0.000    0.000   14.000 
#
# Total GULP energy -446017.347863 kJ/mol
# GULP energy per Si atom -12389.370774 kJ/mol
# Density = 1.339294 g / cm^3
# Si number density = 13.423493 Si / 1000 Ang^3
#
#
#
# Elastic Constant Matrix: (Units=GPa)
#
#
# Indices 1 2 3 4 5 6 
#
# 1 71.9875 24.3576 27.2412 0.0000 0.0000 0.0000
# 2 24.3576 71.9861 27.2413 0.0000 0.0000 0.0000
# 3 27.2412 27.2413 42.3789 0.0000 0.0000 0.0000
# 4 0.0000 0.0000 0.0000 -114.5002 0.0000 0.0000
# 5 0.0000 0.0000 0.0000 0.0000 -113.8287 0.0000
# 6 0.0000 0.0000 0.0000 0.0000 0.0000 13.5234
#
#
#
# Elastic Compliance Matrix: (Units=1/GPa)
#
#
# Indices 1 2 3 4 5 6 
#
# 1 0.018651 -0.002344 -0.010482 0.000000 0.000000 0.000000
# 2 -0.002344 0.018652 -0.010482 0.000000 0.000000 0.000000
# 3 -0.010482 -0.010482 0.037073 0.000000 0.000000 0.000000
# 4 0.000000 0.000000 0.000000 -0.008734 0.000000 0.000000
# 5 0.000000 0.000000 0.000000 0.000000 -0.008785 0.000000
# 6 0.000000 0.000000 0.000000 0.000000 0.000000 0.073946
#
#
# Mechanical properties :
#
#
# Convention : Reuss Voigt Hill
#
# Bulk Modulus (GPa) = 36.02579 38.22587 37.12583
# Shear Modulus (GPa) = 26.78484 -35.79361 -4.50438
#
# Velocity S-wave (km/s) = 4.47180 -5.16941 -1.83382
# Velocity P-wave (km/s) = 7.31839 2.66303 4.82012
#
# Compressibility (1/GPa) = 0.02775789
#
# Stress axis : x y z
#
# Youngs Moduli (GPa) = 53.61623 53.61473 26.97406
#
# Poissons Ratio (x) = 0.12568 0.28274
# Poissons Ratio (y) = 0.12569 0.28275
# Poissons Ratio (z) = 0.56201 0.56201
#
# Static dielectric constant tensor:
#      x y z
#    x 3.900100 0.000000 0.000000 
#    y 0.000000 3.905150 0.000000 
#    z 0.000000 0.000000 2.410720 
# 
# 
# High freq. dielectric constant tensor:
#      x y z
#    x 1.493420 0.000000 0.000000 
#    y 0.000000 1.493420 0.000000 
#    z 0.000000 0.000000 1.474780 
# 
# From -- ./inp_files/6536.got.cif
#   From: 2010.03.12/outbox.cif.g09.slc.cpg/sg119_4_cif.got.tgz:6536.got - 2010.04.14 02:25:26.
