data_PCOD8310072
_publ_section_title
;
Structure prediction by ZEFSAII (Michael W. Deem and Ramdas Pophale) SiO2 
 PCOD8310072
Probable space group: P -4 C 2
;
_chemical_formula_sum "Si O2"
_cell_formula_units_Z 40
_cell_length_a 16.198216
_cell_length_b 16.198216
_cell_length_c 8.822368
_cell_angle_alpha 90.000000
_cell_angle_beta 90.000000
_cell_angle_gamma 90.000000
_cell_volume 2314.832339
_symmetry_space_group_name_H-M "P -4 C 2"
_symmetry_group_IT_number 116
_symmetry_cell_setting 'tetragonal'
loop_
_space_group_symop_operation_xyz
x,y,z
y,-x,-z
-x,-y,z
-y,x,-z
y,x,1/2-z
-y,-x,1/2-z
-x,y,1/2+z
x,-y,1/2+z
loop_
_atom_site_type_symbol
_atom_site_label
_atom_site_fract_x
_atom_site_fract_y
_atom_site_fract_z
Si Si1 0.397019 0.046641 0.205844
Si Si2 0.272769 0.559451 0.584855
Si Si3 0.557626 0.903823 0.535256
Si Si4 0.312963 0.368545 0.590394
Si Si5 0.321421 0.207078 0.169568
O O1 0.430297 0.051310 0.375040
O O2 0.464941 0.082335 0.089947
O O3 0.318860 0.107446 0.183165
O O4 0.380569 0.951128 0.155348
O O5 0.194229 0.572647 0.472241
O O6 0.298701 0.465625 0.613698
O O7 0.351292 0.606027 0.512669
O O8 0.247278 0.598617 0.746283
O O9 0.323487 0.323487 0.750000
O O10 0.234902 0.326823 0.505512
O O11 0.238106 0.238106 0.250000
#
# Coordination Sequence:
#
# PCOD8310072 Si02
#       5
#     8   8   8   8   8
#     4  10  18  30  49  71  98 121 159 204 254 297
#     4  10  21  35  47  65  92 120 164 210 258 296
#     4  10  19  29  48  70  93 118 154 206 244 302
#     4  11  21  32  51  64  83 124 164 214 254 298
#     4   9  19  34  47  67  98 127 162 205 251 299
#
# _framework density 17.279869000000001
#
# number of rings (size 3 to 8) (size 9 to 14) (size 15 to 20)
#    0.000    2.000    2.000    3.600    2.800    2.000 
#    0.000    1.000    0.000    0.000    0.000    0.000 
#    0.000    0.000    0.000    0.000    0.000  286.000 
#
# Total GULP energy -495601.453654 kJ/mol
# GULP energy per Si atom -12390.036341 kJ/mol
# Density = 1.724054 g / cm^3
# Si number density = 17.279869 Si / 1000 Ang^3
#
#
#
# Elastic Constant Matrix: (Units=GPa)
#
#
# Indices 1 2 3 4 5 6 
#
# 1 70.6912 36.5214 15.0219 0.0000 0.0000 0.0000
# 2 36.5214 70.6912 15.0219 0.0000 0.0000 0.0000
# 3 15.0219 15.0219 76.7658 0.0000 0.0000 0.0000
# 4 0.0000 0.0000 0.0000 21.8218 0.0000 0.0000
# 5 0.0000 0.0000 0.0000 0.0000 21.8218 0.0000
# 6 0.0000 0.0000 0.0000 0.0000 0.0000 20.8332
#
#
#
# Elastic Compliance Matrix: (Units=1/GPa)
#
#
# Indices 1 2 3 4 5 6 
#
# 1 0.019567 -0.009699 -0.001931 0.000000 0.000000 0.000000
# 2 -0.009699 0.019567 -0.001931 0.000000 0.000000 0.000000
# 3 -0.001931 -0.001931 0.013782 0.000000 0.000000 0.000000
# 4 0.000000 0.000000 0.000000 0.045826 0.000000 0.000000
# 5 0.000000 0.000000 0.000000 0.000000 0.045826 0.000000
# 6 0.000000 0.000000 0.000000 0.000000 0.000000 0.048000
#
#
# Mechanical properties :
#
#
# Convention : Reuss Voigt Hill
#
# Bulk Modulus (GPa) = 38.76748 39.03098 38.89923
# Shear Modulus (GPa) = 21.90217 23.00091 22.45154
#
# Velocity S-wave (km/s) = 3.56405 3.65236 3.60848
# Velocity P-wave (km/s) = 6.27857 6.35790 6.31836
#
# Compressibility (1/GPa) = 0.02579481
#
# Stress axis : x y z
#
# Youngs Moduli (GPa) = 51.10648 51.10648 72.55629
#
# Poissons Ratio (x) = 0.49566 0.14011
# Poissons Ratio (y) = 0.49566 0.14011
# Poissons Ratio (z) = 0.09869 0.09869
#
# Static dielectric constant tensor:
#      x y z
#    x 3.323430 0.000000 0.000000 
#    y 0.000000 3.323430 0.000000 
#    z 0.000000 0.000000 3.429930 
# 
# 
# High freq. dielectric constant tensor:
#      x y z
#    x 1.634660 0.000000 0.000000 
#    y 0.000000 1.634660 0.000000 
#    z 0.000000 0.000000 1.688530 
# 
# From -- ./inp_files/894.got.cif
#   From: 2010.03.12/outbox.cif.g09.slc.cpg/sg116_1_cif.got.tgz:894.got - 2010.04.14 02:15:44.
