data_PCOD8310720
_publ_section_title
;
Structure prediction by ZEFSAII (Michael W. Deem and Ramdas Pophale) SiO2 
 PCOD8310720
Probable space group: I -4 M 2
;
_chemical_formula_sum "Si O2"
_cell_formula_units_Z 96
_cell_length_a 14.276589
_cell_length_b 14.276589
_cell_length_c 30.191794
_cell_angle_alpha 90.000000
_cell_angle_beta 90.000000
_cell_angle_gamma 90.000000
_cell_volume 6153.721448
_symmetry_space_group_name_H-M "I -4 M 2"
_symmetry_group_IT_number 119
_symmetry_cell_setting 'tetragonal'
loop_
_space_group_symop_operation_xyz
x,y,z
y,-x,-z
-x,-y,z
-y,x,-z
y,x,-z
-y,-x,-z
-x,y,z
x,-y,z
1/2+x,1/2+y,1/2+z
1/2+y,1/2-x,1/2-z
1/2-x,1/2-y,1/2+z
1/2-y,1/2+x,1/2-z
1/2+y,1/2+x,1/2-z
1/2-y,1/2-x,1/2-z
1/2-x,1/2+y,1/2+z
1/2+x,1/2-y,1/2+z
loop_
_atom_site_type_symbol
_atom_site_label
_atom_site_fract_x
_atom_site_fract_y
_atom_site_fract_z
Si Si1 0.394987 0.611230 0.549538
Si Si2 0.247781 0.108181 0.227276
Si Si3 0.108601 0.750385 0.874962
Si Si4 0.603846 0.390935 0.798535
Si Si5 0.897370 0.111165 0.451812
Si Si6 0.765400 0.110811 0.376206
O O1 0.358504 0.641497 0.500000
O O2 0.500000 0.651429 0.557978
O O3 0.399356 0.500000 0.550292
O O4 0.328174 0.646221 0.589898
O O5 0.328599 0.171402 0.250000
O O6 0.222743 0.128451 0.176140
O O7 0.148036 0.127605 0.250512
O O8 0.279648 0.000000 0.234158
O O9 0.162631 0.653189 0.881555
O O10 0.000000 0.730319 0.883672
O O11 0.500000 0.344148 0.801501
O O12 0.592120 0.500000 0.808857
O O13 0.677957 0.349935 0.833820
O O14 0.859858 0.140143 0.500000
O O15 0.824070 0.150266 0.417216
O O16 0.000000 0.154646 0.442205
O O17 0.905411 0.000000 0.448655
O O18 0.752877 0.000000 0.374962
#
# Coordination Sequence:
#
# PCOD8310720 Si02
#       6
#    16  16  16  16  16  16
#     4   8  15  30  50  69  90 116 147 188 239 284
#     4  10  19  31  44  62  90 122 154 185 218 263
#     4  10  20  30  44  66  91 120 153 185 216 261
#     4   9  17  29  45  63  83 111 145 182 224 261
#     4   8  14  25  41  61  84 110 143 184 226 264
#     4  10  18  28  42  61  89 122 150 177 213 261
#
# _framework density 15.600315
#
# number of rings (size 3 to 8) (size 9 to 14) (size 15 to 20)
#    0.000    2.833    1.667    1.500    0.000    3.833 
#    0.000    5.000    0.000    0.000    0.000    0.000 
#    0.000    4.333    0.000    0.000    0.000    0.000 
#
# Total GULP energy -594637.063428 kJ/mol
# GULP energy per Si atom -12388.272155 kJ/mol
# Density = 1.556481 g / cm^3
# Si number density = 15.600315 Si / 1000 Ang^3
#
#
#
# Elastic Constant Matrix: (Units=GPa)
#
#
# Indices 1 2 3 4 5 6 
#
# 1 61.3979 37.7259 43.5649 0.0000 0.0000 0.0000
# 2 37.7259 61.3981 43.5645 0.0000 0.0000 0.0000
# 3 43.5649 43.5645 133.8210 0.0000 0.0000 0.0000
# 4 0.0000 0.0000 0.0000 19.2492 0.0000 0.0000
# 5 0.0000 0.0000 0.0000 0.0000 19.2494 0.0000
# 6 0.0000 0.0000 0.0000 0.0000 0.0000 13.0392
#
#
#
# Elastic Compliance Matrix: (Units=1/GPa)
#
#
# Indices 1 2 3 4 5 6 
#
# 1 0.028188 -0.014056 -0.004601 0.000000 0.000000 0.000000
# 2 -0.014056 0.028188 -0.004601 0.000000 0.000000 0.000000
# 3 -0.004601 -0.004601 0.010468 0.000000 0.000000 0.000000
# 4 0.000000 0.000000 0.000000 0.051950 0.000000 0.000000
# 5 0.000000 0.000000 0.000000 0.000000 0.051950 0.000000
# 6 0.000000 0.000000 0.000000 0.000000 0.000000 0.076692
#
#
# Mechanical properties :
#
#
# Convention : Reuss Voigt Hill
#
# Bulk Modulus (GPa) = 49.18828 56.25862 52.72345
# Shear Modulus (GPa) = 16.62638 19.09168 17.85903
#
# Velocity S-wave (km/s) = 3.26816 3.50208 3.38714
# Velocity P-wave (km/s) = 6.77052 7.24524 7.01190
#
# Compressibility (1/GPa) = 0.02033005
#
# Stress axis : x y z
#
# Youngs Moduli (GPa) = 35.47575 35.47616 95.52791
#
# Poissons Ratio (x) = 0.49864 0.43951
# Poissons Ratio (y) = 0.49864 0.43949
# Poissons Ratio (z) = 0.16322 0.16321
#
# Static dielectric constant tensor:
#      x y z
#    x 2.836670 0.000000 0.000000 
#    y 0.000000 2.836680 0.000000 
#    z 0.000000 0.000000 3.530040 
# 
# 
# High freq. dielectric constant tensor:
#      x y z
#    x 1.566410 0.000000 0.000000 
#    y 0.000000 1.566410 0.000000 
#    z 0.000000 0.000000 1.619610 
# 
# From -- ./inp_files/10349.got.cif
#   From: 2010.03.12/outbox.cif.g09.slc.cpg/sg119_6_cif.got.tgz:10349.got - 2010.04.14 02:25:26.
