data_PCOD8310561
_publ_section_title
;
Structure prediction by ZEFSAII (Michael W. Deem and Ramdas Pophale) SiO2 
 PCOD8310561
Probable space group: P -4 N 2
;
_chemical_formula_sum "Si O2"
_cell_formula_units_Z 36
_cell_length_a 9.891497
_cell_length_b 9.891497
_cell_length_c 19.232698
_cell_angle_alpha 90.000000
_cell_angle_beta 90.000000
_cell_angle_gamma 90.000000
_cell_volume 1881.760116
_symmetry_space_group_name_H-M "P -4 N 2"
_symmetry_group_IT_number 118
_symmetry_cell_setting 'tetragonal'
loop_
_space_group_symop_operation_xyz
x,y,z
y,-x,-z
-x,-y,z
-y,x,-z
1/2+y,1/2+x,1/2-z
1/2-y,1/2-x,1/2-z
1/2-x,1/2+y,1/2+z
1/2+x,1/2-y,1/2+z
loop_
_atom_site_type_symbol
_atom_site_label
_atom_site_fract_x
_atom_site_fract_y
_atom_site_fract_z
Si Si1 0.256120 0.812722 0.353605
Si Si2 0.430696 0.711283 0.003363
Si Si3 0.229922 0.270079 0.250000
Si Si4 0.661112 0.518659 0.725749
Si Si5 0.344003 0.981309 0.635542
O O1 0.288229 0.882460 0.427269
O O2 0.380824 0.715617 0.333723
O O3 0.220662 0.930011 0.298990
O O4 0.127737 0.718387 0.359153
O O5 0.584030 0.663629 0.014185
O O6 0.417510 0.816806 0.940146
O O7 0.372037 0.277492 0.289953
O O8 0.110462 0.276950 0.305714
O O9 0.500000 0.500000 0.725674
O O10 0.500000 0.000000 0.650514
#
# Coordination Sequence:
#
# PCOD8310561 Si02
#       5
#     8   8   4   8   8
#     4  10  22  40  62  88 125 160 207 256 308 368
#     4   9  19  38  62  86 117 160 205 252 312 372
#     4  12  23  37  66  92 124 162 206 252 318 362
#     4  11  22  39  62  92 125 162 201 260 308 362
#     4  11  22  38  63  94 118 163 213 256 302 374
#
# _framework density 19.131025999999999
#
# number of rings (size 3 to 8) (size 9 to 14) (size 15 to 20)
#    0.000    1.556    2.222    3.000    6.222    1.778 
#   12.000    0.000    0.000    0.000    0.000    0.000 
#    0.000    0.000    0.000    0.000    0.000    0.000 
#
# Total GULP energy -446440.590519 kJ/mol
# GULP energy per Si atom -12401.127514 kJ/mol
# Density = 1.908748 g / cm^3
# Si number density = 19.131026 Si / 1000 Ang^3
#
#
#
# Elastic Constant Matrix: (Units=GPa)
#
#
# Indices 1 2 3 4 5 6 
#
# 1 88.7428 44.3143 42.2549 0.0000 0.0000 0.0000
# 2 44.3143 88.7420 42.2545 0.0000 0.0000 0.0000
# 3 42.2549 42.2545 126.9169 0.0000 0.0000 0.0000
# 4 0.0000 0.0000 0.0000 16.2827 0.0000 0.0000
# 5 0.0000 0.0000 0.0000 0.0000 16.2806 0.0000
# 6 0.0000 0.0000 0.0000 0.0000 0.0000 30.7992
#
#
#
# Elastic Compliance Matrix: (Units=1/GPa)
#
#
# Indices 1 2 3 4 5 6 
#
# 1 0.016020 -0.006489 -0.003173 0.000000 0.000000 0.000000
# 2 -0.006489 0.016020 -0.003173 0.000000 0.000000 0.000000
# 3 -0.003173 -0.003173 0.009992 0.000000 0.000000 0.000000
# 4 0.000000 0.000000 0.000000 0.061415 0.000000 0.000000
# 5 0.000000 0.000000 0.000000 0.000000 0.061423 0.000000
# 6 0.000000 0.000000 0.000000 0.000000 0.000000 0.032468
#
#
# Mechanical properties :
#
#
# Convention : Reuss Voigt Hill
#
# Bulk Modulus (GPa) = 61.11959 62.44992 61.78476
# Shear Modulus (GPa) = 21.88556 24.37769 23.13163
#
# Velocity S-wave (km/s) = 3.38595 3.57354 3.48101
# Velocity P-wave (km/s) = 6.87775 7.05273 6.96579
#
# Compressibility (1/GPa) = 0.01636137
#
# Stress axis : x y z
#
# Youngs Moduli (GPa) = 62.42353 62.42311 100.07931
#
# Poissons Ratio (x) = 0.40504 0.31757
# Poissons Ratio (y) = 0.40504 0.31757
# Poissons Ratio (z) = 0.19808 0.19808
#
# Static dielectric constant tensor:
#      x y z
#    x 3.791920 0.000000 0.000000 
#    y 0.000000 3.791930 0.000000 
#    z 0.000000 0.000000 3.665890 
# 
# 
# High freq. dielectric constant tensor:
#      x y z
#    x 1.747250 0.000000 0.000000 
#    y 0.000000 1.747250 0.000000 
#    z 0.000000 0.000000 1.743120 
# 
# From -- ./inp_files/5471.got.cif
#   From: 2010.03.12/outbox.cif.g09.slc.cpg/sg118_3_cif.got.tgz:5471.got - 2010.04.14 02:21:17.
