data_PCOD8310998
_publ_section_title
;
Structure prediction by ZEFSAII (Michael W. Deem and Ramdas Pophale) SiO2 
 PCOD8310998
Probable space group: I -4 M 2
;
_chemical_formula_sum "Si O2"
_cell_formula_units_Z 56
_cell_length_a 18.572433
_cell_length_b 18.572433
_cell_length_c 7.316552
_cell_angle_alpha 90.000000
_cell_angle_beta 90.000000
_cell_angle_gamma 90.000000
_cell_volume 2523.736822
_symmetry_space_group_name_H-M "I -4 M 2"
_symmetry_group_IT_number 119
_symmetry_cell_setting 'tetragonal'
loop_
_space_group_symop_operation_xyz
x,y,z
y,-x,-z
-x,-y,z
-y,x,-z
y,x,-z
-y,-x,-z
-x,y,z
x,-y,z
1/2+x,1/2+y,1/2+z
1/2+y,1/2-x,1/2-z
1/2-x,1/2-y,1/2+z
1/2-y,1/2+x,1/2-z
1/2+y,1/2+x,1/2-z
1/2-y,1/2-x,1/2-z
1/2-x,1/2+y,1/2+z
1/2+x,1/2-y,1/2+z
loop_
_atom_site_type_symbol
_atom_site_label
_atom_site_fract_x
_atom_site_fract_y
_atom_site_fract_z
Si Si1 0.420804 0.829780 0.013435
Si Si2 0.172735 0.918636 0.364405
Si Si3 0.849725 0.150276 0.000000
Si Si4 0.705628 0.080875 0.912235
O O1 0.500000 0.859277 0.068206
O O2 0.360819 0.891814 0.040242
O O3 0.421331 0.811639 0.799875
O O4 0.402950 0.758589 0.133458
O O5 0.135586 0.864414 0.500000
O O6 0.138627 0.906179 0.164254
O O7 0.157138 0.000000 0.427552
O O8 0.861058 0.231053 0.070205
O O9 0.726543 0.000000 0.980432
#
# Coordination Sequence:
#
# PCOD8310998 Si02
#       4
#    16  16   8  16
#     4   9  20  39  63  93 130 169 212 266 323 381
#     4  11  24  43  66  93 128 169 214 266 324 385
#     4  12  24  38  66  95 130 164 215 266 316 378
#     4  10  21  37  62  96 130 170 217 263 319 382
#
# _framework density 22.189319000000001
#
# number of rings (size 3 to 8) (size 9 to 14) (size 15 to 20)
#    0.000    1.714    2.857    0.857    2.000    3.143 
#    0.000    2.857    0.000    3.857    0.000    4.000 
#    0.000    0.000    0.000    0.000    0.000    0.000 
#
# Total GULP energy -347114.680862 kJ/mol
# GULP energy per Si atom -12396.952888 kJ/mol
# Density = 2.213882 g / cm^3
# Si number density = 22.189319 Si / 1000 Ang^3
#
#
#
# Elastic Constant Matrix: (Units=GPa)
#
#
# Indices 1 2 3 4 5 6 
#
# 1 113.7871 84.6094 7.5409 0.0000 0.0000 0.0000
# 2 84.6094 113.7947 7.5409 0.0000 0.0000 0.0000
# 3 7.5409 7.5409 45.7945 0.0000 0.0000 0.0000
# 4 0.0000 0.0000 0.0000 23.7298 0.0000 0.0000
# 5 0.0000 0.0000 0.0000 0.0000 23.7298 0.0000
# 6 0.0000 0.0000 0.0000 0.0000 0.0000 30.4852
#
#
#
# Elastic Compliance Matrix: (Units=1/GPa)
#
#
# Indices 1 2 3 4 5 6 
#
# 1 0.019687 -0.014582 -0.000841 0.000000 0.000000 0.000000
# 2 -0.014582 0.019686 -0.000840 0.000000 0.000000 0.000000
# 3 -0.000841 -0.000840 0.022113 0.000000 0.000000 0.000000
# 4 0.000000 0.000000 0.000000 0.042141 0.000000 0.000000
# 5 0.000000 0.000000 0.000000 0.000000 0.042141 0.000000
# 6 0.000000 0.000000 0.000000 0.000000 0.000000 0.032803
#
#
# Mechanical properties :
#
#
# Convention : Reuss Voigt Hill
#
# Bulk Modulus (GPa) = 34.53050 52.52874 43.52962
# Shear Modulus (GPa) = 22.65000 27.16794 24.90897
#
# Velocity S-wave (km/s) = 3.19840 3.50290 3.35411
# Velocity P-wave (km/s) = 5.40696 6.33125 5.88727
#
# Compressibility (1/GPa) = 0.02895990
#
# Stress axis : x y z
#
# Youngs Moduli (GPa) = 50.79513 50.79858 45.22126
#
# Poissons Ratio (x) = 0.74075 0.03801
# Poissons Ratio (y) = 0.74070 0.03800
# Poissons Ratio (z) = 0.04270 0.04269
#
# Static dielectric constant tensor:
#      x y z
#    x 4.132270 0.000000 0.000000 
#    y 0.000000 4.132260 0.000000 
#    z 0.000000 0.000000 4.147970 
# 
# 
# High freq. dielectric constant tensor:
#      x y z
#    x 1.865210 0.000000 0.000000 
#    y 0.000000 1.865210 0.000000 
#    z 0.000000 0.000000 1.886890 
# 
# From -- ./inp_files/2001.got.cif
#   From: 2010.03.12/outbox.cif.g09.slc.cpg/sg119_2_cif.got.tgz:2001.got - 2010.04.14 02:25:26.
