data_PCOD8310609
_publ_section_title
;
Structure prediction by ZEFSAII (Michael W. Deem and Ramdas Pophale) SiO2 
 PCOD8310609
Probable space group: P -4 N 2
;
_chemical_formula_sum "Si O2"
_cell_formula_units_Z 40
_cell_length_a 11.322677
_cell_length_b 11.322677
_cell_length_c 15.149419
_cell_angle_alpha 90.000000
_cell_angle_beta 90.000000
_cell_angle_gamma 90.000000
_cell_volume 1942.201183
_symmetry_space_group_name_H-M "P -4 N 2"
_symmetry_group_IT_number 118
_symmetry_cell_setting 'tetragonal'
loop_
_space_group_symop_operation_xyz
x,y,z
y,-x,-z
-x,-y,z
-y,x,-z
1/2+y,1/2+x,1/2-z
1/2-y,1/2-x,1/2-z
1/2-x,1/2+y,1/2+z
1/2+x,1/2-y,1/2+z
loop_
_atom_site_type_symbol
_atom_site_label
_atom_site_fract_x
_atom_site_fract_y
_atom_site_fract_z
Si Si1 0.761145 0.378425 0.545082
Si Si2 0.912758 0.097800 0.289501
Si Si3 0.321491 0.007987 0.214478
Si Si4 0.593949 0.664136 0.976117
Si Si5 0.640009 0.513606 0.389797
O O1 0.818440 0.480909 0.607350
O O2 0.855443 0.275904 0.528106
O O3 0.717373 0.432557 0.453505
O O4 0.649636 0.323207 0.597682
O O5 0.879395 0.182620 0.371002
O O6 0.973566 0.170282 0.210027
O O7 0.806161 0.022582 0.250099
O O8 0.000000 0.000000 0.331202
O O9 0.364465 0.135536 0.250000
O O10 0.408460 0.908460 0.250000
O O11 0.660237 0.545790 0.007086
O O12 0.500000 0.500000 0.409705
#
# Coordination Sequence:
#
# PCOD8310609 Si02
#       5
#     8   8   8   8   8
#     4  12  22  41  67  94 137 174 224 286 337 409
#     4  11  21  41  66  91 131 172 226 271 331 424
#     4  11  25  40  64 102 132 169 226 287 345 396
#     4  11  25  43  63  94 134 183 229 276 350 416
#     4  11  21  39  66  99 129 175 226 274 340 413
#
# _framework density 20.595189999999999
#
# number of rings (size 3 to 8) (size 9 to 14) (size 15 to 20)
#    0.000    0.800    8.000    1.200    5.600    0.000 
#    0.000    0.000    0.000    0.000    0.000    2.800 
#    0.000    0.000    0.000    0.000    0.000    0.000 
#
# Total GULP energy -495914.462089 kJ/mol
# GULP energy per Si atom -12397.861552 kJ/mol
# Density = 2.054831 g / cm^3
# Si number density = 20.595190 Si / 1000 Ang^3
#
#
#
# Elastic Constant Matrix: (Units=GPa)
#
#
# Indices 1 2 3 4 5 6 
#
# 1 79.4409 43.4757 40.7123 0.0000 0.0000 0.0000
# 2 43.4757 79.4403 40.7127 0.0000 0.0000 0.0000
# 3 40.7123 40.7127 163.7665 0.0000 0.0000 0.0000
# 4 0.0000 0.0000 0.0000 11.5552 0.0000 0.0000
# 5 0.0000 0.0000 0.0000 0.0000 11.5562 0.0000
# 6 0.0000 0.0000 0.0000 0.0000 0.0000 32.9199
#
#
#
# Elastic Compliance Matrix: (Units=1/GPa)
#
#
# Indices 1 2 3 4 5 6 
#
# 1 0.018772 -0.009033 -0.002421 0.000000 0.000000 0.000000
# 2 -0.009033 0.018772 -0.002421 0.000000 0.000000 0.000000
# 3 -0.002421 -0.002421 0.007310 0.000000 0.000000 0.000000
# 4 0.000000 0.000000 0.000000 0.086541 0.000000 0.000000
# 5 0.000000 0.000000 0.000000 0.000000 0.086533 0.000000
# 6 0.000000 0.000000 0.000000 0.000000 0.000000 0.030377
#
#
# Mechanical properties :
#
#
# Convention : Reuss Voigt Hill
#
# Bulk Modulus (GPa) = 58.46524 63.60548 61.03536
# Shear Modulus (GPa) = 17.74573 24.38938 21.06756
#
# Velocity S-wave (km/s) = 2.93856 3.44499 3.20181
# Velocity P-wave (km/s) = 6.32163 6.83920 6.58550
#
# Compressibility (1/GPa) = 0.01710418
#
# Stress axis : x y z
#
# Youngs Moduli (GPa) = 53.27047 53.26985 136.79675
#
# Poissons Ratio (x) = 0.48117 0.33121
# Poissons Ratio (y) = 0.48117 0.33123
# Poissons Ratio (z) = 0.12898 0.12898
#
# Static dielectric constant tensor:
#      x y z
#    x 3.764910 0.000000 0.000000 
#    y 0.000000 3.764900 0.000000 
#    z 0.000000 0.000000 4.113690 
# 
# 
# High freq. dielectric constant tensor:
#      x y z
#    x 1.787540 0.000000 0.000000 
#    y 0.000000 1.787540 0.000000 
#    z 0.000000 0.000000 1.829870 
# 
# From -- ./inp_files/4078.got.cif
#   From: 2010.03.12/outbox.cif.g09.slc.cpg/sg118_3_cif.got.tgz:4078.got - 2010.04.14 02:21:17.
