data_PCOD8310853
_publ_section_title
;
Structure prediction by ZEFSAII (Michael W. Deem and Ramdas Pophale) SiO2 
 PCOD8310853
Probable space group: I -4 M 2
;
_chemical_formula_sum "Si O2"
_cell_formula_units_Z 48
_cell_length_a 7.862771
_cell_length_b 7.862771
_cell_length_c 37.352160
_cell_angle_alpha 90.000000
_cell_angle_beta 90.000000
_cell_angle_gamma 90.000000
_cell_volume 2309.228855
_symmetry_space_group_name_H-M "I -4 M 2"
_symmetry_group_IT_number 119
_symmetry_cell_setting 'tetragonal'
loop_
_space_group_symop_operation_xyz
x,y,z
y,-x,-z
-x,-y,z
-y,x,-z
y,x,-z
-y,-x,-z
-x,y,z
x,-y,z
1/2+x,1/2+y,1/2+z
1/2+y,1/2-x,1/2-z
1/2-x,1/2-y,1/2+z
1/2-y,1/2+x,1/2-z
1/2+y,1/2+x,1/2-z
1/2-y,1/2-x,1/2-z
1/2-x,1/2+y,1/2+z
1/2+x,1/2-y,1/2+z
loop_
_atom_site_type_symbol
_atom_site_label
_atom_site_fract_x
_atom_site_fract_y
_atom_site_fract_z
Si Si1 0.000000 0.300053 0.584723
Si Si2 0.190295 0.197528 0.212709
Si Si3 0.500000 0.202148 0.164768
Si Si4 0.305611 0.811685 0.963357
O O1 0.000000 0.222200 0.624687
O O2 0.171326 0.241485 0.565586
O O3 0.000000 0.500000 0.585945
O O4 0.203724 0.296277 0.250000
O O5 0.329862 0.268490 0.184759
O O6 0.000000 0.226235 0.197024
O O7 0.225905 0.000000 0.220527
O O8 0.500000 0.000000 0.163173
O O9 0.500000 0.787202 0.974615
O O10 0.272218 0.000000 0.946920
O O11 0.200806 0.799194 0.000000
#
# Coordination Sequence:
#
# PCOD8310853 Si02
#       4
#     8  16   8  16
#     4  11  23  39  61  95 129 165 211 264 329 387
#     4  10  19  34  60  89 116 158 211 257 309 373
#     4   9  20  37  59  87 127 166 204 260 320 376
#     4  11  23  40  63  90 121 164 216 264 314 379
#
# _framework density 20.786159000000001
#
# number of rings (size 3 to 8) (size 9 to 14) (size 15 to 20)
#    0.000    1.667    3.333    1.500    0.000    4.000 
#    0.000    6.667    0.000    0.000    0.000    0.000 
#    0.000    0.000    0.000    0.000    0.000    0.000 
#
# Total GULP energy -297600.570637 kJ/mol
# GULP energy per Si atom -12400.023777 kJ/mol
# Density = 2.073885 g / cm^3
# Si number density = 20.786159 Si / 1000 Ang^3
#
#
#
# Elastic Constant Matrix: (Units=GPa)
#
#
# Indices 1 2 3 4 5 6 
#
# 1 124.6216 43.6081 58.5622 0.0000 0.0000 0.0000
# 2 43.6081 124.6197 58.5609 0.0000 0.0000 0.0000
# 3 58.5622 58.5609 156.6957 0.0000 0.0000 0.0000
# 4 0.0000 0.0000 0.0000 20.1443 0.0000 0.0000
# 5 0.0000 0.0000 0.0000 0.0000 20.1442 0.0000
# 6 0.0000 0.0000 0.0000 0.0000 0.0000 21.0896
#
#
#
# Elastic Compliance Matrix: (Units=1/GPa)
#
#
# Indices 1 2 3 4 5 6 
#
# 1 0.010189 -0.002154 -0.003003 0.000000 0.000000 0.000000
# 2 -0.002154 0.010189 -0.003003 0.000000 0.000000 0.000000
# 3 -0.003003 -0.003003 0.008626 0.000000 0.000000 0.000000
# 4 0.000000 0.000000 0.000000 0.049642 0.000000 0.000000
# 5 0.000000 0.000000 0.000000 0.000000 0.049642 0.000000
# 6 0.000000 0.000000 0.000000 0.000000 0.000000 0.047417
#
#
# Mechanical properties :
#
#
# Convention : Reuss Voigt Hill
#
# Bulk Modulus (GPa) = 78.83535 80.82215 79.82875
# Shear Modulus (GPa) = 25.47716 28.62268 27.04992
#
# Velocity S-wave (km/s) = 3.50477 3.71483 3.61133
# Velocity P-wave (km/s) = 7.37476 7.57410 7.47509
#
# Compressibility (1/GPa) = 0.01268466
#
# Stress axis : x y z
#
# Youngs Moduli (GPa) = 98.14220 98.14130 115.92445
#
# Poissons Ratio (x) = 0.21144 0.34811
# Poissons Ratio (y) = 0.21144 0.34810
# Poissons Ratio (z) = 0.29471 0.29470
#
# Static dielectric constant tensor:
#      x y z
#    x 3.827790 0.000000 0.000000 
#    y 0.000000 3.827790 0.000000 
#    z 0.000000 0.000000 3.839370 
# 
# 
# High freq. dielectric constant tensor:
#      x y z
#    x 1.816670 0.000000 0.000000 
#    y 0.000000 1.816670 0.000000 
#    z 0.000000 0.000000 1.795660 
# 
# From -- ./inp_files/9860.got.cif
#   From: 2010.03.12/outbox.cif.g09.slc.cpg/sg119_5_cif.got.tgz:9860.got - 2010.04.14 02:25:26.
