data_PCOD8310506
_publ_section_title
;
Structure prediction by ZEFSAII (Michael W. Deem and Ramdas Pophale) SiO2 
 PCOD8310506
Probable space group: P -4 N 2
;
_chemical_formula_sum "Si O2"
_cell_formula_units_Z 52
_cell_length_a 16.997851
_cell_length_b 16.997851
_cell_length_c 8.789760
_cell_angle_alpha 90.000000
_cell_angle_beta 90.000000
_cell_angle_gamma 90.000000
_cell_volume 2539.598448
_symmetry_space_group_name_H-M "P -4 N 2"
_symmetry_group_IT_number 118
_symmetry_cell_setting 'tetragonal'
loop_
_space_group_symop_operation_xyz
x,y,z
y,-x,-z
-x,-y,z
-y,x,-z
1/2+y,1/2+x,1/2-z
1/2-y,1/2-x,1/2-z
1/2-x,1/2+y,1/2+z
1/2+x,1/2-y,1/2+z
loop_
_atom_site_type_symbol
_atom_site_label
_atom_site_fract_x
_atom_site_fract_y
_atom_site_fract_z
Si Si1 0.829071 0.283430 0.981721
Si Si2 0.879806 0.148970 0.163307
Si Si3 0.000000 0.500000 0.750000
Si Si4 0.424747 0.401222 0.981898
Si Si5 0.000000 0.500000 0.250000
Si Si6 0.049193 0.207644 0.079415
Si Si7 0.813749 0.838014 0.286420
Si Si8 0.521244 0.873472 0.502333
O O1 0.876717 0.233812 0.853001
O O2 0.742455 0.291035 0.906823
O O3 0.882953 0.360551 0.005960
O O4 0.829272 0.229690 0.134747
O O5 0.870858 0.122248 0.338015
O O6 0.971762 0.165222 0.140308
O O7 0.847525 0.080704 0.055698
O O8 0.921120 0.501730 0.648923
O O9 0.398785 0.483795 0.054624
O O10 0.412459 0.341955 0.119681
O O11 0.922122 0.501863 0.350111
O O12 0.114296 0.214496 0.216450
O O13 0.028611 0.293381 0.012575
#
# Coordination Sequence:
#
# PCOD8310506 Si02
#       8
#     8   8   2   8   2   8   8   8
#     4   9  21  39  67  85 123 165 220 250 322 385
#     4  10  22  38  60  93 118 170 206 263 309 395
#     4  10  20  42  68  90 128 162 216 266 320 378
#     4  11  24  37  57  91 127 157 207 258 317 379
#     4  10  24  42  68  90 132 170 220 278 328 382
#     4  10  22  40  65  90 129 166 220 254 332 385
#     4  10  20  41  62  89 125 168 201 270 315 384
#     4  10  22  42  63  97 122 169 214 269 326 386
#
# _framework density 20.475680000000001
#
# number of rings (size 3 to 8) (size 9 to 14) (size 15 to 20)
#    0.000    2.000    1.538    0.923    6.462    5.846 
#    0.000    6.154    0.000    0.000    0.000    0.000 
#    0.000    0.000    0.000    0.000    0.000    0.000 
#
# Total GULP energy -644262.317554 kJ/mol
# GULP energy per Si atom -12389.659953 kJ/mol
# Density = 2.042908 g / cm^3
# Si number density = 20.475680 Si / 1000 Ang^3
#
#
#
# Elastic Constant Matrix: (Units=GPa)
#
#
# Indices 1 2 3 4 5 6 
#
# 1 103.3195 45.1790 45.0071 0.0000 0.0000 0.0000
# 2 45.1790 103.3195 45.0071 0.0000 0.0000 0.0000
# 3 45.0071 45.0071 104.2000 0.0000 0.0000 0.0000
# 4 0.0000 0.0000 0.0000 27.9495 0.0000 0.0000
# 5 0.0000 0.0000 0.0000 0.0000 27.9495 0.0000
# 6 0.0000 0.0000 0.0000 0.0000 0.0000 22.2570
#
#
#
# Elastic Compliance Matrix: (Units=1/GPa)
#
#
# Indices 1 2 3 4 5 6 
#
# 1 0.013161 -0.004039 -0.003940 0.000000 0.000000 0.000000
# 2 -0.004039 0.013161 -0.003940 0.000000 0.000000 0.000000
# 3 -0.003940 -0.003940 0.013001 0.000000 0.000000 0.000000
# 4 0.000000 0.000000 0.000000 0.035779 0.000000 0.000000
# 5 0.000000 0.000000 0.000000 0.000000 0.035779 0.000000
# 6 0.000000 0.000000 0.000000 0.000000 0.000000 0.044930
#
#
# Mechanical properties :
#
#
# Convention : Reuss Voigt Hill
#
# Bulk Modulus (GPa) = 64.57996 64.58059 64.58028
# Shear Modulus (GPa) = 27.05478 27.34093 27.19785
#
# Velocity S-wave (km/s) = 3.63893 3.65812 3.64854
# Velocity P-wave (km/s) = 7.01884 7.03215 7.02550
#
# Compressibility (1/GPa) = 0.01548468
#
# Stress axis : x y z
#
# Youngs Moduli (GPa) = 75.98134 75.98134 76.91837
#
# Poissons Ratio (x) = 0.30686 0.30308
# Poissons Ratio (y) = 0.30686 0.30308
# Poissons Ratio (z) = 0.29939 0.29939
#
# Static dielectric constant tensor:
#      x y z
#    x 3.712870 0.000000 0.000000 
#    y 0.000000 3.712870 0.000000 
#    z 0.000000 0.000000 3.841620 
# 
# 
# High freq. dielectric constant tensor:
#      x y z
#    x 1.794360 0.000000 0.000000 
#    y 0.000000 1.794360 0.000000 
#    z 0.000000 0.000000 1.811670 
# 
# From -- ./inp_files/2199.got.cif
#   From: 2010.03.12/outbox.cif.g09.slc.cpg/sg118_2_cif.got.tgz:2199.got - 2010.04.14 02:21:17.
