data_PCOD8310155
_publ_section_title
;
Structure prediction by ZEFSAII (Michael W. Deem and Ramdas Pophale) SiO2 
 PCOD8310155
Probable space group: P -4 C 2
;
_chemical_formula_sum "Si O2"
_cell_formula_units_Z 32
_cell_length_a 13.302268
_cell_length_b 13.302268
_cell_length_c 8.501644
_cell_angle_alpha 90.000000
_cell_angle_beta 90.000000
_cell_angle_gamma 90.000000
_cell_volume 1504.368745
_symmetry_space_group_name_H-M "P -4 C 2"
_symmetry_group_IT_number 116
_symmetry_cell_setting 'tetragonal'
loop_
_space_group_symop_operation_xyz
x,y,z
y,-x,-z
-x,-y,z
-y,x,-z
y,x,1/2-z
-y,-x,1/2-z
-x,y,1/2+z
x,-y,1/2+z
loop_
_atom_site_type_symbol
_atom_site_label
_atom_site_fract_x
_atom_site_fract_y
_atom_site_fract_z
Si Si1 0.615997 0.971517 0.536356
Si Si2 0.433423 0.697857 0.833940
Si Si3 0.376502 0.236180 0.680012
Si Si4 0.134998 0.704823 0.761098
O O1 0.614978 0.884296 0.669359
O O2 0.676607 0.929843 0.389838
O O3 0.500000 0.000000 0.496556
O O4 0.684849 0.065105 0.588432
O O5 0.409820 0.590181 0.750000
O O6 0.550004 0.722987 0.816057
O O7 0.372567 0.774173 0.721780
O O8 0.400464 0.709041 0.014662
O O9 0.267224 0.267224 0.750000
O O10 0.181065 0.818936 0.750000
#
# Coordination Sequence:
#
# PCOD8310155 Si02
#       4
#     8   8   8   8
#     4  11  22  40  69  97 130 173 226 275 332 400
#     4  10  21  38  57  89 130 167 214 265 329 400
#     4  11  23  37  61  93 128 175 218 275 327 392
#     4  10  23  40  64  97 131 167 215 284 334 394
#
# _framework density 21.271381000000002
#
# number of rings (size 3 to 8) (size 9 to 14) (size 15 to 20)
#    0.000    1.500    2.500    2.250    3.500    6.500 
#    0.000    2.500    0.000    6.000    0.000    0.000 
#    0.000    0.000    0.000    0.000    0.000    0.000 
#
# Total GULP energy -396551.957137 kJ/mol
# GULP energy per Si atom -12392.248661 kJ/mol
# Density = 2.122297 g / cm^3
# Si number density = 21.271381 Si / 1000 Ang^3
#
#
#
# Elastic Constant Matrix: (Units=GPa)
#
#
# Indices 1 2 3 4 5 6 
#
# 1 96.0702 57.2051 33.7027 0.0000 0.0000 0.0000
# 2 57.2051 96.0704 33.7032 0.0000 0.0000 0.0000
# 3 33.7027 33.7032 68.4347 0.0000 0.0000 0.0000
# 4 0.0000 0.0000 0.0000 39.1017 0.0000 0.0000
# 5 0.0000 0.0000 0.0000 0.0000 39.1020 0.0000
# 6 0.0000 0.0000 0.0000 0.0000 0.0000 43.7245
#
#
#
# Elastic Compliance Matrix: (Units=1/GPa)
#
#
# Indices 1 2 3 4 5 6 
#
# 1 0.017029 -0.008701 -0.004101 0.000000 0.000000 0.000000
# 2 -0.008701 0.017029 -0.004101 0.000000 0.000000 0.000000
# 3 -0.004101 -0.004101 0.018652 0.000000 0.000000 0.000000
# 4 0.000000 0.000000 0.000000 0.025574 0.000000 0.000000
# 5 0.000000 0.000000 0.000000 0.000000 0.025574 0.000000
# 6 0.000000 0.000000 0.000000 0.000000 0.000000 0.022870
#
#
# Mechanical properties :
#
#
# Convention : Reuss Voigt Hill
#
# Bulk Modulus (GPa) = 52.90298 56.64416 54.77357
# Shear Modulus (GPa) = 29.96932 33.44991 31.70962
#
# Velocity S-wave (km/s) = 3.75761 3.96982 3.86517
# Velocity P-wave (km/s) = 6.61443 6.90650 6.76204
#
# Compressibility (1/GPa) = 0.01890253
#
# Stress axis : x y z
#
# Youngs Moduli (GPa) = 58.72371 58.72351 53.61309
#
# Poissons Ratio (x) = 0.51096 0.21988
# Poissons Ratio (y) = 0.51096 0.21989
# Poissons Ratio (z) = 0.24084 0.24085
#
# Static dielectric constant tensor:
#      x y z
#    x 4.110140 0.000000 0.000000 
#    y 0.000000 4.110140 0.000000 
#    z 0.000000 0.000000 3.723190 
# 
# 
# High freq. dielectric constant tensor:
#      x y z
#    x 1.821860 0.000000 0.000000 
#    y 0.000000 1.821860 0.000000 
#    z 0.000000 0.000000 1.841190 
# 
# From -- ./inp_files/620.got.cif
#   From: 2010.03.12/outbox.cif.g09.slc.cpg/sg116_1_cif.got.tgz:620.got - 2010.04.14 02:15:44.
