data_PCOD8310879
_publ_section_title
;
Structure prediction by ZEFSAII (Michael W. Deem and Ramdas Pophale) SiO2 
 PCOD8310879
Probable space group: I -4 M 2
;
_chemical_formula_sum "Si O2"
_cell_formula_units_Z 58
_cell_length_a 11.865291
_cell_length_b 11.865291
_cell_length_c 23.852579
_cell_angle_alpha 90.000000
_cell_angle_beta 90.000000
_cell_angle_gamma 90.000000
_cell_volume 3358.088448
_symmetry_space_group_name_H-M "I -4 M 2"
_symmetry_group_IT_number 119
_symmetry_cell_setting 'tetragonal'
loop_
_space_group_symop_operation_xyz
x,y,z
y,-x,-z
-x,-y,z
-y,x,-z
y,x,-z
-y,-x,-z
-x,y,z
x,-y,z
1/2+x,1/2+y,1/2+z
1/2+y,1/2-x,1/2-z
1/2-x,1/2-y,1/2+z
1/2-y,1/2+x,1/2-z
1/2+y,1/2+x,1/2-z
1/2-y,1/2-x,1/2-z
1/2-x,1/2+y,1/2+z
1/2+x,1/2-y,1/2+z
loop_
_atom_site_type_symbol
_atom_site_label
_atom_site_fract_x
_atom_site_fract_y
_atom_site_fract_z
Si Si1 0.130612 0.278805 0.963734
Si Si2 0.500000 0.665665 0.898399
Si Si3 0.000000 0.627017 0.465426
Si Si4 0.629636 0.129636 0.250000
Si Si5 0.000000 0.000000 0.500000
Si Si6 0.254703 0.627532 0.861752
O O1 0.200984 0.286772 0.906364
O O2 0.000000 0.261578 0.949298
O O3 0.172810 0.172810 0.000000
O O4 0.154449 0.391517 0.997860
O O5 0.500000 0.798945 0.909208
O O6 0.500000 0.609180 0.960249
O O7 0.390460 0.631174 0.863000
O O8 0.000000 0.500000 0.443668
O O9 0.500000 0.148637 0.268306
O O10 0.664230 0.211244 0.199193
O O11 0.213510 0.500000 0.874439
#
# Coordination Sequence:
#
# PCOD8310879 Si02
#       6
#    16   8   8   8   2  16
#     4  11  21  33  53  80 112 145 179 221 274 335
#     4  12  20  32  56  84 118 140 176 222 287 335
#     4  10  20  32  50  80 110 144 172 213 264 345
#     4   9  20  36  56  78 105 142 188 230 269 316
#     4  12  20  28  52 100 116 140 160 224 290 356
#     4  11  20  34  55  84 110 142 180 231 276 326
#
# _framework density 17.271729000000001
#
# number of rings (size 3 to 8) (size 9 to 14) (size 15 to 20)
#    0.000    1.241    5.517    2.483    0.000    1.379 
#    0.000    0.000    6.069    0.000    0.000    0.000 
#    0.000    0.000    0.000    0.000    0.000    0.000 
#
# Total GULP energy -359697.957682 kJ/mol
# GULP energy per Si atom -12403.377851 kJ/mol
# Density = 1.723242 g / cm^3
# Si number density = 17.271729 Si / 1000 Ang^3
#
#
#
# Elastic Constant Matrix: (Units=GPa)
#
#
# Indices 1 2 3 4 5 6 
#
# 1 94.0640 26.7489 50.5112 0.0000 0.0000 0.0000
# 2 26.7489 94.0640 50.5112 0.0000 0.0000 0.0000
# 3 50.5112 50.5112 109.6467 0.0000 0.0000 0.0000
# 4 0.0000 0.0000 0.0000 25.3225 0.0000 0.0000
# 5 0.0000 0.0000 0.0000 0.0000 25.3225 0.0000
# 6 0.0000 0.0000 0.0000 0.0000 0.0000 23.4480
#
#
#
# Elastic Compliance Matrix: (Units=1/GPa)
#
#
# Indices 1 2 3 4 5 6 
#
# 1 0.014160 -0.000696 -0.006202 0.000000 0.000000 0.000000
# 2 -0.000696 0.014160 -0.006202 0.000000 0.000000 0.000000
# 3 -0.006202 -0.006202 0.014835 0.000000 0.000000 0.000000
# 4 0.000000 0.000000 0.000000 0.039491 0.000000 0.000000
# 5 0.000000 0.000000 0.000000 0.000000 0.039491 0.000000
# 6 0.000000 0.000000 0.000000 0.000000 0.000000 0.042648
#
#
# Mechanical properties :
#
#
# Convention : Reuss Voigt Hill
#
# Bulk Modulus (GPa) = 58.98802 61.47971 60.23386
# Shear Modulus (GPa) = 25.42793 26.15218 25.79006
#
# Velocity S-wave (km/s) = 3.84113 3.89544 3.86838
# Velocity P-wave (km/s) = 7.34162 7.47700 7.40962
#
# Compressibility (1/GPa) = 0.01695259
#
# Stress axis : x y z
#
# Youngs Moduli (GPa) = 70.62388 70.62388 67.40984
#
# Poissons Ratio (x) = 0.04915 0.41809
# Poissons Ratio (y) = 0.04915 0.41809
# Poissons Ratio (z) = 0.43803 0.43803
#
# Static dielectric constant tensor:
#      x y z
#    x 3.227310 0.000000 0.000000 
#    y 0.000000 3.227310 0.000000 
#    z 0.000000 0.000000 3.011380 
# 
# 
# High freq. dielectric constant tensor:
#      x y z
#    x 1.664940 0.000000 0.000000 
#    y 0.000000 1.664940 0.000000 
#    z 0.000000 0.000000 1.643520 
# 
# From -- ./inp_files/7420.got.cif
#   From: 2010.03.12/outbox.cif.g09.slc.cpg/sg119_4_cif.got.tgz:7420.got - 2010.04.14 02:25:26.
