data_PCOD8310378
_publ_section_title
;
Structure prediction by ZEFSAII (Michael W. Deem and Ramdas Pophale) SiO2 
 PCOD8310378
Probable space group: P -4 B 2
;
_chemical_formula_sum "Si O2"
_cell_formula_units_Z 40
_cell_length_a 19.658954
_cell_length_b 19.658954
_cell_length_c 4.886090
_cell_angle_alpha 90.000000
_cell_angle_beta 90.000000
_cell_angle_gamma 90.000000
_cell_volume 1888.349055
_symmetry_space_group_name_H-M "P -4 B 2"
_symmetry_group_IT_number 117
_symmetry_cell_setting 'tetragonal'
loop_
_space_group_symop_operation_xyz
x,y,z
y,-x,-z
-x,-y,z
-y,x,-z
1/2+y,1/2+x,-z
1/2-y,1/2-x,-z
1/2-x,1/2+y,z
1/2+x,1/2-y,z
loop_
_atom_site_type_symbol
_atom_site_label
_atom_site_fract_x
_atom_site_fract_y
_atom_site_fract_z
Si Si1 0.487259 0.661300 0.160880
Si Si2 0.900958 0.872819 0.670818
Si Si3 0.193144 0.470299 0.057768
Si Si4 0.825327 0.738300 0.770628
Si Si5 0.501709 0.889823 0.447835
O O1 0.553514 0.632038 0.307890
O O2 0.425418 0.647039 0.368144
O O3 0.465449 0.626366 0.876017
O O4 0.500231 0.739670 0.085707
O O5 0.843169 0.817282 0.735383
O O6 0.199593 0.389814 0.098887
O O7 0.177100 0.500835 0.357819
O O8 0.131022 0.492700 0.866553
O O9 0.799781 0.700220 0.500000
O O10 0.766238 0.733763 0.000000
O O11 0.572915 0.927086 0.500000
O O12 0.438725 0.938725 0.500000
#
# Coordination Sequence:
#
# PCOD8310378 Si02
#       5
#     8   8   8   8   8
#     4  11  24  41  63  88 120 154 195 248 298 358
#     4  11  24  41  62  91 120 154 196 242 297 352
#     4  11  21  37  58  83 117 155 194 242 295 341
#     4  11  21  37  62  89 116 151 198 243 285 340
#     4  11  22  35  55  85 119 156 200 242 285 347
#
# _framework density 21.182524999999998
#
# number of rings (size 3 to 8) (size 9 to 14) (size 15 to 20)
#    0.000    1.000    0.000   10.200    0.000    4.000 
#    0.000    3.000    0.000    0.000    0.000    0.000 
#    0.000    0.000    0.000    0.000    0.000    0.000 
#
# Total GULP energy -495874.803622 kJ/mol
# GULP energy per Si atom -12396.870091 kJ/mol
# Density = 2.113431 g / cm^3
# Si number density = 21.182525 Si / 1000 Ang^3
#
#
#
# Elastic Constant Matrix: (Units=GPa)
#
#
# Indices 1 2 3 4 5 6 
#
# 1 78.8294 45.8612 20.4352 0.0000 0.0000 0.0000
# 2 45.8612 78.8316 20.4369 0.0000 0.0000 0.0000
# 3 20.4352 20.4369 106.6451 0.0000 0.0000 0.0000
# 4 0.0000 0.0000 0.0000 17.6979 0.0000 0.0000
# 5 0.0000 0.0000 0.0000 0.0000 17.6971 0.0000
# 6 0.0000 0.0000 0.0000 0.0000 0.0000 32.4399
#
#
#
# Elastic Compliance Matrix: (Units=1/GPa)
#
#
# Indices 1 2 3 4 5 6 
#
# 1 0.019444 -0.010887 -0.001640 0.000000 0.000000 0.000000
# 2 -0.010887 0.019444 -0.001640 0.000000 0.000000 0.000000
# 3 -0.001640 -0.001640 0.010005 0.000000 0.000000 0.000000
# 4 0.000000 0.000000 0.000000 0.056504 0.000000 0.000000
# 5 0.000000 0.000000 0.000000 0.000000 0.056506 0.000000
# 6 0.000000 0.000000 0.000000 0.000000 0.000000 0.030826
#
#
# Mechanical properties :
#
#
# Convention : Reuss Voigt Hill
#
# Bulk Modulus (GPa) = 48.63646 48.64141 48.63893
# Shear Modulus (GPa) = 21.93780 25.40517 23.67149
#
# Velocity S-wave (km/s) = 3.22165 3.46691 3.34653
# Velocity P-wave (km/s) = 6.07036 6.24811 6.15987
#
# Compressibility (1/GPa) = 0.02056071
#
# Stress axis : x y z
#
# Youngs Moduli (GPa) = 51.42853 51.42957 99.94650
#
# Poissons Ratio (x) = 0.55991 0.16387
# Poissons Ratio (y) = 0.55990 0.16391
# Poissons Ratio (z) = 0.08432 0.08434
#
# Static dielectric constant tensor:
#      x y z
#    x 3.698940 0.000000 0.000000 
#    y 0.000000 3.698940 0.000000 
#    z 0.000000 0.000000 4.119240 
# 
# 
# High freq. dielectric constant tensor:
#      x y z
#    x 1.815950 0.000000 0.000000 
#    y 0.000000 1.815950 0.000000 
#    z 0.000000 0.000000 1.857280 
# 
# From -- ./inp_files/573.got.cif
#   From: 2010.03.12/outbox.cif.g09.slc.cpg/sg117_1_cif.got.tgz:573.got - 2010.04.14 02:19:01.
