data_PCOD8310456
_publ_section_title
;
Structure prediction by ZEFSAII (Michael W. Deem and Ramdas Pophale) SiO2 
 PCOD8310456
Probable space group: P -4 N 2
;
_chemical_formula_sum "Si O2"
_cell_formula_units_Z 48
_cell_length_a 13.444256
_cell_length_b 13.444256
_cell_length_c 16.569160
_cell_angle_alpha 90.000000
_cell_angle_beta 90.000000
_cell_angle_gamma 90.000000
_cell_volume 2994.842853
_symmetry_space_group_name_H-M "P -4 N 2"
_symmetry_group_IT_number 118
_symmetry_cell_setting 'tetragonal'
loop_
_space_group_symop_operation_xyz
x,y,z
y,-x,-z
-x,-y,z
-y,x,-z
1/2+y,1/2+x,1/2-z
1/2-y,1/2-x,1/2-z
1/2-x,1/2+y,1/2+z
1/2+x,1/2-y,1/2+z
loop_
_atom_site_type_symbol
_atom_site_label
_atom_site_fract_x
_atom_site_fract_y
_atom_site_fract_z
Si Si1 0.382190 0.390579 0.743210
Si Si2 0.114611 0.303831 0.329666
Si Si3 0.614611 0.803831 0.829666
Si Si4 0.709396 0.617564 0.421041
Si Si5 0.382436 0.290603 0.578959
Si Si6 0.117810 0.109421 0.243210
O O1 0.348461 0.308988 0.809164
O O2 0.347125 0.358458 0.653965
O O3 0.338003 0.500000 0.764053
O O4 0.500000 0.394107 0.742687
O O5 0.128538 0.371463 0.250000
O O6 0.177721 0.347611 0.403717
O O7 0.151539 0.191012 0.309164
O O8 0.000000 0.306008 0.356055
O O9 0.628538 0.871463 0.750000
O O10 0.677721 0.847611 0.903717
O O11 0.671605 0.671605 0.500000
O O12 0.705300 0.500000 0.434299
O O13 0.641542 0.652875 0.346036
#
# Coordination Sequence:
#
# PCOD8310456 Si02
#       6
#     8   8   8   8   8   8
#     4   8  14  26  45  66  86 110 140 176 218 261
#     4   9  17  29  46  67  89 115 149 186 224 267
#     4   9  17  29  46  67  89 115 149 186 224 267
#     4  10  19  29  43  65  91 116 145 182 226 273
#     4  10  19  29  43  65  91 116 145 182 226 273
#     4   8  14  26  45  66  86 110 140 176 218 261
#
# _framework density 16.027552
#
# number of rings (size 3 to 8) (size 9 to 14) (size 15 to 20)
#    0.000    3.000    0.000    4.000    0.000    4.000 
#    0.000    1.667    0.000    0.000    0.000    0.000 
#    0.000   32.667    0.000    0.000    0.000    0.000 
#
# Total GULP energy -594923.979518 kJ/mol
# GULP energy per Si atom -12394.249573 kJ/mol
# Density = 1.599107 g / cm^3
# Si number density = 16.027552 Si / 1000 Ang^3
#
#
#
# Elastic Constant Matrix: (Units=GPa)
#
#
# Indices 1 2 3 4 5 6 
#
# 1 88.2785 24.7476 35.2097 0.0000 0.0000 0.0000
# 2 24.7476 88.2767 35.2101 0.0000 0.0000 0.0000
# 3 35.2097 35.2101 66.3746 0.0000 0.0000 0.0000
# 4 0.0000 0.0000 0.0000 15.6769 0.0000 0.0000
# 5 0.0000 0.0000 0.0000 0.0000 15.6772 0.0000
# 6 0.0000 0.0000 0.0000 0.0000 0.0000 18.9604
#
#
#
# Elastic Compliance Matrix: (Units=1/GPa)
#
#
# Indices 1 2 3 4 5 6 
#
# 1 0.014478 -0.001263 -0.007010 0.000000 0.000000 0.000000
# 2 -0.001263 0.014478 -0.007011 0.000000 0.000000 0.000000
# 3 -0.007010 -0.007011 0.022504 0.000000 0.000000 0.000000
# 4 0.000000 0.000000 0.000000 0.063788 0.000000 0.000000
# 5 0.000000 0.000000 0.000000 0.000000 0.063787 0.000000
# 6 0.000000 0.000000 0.000000 0.000000 0.000000 0.052741
#
#
# Mechanical properties :
#
#
# Convention : Reuss Voigt Hill
#
# Bulk Modulus (GPa) = 47.86331 48.14050 48.00191
# Shear Modulus (GPa) = 18.56617 19.91373 19.23995
#
# Velocity S-wave (km/s) = 3.40721 3.52869 3.46848
# Velocity P-wave (km/s) = 6.73845 6.83400 6.78639
#
# Compressibility (1/GPa) = 0.02089283
#
# Stress axis : x y z
#
# Youngs Moduli (GPa) = 69.07147 69.06926 44.43724
#
# Poissons Ratio (x) = 0.08721 0.31151
# Poissons Ratio (y) = 0.08721 0.31153
# Poissons Ratio (z) = 0.48421 0.48421
#
# Static dielectric constant tensor:
#      x y z
#    x 3.249240 0.000000 0.000000 
#    y 0.000000 3.249230 0.000000 
#    z 0.000000 0.000000 2.754440 
# 
# 
# High freq. dielectric constant tensor:
#      x y z
#    x 1.609210 0.000000 0.000000 
#    y 0.000000 1.609210 0.000000 
#    z 0.000000 0.000000 1.584540 
# 
# From -- ./inp_files/4192.got.cif
#   From: 2010.03.12/outbox.cif.g09.slc.cpg/sg118_3_cif.got.tgz:4192.got - 2010.04.14 02:21:17.
