data_PCOD8310780
_publ_section_title
;
Structure prediction by ZEFSAII (Michael W. Deem and Ramdas Pophale) SiO2 
 PCOD8310780
Probable space group: I -4 M 2
;
_chemical_formula_sum "Si O2"
_cell_formula_units_Z 112
_cell_length_a 15.157291
_cell_length_b 15.157291
_cell_length_c 25.042711
_cell_angle_alpha 90.000000
_cell_angle_beta 90.000000
_cell_angle_gamma 90.000000
_cell_volume 5753.399335
_symmetry_space_group_name_H-M "I -4 M 2"
_symmetry_group_IT_number 119
_symmetry_cell_setting 'tetragonal'
loop_
_space_group_symop_operation_xyz
x,y,z
y,-x,-z
-x,-y,z
-y,x,-z
y,x,-z
-y,-x,-z
-x,y,z
x,-y,z
1/2+x,1/2+y,1/2+z
1/2+y,1/2-x,1/2-z
1/2-x,1/2-y,1/2+z
1/2-y,1/2+x,1/2-z
1/2+y,1/2+x,1/2-z
1/2-y,1/2-x,1/2-z
1/2-x,1/2+y,1/2+z
1/2+x,1/2-y,1/2+z
loop_
_atom_site_type_symbol
_atom_site_label
_atom_site_fract_x
_atom_site_fract_y
_atom_site_fract_z
Si Si1 0.404311 0.855456 0.306403
Si Si2 0.283642 0.900697 0.909028
Si Si3 0.283846 0.097500 0.786995
Si Si4 0.163329 0.899717 0.237006
Si Si5 0.781346 0.263013 0.556334
Si Si6 0.901584 0.600420 0.507807
Si Si7 0.598072 0.272863 0.145414
O O1 0.500000 0.868881 0.333227
O O2 0.405113 0.905113 0.250000
O O3 0.385638 0.752650 0.295742
O O4 0.332268 0.895576 0.345663
O O5 0.312743 0.886008 0.847999
O O6 0.217380 0.820968 0.926725
O O7 0.369523 0.890666 0.946370
O O8 0.241815 0.000000 0.916206
O O9 0.328669 0.171331 0.750000
O O10 0.176713 0.098645 0.783646
O O11 0.314881 0.000000 0.768841
O O12 0.176734 0.882030 0.299872
O O13 0.126651 0.000000 0.228130
O O14 0.787696 0.212305 0.500000
O O15 0.834665 0.353891 0.549437
O O16 0.829759 0.201551 0.600611
O O17 0.903543 0.500000 0.525853
O O18 0.000000 0.641830 0.511282
O O19 0.500000 0.295670 0.124774
#
# Coordination Sequence:
#
# PCOD8310780 Si02
#       7
#    16  16  16  16  16  16  16
#     4   9  16  26  43  69 104 142 172 198 236 299
#     4   9  19  35  54  75 104 144 181 219 271 323
#     4  11  22  36  56  80 108 141 181 230 278 329
#     4   9  18  33  53  76 106 144 178 212 259 317
#     4  10  19  32  51  72  98 133 177 221 262 316
#     4   9  18  33  53  78 108 138 169 213 271 328
#     4  10  19  30  47  72 103 138 174 217 270 322
#
# _framework density 19.466753000000001
#
# number of rings (size 3 to 8) (size 9 to 14) (size 15 to 20)
#    0.000    2.429    0.000    4.714    0.000    2.571 
#    0.000    2.143    0.000    3.000    0.000    5.000 
#    0.000   78.000    0.000    0.000    0.000    0.000 
#
# Total GULP energy -693934.050430 kJ/mol
# GULP energy per Si atom -12391.679472 kJ/mol
# Density = 1.942245 g / cm^3
# Si number density = 19.466753 Si / 1000 Ang^3
#
#
#
# Elastic Constant Matrix: (Units=GPa)
#
#
# Indices 1 2 3 4 5 6 
#
# 1 94.0150 31.3830 22.2166 0.0000 0.0000 0.0000
# 2 31.3830 94.0145 22.2162 0.0000 0.0000 0.0000
# 3 22.2166 22.2162 55.0253 0.0000 0.0000 0.0000
# 4 0.0000 0.0000 0.0000 15.1636 0.0000 0.0000
# 5 0.0000 0.0000 0.0000 0.0000 15.1637 0.0000
# 6 0.0000 0.0000 0.0000 0.0000 0.0000 19.6441
#
#
#
# Elastic Compliance Matrix: (Units=1/GPa)
#
#
# Indices 1 2 3 4 5 6 
#
# 1 0.012636 -0.003330 -0.003757 0.000000 0.000000 0.000000
# 2 -0.003330 0.012636 -0.003757 0.000000 0.000000 0.000000
# 3 -0.003757 -0.003757 0.021207 0.000000 0.000000 0.000000
# 4 0.000000 0.000000 0.000000 0.065947 0.000000 0.000000
# 5 0.000000 0.000000 0.000000 0.000000 0.065947 0.000000
# 6 0.000000 0.000000 0.000000 0.000000 0.000000 0.050906
#
#
# Mechanical properties :
#
#
# Convention : Reuss Voigt Hill
#
# Bulk Modulus (GPa) = 40.33839 43.85404 42.09621
# Shear Modulus (GPa) = 19.28769 21.14356 20.21563
#
# Velocity S-wave (km/s) = 3.15112 3.29923 3.22603
# Velocity P-wave (km/s) = 5.83147 6.09014 5.96221
#
# Compressibility (1/GPa) = 0.02479028
#
# Stress axis : x y z
#
# Youngs Moduli (GPa) = 79.13812 79.13797 47.15325
#
# Poissons Ratio (x) = 0.26354 0.17717
# Poissons Ratio (y) = 0.26354 0.17717
# Poissons Ratio (z) = 0.29735 0.29734
#
# Static dielectric constant tensor:
#      x y z
#    x 3.518180 0.000000 0.000000 
#    y 0.000000 3.518180 0.000000 
#    z 0.000000 0.000000 3.635450 
# 
# 
# High freq. dielectric constant tensor:
#      x y z
#    x 1.739320 0.000000 0.000000 
#    y 0.000000 1.739320 0.000000 
#    z 0.000000 0.000000 1.760680 
# 
# From -- ./inp_files/8855.got.cif
#   From: 2010.03.12/outbox.cif.g09.slc.cpg/sg119_5_cif.got.tgz:8855.got - 2010.04.14 02:25:26.
