data_PCOD8310145
_publ_section_title
;
Structure prediction by ZEFSAII (Michael W. Deem and Ramdas Pophale) SiO2 
 PCOD8310145
Probable space group: P -4 C 2
;
_chemical_formula_sum "Si O2"
_cell_formula_units_Z 48
_cell_length_a 8.892958
_cell_length_b 8.892958
_cell_length_c 31.163642
_cell_angle_alpha 90.000000
_cell_angle_beta 90.000000
_cell_angle_gamma 90.000000
_cell_volume 2464.567340
_symmetry_space_group_name_H-M "P -4 C 2"
_symmetry_group_IT_number 116
_symmetry_cell_setting 'tetragonal'
loop_
_space_group_symop_operation_xyz
x,y,z
y,-x,-z
-x,-y,z
-y,x,-z
y,x,1/2-z
-y,-x,1/2-z
-x,y,1/2+z
x,-y,1/2+z
loop_
_atom_site_type_symbol
_atom_site_label
_atom_site_fract_x
_atom_site_fract_y
_atom_site_fract_z
Si Si1 0.000000 0.000000 0.387417
Si Si2 0.810212 0.815933 0.442406
Si Si3 0.639704 0.906528 0.974621
Si Si4 0.999715 0.748751 0.181324
Si Si5 0.504441 0.756538 0.320115
Si Si6 0.000000 0.000000 0.750000
Si Si7 0.520398 0.332242 0.914249
Si Si8 0.500000 0.500000 0.750000
O O1 0.963619 0.849841 0.415977
O O2 0.147047 0.963780 0.359447
O O3 0.839411 0.740418 0.487906
O O4 0.696170 0.710418 0.416548
O O5 0.739933 0.981888 0.446700
O O6 0.581137 0.775671 0.943544
O O7 0.500000 0.000000 0.994604
O O8 0.128664 0.628636 0.188221
O O9 0.995324 0.848546 0.223291
O O10 0.840604 0.664517 0.175605
O O11 0.469632 0.672573 0.364794
O O12 0.504704 0.645348 0.280038
O O13 0.500000 0.500000 0.932185
#
# Coordination Sequence:
#
# PCOD8310145 Si02
#       8
#     4   8   8   8   8   2   8   2
#     4  11  20  38  66  93 124 168 214 264 314 376
#     4  11  22  40  63  93 127 169 216 272 316 385
#     4  10  24  39  63  93 127 168 218 263 332 380
#     4  10  22  38  67  88 128 163 208 257 323 383
#     4  11  22  42  61  95 121 171 203 262 315 398
#     4  10  20  40  60 102 116 158 204 262 316 382
#     4  11  24  40  63  91 128 169 217 262 326 392
#     4  12  24  40  68  92 130 156 216 260 326 382
#
# _framework density 19.476036000000001
#
# number of rings (size 3 to 8) (size 9 to 14) (size 15 to 20)
#    0.000    1.333    2.500    3.000    9.333    0.000 
#    0.000    0.000    0.000    0.000    0.000    0.000 
#    0.000    0.000    0.000    0.000    0.000    0.000 
#
# Total GULP energy -595232.616787 kJ/mol
# GULP energy per Si atom -12400.679516 kJ/mol
# Density = 1.943171 g / cm^3
# Si number density = 19.476036 Si / 1000 Ang^3
#
#
#
# Elastic Constant Matrix: (Units=GPa)
#
#
# Indices 1 2 3 4 5 6 
#
# 1 125.4884 58.9646 58.6537 0.0000 0.0000 0.0000
# 2 58.9646 125.4884 58.6537 0.0000 0.0000 0.0000
# 3 58.6537 58.6537 128.4559 0.0000 0.0000 0.0000
# 4 0.0000 0.0000 0.0000 21.7097 0.0000 0.0000
# 5 0.0000 0.0000 0.0000 0.0000 21.7097 0.0000
# 6 0.0000 0.0000 0.0000 0.0000 0.0000 27.3267
#
#
#
# Elastic Compliance Matrix: (Units=1/GPa)
#
#
# Indices 1 2 3 4 5 6 
#
# 1 0.011336 -0.003696 -0.003488 0.000000 0.000000 0.000000
# 2 -0.003696 0.011336 -0.003488 0.000000 0.000000 0.000000
# 3 -0.003488 -0.003488 0.010970 0.000000 0.000000 0.000000
# 4 0.000000 0.000000 0.000000 0.046062 0.000000 0.000000
# 5 0.000000 0.000000 0.000000 0.000000 0.046062 0.000000
# 6 0.000000 0.000000 0.000000 0.000000 0.000000 0.036594
#
#
# Mechanical properties :
#
#
# Convention : Reuss Voigt Hill
#
# Bulk Modulus (GPa) = 81.32314 81.33072 81.32693
# Shear Modulus (GPa) = 26.62314 27.69327 27.15821
#
# Velocity S-wave (km/s) = 3.70127 3.77492 3.73827
# Velocity P-wave (km/s) = 7.75319 7.80065 7.77695
#
# Compressibility (1/GPa) = 0.01229662
#
# Stress axis : x y z
#
# Youngs Moduli (GPa) = 88.21364 88.21364 91.15362
#
# Poissons Ratio (x) = 0.32605 0.31799
# Poissons Ratio (y) = 0.32605 0.31799
# Poissons Ratio (z) = 0.30773 0.30773
#
# Static dielectric constant tensor:
#      x y z
#    x 3.708410 0.000000 0.000000 
#    y 0.000000 3.708410 0.000000 
#    z 0.000000 0.000000 3.550540 
# 
# 
# High freq. dielectric constant tensor:
#      x y z
#    x 1.762430 0.000000 0.000000 
#    y 0.000000 1.762430 0.000000 
#    z 0.000000 0.000000 1.768300 
# 
# From -- ./inp_files/5353.got.cif
#   From: 2010.03.12/outbox.cif.g09.slc.cpg/sg116_3_cif.got.tgz:5353.got - 2010.04.14 02:15:44.
