data_PCOD8310685
_publ_section_title
;
Structure prediction by ZEFSAII (Michael W. Deem and Ramdas Pophale) SiO2 
 PCOD8310685
Probable space group: I -4 M 2
;
_chemical_formula_sum "Si O2"
_cell_formula_units_Z 96
_cell_length_a 21.477764
_cell_length_b 21.477764
_cell_length_c 14.697849
_cell_angle_alpha 90.000000
_cell_angle_beta 90.000000
_cell_angle_gamma 90.000000
_cell_volume 6780.034649
_symmetry_space_group_name_H-M "I -4 M 2"
_symmetry_group_IT_number 119
_symmetry_cell_setting 'tetragonal'
loop_
_space_group_symop_operation_xyz
x,y,z
y,-x,-z
-x,-y,z
-y,x,-z
y,x,-z
-y,-x,-z
-x,y,z
x,-y,z
1/2+x,1/2+y,1/2+z
1/2+y,1/2-x,1/2-z
1/2-x,1/2-y,1/2+z
1/2-y,1/2+x,1/2-z
1/2+y,1/2+x,1/2-z
1/2-y,1/2-x,1/2-z
1/2-x,1/2+y,1/2+z
1/2+x,1/2-y,1/2+z
loop_
_atom_site_type_symbol
_atom_site_label
_atom_site_fract_x
_atom_site_fract_y
_atom_site_fract_z
Si Si1 0.072580 0.791607 0.250847
Si Si2 0.289990 0.193257 0.151184
Si Si3 0.175847 0.660464 0.465273
Si Si4 0.706809 0.335837 0.092307
Si Si5 0.155894 0.817324 0.093299
Si Si6 0.071761 0.652389 0.187178
O O1 0.111934 0.817318 0.336808
O O2 0.097145 0.826559 0.160088
O O3 0.085364 0.718347 0.235376
O O4 0.000000 0.806708 0.265255
O O5 0.319823 0.180178 0.250000
O O6 0.292120 0.267607 0.136389
O O7 0.219351 0.166592 0.147678
O O8 0.331092 0.156875 0.075181
O O9 0.142621 0.723224 0.431362
O O10 0.248146 0.665475 0.443499
O O11 0.146851 0.601630 0.413464
O O12 0.664922 0.335079 0.000000
O O13 0.143341 0.856660 0.000000
O O14 0.098540 0.598540 0.250000
O O15 0.000000 0.640076 0.172432
#
# Coordination Sequence:
#
# PCOD8310685 Si02
#       6
#    16  16  16  16  16  16
#     4  10  17  24  38  59  84 112 132 160 207 247
#     4   9  13  20  38  58  77 104 129 168 205 238
#     4   8  15  23  34  54  78 102 137 170 203 241
#     4   9  15  23  37  56  80 106 133 167 203 244
#     4   8  14  22  33  52  80 106 129 162 196 237
#     4  10  18  27  39  53  80 117 145 175 198 227
#
# _framework density 14.159219999999999
#
# number of rings (size 3 to 8) (size 9 to 14) (size 15 to 20)
#    0.000    3.000    3.333    2.000    0.000    0.167 
#    0.000    0.000    0.000    0.000    0.000    7.000 
#    0.000    2.000    0.000    0.000    0.000    0.000 
#
# Total GULP energy -594668.019517 kJ/mol
# GULP energy per Si atom -12388.917073 kJ/mol
# Density = 1.412699 g / cm^3
# Si number density = 14.159220 Si / 1000 Ang^3
#
#
#
# Elastic Constant Matrix: (Units=GPa)
#
#
# Indices 1 2 3 4 5 6 
#
# 1 50.6189 19.3368 42.9780 0.0000 0.0000 0.0000
# 2 19.3368 50.6185 42.9780 0.0000 0.0000 0.0000
# 3 42.9780 42.9780 140.9331 0.0000 0.0000 0.0000
# 4 0.0000 0.0000 0.0000 16.5955 0.0000 0.0000
# 5 0.0000 0.0000 0.0000 0.0000 16.5957 0.0000
# 6 0.0000 0.0000 0.0000 0.0000 0.0000 8.9529
#
#
#
# Elastic Compliance Matrix: (Units=1/GPa)
#
#
# Indices 1 2 3 4 5 6 
#
# 1 0.027414 -0.004553 -0.006971 0.000000 0.000000 0.000000
# 2 -0.004553 0.027414 -0.006972 0.000000 0.000000 0.000000
# 3 -0.006971 -0.006972 0.011348 0.000000 0.000000 0.000000
# 4 0.000000 0.000000 0.000000 0.060257 0.000000 0.000000
# 5 0.000000 0.000000 0.000000 0.000000 0.060257 0.000000
# 6 0.000000 0.000000 0.000000 0.000000 0.000000 0.111695
#
#
# Mechanical properties :
#
#
# Convention : Reuss Voigt Hill
#
# Bulk Modulus (GPa) = 34.26619 50.30622 42.28621
# Shear Modulus (GPa) = 14.48833 17.55399 16.02116
#
# Velocity S-wave (km/s) = 3.20229 3.52484 3.36743
# Velocity P-wave (km/s) = 6.15841 7.22302 6.71186
#
# Compressibility (1/GPa) = 0.02918328
#
# Stress axis : x y z
#
# Youngs Moduli (GPa) = 36.47776 36.47736 88.12490
#
# Poissons Ratio (x) = 0.16609 0.61436
# Poissons Ratio (y) = 0.16609 0.61437
# Poissons Ratio (z) = 0.25430 0.25430
#
# Static dielectric constant tensor:
#      x y z
#    x 2.421890 0.000000 0.000000 
#    y 0.000000 2.421890 0.000000 
#    z 0.000000 0.000000 3.090890 
# 
# 
# High freq. dielectric constant tensor:
#      x y z
#    x 1.492600 0.000000 0.000000 
#    y 0.000000 1.492600 0.000000 
#    z 0.000000 0.000000 1.556530 
# 
# From -- ./inp_files/5521.got.cif
#   From: 2010.03.12/outbox.cif.g09.slc.cpg/sg119_3_cif.got.tgz:5521.got - 2010.04.14 02:25:26.
