data_PCOD8310789
_publ_section_title
;
Structure prediction by ZEFSAII (Michael W. Deem and Ramdas Pophale) SiO2 
 PCOD8310789
Probable space group: I -4 M 2
;
_chemical_formula_sum "Si O2"
_cell_formula_units_Z 96
_cell_length_a 14.047604
_cell_length_b 14.047604
_cell_length_c 26.629632
_cell_angle_alpha 90.000000
_cell_angle_beta 90.000000
_cell_angle_gamma 90.000000
_cell_volume 5254.963175
_symmetry_space_group_name_H-M "I -4 M 2"
_symmetry_group_IT_number 119
_symmetry_cell_setting 'tetragonal'
loop_
_space_group_symop_operation_xyz
x,y,z
y,-x,-z
-x,-y,z
-y,x,-z
y,x,-z
-y,-x,-z
-x,y,z
x,-y,z
1/2+x,1/2+y,1/2+z
1/2+y,1/2-x,1/2-z
1/2-x,1/2-y,1/2+z
1/2-y,1/2+x,1/2-z
1/2+y,1/2+x,1/2-z
1/2-y,1/2-x,1/2-z
1/2-x,1/2+y,1/2+z
1/2+x,1/2-y,1/2+z
loop_
_atom_site_type_symbol
_atom_site_label
_atom_site_fract_x
_atom_site_fract_y
_atom_site_fract_z
Si Si1 0.200479 0.889908 0.951136
Si Si2 0.104653 0.112719 0.348618
Si Si3 0.796350 0.390819 0.896367
Si Si4 0.887406 0.106405 0.762679
Si Si5 0.611459 0.717024 0.358117
Si Si6 0.891552 0.393784 0.000417
O O1 0.168300 0.832518 0.902860
O O2 0.314182 0.872793 0.957502
O O3 0.176679 0.000000 0.942531
O O4 0.144416 0.855585 0.000000
O O5 0.186741 0.142736 0.387800
O O6 0.131534 0.152184 0.292900
O O7 0.000000 0.152319 0.365267
O O8 0.097640 0.000000 0.345683
O O9 0.811721 0.500000 0.880225
O O10 0.866397 0.329366 0.861090
O O11 0.820024 0.374456 0.954543
O O12 0.848577 0.178458 0.805016
O O13 0.000000 0.113538 0.761731
O O14 0.855092 0.000000 0.777654
O O15 0.500000 0.696650 0.364787
O O16 0.874453 0.500000 0.022794
O O17 0.000000 0.384565 0.980039
#
# Coordination Sequence:
#
# PCOD8310789 Si02
#       6
#    16  16  16  16  16  16
#     4  11  21  33  50  73 100 130 168 210 251 300
#     4   8  15  30  51  72  94 124 163 204 246 294
#     4  10  19  31  49  70  94 127 169 210 246 294
#     4   8  15  29  48  70  98 130 160 193 242 300
#     4  11  21  32  48  73 104 135 167 205 252 306
#     4   9  18  34  53  71  98 138 174 203 247 308
#
# _framework density 18.268443000000001
#
# number of rings (size 3 to 8) (size 9 to 14) (size 15 to 20)
#    0.000    2.500    1.667    2.500    0.000    3.500 
#    0.000    0.833    0.000    2.000    0.000    9.333 
#    0.000    0.000    0.000    3.667    0.000    0.333 
#
# Total GULP energy -594906.183936 kJ/mol
# GULP energy per Si atom -12393.878832 kJ/mol
# Density = 1.822686 g / cm^3
# Si number density = 18.268443 Si / 1000 Ang^3
#
#
#
# Elastic Constant Matrix: (Units=GPa)
#
#
# Indices 1 2 3 4 5 6 
#
# 1 89.3660 31.4400 38.5569 0.0000 0.0000 0.0000
# 2 31.4400 89.3651 38.5575 0.0000 0.0000 0.0000
# 3 38.5569 38.5575 65.0294 0.0000 0.0000 0.0000
# 4 0.0000 0.0000 0.0000 20.8614 0.0000 0.0000
# 5 0.0000 0.0000 0.0000 0.0000 20.8610 0.0000
# 6 0.0000 0.0000 0.0000 0.0000 0.0000 20.3268
#
#
#
# Elastic Compliance Matrix: (Units=1/GPa)
#
#
# Indices 1 2 3 4 5 6 
#
# 1 0.015291 -0.001972 -0.007897 0.000000 0.000000 0.000000
# 2 -0.001972 0.015291 -0.007897 0.000000 0.000000 0.000000
# 3 -0.007897 -0.007897 0.024742 0.000000 0.000000 0.000000
# 4 0.000000 0.000000 0.000000 0.047935 0.000000 0.000000
# 5 0.000000 0.000000 0.000000 0.000000 0.047936 0.000000
# 6 0.000000 0.000000 0.000000 0.000000 0.000000 0.049196
#
#
# Mechanical properties :
#
#
# Convention : Reuss Voigt Hill
#
# Bulk Modulus (GPa) = 50.52588 51.20769 50.86679
# Shear Modulus (GPa) = 20.61671 21.42358 21.02014
#
# Velocity S-wave (km/s) = 3.36302 3.42820 3.39577
# Velocity P-wave (km/s) = 6.54197 6.61526 6.57872
#
# Compressibility (1/GPa) = 0.01979184
#
# Stress axis : x y z
#
# Youngs Moduli (GPa) = 65.39840 65.39685 40.41702
#
# Poissons Ratio (x) = 0.12899 0.31916
# Poissons Ratio (y) = 0.12900 0.31918
# Poissons Ratio (z) = 0.51643 0.51644
#
# Static dielectric constant tensor:
#      x y z
#    x 3.518250 0.000000 0.000000 
#    y 0.000000 3.518250 0.000000 
#    z 0.000000 0.000000 3.386570 
# 
# 
# High freq. dielectric constant tensor:
#      x y z
#    x 1.699010 0.000000 0.000000 
#    y 0.000000 1.699010 0.000000 
#    z 0.000000 0.000000 1.689580 
# 
# From -- ./inp_files/7811.got.cif
#   From: 2010.03.12/outbox.cif.g09.slc.cpg/sg119_4_cif.got.tgz:7811.got - 2010.04.14 02:25:26.
