data_PCOD8310420
_publ_section_title
;
Structure prediction by ZEFSAII (Michael W. Deem and Ramdas Pophale) SiO2 
 PCOD8310420
Probable space group: P -4 B 2
;
_chemical_formula_sum "Si O2"
_cell_formula_units_Z 26
_cell_length_a 14.818555
_cell_length_b 14.818555
_cell_length_c 5.043430
_cell_angle_alpha 90.000000
_cell_angle_beta 90.000000
_cell_angle_gamma 90.000000
_cell_volume 1107.484637
_symmetry_space_group_name_H-M "P -4 B 2"
_symmetry_group_IT_number 117
_symmetry_cell_setting 'tetragonal'
loop_
_space_group_symop_operation_xyz
x,y,z
y,-x,-z
-x,-y,z
-y,x,-z
1/2+y,1/2+x,-z
1/2-y,1/2-x,-z
1/2-x,1/2+y,z
1/2+x,1/2-y,z
loop_
_atom_site_type_symbol
_atom_site_label
_atom_site_fract_x
_atom_site_fract_y
_atom_site_fract_z
Si Si1 0.120945 0.620945 0.000000
Si Si2 0.202955 0.702955 0.500000
Si Si3 0.938609 0.707359 0.042603
Si Si4 0.500000 0.500000 0.500000
Si Si5 0.680235 0.590255 0.436910
O O1 0.185690 0.638888 0.249244
O O2 0.018525 0.636383 0.100004
O O3 0.303029 0.683934 0.606066
O O4 0.932298 0.783583 0.269393
O O5 0.844733 0.655268 0.000000
O O6 0.961048 0.756086 0.768153
O O7 0.579306 0.556796 0.356857
#
# Coordination Sequence:
#
# PCOD8310420 Si02
#       5
#     4   4   8   2   8
#     4  12  25  40  72 104 132 177 240 298 346 425
#     4  12  24  48  69 101 142 194 228 286 372 442
#     4  12  24  47  70 102 140 186 238 292 365 432
#     4  12  28  46  72 114 144 182 256 306 364 426
#     4  12  26  46  71 100 145 189 233 297 365 439
#
# _framework density 23.476626
#
# number of rings (size 3 to 8) (size 9 to 14) (size 15 to 20)
#    0.000    0.000    3.077    7.846    0.000    3.692 
#    0.000    4.615    0.000    0.000    0.000    0.000 
#    0.000    0.000    0.000    0.000    0.000    0.000 
#
# Total GULP energy -322284.179004 kJ/mol
# GULP energy per Si atom -12395.545346 kJ/mol
# Density = 2.342319 g / cm^3
# Si number density = 23.476626 Si / 1000 Ang^3
#
#
#
# Elastic Constant Matrix: (Units=GPa)
#
#
# Indices 1 2 3 4 5 6 
#
# 1 107.8433 75.6883 24.2298 0.0000 0.0000 0.0000
# 2 75.6883 107.8414 24.2294 0.0000 0.0000 0.0000
# 3 24.2298 24.2294 119.7128 0.0000 0.0000 0.0000
# 4 0.0000 0.0000 0.0000 23.9606 0.0000 0.0000
# 5 0.0000 0.0000 0.0000 0.0000 23.9607 0.0000
# 6 0.0000 0.0000 0.0000 0.0000 0.0000 49.6720
#
#
#
# Elastic Compliance Matrix: (Units=1/GPa)
#
#
# Indices 1 2 3 4 5 6 
#
# 1 0.018428 -0.012672 -0.001165 0.000000 0.000000 0.000000
# 2 -0.012672 0.018428 -0.001165 0.000000 0.000000 0.000000
# 3 -0.001165 -0.001165 0.008825 0.000000 0.000000 0.000000
# 4 0.000000 0.000000 0.000000 0.041735 0.000000 0.000000
# 5 0.000000 0.000000 0.000000 0.000000 0.041735 0.000000
# 6 0.000000 0.000000 0.000000 0.000000 0.000000 0.020132
#
#
# Mechanical properties :
#
#
# Convention : Reuss Voigt Hill
#
# Bulk Modulus (GPa) = 63.78653 64.85472 64.32062
# Shear Modulus (GPa) = 27.09823 33.60198 30.35011
#
# Velocity S-wave (km/s) = 3.40113 3.78735 3.59943
# Velocity P-wave (km/s) = 6.53091 6.84183 6.68818
#
# Compressibility (1/GPa) = 0.01567729
#
# Stress axis : x y z
#
# Youngs Moduli (GPa) = 54.26487 54.26391 113.31529
#
# Poissons Ratio (x) = 0.68763 0.13202
# Poissons Ratio (y) = 0.68764 0.13202
# Poissons Ratio (z) = 0.06322 0.06322
#
# Static dielectric constant tensor:
#      x y z
#    x 4.308170 0.000000 0.000000 
#    y 0.000000 4.308170 0.000000 
#    z 0.000000 0.000000 3.992260 
# 
# 
# High freq. dielectric constant tensor:
#      x y z
#    x 1.942370 0.000000 0.000000 
#    y 0.000000 1.942370 0.000000 
#    z 0.000000 0.000000 1.918240 
# 
# From -- ./inp_files/316.got.cif
#   From: 2010.03.12/outbox.cif.g09.slc.cpg/sg117_1_cif.got.tgz:316.got - 2010.04.14 02:19:01.
