data_PCOD8310056
_publ_section_title
;
Structure prediction by ZEFSAII (Michael W. Deem and Ramdas Pophale) SiO2 
 PCOD8310056
Probable space group: P -4 M 2
;
_chemical_formula_sum "Si O2"
_cell_formula_units_Z 28
_cell_length_a 13.725692
_cell_length_b 13.725692
_cell_length_c 9.266207
_cell_angle_alpha 90.000000
_cell_angle_beta 90.000000
_cell_angle_gamma 90.000000
_cell_volume 1745.703555
_symmetry_space_group_name_H-M "P -4 M 2"
_symmetry_group_IT_number 115
_symmetry_cell_setting 'tetragonal'
loop_
_space_group_symop_operation_xyz
x,y,z
y,-x,-z
-x,-y,z
-y,x,-z
y,x,-z
-y,-x,-z
-x,y,z
x,-y,z
loop_
_atom_site_type_symbol
_atom_site_label
_atom_site_fract_x
_atom_site_fract_y
_atom_site_fract_z
Si Si1 0.747586 0.387380 0.587515
Si Si2 0.241008 0.248793 0.158034
Si Si3 0.113183 0.113183 0.000000
Si Si4 0.890261 0.388009 0.334932
O O1 0.655587 0.344414 0.500000
O O2 0.725447 0.500000 0.621148
O O3 0.767694 0.331842 0.736749
O O4 0.844419 0.373316 0.492919
O O5 0.170246 0.332576 0.214228
O O6 0.281123 0.281123 0.000000
O O7 0.176317 0.149714 0.139091
O O8 0.000000 0.133805 0.027572
O O9 0.888058 0.500000 0.288797
O O10 0.000000 0.347470 0.340857
#
# Coordination Sequence:
#
# PCOD8310056 Si02
#       4
#     8   8   4   8
#     4   9  18  33  51  73  99 130 168 209 251 299
#     4   9  19  31  49  72 100 132 164 206 249 299
#     4   9  18  32  48  68  98 133 166 200 246 301
#     4   9  17  31  50  71  97 128 163 206 254 298
#
# _framework density 16.039377999999999
#
# number of rings (size 3 to 8) (size 9 to 14) (size 15 to 20)
#    0.857    2.143    0.000    0.857    0.000    2.571 
#    0.000    0.000    0.000    0.000    0.000   18.000 
#    0.000    0.000    0.000    0.000    0.000    0.000 
#
# Total GULP energy -347009.268255 kJ/mol
# GULP energy per Si atom -12393.188152 kJ/mol
# Density = 1.600287 g / cm^3
# Si number density = 16.039378 Si / 1000 Ang^3
#
#
#
# Elastic Constant Matrix: (Units=GPa)
#
#
# Indices 1 2 3 4 5 6 
#
# 1 109.4318 48.5542 60.4197 0.0000 0.0000 0.0000
# 2 48.5542 109.4317 60.4203 0.0000 0.0000 0.0000
# 3 60.4197 60.4203 124.2100 0.0000 0.0000 0.0000
# 4 0.0000 0.0000 0.0000 22.0407 0.0000 0.0000
# 5 0.0000 0.0000 0.0000 0.0000 22.0409 0.0000
# 6 0.0000 0.0000 0.0000 0.0000 0.0000 23.3141
#
#
#
# Elastic Compliance Matrix: (Units=1/GPa)
#
#
# Indices 1 2 3 4 5 6 
#
# 1 0.013253 -0.003173 -0.004903 0.000000 0.000000 0.000000
# 2 -0.003173 0.013253 -0.004903 0.000000 0.000000 0.000000
# 3 -0.004903 -0.004903 0.012821 0.000000 0.000000 0.000000
# 4 0.000000 0.000000 0.000000 0.045371 0.000000 0.000000
# 5 0.000000 0.000000 0.000000 0.000000 0.045370 0.000000
# 6 0.000000 0.000000 0.000000 0.000000 0.000000 0.042892
#
#
# Mechanical properties :
#
#
# Convention : Reuss Voigt Hill
#
# Bulk Modulus (GPa) = 74.80471 75.76241 75.28356
# Shear Modulus (GPa) = 24.58495 25.05777 24.82136
#
# Velocity S-wave (km/s) = 3.91933 3.95684 3.93813
# Velocity P-wave (km/s) = 8.19884 8.25913 8.22904
#
# Compressibility (1/GPa) = 0.01336814
#
# Stress axis : x y z
#
# Youngs Moduli (GPa) = 75.45340 75.45282 77.99609
#
# Poissons Ratio (x) = 0.23942 0.38243
# Poissons Ratio (y) = 0.23942 0.38244
# Poissons Ratio (z) = 0.36997 0.36997
#
# Static dielectric constant tensor:
#      x y z
#    x 3.048470 0.000000 0.000000 
#    y 0.000000 3.048470 0.000000 
#    z 0.000000 0.000000 2.927600 
# 
# 
# High freq. dielectric constant tensor:
#      x y z
#    x 1.616790 0.000000 0.000000 
#    y 0.000000 1.616790 0.000000 
#    z 0.000000 0.000000 1.607610 
# 
# From -- ./inp_files/1196.got.cif
#   From: 2010.03.12/outbox.cif.g09.slc.cpg/sg115_1_cif.got.tgz:1196.got - 2010.04.14 02:11:21.
