data_PCOD8310990
_publ_section_title
;
Structure prediction by ZEFSAII (Michael W. Deem and Ramdas Pophale) SiO2 
 PCOD8310990
Probable space group: I -4 M 2
;
_chemical_formula_sum "Si O2"
_cell_formula_units_Z 88
_cell_length_a 13.666126
_cell_length_b 13.666126
_cell_length_c 22.082667
_cell_angle_alpha 90.000000
_cell_angle_beta 90.000000
_cell_angle_gamma 90.000000
_cell_volume 4124.225134
_symmetry_space_group_name_H-M "I -4 M 2"
_symmetry_group_IT_number 119
_symmetry_cell_setting 'tetragonal'
loop_
_space_group_symop_operation_xyz
x,y,z
y,-x,-z
-x,-y,z
-y,x,-z
y,x,-z
-y,-x,-z
-x,y,z
x,-y,z
1/2+x,1/2+y,1/2+z
1/2+y,1/2-x,1/2-z
1/2-x,1/2-y,1/2+z
1/2-y,1/2+x,1/2-z
1/2+y,1/2+x,1/2-z
1/2-y,1/2-x,1/2-z
1/2-x,1/2+y,1/2+z
1/2+x,1/2-y,1/2+z
loop_
_atom_site_type_symbol
_atom_site_label
_atom_site_fract_x
_atom_site_fract_y
_atom_site_fract_z
Si Si1 0.759255 0.113813 0.176919
Si Si2 0.290043 0.790043 0.750000
Si Si3 0.885145 0.276116 0.607190
Si Si4 0.608339 0.383945 0.565883
Si Si5 0.384837 0.768726 0.873437
Si Si6 0.384708 0.891324 0.987549
O O1 0.803432 0.175032 0.232685
O O2 0.648935 0.148762 0.160644
O O3 0.820195 0.150160 0.118637
O O4 0.765861 0.000000 0.192360
O O5 0.360569 0.812683 0.806753
O O6 0.833098 0.171386 0.615660
O O7 0.854428 0.322326 0.542971
O O8 0.000000 0.259314 0.613256
O O9 0.650502 0.349499 0.500000
O O10 0.500000 0.340545 0.577986
O O11 0.601668 0.500000 0.564438
O O12 0.500000 0.748095 0.879204
O O13 0.347925 0.846236 0.923934
O O14 0.500000 0.901759 0.985496
O O15 0.338064 0.000000 0.996236
#
# Coordination Sequence:
#
# PCOD8310990 Si02
#       6
#    16   8  16  16  16  16
#     4  10  21  37  56  79 109 148 193 242 297 355
#     4  10  24  38  52  80 116 152 202 252 282 330
#     4  10  21  38  60  88 119 148 189 247 307 367
#     4   8  15  30  54  85 116 140 167 214 283 361
#     4  10  22  40  60  85 119 159 203 245 288 348
#     4   9  18  35  61  90 116 143 180 233 298 361
#
# _framework density 21.337342
#
# number of rings (size 3 to 8) (size 9 to 14) (size 15 to 20)
#    0.000    2.545    0.000    1.636    0.000    8.727 
#    0.000    6.364    0.000    3.273    0.000    0.000 
#    0.000    1.455    0.000    0.000    0.000    0.000 
#
# Total GULP energy -545438.736610 kJ/mol
# GULP energy per Si atom -12396.334923 kJ/mol
# Density = 2.128878 g / cm^3
# Si number density = 21.337342 Si / 1000 Ang^3
#
#
#
# Elastic Constant Matrix: (Units=GPa)
#
#
# Indices 1 2 3 4 5 6 
#
# 1 61.8148 14.9321 5.5853 0.0000 0.0000 0.0000
# 2 14.9321 61.8151 5.5850 0.0000 0.0000 0.0000
# 3 5.5853 5.5850 78.3106 0.0000 0.0000 0.0000
# 4 0.0000 0.0000 0.0000 29.1118 0.0000 0.0000
# 5 0.0000 0.0000 0.0000 0.0000 29.1117 0.0000
# 6 0.0000 0.0000 0.0000 0.0000 0.0000 17.4293
#
#
#
# Elastic Compliance Matrix: (Units=1/GPa)
#
#
# Indices 1 2 3 4 5 6 
#
# 1 0.017248 -0.004082 -0.000939 0.000000 0.000000 0.000000
# 2 -0.004082 0.017248 -0.000939 0.000000 0.000000 0.000000
# 3 -0.000939 -0.000939 0.012904 0.000000 0.000000 0.000000
# 4 0.000000 0.000000 0.000000 0.034350 0.000000 0.000000
# 5 0.000000 0.000000 0.000000 0.000000 0.034350 0.000000
# 6 0.000000 0.000000 0.000000 0.000000 0.000000 0.057375
#
#
# Mechanical properties :
#
#
# Convention : Reuss Voigt Hill
#
# Bulk Modulus (GPa) = 28.18457 28.23839 28.21148
# Shear Modulus (GPa) = 25.35220 26.85310 26.10265
#
# Velocity S-wave (km/s) = 3.45071 3.55139 3.50141
# Velocity P-wave (km/s) = 5.39576 5.48447 5.44030
#
# Compressibility (1/GPa) = 0.03548040
#
# Stress axis : x y z
#
# Youngs Moduli (GPa) = 57.97711 57.97745 77.49771
#
# Poissons Ratio (x) = 0.23664 0.07278
# Poissons Ratio (y) = 0.23664 0.07277
# Poissons Ratio (z) = 0.05445 0.05444
#
# Static dielectric constant tensor:
#      x y z
#    x 3.904550 0.000000 0.000000 
#    y 0.000000 3.904540 0.000000 
#    z 0.000000 0.000000 4.137650 
# 
# 
# High freq. dielectric constant tensor:
#      x y z
#    x 1.833410 0.000000 0.000000 
#    y 0.000000 1.833410 0.000000 
#    z 0.000000 0.000000 1.842320 
# 
# From -- ./inp_files/7706.got.cif
#   From: 2010.03.12/outbox.cif.g09.slc.cpg/sg119_4_cif.got.tgz:7706.got - 2010.04.14 02:25:26.
