data_PCOD8310522
_publ_section_title
;
Structure prediction by ZEFSAII (Michael W. Deem and Ramdas Pophale) SiO2 
 PCOD8310522
Probable space group: P -4 N 2
;
_chemical_formula_sum "Si O2"
_cell_formula_units_Z 34
_cell_length_a 12.979013
_cell_length_b 12.979013
_cell_length_c 10.282013
_cell_angle_alpha 90.000000
_cell_angle_beta 90.000000
_cell_angle_gamma 90.000000
_cell_volume 1732.054222
_symmetry_space_group_name_H-M "P -4 N 2"
_symmetry_group_IT_number 118
_symmetry_cell_setting 'tetragonal'
loop_
_space_group_symop_operation_xyz
x,y,z
y,-x,-z
-x,-y,z
-y,x,-z
1/2+y,1/2+x,1/2-z
1/2-y,1/2-x,1/2-z
1/2-x,1/2+y,1/2+z
1/2+x,1/2-y,1/2+z
loop_
_atom_site_type_symbol
_atom_site_label
_atom_site_fract_x
_atom_site_fract_y
_atom_site_fract_z
Si Si1 0.821680 0.929520 0.658361
Si Si2 0.042954 0.384547 0.375969
Si Si3 0.678868 0.196563 0.100270
Si Si4 0.896606 0.892402 0.941654
Si Si5 0.500000 0.500000 0.000000
O O1 0.834394 0.818156 0.594320
O O2 0.864552 0.936945 0.803220
O O3 0.700763 0.955744 0.651166
O O4 0.894406 0.008583 0.581359
O O5 0.119061 0.380940 0.250000
O O6 0.094785 0.359134 0.512600
O O7 0.000000 0.500000 0.387436
O O8 0.662135 0.162135 0.250000
O O9 0.788473 0.167198 0.037072
O O10 0.019925 0.869010 0.950598
#
# Coordination Sequence:
#
# PCOD8310522 Si02
#       5
#     8   8   8   8   2
#     4  11  23  40  63  95 128 170 210 274 328 384
#     4  11  25  41  67  94 131 178 219 267 328 402
#     4  10  23  41  64  91 131 169 216 269 328 392
#     4  10  21  38  64  92 125 162 212 262 322 387
#     4  12  20  40  66  84 132 156 216 258 332 380
#
# _framework density 19.629873
#
# number of rings (size 3 to 8) (size 9 to 14) (size 15 to 20)
#    0.000    1.412    2.353    2.824   13.176    0.471 
#    0.000    0.000    0.000    0.000    0.000    0.000 
#    0.000    0.000    0.000    0.000    0.000    0.000 
#
# Total GULP energy -421396.090777 kJ/mol
# GULP energy per Si atom -12394.002670 kJ/mol
# Density = 1.958519 g / cm^3
# Si number density = 19.629873 Si / 1000 Ang^3
#
#
#
# Elastic Constant Matrix: (Units=GPa)
#
#
# Indices 1 2 3 4 5 6 
#
# 1 113.4285 42.1370 66.3520 0.0000 0.0000 0.0000
# 2 42.1370 113.4292 66.3520 0.0000 0.0000 0.0000
# 3 66.3520 66.3520 110.9224 0.0000 0.0000 0.0000
# 4 0.0000 0.0000 0.0000 31.7767 0.0000 0.0000
# 5 0.0000 0.0000 0.0000 0.0000 31.7766 0.0000
# 6 0.0000 0.0000 0.0000 0.0000 0.0000 37.2599
#
#
#
# Elastic Compliance Matrix: (Units=1/GPa)
#
#
# Indices 1 2 3 4 5 6 
#
# 1 0.013577 -0.000450 -0.007852 0.000000 0.000000 0.000000
# 2 -0.000450 0.013576 -0.007852 0.000000 0.000000 0.000000
# 3 -0.007852 -0.007852 0.018409 0.000000 0.000000 0.000000
# 4 0.000000 0.000000 0.000000 0.031470 0.000000 0.000000
# 5 0.000000 0.000000 0.000000 0.000000 0.031470 0.000000
# 6 0.000000 0.000000 0.000000 0.000000 0.000000 0.026839
#
#
# Mechanical properties :
#
#
# Convention : Reuss Voigt Hill
#
# Bulk Modulus (GPa) = 75.44968 76.38469 75.91718
# Shear Modulus (GPa) = 29.05870 31.02525 30.04198
#
# Velocity S-wave (km/s) = 3.85168 3.97988 3.91630
# Velocity P-wave (km/s) = 7.63546 7.75346 7.69469
#
# Compressibility (1/GPa) = 0.01325387
#
# Stress axis : x y z
#
# Youngs Moduli (GPa) = 73.65668 73.65735 54.32147
#
# Poissons Ratio (x) = 0.03318 0.42652
# Poissons Ratio (y) = 0.03318 0.42652
# Poissons Ratio (z) = 0.57834 0.57834
#
# Static dielectric constant tensor:
#      x y z
#    x 3.601420 0.000000 0.000000 
#    y 0.000000 3.601410 0.000000 
#    z 0.000000 0.000000 3.700250 
# 
# 
# High freq. dielectric constant tensor:
#      x y z
#    x 1.766840 0.000000 0.000000 
#    y 0.000000 1.766840 0.000000 
#    z 0.000000 0.000000 1.769310 
# 
# From -- ./inp_files/2918.got.cif
#   From: 2010.03.12/outbox.cif.g09.slc.cpg/sg118_2_cif.got.tgz:2918.got - 2010.04.14 02:21:17.
