data_PCOD8310322
_publ_section_title
;
Structure prediction by ZEFSAII (Michael W. Deem and Ramdas Pophale) SiO2 
 PCOD8310322
Probable space group: P -4 B 2
;
_chemical_formula_sum "Si O2"
_cell_formula_units_Z 58
_cell_length_a 17.781110
_cell_length_b 17.781110
_cell_length_c 9.101118
_cell_angle_alpha 90.000000
_cell_angle_beta 90.000000
_cell_angle_gamma 90.000000
_cell_volume 2877.481118
_symmetry_space_group_name_H-M "P -4 B 2"
_symmetry_group_IT_number 117
_symmetry_cell_setting 'tetragonal'
loop_
_space_group_symop_operation_xyz
x,y,z
y,-x,-z
-x,-y,z
-y,x,-z
1/2+y,1/2+x,-z
1/2-y,1/2-x,-z
1/2-x,1/2+y,z
1/2+x,1/2-y,z
loop_
_atom_site_type_symbol
_atom_site_label
_atom_site_fract_x
_atom_site_fract_y
_atom_site_fract_z
Si Si1 0.709079 0.036433 0.814470
Si Si2 0.446051 0.769264 0.861493
Si Si3 0.500000 0.500000 0.000000
Si Si4 0.953318 0.567673 0.829041
Si Si5 0.647282 0.433482 0.148297
Si Si6 0.689652 0.272202 0.681366
Si Si7 0.372462 0.239370 0.084865
Si Si8 0.696330 0.638643 0.625167
O O1 0.628895 0.065122 0.756848
O O2 0.766698 0.061221 0.686437
O O3 0.702584 0.948851 0.856177
O O4 0.734763 0.075620 0.966180
O O5 0.488024 0.847889 0.813832
O O6 0.494579 0.697948 0.812016
O O7 0.366330 0.771469 0.786034
O O8 0.459473 0.436448 0.899954
O O9 0.000000 0.500000 0.752551
O O10 0.948134 0.551867 0.000000
O O11 0.644678 0.384213 0.296111
O O12 0.688511 0.387312 0.018900
O O13 0.732033 0.337460 0.765691
O O14 0.639721 0.310851 0.551376
O O15 0.752540 0.211712 0.644492
O O16 0.322591 0.177410 0.000000
#
# Coordination Sequence:
#
# PCOD8310322 Si02
#       8
#     8   8   2   8   8   8   8   8
#     4  10  21  35  60  90 122 159 207 264 316 387
#     4  10  21  37  62  92 121 165 205 262 323 376
#     4  12  24  44  64  98 132 172 228 290 352 376
#     4   9  18  30  54  87 123 151 192 245 315 380
#     4  11  23  40  65  91 128 166 220 278 327 397
#     4  11  23  39  62  88 127 169 210 265 323 394
#     4  11  22  37  64  96 127 162 220 277 338 386
#     4  11  23  40  60  90 124 172 217 259 323 394
#
# _framework density 20.156517000000001
#
# number of rings (size 3 to 8) (size 9 to 14) (size 15 to 20)
#    0.000    1.517    2.759    3.310    5.793    1.103 
#    0.000    0.000    0.000    2.483    0.000    0.000 
#    0.000    0.000    0.000    0.000    0.000    0.000 
#
# Total GULP energy -718672.030230 kJ/mol
# GULP energy per Si atom -12390.897073 kJ/mol
# Density = 2.011064 g / cm^3
# Si number density = 20.156517 Si / 1000 Ang^3
#
#
#
# Elastic Constant Matrix: (Units=GPa)
#
#
# Indices 1 2 3 4 5 6 
#
# 1 91.7747 39.9643 38.9592 0.0000 0.0000 0.0000
# 2 39.9643 91.7751 38.9589 0.0000 0.0000 0.0000
# 3 38.9592 38.9589 88.2057 0.0000 0.0000 0.0000
# 4 0.0000 0.0000 0.0000 18.1411 0.0000 0.0000
# 5 0.0000 0.0000 0.0000 0.0000 18.1420 0.0000
# 6 0.0000 0.0000 0.0000 0.0000 0.0000 34.1286
#
#
#
# Elastic Compliance Matrix: (Units=1/GPa)
#
#
# Indices 1 2 3 4 5 6 
#
# 1 0.014788 -0.004513 -0.004538 0.000000 0.000000 0.000000
# 2 -0.004513 0.014788 -0.004538 0.000000 0.000000 0.000000
# 3 -0.004538 -0.004538 0.015346 0.000000 0.000000 0.000000
# 4 0.000000 0.000000 0.000000 0.055124 0.000000 0.000000
# 5 0.000000 0.000000 0.000000 0.000000 0.055121 0.000000
# 6 0.000000 0.000000 0.000000 0.000000 0.000000 0.029301
#
#
# Mechanical properties :
#
#
# Convention : Reuss Voigt Hill
#
# Bulk Modulus (GPa) = 56.36060 56.39113 56.37587
# Shear Modulus (GPa) = 22.98208 24.34055 23.66132
#
# Velocity S-wave (km/s) = 3.38032 3.47879 3.42991
# Velocity P-wave (km/s) = 6.57705 6.64630 6.61177
#
# Compressibility (1/GPa) = 0.01774289
#
# Stress axis : x y z
#
# Youngs Moduli (GPa) = 67.62208 67.62262 65.16309
#
# Poissons Ratio (x) = 0.30518 0.29573
# Poissons Ratio (y) = 0.30518 0.29572
# Poissons Ratio (z) = 0.30689 0.30689
#
# Static dielectric constant tensor:
#      x y z
#    x 3.938420 0.000000 0.000000 
#    y 0.000000 3.938490 0.000000 
#    z 0.000000 0.000000 3.708360 
# 
# 
# High freq. dielectric constant tensor:
#      x y z
#    x 1.793780 0.000000 0.000000 
#    y 0.000000 1.793780 0.000000 
#    z 0.000000 0.000000 1.756290 
# 
# From -- ./inp_files/2084.got.cif
#   From: 2010.03.12/outbox.cif.g09.slc.cpg/sg117_2_cif.got.tgz:2084.got - 2010.04.14 02:19:01.
