data_PCOD8310869
_publ_section_title
;
Structure prediction by ZEFSAII (Michael W. Deem and Ramdas Pophale) SiO2 
 PCOD8310869
Probable space group: I -4 M 2
;
_chemical_formula_sum "Si O2"
_cell_formula_units_Z 112
_cell_length_a 14.591814
_cell_length_b 14.591814
_cell_length_c 26.699630
_cell_angle_alpha 90.000000
_cell_angle_beta 90.000000
_cell_angle_gamma 90.000000
_cell_volume 5684.912875
_symmetry_space_group_name_H-M "I -4 M 2"
_symmetry_group_IT_number 119
_symmetry_cell_setting 'tetragonal'
loop_
_space_group_symop_operation_xyz
x,y,z
y,-x,-z
-x,-y,z
-y,x,-z
y,x,-z
-y,-x,-z
-x,y,z
x,-y,z
1/2+x,1/2+y,1/2+z
1/2+y,1/2-x,1/2-z
1/2-x,1/2-y,1/2+z
1/2-y,1/2+x,1/2-z
1/2+y,1/2+x,1/2-z
1/2-y,1/2-x,1/2-z
1/2-x,1/2+y,1/2+z
1/2+x,1/2-y,1/2+z
loop_
_atom_site_type_symbol
_atom_site_label
_atom_site_fract_x
_atom_site_fract_y
_atom_site_fract_z
Si Si1 0.893756 0.395246 0.352616
Si Si2 0.249609 0.896179 0.053004
Si Si3 0.395115 0.403067 0.108935
Si Si4 0.895488 0.253060 0.061246
Si Si5 0.235573 0.605285 0.776202
Si Si6 0.708198 0.101655 0.394141
Si Si7 0.222671 0.899589 0.707357
O O1 0.873278 0.500000 0.335779
O O2 0.835829 0.367766 0.401944
O O3 0.868242 0.327537 0.306327
O O4 0.000000 0.382788 0.367399
O O5 0.164643 0.836241 0.071900
O O6 0.335251 0.873297 0.087653
O O7 0.219244 0.000000 0.061526
O O8 0.282419 0.878571 0.996149
O O9 0.500000 0.393027 0.128735
O O10 0.385476 0.500000 0.077673
O O11 0.372898 0.307632 0.079638
O O12 0.328882 0.411974 0.155387
O O13 0.000000 0.223972 0.070237
O O14 0.250463 0.500000 0.759100
O O15 0.144702 0.644702 0.750000
O O16 0.221878 0.613030 0.835195
O O17 0.323387 0.668499 0.759899
O O18 0.677506 0.000000 0.408572
O O19 0.223563 0.000000 0.734580
#
# Coordination Sequence:
#
# PCOD8310869 Si02
#       7
#    16  16  16  16  16  16  16
#     4   9  17  30  51  79 107 132 159 195 244 306
#     4  10  20  32  47  68  96 131 170 212 253 291
#     4   8  13  23  43  70  94 117 151 194 235 277
#     4   9  18  32  49  70  97 129 166 207 248 293
#     4  10  21  36  53  73  98 130 170 213 254 296
#     4   9  18  32  50  73  99 128 164 204 247 297
#     4   9  16  29  52  77  99 126 159 196 242 295
#
# _framework density 19.701269
#
# number of rings (size 3 to 8) (size 9 to 14) (size 15 to 20)
#    0.000    2.857    0.000    3.000    0.000    2.714 
#    0.000    5.000    0.000    1.714    0.000    2.000 
#    0.000    6.857    0.000    0.000    0.000    0.000 
#
# Total GULP energy -693780.720901 kJ/mol
# GULP energy per Si atom -12388.941445 kJ/mol
# Density = 1.965643 g / cm^3
# Si number density = 19.701269 Si / 1000 Ang^3
#
#
#
# Elastic Constant Matrix: (Units=GPa)
#
#
# Indices 1 2 3 4 5 6 
#
# 1 109.7640 56.4727 26.6039 0.0000 0.0000 0.0000
# 2 56.4727 109.7640 26.6039 0.0000 0.0000 0.0000
# 3 26.6039 26.6039 21.1464 0.0000 0.0000 0.0000
# 4 0.0000 0.0000 0.0000 24.0526 0.0000 0.0000
# 5 0.0000 0.0000 0.0000 0.0000 24.0526 0.0000
# 6 0.0000 0.0000 0.0000 0.0000 0.0000 32.4420
#
#
#
# Elastic Compliance Matrix: (Units=1/GPa)
#
#
# Indices 1 2 3 4 5 6 
#
# 1 0.014418 -0.004347 -0.012670 0.000000 0.000000 0.000000
# 2 -0.004347 0.014418 -0.012670 0.000000 0.000000 0.000000
# 3 -0.012670 -0.012670 0.079169 0.000000 0.000000 0.000000
# 4 0.000000 0.000000 0.000000 0.041576 0.000000 0.000000
# 5 0.000000 0.000000 0.000000 0.000000 0.041576 0.000000
# 6 0.000000 0.000000 0.000000 0.000000 0.000000 0.030824
#
#
# Mechanical properties :
#
#
# Convention : Reuss Voigt Hill
#
# Bulk Modulus (GPa) = 20.56302 51.11505 35.83904
# Shear Modulus (GPa) = 16.80310 24.84238 20.82274
#
# Velocity S-wave (km/s) = 2.92360 3.55484 3.25456
# Velocity P-wave (km/s) = 4.67511 6.54604 5.68803
#
# Compressibility (1/GPa) = 0.04863100
#
# Stress axis : x y z
#
# Youngs Moduli (GPa) = 69.35868 69.35868 12.63118
#
# Poissons Ratio (x) = 0.30150 0.16004
# Poissons Ratio (y) = 0.30150 0.16004
# Poissons Ratio (z) = 0.87877 0.87877
#
# Static dielectric constant tensor:
#      x y z
#    x 3.961310 0.000000 0.000000 
#    y 0.000000 3.961310 0.000000 
#    z 0.000000 0.000000 3.060370 
# 
# 
# High freq. dielectric constant tensor:
#      x y z
#    x 1.782150 0.000000 0.000000 
#    y 0.000000 1.782150 0.000000 
#    z 0.000000 0.000000 1.708640 
# 
# From -- ./inp_files/9593.got.cif
#   From: 2010.03.12/outbox.cif.g09.slc.cpg/sg119_5_cif.got.tgz:9593.got - 2010.04.14 02:25:26.
