data_PCOD8310514
_publ_section_title
;
Structure prediction by ZEFSAII (Michael W. Deem and Ramdas Pophale) SiO2 
 PCOD8310514
Probable space group: P -4 N 2
;
_chemical_formula_sum "Si O2"
_cell_formula_units_Z 64
_cell_length_a 17.058203
_cell_length_b 17.058203
_cell_length_c 12.067283
_cell_angle_alpha 90.000000
_cell_angle_beta 90.000000
_cell_angle_gamma 90.000000
_cell_volume 3511.365636
_symmetry_space_group_name_H-M "P -4 N 2"
_symmetry_group_IT_number 118
_symmetry_cell_setting 'tetragonal'
loop_
_space_group_symop_operation_xyz
x,y,z
y,-x,-z
-x,-y,z
-y,x,-z
1/2+y,1/2+x,1/2-z
1/2-y,1/2-x,1/2-z
1/2-x,1/2+y,1/2+z
1/2+x,1/2-y,1/2+z
loop_
_atom_site_type_symbol
_atom_site_label
_atom_site_fract_x
_atom_site_fract_y
_atom_site_fract_z
Si Si1 0.807150 0.175832 0.014993
Si Si2 0.410526 0.221214 0.375254
Si Si3 0.589474 0.778786 0.124746
Si Si4 0.028859 0.660348 0.250000
Si Si5 0.807150 0.175832 0.485007
Si Si6 0.212492 0.156189 0.750000
Si Si7 0.944794 0.681397 0.023306
Si Si8 0.318603 0.944794 0.523305
O O1 0.747779 0.247780 0.017165
O O2 0.838237 0.159122 0.139867
O O3 0.879912 0.200262 0.936764
O O4 0.765786 0.098114 0.967884
O O5 0.433012 0.244026 0.250000
O O6 0.344599 0.155401 0.377440
O O7 0.485660 0.185794 0.435769
O O8 0.620088 0.700262 0.063236
O O9 0.514340 0.814206 0.064232
O O10 0.087360 0.587360 0.250000
O O11 0.073862 0.742528 0.250000
O O12 0.974544 0.655469 0.142960
O O13 0.974544 0.655469 0.357041
O O14 0.838237 0.159122 0.360133
O O15 0.765786 0.098114 0.532116
O O16 0.274420 0.225581 0.750000
O O17 0.883638 0.616362 0.979221
#
# Coordination Sequence:
#
# PCOD8310514 Si02
#       8
#     8   8   8   8   8   8   8   8
#     4   9  19  35  55  78 106 142 189 234 270 321
#     4  10  21  37  55  77 112 151 182 223 279 334
#     4  10  21  37  55  77 112 151 182 223 279 334
#     4  11  21  36  57  85 118 150 184 229 291 346
#     4   9  19  35  55  78 106 142 189 234 270 321
#     4   9  16  33  58  76 101 143 188 230 271 320
#     4  11  23  35  55  86 114 144 186 231 278 339
#     4  11  23  35  55  86 114 144 186 231 278 339
#
# _framework density 18.226526
#
# number of rings (size 3 to 8) (size 9 to 14) (size 15 to 20)
#    0.000    2.000    2.500    1.125    3.500    3.000 
#    0.000    1.250    0.000    0.750    0.000    3.500 
#    0.000    0.000    0.000    0.000    0.000    0.000 
#
# Total GULP energy -793592.745252 kJ/mol
# GULP energy per Si atom -12399.886645 kJ/mol
# Density = 1.818504 g / cm^3
# Si number density = 18.226526 Si / 1000 Ang^3
#
#
#
# Elastic Constant Matrix: (Units=GPa)
#
#
# Indices 1 2 3 4 5 6 
#
# 1 43.4650 39.7653 40.8369 0.0000 0.0000 0.0000
# 2 39.7653 43.4633 40.8347 0.0000 0.0000 0.0000
# 3 40.8369 40.8347 157.2377 0.0000 0.0000 0.0000
# 4 0.0000 0.0000 0.0000 -38.4062 0.0000 0.0000
# 5 0.0000 0.0000 0.0000 0.0000 -38.3666 0.0000
# 6 0.0000 0.0000 0.0000 0.0000 0.0000 27.4260
#
#
#
# Elastic Compliance Matrix: (Units=1/GPa)
#
#
# Indices 1 2 3 4 5 6 
#
# 1 0.143238 -0.127115 -0.004189 0.000000 0.000000 0.000000
# 2 -0.127115 0.143241 -0.004186 0.000000 0.000000 0.000000
# 3 -0.004189 -0.004186 0.008535 0.000000 0.000000 0.000000
# 4 0.000000 0.000000 0.000000 -0.026037 0.000000 0.000000
# 5 0.000000 0.000000 0.000000 0.000000 -0.026064 0.000000
# 6 0.000000 0.000000 0.000000 0.000000 0.000000 0.036462
#
#
# Mechanical properties :
#
#
# Convention : Reuss Voigt Hill
#
# Bulk Modulus (GPa) = 41.60953 54.11554 47.86253
# Shear Modulus (GPa) = 8.95472 -1.68742 3.63365
#
# Velocity S-wave (km/s) = 2.21894 -0.96323 1.41348
# Velocity P-wave (km/s) = 5.42619 5.34022 5.38338
#
# Compressibility (1/GPa) = 0.02403296
#
# Stress axis : x y z
#
# Youngs Moduli (GPa) = 6.98139 6.98126 117.16619
#
# Poissons Ratio (x) = 0.88742 0.49082
# Poissons Ratio (y) = 0.88744 0.49046
# Poissons Ratio (z) = 0.02925 0.02922
#
# Static dielectric constant tensor:
#      x y z
#    x 3.257590 0.000000 0.000000 
#    y 0.000000 3.257590 0.000000 
#    z 0.000000 0.000000 3.707030 
# 
# 
# High freq. dielectric constant tensor:
#      x y z
#    x 1.686080 0.000000 0.000000 
#    y 0.000000 1.686080 0.000000 
#    z 0.000000 0.000000 1.721840 
# 
# From -- ./inp_files/3522.got.cif
#   From: 2010.03.12/outbox.cif.g09.slc.cpg/sg118_2_cif.got.tgz:3522.got - 2010.04.14 02:21:17.
