data_PCOD8310438
_publ_section_title
;
Structure prediction by ZEFSAII (Michael W. Deem and Ramdas Pophale) SiO2 
 PCOD8310438
Probable space group: P -4 N 2
;
_chemical_formula_sum "Si O2"
_cell_formula_units_Z 56
_cell_length_a 11.705134
_cell_length_b 11.705134
_cell_length_c 25.014441
_cell_angle_alpha 90.000000
_cell_angle_beta 90.000000
_cell_angle_gamma 90.000000
_cell_volume 3427.232613
_symmetry_space_group_name_H-M "P -4 N 2"
_symmetry_group_IT_number 118
_symmetry_cell_setting 'tetragonal'
loop_
_space_group_symop_operation_xyz
x,y,z
y,-x,-z
-x,-y,z
-y,x,-z
1/2+y,1/2+x,1/2-z
1/2-y,1/2-x,1/2-z
1/2-x,1/2+y,1/2+z
1/2+x,1/2-y,1/2+z
loop_
_atom_site_type_symbol
_atom_site_label
_atom_site_fract_x
_atom_site_fract_y
_atom_site_fract_z
Si Si1 0.728101 0.366337 0.888981
Si Si2 0.631639 0.631640 1.000000
Si Si3 0.250110 0.365275 0.698077
Si Si4 0.634365 0.500001 0.281651
Si Si5 0.636334 0.500000 0.163601
Si Si6 0.228101 0.866336 0.388981
Si Si7 0.634725 0.749892 0.301924
O O1 0.612610 0.314967 0.864287
O O2 0.738500 0.500000 0.878628
O O3 0.834088 0.309312 0.858204
O O4 0.721067 0.340359 0.952439
O O5 0.721066 0.659642 0.952439
O O6 0.646749 0.500001 0.019486
O O7 0.196659 0.303342 0.750000
O O8 0.382742 0.328027 0.689552
O O9 0.190689 0.334088 0.641796
O O10 0.237011 0.500000 0.708141
O O11 0.500000 0.500000 0.274979
O O12 0.687492 0.500001 0.222712
O O13 0.671973 0.617259 0.310449
O O14 0.500000 0.500000 0.160199
O O15 0.685034 0.387391 0.135714
O O16 0.696658 0.803343 0.250000
#
# Coordination Sequence:
#
# PCOD8310438 Si02
#       7
#     8   8   8   8   8   8   8
#     4  10  18  29  49  76 102 127 158 201 250 292
#     4   9  16  28  50  78  99 124 168 208 239 280
#     4  11  21  32  50  75 102 130 161 200 248 296
#     4   9  18  32  48  68  94 132 168 191 228 291
#     4   9  14  26  46  72 100 126 158 193 234 287
#     4  10  18  29  49  76 102 127 158 201 250 292
#     4  11  21  32  50  75 102 130 161 200 248 296
#
# _framework density 16.339713
#
# number of rings (size 3 to 8) (size 9 to 14) (size 15 to 20)
#    0.000    2.143    4.286    0.857    0.000    2.000 
#    0.000    0.000    3.143    3.000    0.000    0.000 
#    0.000    0.000    0.000    0.000    0.000    0.000 
#
# Total GULP energy -693866.158598 kJ/mol
# GULP energy per Si atom -12390.467118 kJ/mol
# Density = 1.630252 g / cm^3
# Si number density = 16.339713 Si / 1000 Ang^3
#
#
#
# Elastic Constant Matrix: (Units=GPa)
#
#
# Indices 1 2 3 4 5 6 
#
# 1 71.5708 36.8458 39.5804 0.0000 0.0000 0.0000
# 2 36.8458 71.5716 39.5806 0.0000 0.0000 0.0000
# 3 39.5804 39.5806 98.9432 0.0000 0.0000 0.0000
# 4 0.0000 0.0000 0.0000 25.9827 0.0000 0.0000
# 5 0.0000 0.0000 0.0000 0.0000 25.9826 0.0000
# 6 0.0000 0.0000 0.0000 0.0000 0.0000 15.3104
#
#
#
# Elastic Compliance Matrix: (Units=1/GPa)
#
#
# Indices 1 2 3 4 5 6 
#
# 1 0.020913 -0.007884 -0.005212 0.000000 0.000000 0.000000
# 2 -0.007884 0.020913 -0.005212 0.000000 0.000000 0.000000
# 3 -0.005212 -0.005212 0.014277 0.000000 0.000000 0.000000
# 4 0.000000 0.000000 0.000000 0.038487 0.000000 0.000000
# 5 0.000000 0.000000 0.000000 0.000000 0.038487 0.000000
# 6 0.000000 0.000000 0.000000 0.000000 0.000000 0.065315
#
#
# Mechanical properties :
#
#
# Convention : Reuss Voigt Hill
#
# Bulk Modulus (GPa) = 51.31654 52.67770 51.99712
# Shear Modulus (GPa) = 20.70348 21.86039 21.28193
#
# Velocity S-wave (km/s) = 3.56345 3.66166 3.61289
# Velocity P-wave (km/s) = 6.95738 7.08421 7.02108
#
# Compressibility (1/GPa) = 0.01948689
#
# Stress axis : x y z
#
# Youngs Moduli (GPa) = 47.81609 47.81662 70.04335
#
# Poissons Ratio (x) = 0.37699 0.36508
# Poissons Ratio (y) = 0.37698 0.36508
# Poissons Ratio (z) = 0.24923 0.24923
#
# Static dielectric constant tensor:
#      x y z
#    x 3.007740 0.000000 0.000000 
#    y 0.000000 3.007740 0.000000 
#    z 0.000000 0.000000 3.070410 
# 
# 
# High freq. dielectric constant tensor:
#      x y z
#    x 1.604840 0.000000 0.000000 
#    y 0.000000 1.604840 0.000000 
#    z 0.000000 0.000000 1.624380 
# 
# From -- ./inp_files/6567.got.cif
#   From: 2010.03.12/outbox.cif.g09.slc.cpg/sg118_4_cif.got.tgz:6567.got - 2010.04.14 02:21:17.
