data_PCOD8310288
_publ_section_title
;
Structure prediction by ZEFSAII (Michael W. Deem and Ramdas Pophale) SiO2 
 PCOD8310288
Probable space group: P -4 B 2
;
_chemical_formula_sum "Si O2"
_cell_formula_units_Z 56
_cell_length_a 15.266962
_cell_length_b 15.266962
_cell_length_c 12.361781
_cell_angle_alpha 90.000000
_cell_angle_beta 90.000000
_cell_angle_gamma 90.000000
_cell_volume 2881.285507
_symmetry_space_group_name_H-M "P -4 B 2"
_symmetry_group_IT_number 117
_symmetry_cell_setting 'tetragonal'
loop_
_space_group_symop_operation_xyz
x,y,z
y,-x,-z
-x,-y,z
-y,x,-z
1/2+y,1/2+x,-z
1/2-y,1/2-x,-z
1/2-x,1/2+y,z
1/2+x,1/2-y,z
loop_
_atom_site_type_symbol
_atom_site_label
_atom_site_fract_x
_atom_site_fract_y
_atom_site_fract_z
Si Si1 0.619652 0.796653 0.098594
Si Si2 0.876416 0.228450 0.777531
Si Si3 0.861892 0.504708 0.727537
Si Si4 0.999392 0.363619 0.684851
Si Si5 0.335078 0.304791 0.539283
Si Si6 0.623295 0.426820 0.020006
Si Si7 0.978157 0.741810 0.480479
O O1 0.704684 0.803757 0.175143
O O2 0.529910 0.823311 0.159254
O O3 0.635148 0.864853 0.000000
O O4 0.610408 0.696946 0.060487
O O5 0.834854 0.189706 0.669142
O O6 0.899512 0.149033 0.858016
O O7 0.967532 0.279505 0.752858
O O8 0.921306 0.590532 0.750002
O O9 0.786600 0.530400 0.643831
O O10 0.918376 0.429234 0.670326
O O11 0.028251 0.339291 0.563498
O O12 0.275473 0.224528 0.500000
O O13 0.303038 0.396244 0.490988
O O14 0.432455 0.294162 0.494757
O O15 0.531744 0.382261 0.988826
#
# Coordination Sequence:
#
# PCOD8310288 Si02
#       7
#     8   8   8   8   8   8   8
#     4   9  19  38  61  84 118 150 193 256 312 357
#     4   9  20  41  59  85 119 153 196 254 312 358
#     4  10  18  33  60  87 115 157 203 244 317 365
#     4   9  18  35  57  87 120 151 195 255 306 369
#     4  11  23  41  61  90 130 163 203 255 306 368
#     4  10  22  42  60  83 114 157 208 247 296 362
#     4  11  22  37  57  88 125 165 203 245 298 373
#
# _framework density 19.435770999999999
#
# number of rings (size 3 to 8) (size 9 to 14) (size 15 to 20)
#    0.000    2.143    0.000    4.286    2.000    1.429 
#   12.857   13.571    0.000    0.000    0.000    0.000 
#    0.000    0.000    0.000    0.000    0.000    0.000 
#
# Total GULP energy -694406.579544 kJ/mol
# GULP energy per Si atom -12400.117492 kJ/mol
# Density = 1.939153 g / cm^3
# Si number density = 19.435771 Si / 1000 Ang^3
#
#
#
# Elastic Constant Matrix: (Units=GPa)
#
#
# Indices 1 2 3 4 5 6 
#
# 1 87.5270 39.9203 33.5926 0.0000 0.0000 0.0000
# 2 39.9203 87.5286 33.5986 0.0000 0.0000 0.0000
# 3 33.5926 33.5986 91.3490 0.0000 0.0000 0.0000
# 4 0.0000 0.0000 0.0000 21.8806 0.0000 0.0000
# 5 0.0000 0.0000 0.0000 0.0000 21.8803 0.0000
# 6 0.0000 0.0000 0.0000 0.0000 0.0000 29.4752
#
#
#
# Elastic Compliance Matrix: (Units=1/GPa)
#
#
# Indices 1 2 3 4 5 6 
#
# 1 0.015369 -0.005636 -0.003579 0.000000 0.000000 0.000000
# 2 -0.005636 0.015370 -0.003581 0.000000 0.000000 0.000000
# 3 -0.003579 -0.003581 0.013580 0.000000 0.000000 0.000000
# 4 0.000000 0.000000 0.000000 0.045703 0.000000 0.000000
# 5 0.000000 0.000000 0.000000 0.000000 0.045703 0.000000
# 6 0.000000 0.000000 0.000000 0.000000 0.000000 0.033927
#
#
# Mechanical properties :
#
#
# Convention : Reuss Voigt Hill
#
# Bulk Modulus (GPa) = 53.39515 53.40307 53.39911
# Shear Modulus (GPa) = 24.81578 25.26675 25.04126
#
# Velocity S-wave (km/s) = 3.57712 3.60948 3.59334
# Velocity P-wave (km/s) = 6.67782 6.70130 6.68957
#
# Compressibility (1/GPa) = 0.01872829
#
# Stress axis : x y z
#
# Youngs Moduli (GPa) = 65.06577 65.06343 73.63731
#
# Poissons Ratio (x) = 0.36668 0.26354
# Poissons Ratio (y) = 0.36670 0.26366
# Poissons Ratio (z) = 0.23287 0.23296
#
# Static dielectric constant tensor:
#      x y z
#    x 3.500340 0.000000 0.000000 
#    y 0.000000 3.500330 0.000000 
#    z 0.000000 0.000000 3.616960 
# 
# 
# High freq. dielectric constant tensor:
#      x y z
#    x 1.752730 0.000000 0.000000 
#    y 0.000000 1.752730 0.000000 
#    z 0.000000 0.000000 1.755920 
# 
# From -- ./inp_files/2847.got.cif
#   From: 2010.03.12/outbox.cif.g09.slc.cpg/sg117_2_cif.got.tgz:2847.got - 2010.04.14 02:19:01.
