data_PCOD8310193
_publ_section_title
;
Structure prediction by ZEFSAII (Michael W. Deem and Ramdas Pophale) SiO2 
 PCOD8310193
Probable space group: P -4 C 2
;
_chemical_formula_sum "Si O2"
_cell_formula_units_Z 34
_cell_length_a 9.055852
_cell_length_b 9.055852
_cell_length_c 18.285473
_cell_angle_alpha 90.000000
_cell_angle_beta 90.000000
_cell_angle_gamma 90.000000
_cell_volume 1499.563398
_symmetry_space_group_name_H-M "P -4 C 2"
_symmetry_group_IT_number 116
_symmetry_cell_setting 'tetragonal'
loop_
_space_group_symop_operation_xyz
x,y,z
y,-x,-z
-x,-y,z
-y,x,-z
y,x,1/2-z
-y,-x,1/2-z
-x,y,1/2+z
x,-y,1/2+z
loop_
_atom_site_type_symbol
_atom_site_label
_atom_site_fract_x
_atom_site_fract_y
_atom_site_fract_z
Si Si1 0.461349 0.834770 0.939171
Si Si2 0.000000 0.000000 0.500000
Si Si3 0.270113 0.340610 0.329437
Si Si4 0.647374 0.745129 0.591456
Si Si5 0.997364 0.836339 0.861783
O O1 0.341951 0.780616 0.881516
O O2 0.596051 0.720880 0.936537
O O3 0.500000 0.000000 0.915153
O O4 0.400124 0.840301 0.021354
O O5 0.860400 0.040706 0.551962
O O6 0.343831 0.343831 0.250000
O O7 0.288099 0.504786 0.359683
O O8 0.101237 0.284046 0.322943
O O9 0.766419 0.833665 0.640466
O O10 0.000000 0.000000 0.823248
#
# Coordination Sequence:
#
# PCOD8310193 Si02
#       5
#     8   2   8   8   8
#     4  12  26  44  70 105 141 192 248 305 376 450
#     4   8  20  36  74 104 140 188 252 302 356 428
#     4  12  27  46  69 105 148 198 245 306 382 454
#     4  12  25  44  73 107 144 191 250 312 376 448
#     4  10  22  42  72 106 144 194 245 311 360 440
#
# _framework density 22.673265000000001
#
# number of rings (size 3 to 8) (size 9 to 14) (size 15 to 20)
#    0.706    0.000    2.353    5.647    3.294    4.235 
#    0.000    2.353    0.000    0.000    0.000    0.000 
#    0.000    0.000    0.000    0.000    0.000    0.000 
#
# Total GULP energy -421592.232811 kJ/mol
# GULP energy per Si atom -12399.771553 kJ/mol
# Density = 2.262166 g / cm^3
# Si number density = 22.673265 Si / 1000 Ang^3
#
#
#
# Elastic Constant Matrix: (Units=GPa)
#
#
# Indices 1 2 3 4 5 6 
#
# 1 127.2073 29.3025 22.9797 0.0000 0.0000 0.0000
# 2 29.3025 127.2073 22.9797 0.0000 0.0000 0.0000
# 3 22.9797 22.9797 101.2344 0.0000 0.0000 0.0000
# 4 0.0000 0.0000 0.0000 -174.7517 0.0000 0.0000
# 5 0.0000 0.0000 0.0000 0.0000 -174.7517 0.0000
# 6 0.0000 0.0000 0.0000 0.0000 0.0000 45.2076
#
#
#
# Elastic Compliance Matrix: (Units=1/GPa)
#
#
# Indices 1 2 3 4 5 6 
#
# 1 0.008530 -0.001684 -0.001554 0.000000 0.000000 0.000000
# 2 -0.001684 0.008530 -0.001554 0.000000 0.000000 0.000000
# 3 -0.001554 -0.001554 0.010584 0.000000 0.000000 0.000000
# 4 0.000000 0.000000 0.000000 -0.005722 0.000000 0.000000
# 5 0.000000 0.000000 0.000000 0.000000 -0.005722 0.000000
# 6 0.000000 0.000000 0.000000 0.000000 0.000000 0.022120
#
#
# Mechanical properties :
#
#
# Convention : Reuss Voigt Hill
#
# Bulk Modulus (GPa) = 55.37351 56.24140 55.80745
# Shear Modulus (GPa) = 92.72586 -42.16669 25.27958
#
# Velocity S-wave (km/s) = 6.40198 -4.31716 3.34271
# Velocity P-wave (km/s) = 8.89508 0.09199 6.29011
#
# Compressibility (1/GPa) = 0.01805918
#
# Stress axis : x y z
#
# Youngs Moduli (GPa) = 117.23536 117.23536 94.48631
#
# Poissons Ratio (x) = 0.19744 0.14683
# Poissons Ratio (y) = 0.19744 0.14683
# Poissons Ratio (z) = 0.18218 0.18218
#
# Static dielectric constant tensor:
#      x y z
#    x 4.091010 0.000000 0.000000 
#    y 0.000000 4.091010 0.000000 
#    z 0.000000 0.000000 3.802810 
# 
# 
# High freq. dielectric constant tensor:
#      x y z
#    x 1.902140 0.000000 0.000000 
#    y 0.000000 1.902140 0.000000 
#    z 0.000000 0.000000 1.874360 
# 
# From -- ./inp_files/3899.got.cif
#   From: 2010.03.12/outbox.cif.g09.slc.cpg/sg116_2_cif.got.tgz:3899.got - 2010.04.14 02:15:44.
