data_PCOD8310036
_publ_section_title
;
Structure prediction by ZEFSAII (Michael W. Deem and Ramdas Pophale) SiO2 
 PCOD8310036
Probable space group: P -4 M 2
;
_chemical_formula_sum "Si O2"
_cell_formula_units_Z 52
_cell_length_a 14.435680
_cell_length_b 14.435680
_cell_length_c 15.455637
_cell_angle_alpha 90.000000
_cell_angle_beta 90.000000
_cell_angle_gamma 90.000000
_cell_volume 3220.782530
_symmetry_space_group_name_H-M "P -4 M 2"
_symmetry_group_IT_number 115
_symmetry_cell_setting 'tetragonal'
loop_
_space_group_symop_operation_xyz
x,y,z
y,-x,-z
-x,-y,z
-y,x,-z
y,x,-z
-y,-x,-z
-x,y,z
x,-y,z
loop_
_atom_site_type_symbol
_atom_site_label
_atom_site_fract_x
_atom_site_fract_y
_atom_site_fract_z
Si Si1 0.603072 0.110151 0.238175
Si Si2 0.605092 0.110186 0.754764
Si Si3 0.603885 0.110033 0.428676
Si Si4 0.714658 0.891908 0.589755
Si Si5 0.104943 0.104943 0.500000
Si Si6 0.738409 0.106034 0.903914
Si Si7 0.251332 0.893038 0.100130
O O1 0.500000 0.148434 0.218955
O O2 0.635913 0.144573 0.333428
O O3 0.672001 0.147834 0.165198
O O4 0.601004 0.000000 0.235268
O O5 0.500000 0.150249 0.750573
O O6 0.667858 0.151119 0.675752
O O7 0.654200 0.142318 0.843894
O O8 0.600472 0.000000 0.750521
O O9 0.500000 0.144243 0.447764
O O10 0.669443 0.152285 0.503017
O O11 0.607967 0.000000 0.430052
O O12 0.825740 0.875140 0.580950
O O13 0.692057 0.000000 0.592288
O O14 0.000000 0.119769 0.534867
O O15 0.833755 0.159200 0.885341
O O16 0.760945 0.000000 0.881425
O O17 0.707917 0.118538 0.003465
O O18 0.226366 0.000000 0.119299
#
# Coordination Sequence:
#
# PCOD8310036 Si02
#       7
#     8   8   8   8   4   8   8
#     4   8  14  24  39  60  82 103 131 169 216 266
#     4   9  17  29  44  61  81 107 143 186 226 262
#     4   8  13  22  37  56  74  92 121 163 208 253
#     4   9  16  26  40  56  77 109 145 178 213 249
#     4   9  18  30  40  54  82 120 158 189 210 234
#     4   9  18  30  42  59  82 110 147 183 212 250
#     4   9  17  29  44  60  82 113 144 176 215 257
#
# _framework density 16.145143999999998
#
# number of rings (size 3 to 8) (size 9 to 14) (size 15 to 20)
#    0.000    3.308    0.000    1.385    0.000    4.000 
#    0.000    6.923    0.000    2.769    0.000    0.000 
#    0.000    0.615    0.000    4.000    0.000   11.154 
#
# Total GULP energy -644301.583444 kJ/mol
# GULP energy per Si atom -12390.415066 kJ/mol
# Density = 1.610840 g / cm^3
# Si number density = 16.145144 Si / 1000 Ang^3
#
#
#
# Elastic Constant Matrix: (Units=GPa)
#
#
# Indices 1 2 3 4 5 6 
#
# 1 65.5295 23.1950 47.1230 0.0000 0.0000 0.0000
# 2 23.1950 65.5295 47.1230 0.0000 0.0000 0.0000
# 3 47.1230 47.1230 119.1461 0.0000 0.0000 0.0000
# 4 0.0000 0.0000 0.0000 21.0267 0.0000 0.0000
# 5 0.0000 0.0000 0.0000 0.0000 21.0267 0.0000
# 6 0.0000 0.0000 0.0000 0.0000 0.0000 3.5961
#
#
#
# Elastic Compliance Matrix: (Units=1/GPa)
#
#
# Indices 1 2 3 4 5 6 
#
# 1 0.021529 -0.002092 -0.007687 0.000000 0.000000 0.000000
# 2 -0.002092 0.021529 -0.007687 0.000000 0.000000 0.000000
# 3 -0.007687 -0.007687 0.014474 0.000000 0.000000 0.000000
# 4 0.000000 0.000000 0.000000 0.047558 0.000000 0.000000
# 5 0.000000 0.000000 0.000000 0.000000 0.047558 0.000000
# 6 0.000000 0.000000 0.000000 0.000000 0.000000 0.278080
#
#
# Mechanical properties :
#
#
# Convention : Reuss Voigt Hill
#
# Bulk Modulus (GPa) = 44.25221 53.89858 49.07539
# Shear Modulus (GPa) = 10.56646 17.98085 14.27365
#
# Velocity S-wave (km/s) = 2.56103 3.34083 2.97658
# Velocity P-wave (km/s) = 6.01778 6.95254 6.50198
#
# Compressibility (1/GPa) = 0.02259774
#
# Stress axis : x y z
#
# Youngs Moduli (GPa) = 46.44905 46.44905 69.09055
#
# Poissons Ratio (x) = 0.09719 0.53112
# Poissons Ratio (y) = 0.09719 0.53112
# Poissons Ratio (z) = 0.35707 0.35707
#
# Static dielectric constant tensor:
#      x y z
#    x 2.860250 0.000000 0.000000 
#    y 0.000000 2.860250 0.000000 
#    z 0.000000 0.000000 3.396400 
# 
# 
# High freq. dielectric constant tensor:
#      x y z
#    x 1.582880 0.000000 0.000000 
#    y 0.000000 1.582880 0.000000 
#    z 0.000000 0.000000 1.631840 
# 
# From -- ./inp_files/3850.got.cif
#   From: 2010.03.12/outbox.cif.g09.slc.cpg/sg115_2_cif.got.tgz:3850.got - 2010.04.14 02:11:21.
