data_PCOD8310539
_publ_section_title
;
Structure prediction by ZEFSAII (Michael W. Deem and Ramdas Pophale) SiO2 
 PCOD8310539
Probable space group: P -4 N 2
;
_chemical_formula_sum "Si O2"
_cell_formula_units_Z 48
_cell_length_a 14.861892
_cell_length_b 14.861892
_cell_length_c 10.914407
_cell_angle_alpha 90.000000
_cell_angle_beta 90.000000
_cell_angle_gamma 90.000000
_cell_volume 2410.728747
_symmetry_space_group_name_H-M "P -4 N 2"
_symmetry_group_IT_number 118
_symmetry_cell_setting 'tetragonal'
loop_
_space_group_symop_operation_xyz
x,y,z
y,-x,-z
-x,-y,z
-y,x,-z
1/2+y,1/2+x,1/2-z
1/2-y,1/2-x,1/2-z
1/2-x,1/2+y,1/2+z
1/2+x,1/2-y,1/2+z
loop_
_atom_site_type_symbol
_atom_site_label
_atom_site_fract_x
_atom_site_fract_y
_atom_site_fract_z
Si Si1 0.349366 0.349987 0.493619
Si Si2 0.534635 0.634389 0.957534
Si Si3 0.652490 0.165000 0.390819
Si Si4 0.537843 0.804447 0.101474
Si Si5 0.445648 0.182846 0.383177
Si Si6 0.989937 0.104848 0.185152
O O1 0.248071 0.314933 0.523809
O O2 0.409215 0.265607 0.459224
O O3 0.351903 0.427403 0.390196
O O4 0.394541 0.388776 0.616330
O O5 0.515132 0.655214 0.815221
O O6 0.608137 0.555811 0.969427
O O7 0.576267 0.722914 0.020301
O O8 0.681227 0.181227 0.250000
O O9 0.547049 0.160663 0.412613
O O10 0.689027 0.067878 0.431934
O O11 0.560974 0.786500 0.242706
O O12 0.592474 0.895065 0.073121
O O13 0.000000 0.000000 0.212114
#
# Coordination Sequence:
#
# PCOD8310539 Si02
#       6
#     8   8   8   8   8   8
#     4  12  22  37  64  94 126 160 217 260 317 380
#     4  11  24  38  60  90 128 163 203 257 325 383
#     4  10  22  39  64  93 124 165 213 261 313 373
#     4  10  23  41  64  89 128 162 215 260 316 374
#     4  10  21  41  65  93 122 170 209 264 309 377
#     4  12  21  38  61  92 130 167 199 262 326 382
#
# _framework density 19.910992
#
# number of rings (size 3 to 8) (size 9 to 14) (size 15 to 20)
#    0.000    1.167    5.000    1.500    7.000    2.000 
#    0.000    0.000    0.000    0.000    4.333    0.000 
#    0.000    0.000    0.000    0.000    0.000    0.000 
#
# Total GULP energy -595083.338180 kJ/mol
# GULP energy per Si atom -12397.569545 kJ/mol
# Density = 1.986567 g / cm^3
# Si number density = 19.910992 Si / 1000 Ang^3
#
#
#
# Elastic Constant Matrix: (Units=GPa)
#
#
# Indices 1 2 3 4 5 6 
#
# 1 69.6250 7.1002 31.0820 0.0000 0.0000 0.0000
# 2 7.1002 69.6250 31.0820 0.0000 0.0000 0.0000
# 3 31.0820 31.0820 95.5710 0.0000 0.0000 0.0000
# 4 0.0000 0.0000 0.0000 18.6850 0.0000 0.0000
# 5 0.0000 0.0000 0.0000 0.0000 18.6850 0.0000
# 6 0.0000 0.0000 0.0000 0.0000 0.0000 -1.0836
#
#
#
# Elastic Compliance Matrix: (Units=1/GPa)
#
#
# Indices 1 2 3 4 5 6 
#
# 1 0.016845 0.000851 -0.005755 0.000000 0.000000 0.000000
# 2 0.000851 0.016845 -0.005755 0.000000 0.000000 0.000000
# 3 -0.005755 -0.005755 0.014207 0.000000 0.000000 0.000000
# 4 0.000000 0.000000 0.000000 0.053519 0.000000 0.000000
# 5 0.000000 0.000000 0.000000 0.000000 0.053519 0.000000
# 6 0.000000 0.000000 0.000000 0.000000 0.000000 -0.922810
#
#
# Mechanical properties :
#
#
# Convention : Reuss Voigt Hill
#
# Bulk Modulus (GPa) = 37.62403 41.48328 39.55366
# Shear Modulus (GPa) = -6.77785 18.29440 5.75828
#
# Velocity S-wave (km/s) = -1.84702 3.03448 1.70244
# Velocity P-wave (km/s) = 3.79322 5.75821 4.87573
#
# Compressibility (1/GPa) = 0.02657876
#
# Stress axis : x y z
#
# Youngs Moduli (GPa) = 59.36429 59.36429 70.38782
#
# Poissons Ratio (x) = -0.05055 0.40511
# Poissons Ratio (y) = -0.05055 0.40511
# Poissons Ratio (z) = 0.34166 0.34166
#
# Static dielectric constant tensor:
#      x y z
#    x 3.755900 0.000000 0.000000 
#    y 0.000000 3.755900 0.000000 
#    z 0.000000 0.000000 3.604960 
# 
# 
# High freq. dielectric constant tensor:
#      x y z
#    x 1.779140 0.000000 0.000000 
#    y 0.000000 1.779140 0.000000 
#    z 0.000000 0.000000 1.764230 
# 
# From -- ./inp_files/3302.got.cif
#   From: 2010.03.12/outbox.cif.g09.slc.cpg/sg118_2_cif.got.tgz:3302.got - 2010.04.14 02:21:17.
