data_PCOD8310605
_publ_section_title
;
Structure prediction by ZEFSAII (Michael W. Deem and Ramdas Pophale) SiO2 
 PCOD8310605
Probable space group: P -4 N 2
;
_chemical_formula_sum "Si O2"
_cell_formula_units_Z 56
_cell_length_a 13.986726
_cell_length_b 13.986726
_cell_length_c 15.362294
_cell_angle_alpha 90.000000
_cell_angle_beta 90.000000
_cell_angle_gamma 90.000000
_cell_volume 3005.302596
_symmetry_space_group_name_H-M "P -4 N 2"
_symmetry_group_IT_number 118
_symmetry_cell_setting 'tetragonal'
loop_
_space_group_symop_operation_xyz
x,y,z
y,-x,-z
-x,-y,z
-y,x,-z
1/2+y,1/2+x,1/2-z
1/2-y,1/2-x,1/2-z
1/2-x,1/2+y,1/2+z
1/2+x,1/2-y,1/2+z
loop_
_atom_site_type_symbol
_atom_site_label
_atom_site_fract_x
_atom_site_fract_y
_atom_site_fract_z
Si Si1 0.302296 0.644238 0.574845
Si Si2 0.578713 0.078713 0.846709
Si Si3 0.945983 0.153771 0.750000
Si Si4 0.504265 0.732304 0.920063
Si Si5 0.862543 0.942467 0.750000
Si Si6 0.697704 0.355762 0.925155
Si Si7 0.767696 0.995735 0.920063
O O1 0.288057 0.590296 0.666377
O O2 0.243078 0.743078 0.575720
O O3 0.414887 0.662989 0.559052
O O4 0.262905 0.574468 0.501321
O O5 0.613731 0.113731 0.750000
O O6 0.536077 0.163706 0.902462
O O7 0.663706 0.036077 0.902462
O O8 0.500000 0.000000 0.832580
O O9 0.909704 0.211943 0.666377
O O10 0.060821 0.143612 0.750000
O O11 0.906110 0.047409 0.750000
O O12 0.567222 0.700046 0.837113
O O13 0.414887 0.662989 0.940948
O O14 0.574468 0.737095 0.001321
O O15 0.799954 0.932778 0.837113
#
# Coordination Sequence:
#
# PCOD8310605 Si02
#       7
#     8   8   8   8   8   8   8
#     4  11  22  36  58  85 117 157 198 241 293 355
#     4  11  22  38  60  87 121 160 195 243 301 361
#     4   9  19  34  55  83 118 150 186 236 289 351
#     4  11  21  37  59  86 121 151 197 244 298 352
#     4   9  18  33  56  85 114 147 185 239 303 342
#     4  11  22  36  58  85 117 157 198 241 293 355
#     4  11  21  37  59  86 121 151 197 244 298 352
#
# _framework density 18.633731000000001
#
# number of rings (size 3 to 8) (size 9 to 14) (size 15 to 20)
#    0.000    1.571    2.857    3.000    0.000    2.857 
#    0.000    0.000    0.000    0.857    0.000    3.000 
#    0.000    0.000    0.000    0.000    0.000    0.000 
#
# Total GULP energy -694501.066825 kJ/mol
# GULP energy per Si atom -12401.804765 kJ/mol
# Density = 1.859132 g / cm^3
# Si number density = 18.633731 Si / 1000 Ang^3
#
#
#
# Elastic Constant Matrix: (Units=GPa)
#
#
# Indices 1 2 3 4 5 6 
#
# 1 63.1779 24.7767 38.3600 0.0000 0.0000 0.0000
# 2 24.7767 63.1779 38.3600 0.0000 0.0000 0.0000
# 3 38.3600 38.3600 144.9959 0.0000 0.0000 0.0000
# 4 0.0000 0.0000 0.0000 24.2289 0.0000 0.0000
# 5 0.0000 0.0000 0.0000 0.0000 24.2289 0.0000
# 6 0.0000 0.0000 0.0000 0.0000 0.0000 26.6389
#
#
#
# Elastic Compliance Matrix: (Units=1/GPa)
#
#
# Indices 1 2 3 4 5 6 
#
# 1 0.020411 -0.005630 -0.003910 0.000000 0.000000 0.000000
# 2 -0.005630 0.020411 -0.003910 0.000000 0.000000 0.000000
# 3 -0.003910 -0.003910 0.008966 0.000000 0.000000 0.000000
# 4 0.000000 0.000000 0.000000 0.041273 0.000000 0.000000
# 5 0.000000 0.000000 0.000000 0.000000 0.041273 0.000000
# 6 0.000000 0.000000 0.000000 0.000000 0.000000 0.037539
#
#
# Mechanical properties :
#
#
# Convention : Reuss Voigt Hill
#
# Bulk Modulus (GPa) = 43.69621 52.70502 48.20062
# Shear Modulus (GPa) = 24.46158 26.34300 25.40229
#
# Velocity S-wave (km/s) = 3.62713 3.76403 3.69622
# Velocity P-wave (km/s) = 6.40643 6.87290 6.64376
#
# Compressibility (1/GPa) = 0.02288528
#
# Stress axis : x y z
#
# Youngs Moduli (GPa) = 48.99421 48.99421 111.53569
#
# Poissons Ratio (x) = 0.27585 0.43613
# Poissons Ratio (y) = 0.27585 0.43613
# Poissons Ratio (z) = 0.19158 0.19158
#
# Static dielectric constant tensor:
#      x y z
#    x 3.302320 0.000000 0.000000 
#    y 0.000000 3.302320 0.000000 
#    z 0.000000 0.000000 3.552210 
# 
# 
# High freq. dielectric constant tensor:
#      x y z
#    x 1.712640 0.000000 0.000000 
#    y 0.000000 1.712640 0.000000 
#    z 0.000000 0.000000 1.734540 
# 
# From -- ./inp_files/3426.got.cif
#   From: 2010.03.12/outbox.cif.g09.slc.cpg/sg118_2_cif.got.tgz:3426.got - 2010.04.14 02:21:17.
