data_PCOD8310898
_publ_section_title
;
Structure prediction by ZEFSAII (Michael W. Deem and Ramdas Pophale) SiO2 
 PCOD8310898
Probable space group: I -4 M 2
;
_chemical_formula_sum "Si O2"
_cell_formula_units_Z 40
_cell_length_a 13.874101
_cell_length_b 13.874101
_cell_length_c 12.088891
_cell_angle_alpha 90.000000
_cell_angle_beta 90.000000
_cell_angle_gamma 90.000000
_cell_volume 2326.998832
_symmetry_space_group_name_H-M "I -4 M 2"
_symmetry_group_IT_number 119
_symmetry_cell_setting 'tetragonal'
loop_
_space_group_symop_operation_xyz
x,y,z
y,-x,-z
-x,-y,z
-y,x,-z
y,x,-z
-y,-x,-z
-x,y,z
x,-y,z
1/2+x,1/2+y,1/2+z
1/2+y,1/2-x,1/2-z
1/2-x,1/2-y,1/2+z
1/2-y,1/2+x,1/2-z
1/2+y,1/2+x,1/2-z
1/2-y,1/2-x,1/2-z
1/2-x,1/2+y,1/2+z
1/2+x,1/2-y,1/2+z
loop_
_atom_site_type_symbol
_atom_site_label
_atom_site_fract_x
_atom_site_fract_y
_atom_site_fract_z
Si Si1 0.280707 0.280707 0.500000
Si Si2 0.390957 0.308052 0.101487
Si Si3 0.736322 0.611340 0.286775
O O1 0.179649 0.282245 0.570478
O O2 0.286772 0.369725 0.415811
O O3 0.500000 0.271256 0.116872
O O4 0.355877 0.357799 0.214476
O O5 0.384694 0.384694 0.000000
O O6 0.758774 0.500000 0.268652
O O7 0.831312 0.668689 0.250000
#
# Coordination Sequence:
#
# PCOD8310898 Si02
#       3
#     8  16  16
#     4   8  20  34  49  71 102 132 162 198 242 292
#     4   9  18  31  51  74  98 123 159 207 247 283
#     4  10  20  34  50  73 102 131 163 198 241 292
#
# _framework density 17.189522
#
# number of rings (size 3 to 8) (size 9 to 14) (size 15 to 20)
#    1.200    1.600    0.000    1.200    0.000    4.800 
#    0.000    0.000    0.000    0.000    0.000    0.000 
#    0.000    0.000    0.000    0.000    0.000    0.000 
#
# Total GULP energy -247807.849735 kJ/mol
# GULP energy per Si atom -12390.392487 kJ/mol
# Density = 1.715040 g / cm^3
# Si number density = 17.189522 Si / 1000 Ang^3
#
#
#
# Elastic Constant Matrix: (Units=GPa)
#
#
# Indices 1 2 3 4 5 6 
#
# 1 50.4140 23.1862 32.4793 0.0000 0.0000 0.0000
# 2 23.1862 50.4160 32.4794 0.0000 0.0000 0.0000
# 3 32.4793 32.4794 116.0968 0.0000 0.0000 0.0000
# 4 0.0000 0.0000 0.0000 13.6077 0.0000 0.0000
# 5 0.0000 0.0000 0.0000 0.0000 13.6076 0.0000
# 6 0.0000 0.0000 0.0000 0.0000 0.0000 10.7566
#
#
#
# Elastic Compliance Matrix: (Units=1/GPa)
#
#
# Indices 1 2 3 4 5 6 
#
# 1 0.027384 -0.009342 -0.005047 0.000000 0.000000 0.000000
# 2 -0.009342 0.027383 -0.005047 0.000000 0.000000 0.000000
# 3 -0.005047 -0.005047 0.011438 0.000000 0.000000 0.000000
# 4 0.000000 0.000000 0.000000 0.073488 0.000000 0.000000
# 5 0.000000 0.000000 0.000000 0.000000 0.073489 0.000000
# 6 0.000000 0.000000 0.000000 0.000000 0.000000 0.092966
#
#
# Mechanical properties :
#
#
# Convention : Reuss Voigt Hill
#
# Bulk Modulus (GPa) = 36.58825 43.69073 40.13949
# Shear Modulus (GPa) = 14.11903 16.17981 15.14942
#
# Velocity S-wave (km/s) = 2.86907 3.07132 2.97192
# Velocity P-wave (km/s) = 5.68391 6.16844 5.93112
#
# Compressibility (1/GPa) = 0.02733118
#
# Stress axis : x y z
#
# Youngs Moduli (GPa) = 36.51733 36.51900 87.43127
#
# Poissons Ratio (x) = 0.34117 0.44130
# Poissons Ratio (y) = 0.34116 0.44128
# Poissons Ratio (z) = 0.18432 0.18432
#
# Static dielectric constant tensor:
#      x y z
#    x 2.867940 0.000000 0.000000 
#    y 0.000000 2.867940 0.000000 
#    z 0.000000 0.000000 3.404370 
# 
# 
# High freq. dielectric constant tensor:
#      x y z
#    x 1.633440 0.000000 0.000000 
#    y 0.000000 1.633440 0.000000 
#    z 0.000000 0.000000 1.679510 
# 
# From -- ./inp_files/3222.got.cif
#   From: 2010.03.12/outbox.cif.g09.slc.cpg/sg119_2_cif.got.tgz:3222.got - 2010.04.14 02:25:26.
