data_PCOD8310241
_publ_section_title
;
Structure prediction by ZEFSAII (Michael W. Deem and Ramdas Pophale) SiO2 
 PCOD8310241
Probable space group: P -4 C 2
;
_chemical_formula_sum "Si O2"
_cell_formula_units_Z 60
_cell_length_a 11.865951
_cell_length_b 11.865951
_cell_length_c 19.309846
_cell_angle_alpha 90.000000
_cell_angle_beta 90.000000
_cell_angle_gamma 90.000000
_cell_volume 2718.841632
_symmetry_space_group_name_H-M "P -4 C 2"
_symmetry_group_IT_number 116
_symmetry_cell_setting 'tetragonal'
loop_
_space_group_symop_operation_xyz
x,y,z
y,-x,-z
-x,-y,z
-y,x,-z
y,x,1/2-z
-y,-x,1/2-z
-x,y,1/2+z
x,-y,1/2+z
loop_
_atom_site_type_symbol
_atom_site_label
_atom_site_fract_x
_atom_site_fract_y
_atom_site_fract_z
Si Si1 0.518475 0.761093 0.551839
Si Si2 0.563354 0.617485 0.419757
Si Si3 0.407801 0.083123 0.735236
Si Si4 0.495412 0.676578 0.773199
Si Si5 0.689626 0.955798 0.880335
Si Si6 0.500000 0.000000 0.991563
Si Si7 0.727772 0.823948 0.615581
Si Si8 0.828925 0.941493 0.488198
O O1 0.543800 0.706110 0.479008
O O2 0.410442 0.698131 0.586166
O O3 0.623099 0.739071 0.603761
O O4 0.511109 0.895261 0.543827
O O5 0.500000 0.500000 0.434113
O O6 0.512008 0.682659 0.355460
O O7 0.474746 0.199342 0.747546
O O8 0.363721 0.019934 0.805342
O O9 0.302266 0.099452 0.682847
O O10 0.500000 0.000000 0.701524
O O11 0.593497 0.593497 0.750000
O O12 0.373694 0.626307 0.750000
O O13 0.748514 0.835533 0.869630
O O14 0.600676 0.960223 0.942222
O O15 0.780808 0.047437 0.909147
O O16 0.740111 0.896313 0.544722
O O17 0.935265 0.860449 0.483298
#
# Coordination Sequence:
#
# PCOD8310241 Si02
#       8
#     8   8   8   8   8   4   8   8
#     4  12  24  40  62 102 137 176 226 297 354 416
#     4  12  23  41  67 100 136 180 241 294 354 429
#     4  12  27  44  66 101 144 186 235 291 355 434
#     4  11  23  43  69  95 134 191 241 287 353 437
#     4  11  22  43  67  95 132 184 229 280 354 423
#     4  12  24  40  64 100 140 178 228 288 356 422
#     4  11  24  42  69  98 133 183 227 294 355 422
#     4   9  20  42  71 100 129 171 233 290 345 415
#
# _framework density 22.068221999999999
#
# number of rings (size 3 to 8) (size 9 to 14) (size 15 to 20)
#    0.000    0.800    4.667    3.600    2.800    0.000 
#    0.000    2.000    0.000    3.200    0.000    0.000 
#    0.000    0.000    0.000    0.000    0.000    0.000 
#
# Total GULP energy -743508.801632 kJ/mol
# GULP energy per Si atom -12391.813361 kJ/mol
# Density = 2.201799 g / cm^3
# Si number density = 22.068222 Si / 1000 Ang^3
#
#
#
# Elastic Constant Matrix: (Units=GPa)
#
#
# Indices 1 2 3 4 5 6 
#
# 1 96.8884 24.6186 17.3276 0.0000 0.0000 0.0000
# 2 24.6186 96.8878 17.3280 0.0000 0.0000 0.0000
# 3 17.3276 17.3280 83.9664 0.0000 0.0000 0.0000
# 4 0.0000 0.0000 0.0000 40.9297 0.0000 0.0000
# 5 0.0000 0.0000 0.0000 0.0000 40.9303 0.0000
# 6 0.0000 0.0000 0.0000 0.0000 0.0000 24.1954
#
#
#
# Elastic Compliance Matrix: (Units=1/GPa)
#
#
# Indices 1 2 3 4 5 6 
#
# 1 0.011291 -0.002546 -0.001805 0.000000 0.000000 0.000000
# 2 -0.002546 0.011291 -0.001805 0.000000 0.000000 0.000000
# 3 -0.001805 -0.001805 0.012654 0.000000 0.000000 0.000000
# 4 0.000000 0.000000 0.000000 0.024432 0.000000 0.000000
# 5 0.000000 0.000000 0.000000 0.000000 0.024432 0.000000
# 6 0.000000 0.000000 0.000000 0.000000 0.000000 0.041330
#
#
# Mechanical properties :
#
#
# Convention : Reuss Voigt Hill
#
# Bulk Modulus (GPa) = 43.61989 44.03232 43.82610
# Shear Modulus (GPa) = 34.39195 35.77564 35.08379
#
# Velocity S-wave (km/s) = 3.95199 4.03070 3.99154
# Velocity P-wave (km/s) = 6.37441 6.45432 6.41449
#
# Compressibility (1/GPa) = 0.02292532
#
# Stress axis : x y z
#
# Youngs Moduli (GPa) = 88.56722 88.56659 79.02423
#
# Poissons Ratio (x) = 0.22551 0.14260
# Poissons Ratio (y) = 0.22551 0.14261
# Poissons Ratio (z) = 0.15983 0.15983
#
# Static dielectric constant tensor:
#      x y z
#    x 4.172100 0.000000 0.000000 
#    y 0.000000 4.172100 0.000000 
#    z 0.000000 0.000000 4.155810 
# 
# 
# High freq. dielectric constant tensor:
#      x y z
#    x 1.866020 0.000000 0.000000 
#    y 0.000000 1.866020 0.000000 
#    z 0.000000 0.000000 1.875570 
# 
# From -- ./inp_files/4206.got.cif
#   From: 2010.03.12/outbox.cif.g09.slc.cpg/sg116_3_cif.got.tgz:4206.got - 2010.04.14 02:15:44.
