data_PCOD8310505
_publ_section_title
;
Structure prediction by ZEFSAII (Michael W. Deem and Ramdas Pophale) SiO2 
 PCOD8310505
Probable space group: P -4 N 2
;
_chemical_formula_sum "Si O2"
_cell_formula_units_Z 28
_cell_length_a 9.322740
_cell_length_b 9.322740
_cell_length_c 13.358089
_cell_angle_alpha 90.000000
_cell_angle_beta 90.000000
_cell_angle_gamma 90.000000
_cell_volume 1160.998016
_symmetry_space_group_name_H-M "P -4 N 2"
_symmetry_group_IT_number 118
_symmetry_cell_setting 'tetragonal'
loop_
_space_group_symop_operation_xyz
x,y,z
y,-x,-z
-x,-y,z
-y,x,-z
1/2+y,1/2+x,1/2-z
1/2-y,1/2-x,1/2-z
1/2-x,1/2+y,1/2+z
1/2+x,1/2-y,1/2+z
loop_
_atom_site_type_symbol
_atom_site_label
_atom_site_fract_x
_atom_site_fract_y
_atom_site_fract_z
Si Si1 0.500000 0.500000 0.500000
Si Si2 0.500000 0.000000 0.577928
Si Si3 0.000000 0.000000 0.670592
Si Si4 0.710684 0.920244 0.404114
Si Si5 0.000000 0.500000 0.750000
Si Si6 0.412983 0.710780 0.655814
O O1 0.502448 0.641952 0.566018
O O2 0.365785 0.054181 0.510657
O O3 0.551608 0.122134 0.653984
O O4 0.004122 0.866559 0.593759
O O5 0.139604 0.969464 0.740979
O O6 0.694398 0.756613 0.364993
O O7 0.637885 0.015858 0.319261
#
# Coordination Sequence:
#
# PCOD8310505 Si02
#       6
#     2   4   4   8   2   8
#     4  10  20  40  72  88 130 180 226 278 344 404
#     4  11  26  43  75  98 145 178 240 285 360 405
#     4  11  24  45  73  96 145 178 238 281 358 407
#     4  11  23  44  69 104 133 183 232 295 344 423
#     4  10  20  44  68  90 128 172 234 270 344 418
#     4  11  22  44  68 105 132 186 233 289 339 429
#
# _framework density 24.117180999999999
#
# number of rings (size 3 to 8) (size 9 to 14) (size 15 to 20)
#    0.000    1.143    5.714    0.000    0.000    2.286 
#    5.143    1.429    0.000    0.000    0.000    0.000 
#    0.000    0.000    0.000    0.000    0.000    0.000 
#
# Total GULP energy -346896.729531 kJ/mol
# GULP energy per Si atom -12389.168912 kJ/mol
# Density = 2.406229 g / cm^3
# Si number density = 24.117181 Si / 1000 Ang^3
#
#
#
# Elastic Constant Matrix: (Units=GPa)
#
#
# Indices 1 2 3 4 5 6 
#
# 1 137.9745 43.1934 31.2652 0.0000 0.0000 0.0000
# 2 43.1934 137.9745 31.2652 0.0000 0.0000 0.0000
# 3 31.2652 31.2652 56.0900 0.0000 0.0000 0.0000
# 4 0.0000 0.0000 0.0000 6.9306 0.0000 0.0000
# 5 0.0000 0.0000 0.0000 0.0000 6.9306 0.0000
# 6 0.0000 0.0000 0.0000 0.0000 0.0000 38.9502
#
#
#
# Elastic Compliance Matrix: (Units=1/GPa)
#
#
# Indices 1 2 3 4 5 6 
#
# 1 0.008693 -0.001858 -0.003810 0.000000 0.000000 0.000000
# 2 -0.001858 0.008693 -0.003810 0.000000 0.000000 0.000000
# 3 -0.003810 -0.003810 0.022076 0.000000 0.000000 0.000000
# 4 0.000000 0.000000 0.000000 0.144287 0.000000 0.000000
# 5 0.000000 0.000000 0.000000 0.000000 0.144287 0.000000
# 6 0.000000 0.000000 0.000000 0.000000 0.000000 0.025674
#
#
# Mechanical properties :
#
#
# Convention : Reuss Voigt Hill
#
# Bulk Modulus (GPa) = 48.76594 60.38739 54.57667
# Shear Modulus (GPa) = 13.17523 25.64995 19.41259
#
# Velocity S-wave (km/s) = 2.33984 3.26476 2.84020
# Velocity P-wave (km/s) = 5.25016 6.26937 5.78226
#
# Compressibility (1/GPa) = 0.02050611
#
# Stress axis : x y z
#
# Youngs Moduli (GPa) = 115.03970 115.03970 45.29873
#
# Poissons Ratio (x) = 0.21374 0.17258
# Poissons Ratio (y) = 0.21374 0.17258
# Poissons Ratio (z) = 0.43827 0.43827
#
# Static dielectric constant tensor:
#      x y z
#    x 4.473740 0.000000 0.000000 
#    y 0.000000 4.473740 0.000000 
#    z 0.000000 0.000000 4.318510 
# 
# 
# High freq. dielectric constant tensor:
#      x y z
#    x 1.958280 0.000000 0.000000 
#    y 0.000000 1.958280 0.000000 
#    z 0.000000 0.000000 1.970260 
# 
# From -- ./inp_files/4674.got.cif
#   From: 2010.03.12/outbox.cif.g09.slc.cpg/sg118_3_cif.got.tgz:4674.got - 2010.04.14 02:21:17.
