data_PCOD8310862
_publ_section_title
;
Structure prediction by ZEFSAII (Michael W. Deem and Ramdas Pophale) SiO2 
 PCOD8310862
Probable space group: I -4 M 2
;
_chemical_formula_sum "Si O2"
_cell_formula_units_Z 64
_cell_length_a 13.649625
_cell_length_b 13.649625
_cell_length_c 16.687363
_cell_angle_alpha 90.000000
_cell_angle_beta 90.000000
_cell_angle_gamma 90.000000
_cell_volume 3109.060358
_symmetry_space_group_name_H-M "I -4 M 2"
_symmetry_group_IT_number 119
_symmetry_cell_setting 'tetragonal'
loop_
_space_group_symop_operation_xyz
x,y,z
y,-x,-z
-x,-y,z
-y,x,-z
y,x,-z
-y,-x,-z
-x,y,z
x,-y,z
1/2+x,1/2+y,1/2+z
1/2+y,1/2-x,1/2-z
1/2-x,1/2-y,1/2+z
1/2-y,1/2+x,1/2-z
1/2+y,1/2+x,1/2-z
1/2-y,1/2-x,1/2-z
1/2-x,1/2+y,1/2+z
1/2+x,1/2-y,1/2+z
loop_
_atom_site_type_symbol
_atom_site_label
_atom_site_fract_x
_atom_site_fract_y
_atom_site_fract_z
Si Si1 0.161928 0.891104 0.607173
Si Si2 0.303060 0.612359 0.578681
Si Si3 0.605074 0.799551 0.027401
Si Si4 0.237559 0.111258 0.778055
O O1 0.270180 0.874867 0.565776
O O2 0.094678 0.803645 0.575231
O O3 0.165111 0.885381 0.702662
O O4 0.122926 0.000000 0.582978
O O5 0.367160 0.632841 0.500000
O O6 0.318787 0.500000 0.604612
O O7 0.188636 0.629473 0.560027
O O8 0.333307 0.684057 0.649935
O O9 0.500000 0.853693 0.036211
O O10 0.337561 0.162440 0.750000
O O11 0.261341 0.000000 0.804026
#
# Coordination Sequence:
#
# PCOD8310862 Si02
#       4
#    16  16  16  16
#     4   9  18  35  61  90 121 157 200 252 311 367
#     4  12  25  43  64  90 128 170 214 260 312 376
#     4  10  19  37  64  91 123 160 204 257 315 372
#     4  11  22  40  64  91 124 160 205 256 310 369
#
# _framework density 20.584996
#
# number of rings (size 3 to 8) (size 9 to 14) (size 15 to 20)
#    0.000    1.500    5.000    0.750    0.000    4.000 
#    0.000    5.000    0.000    7.500    0.000    0.000 
#    0.000    0.000    0.000    0.000    0.000    0.000 
#
# Total GULP energy -396556.436455 kJ/mol
# GULP energy per Si atom -12392.388639 kJ/mol
# Density = 2.053814 g / cm^3
# Si number density = 20.584996 Si / 1000 Ang^3
#
#
#
# Elastic Constant Matrix: (Units=GPa)
#
#
# Indices 1 2 3 4 5 6 
#
# 1 110.6238 34.9382 27.5938 0.0000 0.0000 0.0000
# 2 34.9382 110.6269 27.5943 0.0000 0.0000 0.0000
# 3 27.5938 27.5943 106.7405 0.0000 0.0000 0.0000
# 4 0.0000 0.0000 0.0000 16.0099 0.0000 0.0000
# 5 0.0000 0.0000 0.0000 0.0000 16.0102 0.0000
# 6 0.0000 0.0000 0.0000 0.0000 0.0000 13.6353
#
#
#
# Elastic Compliance Matrix: (Units=1/GPa)
#
#
# Indices 1 2 3 4 5 6 
#
# 1 0.010414 -0.002798 -0.001969 0.000000 0.000000 0.000000
# 2 -0.002798 0.010414 -0.001969 0.000000 0.000000 0.000000
# 3 -0.001969 -0.001969 0.010387 0.000000 0.000000 0.000000
# 4 0.000000 0.000000 0.000000 0.062462 0.000000 0.000000
# 5 0.000000 0.000000 0.000000 0.000000 0.062460 0.000000
# 6 0.000000 0.000000 0.000000 0.000000 0.000000 0.073339
#
#
# Mechanical properties :
#
#
# Convention : Reuss Voigt Hill
#
# Bulk Modulus (GPa) = 56.35885 56.47153 56.41519
# Shear Modulus (GPa) = 20.09147 24.98875 22.54011
#
# Velocity S-wave (km/s) = 3.12753 3.48793 3.31263
# Velocity P-wave (km/s) = 6.36239 6.61164 6.48821
#
# Compressibility (1/GPa) = 0.01774344
#
# Stress axis : x y z
#
# Youngs Moduli (GPa) = 96.02043 96.02301 96.27869
#
# Poissons Ratio (x) = 0.26867 0.18957
# Poissons Ratio (y) = 0.26866 0.18957
# Poissons Ratio (z) = 0.18906 0.18906
#
# Static dielectric constant tensor:
#      x y z
#    x 3.581910 0.000000 0.000000 
#    y 0.000000 3.581910 0.000000 
#    z 0.000000 0.000000 3.870680 
# 
# 
# High freq. dielectric constant tensor:
#      x y z
#    x 1.792270 0.000000 0.000000 
#    y 0.000000 1.792270 0.000000 
#    z 0.000000 0.000000 1.811710 
# 
# From -- ./inp_files/6249.got.cif
#   From: 2010.03.12/outbox.cif.g09.slc.cpg/sg119_4_cif.got.tgz:6249.got - 2010.04.14 02:25:26.
