data_PCOD8310091
_publ_section_title
;
Structure prediction by ZEFSAII (Michael W. Deem and Ramdas Pophale) SiO2 
 PCOD8310091
Probable space group: P -4 C 2
;
_chemical_formula_sum "Si O2"
_cell_formula_units_Z 38
_cell_length_a 14.989482
_cell_length_b 14.989482
_cell_length_c 9.501435
_cell_angle_alpha 90.000000
_cell_angle_beta 90.000000
_cell_angle_gamma 90.000000
_cell_volume 2134.825843
_symmetry_space_group_name_H-M "P -4 C 2"
_symmetry_group_IT_number 116
_symmetry_cell_setting 'tetragonal'
loop_
_space_group_symop_operation_xyz
x,y,z
y,-x,-z
-x,-y,z
-y,x,-z
y,x,1/2-z
-y,-x,1/2-z
-x,y,1/2+z
x,-y,1/2+z
loop_
_atom_site_type_symbol
_atom_site_label
_atom_site_fract_x
_atom_site_fract_y
_atom_site_fract_z
Si Si1 0.893443 0.647077 0.864680
Si Si2 0.266906 0.733095 0.250000
Si Si3 0.403307 0.041224 0.342177
Si Si4 0.789279 0.528314 0.295618
Si Si5 0.500000 0.500000 0.000000
Si Si6 0.566981 0.313890 0.431790
O O1 0.829004 0.729321 0.826512
O O2 0.831726 0.559877 0.861792
O O3 0.968619 0.649723 0.746006
O O4 0.938587 0.653097 0.017521
O O5 0.338985 0.715890 0.370831
O O6 0.406965 0.129543 0.245591
O O7 0.500000 0.000000 0.383510
O O8 0.720472 0.569328 0.407696
O O9 0.734043 0.511729 0.153427
O O10 0.447487 0.421367 0.916161
#
# Coordination Sequence:
#
# PCOD8310091 Si02
#       6
#     8   4   8   8   2   8
#     4  10  20  35  55  84 109 144 177 238 299 352
#     4  10  24  39  52  76 122 151 182 240 296 332
#     4  10  19  32  60  85 107 138 191 243 300 356
#     4  10  20  35  55  79 105 143 199 249 292 324
#     4  12  24  38  48  74 104 174 224 226 252 310
#     4  11  23  37  53  71 110 159 206 245 271 313
#
# _framework density 17.800045999999998
#
# number of rings (size 3 to 8) (size 9 to 14) (size 15 to 20)
#    0.000    1.684    2.105    4.421    5.895    3.789 
#    0.000    0.000    0.000    0.000    0.000    0.000 
#    0.000    2.526    0.000    0.000    0.000    0.000 
#
# Total GULP energy -471076.057668 kJ/mol
# GULP energy per Si atom -12396.738360 kJ/mol
# Density = 1.775953 g / cm^3
# Si number density = 17.800046 Si / 1000 Ang^3
#
#
#
# Elastic Constant Matrix: (Units=GPa)
#
#
# Indices 1 2 3 4 5 6 
#
# 1 87.7340 26.0614 45.6485 0.0000 0.0000 0.0000
# 2 26.0614 87.7335 45.6487 0.0000 0.0000 0.0000
# 3 45.6485 45.6487 121.4055 0.0000 0.0000 0.0000
# 4 0.0000 0.0000 0.0000 22.3522 0.0000 0.0000
# 5 0.0000 0.0000 0.0000 0.0000 22.3521 0.0000
# 6 0.0000 0.0000 0.0000 0.0000 0.0000 22.2237
#
#
#
# Elastic Compliance Matrix: (Units=1/GPa)
#
#
# Indices 1 2 3 4 5 6 
#
# 1 0.014399 -0.001815 -0.004731 0.000000 0.000000 0.000000
# 2 -0.001815 0.014399 -0.004732 0.000000 0.000000 0.000000
# 3 -0.004731 -0.004732 0.011795 0.000000 0.000000 0.000000
# 4 0.000000 0.000000 0.000000 0.044738 0.000000 0.000000
# 5 0.000000 0.000000 0.000000 0.000000 0.044738 0.000000
# 6 0.000000 0.000000 0.000000 0.000000 0.000000 0.044997
#
#
# Mechanical properties :
#
#
# Convention : Reuss Voigt Hill
#
# Bulk Modulus (GPa) = 55.44321 59.06558 57.25439
# Shear Modulus (GPa) = 24.55355 25.35323 24.95339
#
# Velocity S-wave (km/s) = 3.71807 3.77813 3.74822
# Velocity P-wave (km/s) = 7.04610 7.23099 7.13914
#
# Compressibility (1/GPa) = 0.01803648
#
# Stress axis : x y z
#
# Youngs Moduli (GPa) = 69.44838 69.44774 84.78184
#
# Poissons Ratio (x) = 0.12608 0.40114
# Poissons Ratio (y) = 0.12608 0.40115
# Poissons Ratio (z) = 0.32859 0.32860
#
# Static dielectric constant tensor:
#      x y z
#    x 3.270780 0.000000 0.000000 
#    y 0.000000 3.270780 0.000000 
#    z 0.000000 0.000000 3.306660 
# 
# 
# High freq. dielectric constant tensor:
#      x y z
#    x 1.660380 0.000000 0.000000 
#    y 0.000000 1.660380 0.000000 
#    z 0.000000 0.000000 1.702110 
# 
# From -- ./inp_files/712.got.cif
#   From: 2010.03.12/outbox.cif.g09.slc.cpg/sg116_1_cif.got.tgz:712.got - 2010.04.14 02:15:44.
