data_PCOD8310100
_publ_section_title
;
Structure prediction by ZEFSAII (Michael W. Deem and Ramdas Pophale) SiO2 
 PCOD8310100
Probable space group: P -4 C 2
;
_chemical_formula_sum "Si O2"
_cell_formula_units_Z 48
_cell_length_a 11.652190
_cell_length_b 11.652190
_cell_length_c 18.419021
_cell_angle_alpha 90.000000
_cell_angle_beta 90.000000
_cell_angle_gamma 90.000000
_cell_volume 2500.815533
_symmetry_space_group_name_H-M "P -4 C 2"
_symmetry_group_IT_number 116
_symmetry_cell_setting 'tetragonal'
loop_
_space_group_symop_operation_xyz
x,y,z
y,-x,-z
-x,-y,z
-y,x,-z
y,x,1/2-z
-y,-x,1/2-z
-x,y,1/2+z
x,-y,1/2+z
loop_
_atom_site_type_symbol
_atom_site_label
_atom_site_fract_x
_atom_site_fract_y
_atom_site_fract_z
Si Si1 0.729659 0.132028 0.458289
Si Si2 0.870378 0.283619 0.556823
Si Si3 0.727108 0.317127 0.172633
Si Si4 0.503359 0.126807 0.535714
Si Si5 0.539425 0.704574 0.163469
Si Si6 0.244471 0.426336 0.177483
O O1 0.795140 0.174336 0.531143
O O2 0.760932 0.215726 0.390186
O O3 0.593190 0.134530 0.470091
O O4 0.761932 0.000735 0.440464
O O5 0.842305 0.379890 0.496525
O O6 0.838142 0.335738 0.635912
O O7 0.747133 0.252868 0.250000
O O8 0.590639 0.338009 0.168797
O O9 0.786975 0.441062 0.163305
O O10 0.548115 0.210281 0.596990
O O11 0.500000 0.000000 0.569884
O O12 0.624437 0.597058 0.150365
O O13 0.587748 0.768150 0.235570
#
# Coordination Sequence:
#
# PCOD8310100 Si02
#       6
#     8   8   8   8   8   8
#     4  11  22  38  59  83 116 151 200 246 292 346
#     4  11  22  38  59  84 113 156 201 250 292 348
#     4  10  20  35  55  86 120 153 184 228 290 364
#     4  10  20  35  55  82 110 145 194 240 285 346
#     4  10  19  35  56  82 118 153 184 228 292 357
#     4  10  20  34  55  86 120 149 186 232 292 352
#
# _framework density 19.193739999999998
#
# number of rings (size 3 to 8) (size 9 to 14) (size 15 to 20)
#    0.000    1.667    5.000    0.500    0.000    2.333 
#    6.000    0.000    0.000    0.000    0.000    0.000 
#    0.000    0.000    0.000    0.000    0.000    0.000 
#
# Total GULP energy -594818.883846 kJ/mol
# GULP energy per Si atom -12392.060080 kJ/mol
# Density = 1.915005 g / cm^3
# Si number density = 19.193740 Si / 1000 Ang^3
#
#
#
# Elastic Constant Matrix: (Units=GPa)
#
#
# Indices 1 2 3 4 5 6 
#
# 1 73.3834 10.0849 27.7124 0.0000 0.0000 0.0000
# 2 10.0849 73.3834 27.7123 0.0000 0.0000 0.0000
# 3 27.7124 27.7123 92.4096 0.0000 0.0000 0.0000
# 4 0.0000 0.0000 0.0000 20.4630 0.0000 0.0000
# 5 0.0000 0.0000 0.0000 0.0000 20.4630 0.0000
# 6 0.0000 0.0000 0.0000 0.0000 0.0000 20.5302
#
#
#
# Elastic Compliance Matrix: (Units=1/GPa)
#
#
# Indices 1 2 3 4 5 6 
#
# 1 0.015379 -0.000419 -0.004486 0.000000 0.000000 0.000000
# 2 -0.000419 0.015379 -0.004486 0.000000 0.000000 0.000000
# 3 -0.004486 -0.004486 0.013512 0.000000 0.000000 0.000000
# 4 0.000000 0.000000 0.000000 0.048869 0.000000 0.000000
# 5 0.000000 0.000000 0.000000 0.000000 0.048869 0.000000
# 6 0.000000 0.000000 0.000000 0.000000 0.000000 0.048709
#
#
# Mechanical properties :
#
#
# Convention : Reuss Voigt Hill
#
# Bulk Modulus (GPa) = 39.23652 41.13284 40.18468
# Shear Modulus (GPa) = 22.93636 23.86903 23.40270
#
# Velocity S-wave (km/s) = 3.46062 3.53027 3.49562
# Velocity P-wave (km/s) = 6.03776 6.17203 6.10527
#
# Compressibility (1/GPa) = 0.02548646
#
# Stress axis : x y z
#
# Youngs Moduli (GPa) = 65.02445 65.02453 74.00801
#
# Poissons Ratio (x) = 0.02727 0.33201
# Poissons Ratio (y) = 0.02727 0.33201
# Poissons Ratio (z) = 0.29171 0.29171
#
# Static dielectric constant tensor:
#      x y z
#    x 3.381340 0.000000 0.000000 
#    y 0.000000 3.381340 0.000000 
#    z 0.000000 0.000000 3.545130 
# 
# 
# High freq. dielectric constant tensor:
#      x y z
#    x 1.728890 0.000000 0.000000 
#    y 0.000000 1.728890 0.000000 
#    z 0.000000 0.000000 1.748840 
# 
# From -- ./inp_files/3386.got.cif
#   From: 2010.03.12/outbox.cif.g09.slc.cpg/sg116_2_cif.got.tgz:3386.got - 2010.04.14 02:15:44.
