data_PCOD8310885
_publ_section_title
;
Structure prediction by ZEFSAII (Michael W. Deem and Ramdas Pophale) SiO2 
 PCOD8310885
Probable space group: I -4 M 2
;
_chemical_formula_sum "Si O2"
_cell_formula_units_Z 96
_cell_length_a 24.839791
_cell_length_b 24.839791
_cell_length_c 7.445194
_cell_angle_alpha 90.000000
_cell_angle_beta 90.000000
_cell_angle_gamma 90.000000
_cell_volume 4593.797991
_symmetry_space_group_name_H-M "I -4 M 2"
_symmetry_group_IT_number 119
_symmetry_cell_setting 'tetragonal'
loop_
_space_group_symop_operation_xyz
x,y,z
y,-x,-z
-x,-y,z
-y,x,-z
y,x,-z
-y,-x,-z
-x,y,z
x,-y,z
1/2+x,1/2+y,1/2+z
1/2+y,1/2-x,1/2-z
1/2-x,1/2-y,1/2+z
1/2-y,1/2+x,1/2-z
1/2+y,1/2+x,1/2-z
1/2-y,1/2-x,1/2-z
1/2-x,1/2+y,1/2+z
1/2+x,1/2-y,1/2+z
loop_
_atom_site_type_symbol
_atom_site_label
_atom_site_fract_x
_atom_site_fract_y
_atom_site_fract_z
Si Si1 0.148014 0.441113 0.209259
Si Si2 0.058886 0.351990 0.709254
Si Si3 0.589862 0.733510 0.784801
Si Si4 0.706605 0.293398 0.207110
Si Si5 0.089868 0.766481 0.715208
Si Si6 0.441563 0.349934 0.500000
O O1 0.130333 0.500000 0.286417
O O2 0.103583 0.396418 0.250000
O O3 0.207103 0.426883 0.284816
O O4 0.154736 0.445133 0.000002
O O5 0.103582 0.396419 0.750000
O O6 0.073110 0.292902 0.784824
O O7 0.000000 0.369676 0.786406
O O8 0.650577 0.726626 0.713339
O O9 0.558225 0.687152 0.679192
O O10 0.581723 0.726415 0.000007
O O11 0.750023 0.250023 0.250000
O O12 0.650590 0.273340 0.286641
O O13 0.697810 0.302191 0.000000
O O14 0.058241 0.812844 0.820823
O O15 0.394293 0.394293 0.500000
O O16 0.500000 0.379172 0.499974
#
# Coordination Sequence:
#
# PCOD8310885 Si02
#       6
#    16  16  16  16  16  16
#     4  10  22  39  59  85 120 164 213 265 315 367
#     4  10  22  39  59  85 120 164 213 265 315 367
#     4  10  22  42  63  93 128 163 209 257 313 378
#     4  10  20  32  58  92 128 167 195 247 315 371
#     4  10  22  42  63  93 128 163 209 257 313 378
#     4  12  26  43  70  98 125 167 209 255 317 380
#
# _framework density 20.897741
#
# number of rings (size 3 to 8) (size 9 to 14) (size 15 to 20)
#    0.000    1.667    1.667    2.000    4.667    3.167 
#    0.000    1.667    0.000    0.000    0.000    2.333 
#    0.000    0.000    0.000    0.000    0.000    0.000 
#
# Total GULP energy -594744.910853 kJ/mol
# GULP energy per Si atom -12390.518976 kJ/mol
# Density = 2.085018 g / cm^3
# Si number density = 20.897741 Si / 1000 Ang^3
#
#
#
# Elastic Constant Matrix: (Units=GPa)
#
#
# Indices 1 2 3 4 5 6 
#
# 1 164.1382 81.1609 28.4629 0.0000 0.0000 0.0000
# 2 81.1609 164.1485 28.4559 0.0000 0.0000 0.0000
# 3 28.4629 28.4559 64.6173 0.0000 0.0000 0.0000
# 4 0.0000 0.0000 0.0000 9.1736 0.0000 0.0000
# 5 0.0000 0.0000 0.0000 0.0000 9.1716 0.0000
# 6 0.0000 0.0000 0.0000 0.0000 0.0000 17.6079
#
#
#
# Elastic Compliance Matrix: (Units=1/GPa)
#
#
# Indices 1 2 3 4 5 6 
#
# 1 0.008296 -0.003755 -0.002001 0.000000 0.000000 0.000000
# 2 -0.003755 0.008295 -0.001999 0.000000 0.000000 0.000000
# 3 -0.002001 -0.001999 0.017237 0.000000 0.000000 0.000000
# 4 0.000000 0.000000 0.000000 0.109008 0.000000 0.000000
# 5 0.000000 0.000000 0.000000 0.000000 0.109032 0.000000
# 6 0.000000 0.000000 0.000000 0.000000 0.000000 0.056793
#
#
# Mechanical properties :
#
#
# Convention : Reuss Voigt Hill
#
# Bulk Modulus (GPa) = 54.58745 74.34036 64.46391
# Shear Modulus (GPa) = 15.13878 24.17890 19.65884
#
# Velocity S-wave (km/s) = 2.69443 3.40518 3.07044
# Velocity P-wave (km/s) = 5.98814 7.14919 6.59427
#
# Compressibility (1/GPa) = 0.01831923
#
# Stress axis : x y z
#
# Youngs Moduli (GPa) = 120.53828 120.55137 58.01372
#
# Poissons Ratio (x) = 0.45268 0.11607
# Poissons Ratio (y) = 0.45263 0.11597
# Poissons Ratio (z) = 0.24116 0.24098
#
# Static dielectric constant tensor:
#      x y z
#    x 3.244850 0.000000 0.000000 
#    y 0.000000 3.244860 0.000000 
#    z 0.000000 0.000000 0.070300 
# 
# 
# High freq. dielectric constant tensor:
#      x y z
#    x 1.821480 0.000000 0.000000 
#    y 0.000000 1.821480 0.000000 
#    z 0.000000 0.000000 1.817200 
# 
# From -- ./inp_files/2724.got.cif
#   From: 2010.03.12/outbox.cif.g09.slc.cpg/sg119_2_cif.got.tgz:2724.got - 2010.04.14 02:25:26.
