data_PCOD8310037
_publ_section_title
;
Structure prediction by ZEFSAII (Michael W. Deem and Ramdas Pophale) SiO2 
 PCOD8310037
Probable space group: P -4 M 2
;
_chemical_formula_sum "Si O2"
_cell_formula_units_Z 40
_cell_length_a 9.503020
_cell_length_b 9.503020
_cell_length_c 25.877272
_cell_angle_alpha 90.000000
_cell_angle_beta 90.000000
_cell_angle_gamma 90.000000
_cell_volume 2336.908872
_symmetry_space_group_name_H-M "P -4 M 2"
_symmetry_group_IT_number 115
_symmetry_cell_setting 'tetragonal'
loop_
_space_group_symop_operation_xyz
x,y,z
y,-x,-z
-x,-y,z
-y,x,-z
y,x,-z
-y,-x,-z
-x,y,z
x,-y,z
loop_
_atom_site_type_symbol
_atom_site_label
_atom_site_fract_x
_atom_site_fract_y
_atom_site_fract_z
Si Si1 0.162904 0.163830 0.751325
Si Si2 0.832495 0.157092 0.057064
Si Si3 0.836602 0.337095 0.651844
Si Si4 0.341263 0.832497 0.849150
Si Si5 0.332389 0.343339 0.443619
O O1 0.213304 0.249853 0.701458
O O2 0.256144 0.218618 0.798960
O O3 0.000000 0.193575 0.764609
O O4 0.188634 0.000000 0.740127
O O5 0.771580 0.263707 0.099940
O O6 0.000000 0.150520 0.059955
O O7 0.772311 0.000000 0.067473
O O8 0.788180 0.211821 0.000000
O O9 0.800134 0.500000 0.661844
O O10 0.756527 0.276018 0.601826
O O11 0.000000 0.314118 0.641001
O O12 0.500000 0.772790 0.847151
O O13 0.342396 0.000000 0.851262
O O14 0.284459 0.284459 0.500000
O O15 0.500000 0.347521 0.443732
O O16 0.272067 0.500000 0.433949
#
# Coordination Sequence:
#
# PCOD8310037 Si02
#       5
#     8   8   8   8   8
#     4   9  17  29  44  61  84 114 142 168 205 252
#     4   8  13  22  38  59  80 104 137 172 203 242
#     4   9  17  29  45  64  85 109 139 175 210 243
#     4   9  16  25  39  61  87 111 137 173 212 245
#     4   8  14  26  44  63  82 107 139 171 204 246
#
# _framework density 17.116630000000001
#
# number of rings (size 3 to 8) (size 9 to 14) (size 15 to 20)
#    0.000    3.400    0.000    1.800    0.000    3.200 
#    0.000    1.000    0.000    2.400    0.000    5.600 
#    0.000    0.000    0.000    0.000    0.000    0.000 
#
# Total GULP energy -495808.652635 kJ/mol
# GULP energy per Si atom -12395.216316 kJ/mol
# Density = 1.707767 g / cm^3
# Si number density = 17.116630 Si / 1000 Ang^3
#
#
#
# Elastic Constant Matrix: (Units=GPa)
#
#
# Indices 1 2 3 4 5 6 
#
# 1 55.6207 24.9105 65.6176 0.0000 0.0000 0.0000
# 2 24.9105 55.6206 65.6175 0.0000 0.0000 0.0000
# 3 65.6176 65.6175 196.9304 0.0000 0.0000 0.0000
# 4 0.0000 0.0000 0.0000 16.8612 0.0000 0.0000
# 5 0.0000 0.0000 0.0000 0.0000 16.8612 0.0000
# 6 0.0000 0.0000 0.0000 0.0000 0.0000 10.3934
#
#
#
# Elastic Compliance Matrix: (Units=1/GPa)
#
#
# Indices 1 2 3 4 5 6 
#
# 1 0.029867 -0.002696 -0.009054 0.000000 0.000000 0.000000
# 2 -0.002696 0.029867 -0.009054 0.000000 0.000000 0.000000
# 3 -0.009054 -0.009054 0.011111 0.000000 0.000000 0.000000
# 4 0.000000 0.000000 0.000000 0.059308 0.000000 0.000000
# 5 0.000000 0.000000 0.000000 0.000000 0.059308 0.000000
# 6 0.000000 0.000000 0.000000 0.000000 0.000000 0.096215
#
#
# Mechanical properties :
#
#
# Convention : Reuss Voigt Hill
#
# Bulk Modulus (GPa) = 34.19994 68.94031 51.57013
# Shear Modulus (GPa) = 14.83557 18.95822 16.89689
#
# Velocity S-wave (km/s) = 2.94723 3.33166 3.14532
# Velocity P-wave (km/s) = 5.62187 7.42726 6.58671
#
# Compressibility (1/GPa) = 0.02923982
#
# Stress axis : x y z
#
# Youngs Moduli (GPa) = 33.48189 33.48176 89.99886
#
# Poissons Ratio (x) = 0.09025 0.81481
# Poissons Ratio (y) = 0.09025 0.81481
# Poissons Ratio (z) = 0.30313 0.30313
#
# Static dielectric constant tensor:
#      x y z
#    x 2.989480 0.000000 0.000000 
#    y 0.000000 2.989480 0.000000 
#    z 0.000000 0.000000 3.559290 
# 
# 
# High freq. dielectric constant tensor:
#      x y z
#    x 1.623960 0.000000 0.000000 
#    y 0.000000 1.623960 0.000000 
#    z 0.000000 0.000000 1.677140 
# 
# From -- ./inp_files/5432.got.cif
#   From: 2010.03.12/outbox.cif.g09.slc.cpg/sg115_3_cif.got.tgz:5432.got - 2010.04.14 02:11:21.
