data_PCOD8310000
_publ_section_title
;
Structure prediction by ZEFSAII (Michael W. Deem and Ramdas Pophale) SiO2 
 PCOD8310000
Probable space group: P -4 M 2
;
_chemical_formula_sum "Si O2"
_cell_formula_units_Z 40
_cell_length_a 8.122076
_cell_length_b 8.122076
_cell_length_c 28.323735
_cell_angle_alpha 90.000000
_cell_angle_beta 90.000000
_cell_angle_gamma 90.000000
_cell_volume 1868.463508
_symmetry_space_group_name_H-M "P -4 M 2"
_symmetry_group_IT_number 115
_symmetry_cell_setting 'tetragonal'
loop_
_space_group_symop_operation_xyz
x,y,z
y,-x,-z
-x,-y,z
-y,x,-z
y,x,-z
-y,-x,-z
-x,y,z
x,-y,z
loop_
_atom_site_type_symbol
_atom_site_label
_atom_site_fract_x
_atom_site_fract_y
_atom_site_fract_z
Si Si1 0.689130 0.810401 0.548750
Si Si2 0.184534 0.000000 0.801347
Si Si3 0.185036 0.195216 0.052093
Si Si4 0.313855 0.191169 0.355805
Si Si5 0.678369 0.309370 0.146983
Si Si6 0.313577 0.000000 0.699810
O O1 0.782962 0.782962 0.500000
O O2 0.500000 0.757487 0.543118
O O3 0.773861 0.699106 0.588542
O O4 0.705693 0.000000 0.563913
O O5 0.255337 0.168991 0.821416
O O6 0.196454 0.000000 0.745009
O O7 0.000000 0.000000 0.818513
O O8 0.300382 0.271117 0.091776
O O9 0.000000 0.261000 0.060663
O O10 0.187061 0.000000 0.055656
O O11 0.248515 0.248515 0.000000
O O12 0.500000 0.243616 0.339510
O O13 0.168519 0.288485 0.329410
O O14 0.286513 0.000000 0.345632
O O15 0.500000 0.231490 0.162639
O O16 0.664727 0.500000 0.154337
O O17 0.500000 0.000000 0.717918
#
# Coordination Sequence:
#
# PCOD8310000 Si02
#       6
#     8   4   8   8   8   4
#     4  11  23  38  59  91 130 176 224 271 327 390
#     4  12  26  46  72  96 126 168 218 274 328 387
#     4   9  18  34  58  89 126 170 216 262 319 386
#     4  11  24  43  68  98 133 173 218 270 326 390
#     4  11  24  41  63  94 132 170 212 267 329 393
#     4  12  26  46  72 100 130 170 214 268 334 397
#
# _framework density 21.407965000000001
#
# number of rings (size 3 to 8) (size 9 to 14) (size 15 to 20)
#    0.000    1.200    2.000    4.800    0.000    8.400 
#    0.000    3.000    0.000    0.000    0.000    0.000 
#    0.000    0.000    0.000    0.000    0.000    0.000 
#
# Total GULP energy -495904.843235 kJ/mol
# GULP energy per Si atom -12397.621081 kJ/mol
# Density = 2.135924 g / cm^3
# Si number density = 21.407965 Si / 1000 Ang^3
#
#
#
# Elastic Constant Matrix: (Units=GPa)
#
#
# Indices 1 2 3 4 5 6 
#
# 1 108.9582 40.2220 32.9789 0.0000 0.0000 0.0000
# 2 40.2220 108.9582 32.9789 0.0000 0.0000 0.0000
# 3 32.9789 32.9789 108.5694 0.0000 0.0000 0.0000
# 4 0.0000 0.0000 0.0000 10.9551 0.0000 0.0000
# 5 0.0000 0.0000 0.0000 0.0000 10.9551 0.0000
# 6 0.0000 0.0000 0.0000 0.0000 0.0000 21.4067
#
#
#
# Elastic Compliance Matrix: (Units=1/GPa)
#
#
# Indices 1 2 3 4 5 6 
#
# 1 0.011146 -0.003403 -0.002352 0.000000 0.000000 0.000000
# 2 -0.003403 0.011146 -0.002352 0.000000 0.000000 0.000000
# 3 -0.002352 -0.002352 0.010640 0.000000 0.000000 0.000000
# 4 0.000000 0.000000 0.000000 0.091282 0.000000 0.000000
# 5 0.000000 0.000000 0.000000 0.000000 0.091282 0.000000
# 6 0.000000 0.000000 0.000000 0.000000 0.000000 0.046714
#
#
# Mechanical properties :
#
#
# Convention : Reuss Voigt Hill
#
# Bulk Modulus (GPa) = 59.81651 59.87173 59.84412
# Shear Modulus (GPa) = 17.60594 23.35044 20.47819
#
# Velocity S-wave (km/s) = 2.87087 3.30621 3.09620
# Velocity P-wave (km/s) = 6.24428 6.52706 6.38723
#
# Compressibility (1/GPa) = 0.01671779
#
# Stress axis : x y z
#
# Youngs Moduli (GPa) = 89.71983 89.71983 93.98820
#
# Poissons Ratio (x) = 0.30528 0.22107
# Poissons Ratio (y) = 0.30528 0.22107
# Poissons Ratio (z) = 0.21103 0.21103
#
# Static dielectric constant tensor:
#      x y z
#    x 4.047100 0.000000 0.000000 
#    y 0.000000 4.047100 0.000000 
#    z 0.000000 0.000000 4.003880 
# 
# 
# High freq. dielectric constant tensor:
#      x y z
#    x 1.845870 0.000000 0.000000 
#    y 0.000000 1.845870 0.000000 
#    z 0.000000 0.000000 1.836080 
# 
# From -- ./inp_files/5503.got.cif
#   From: 2010.03.12/outbox.cif.g09.slc.cpg/sg115_3_cif.got.tgz:5503.got - 2010.04.14 02:11:21.
