data_PCOD8310744
_publ_section_title
;
Structure prediction by ZEFSAII (Michael W. Deem and Ramdas Pophale) SiO2 
 PCOD8310744
Probable space group: I -4 M 2
;
_chemical_formula_sum "Si O2"
_cell_formula_units_Z 104
_cell_length_a 18.299689
_cell_length_b 18.299689
_cell_length_c 19.087393
_cell_angle_alpha 90.000000
_cell_angle_beta 90.000000
_cell_angle_gamma 90.000000
_cell_volume 6391.959779
_symmetry_space_group_name_H-M "I -4 M 2"
_symmetry_group_IT_number 119
_symmetry_cell_setting 'tetragonal'
loop_
_space_group_symop_operation_xyz
x,y,z
y,-x,-z
-x,-y,z
-y,x,-z
y,x,-z
-y,-x,-z
-x,y,z
x,-y,z
1/2+x,1/2+y,1/2+z
1/2+y,1/2-x,1/2-z
1/2-x,1/2-y,1/2+z
1/2-y,1/2+x,1/2-z
1/2+y,1/2+x,1/2-z
1/2-y,1/2-x,1/2-z
1/2-x,1/2+y,1/2+z
1/2+x,1/2-y,1/2+z
loop_
_atom_site_type_symbol
_atom_site_label
_atom_site_fract_x
_atom_site_fract_y
_atom_site_fract_z
Si Si1 0.152003 0.415971 0.182472
Si Si2 0.084900 0.189189 0.377756
Si Si3 0.179315 0.355606 0.917730
Si Si4 0.585447 0.814840 0.293447
Si Si5 0.418087 0.297196 0.179558
Si Si6 0.305566 0.694435 0.000000
Si Si7 0.914003 0.580975 0.459339
O O1 0.129708 0.500000 0.196988
O O2 0.132058 0.367943 0.250000
O O3 0.237570 0.409495 0.167272
O O4 0.110304 0.383055 0.114648
O O5 0.131980 0.130322 0.335115
O O6 0.119009 0.197583 0.455537
O O7 0.000000 0.165084 0.385737
O O8 0.124534 0.310801 0.868391
O O9 0.231058 0.412396 0.876391
O O10 0.234955 0.297691 0.951161
O O11 0.133623 0.396220 0.976765
O O12 0.500000 0.828771 0.303646
O O13 0.616700 0.883301 0.250000
O O14 0.601914 0.737952 0.254891
O O15 0.500000 0.326656 0.178643
O O16 0.881974 0.500000 0.473395
O O17 0.000000 0.578591 0.452217
#
# Coordination Sequence:
#
# PCOD8310744 Si02
#       7
#    16  16  16  16  16   8  16
#     4  10  20  34  51  71 100 133 167 207 249 296
#     4  10  21  35  52  74  98 131 171 211 254 299
#     4  10  18  31  49  72  98 132 167 199 242 294
#     4   9  18  32  50  73 102 131 162 198 240 289
#     4   9  19  34  51  71  98 132 166 207 253 295
#     4  10  20  32  50  71 100 132 162 207 254 290
#     4  10  19  30  47  71  99 133 168 203 247 293
#
# _framework density 16.270441000000002
#
# number of rings (size 3 to 8) (size 9 to 14) (size 15 to 20)
#    0.000    2.308    1.538    1.385    0.000    7.385 
#    0.000    0.000    0.000    0.000    0.000    0.000 
#    0.000    0.000    0.000    0.000    0.000    0.692 
#
# Total GULP energy -644592.705668 kJ/mol
# GULP energy per Si atom -12396.013571 kJ/mol
# Density = 1.623341 g / cm^3
# Si number density = 16.270441 Si / 1000 Ang^3
#
#
#
# Elastic Constant Matrix: (Units=GPa)
#
#
# Indices 1 2 3 4 5 6 
#
# 1 93.8138 50.0017 49.3925 0.0000 0.0000 0.0000
# 2 50.0017 93.8133 49.3932 0.0000 0.0000 0.0000
# 3 49.3925 49.3932 109.5137 0.0000 0.0000 0.0000
# 4 0.0000 0.0000 0.0000 25.9000 0.0000 0.0000
# 5 0.0000 0.0000 0.0000 0.0000 25.9000 0.0000
# 6 0.0000 0.0000 0.0000 0.0000 0.0000 22.2598
#
#
#
# Elastic Compliance Matrix: (Units=1/GPa)
#
#
# Indices 1 2 3 4 5 6 
#
# 1 0.016450 -0.006375 -0.004544 0.000000 0.000000 0.000000
# 2 -0.006375 0.016450 -0.004544 0.000000 0.000000 0.000000
# 3 -0.004544 -0.004544 0.013230 0.000000 0.000000 0.000000
# 4 0.000000 0.000000 0.000000 0.038610 0.000000 0.000000
# 5 0.000000 0.000000 0.000000 0.000000 0.038610 0.000000
# 6 0.000000 0.000000 0.000000 0.000000 0.000000 0.044924
#
#
# Mechanical properties :
#
#
# Convention : Reuss Voigt Hill
#
# Bulk Modulus (GPa) = 65.77326 66.07949 65.92637
# Shear Modulus (GPa) = 24.47780 24.70220 24.59000
#
# Velocity S-wave (km/s) = 3.88291 3.90067 3.89180
# Velocity P-wave (km/s) = 7.78559 7.80950 7.79756
#
# Compressibility (1/GPa) = 0.01520375
#
# Stress axis : x y z
#
# Youngs Moduli (GPa) = 60.79200 60.79101 75.58610
#
# Poissons Ratio (x) = 0.38756 0.34344
# Poissons Ratio (y) = 0.38756 0.34346
# Poissons Ratio (z) = 0.27622 0.27623
#
# Static dielectric constant tensor:
#      x y z
#    x 3.043340 0.000000 0.000000 
#    y 0.000000 3.043340 0.000000 
#    z 0.000000 0.000000 3.248390 
# 
# 
# High freq. dielectric constant tensor:
#      x y z
#    x 1.615440 0.000000 0.000000 
#    y 0.000000 1.615440 0.000000 
#    z 0.000000 0.000000 1.632940 
# 
# From -- ./inp_files/6732.got.cif
#   From: 2010.03.12/outbox.cif.g09.slc.cpg/sg119_4_cif.got.tgz:6732.got - 2010.04.14 02:25:26.
