data_PCOD8310464
_publ_section_title
;
Structure prediction by ZEFSAII (Michael W. Deem and Ramdas Pophale) SiO2 
 PCOD8310464
Probable space group: P -4 N 2
;
_chemical_formula_sum "Si O2"
_cell_formula_units_Z 38
_cell_length_a 16.873759
_cell_length_b 16.873759
_cell_length_c 6.776189
_cell_angle_alpha 90.000000
_cell_angle_beta 90.000000
_cell_angle_gamma 90.000000
_cell_volume 1929.341894
_symmetry_space_group_name_H-M "P -4 N 2"
_symmetry_group_IT_number 118
_symmetry_cell_setting 'tetragonal'
loop_
_space_group_symop_operation_xyz
x,y,z
y,-x,-z
-x,-y,z
-y,x,-z
1/2+y,1/2+x,1/2-z
1/2-y,1/2-x,1/2-z
1/2-x,1/2+y,1/2+z
1/2+x,1/2-y,1/2+z
loop_
_atom_site_type_symbol
_atom_site_label
_atom_site_fract_x
_atom_site_fract_y
_atom_site_fract_z
Si Si1 0.343690 0.620943 0.383869
Si Si2 0.012011 0.876602 0.456281
Si Si3 0.500000 0.000000 0.750000
Si Si4 0.820173 0.320173 0.250000
Si Si5 0.998942 0.214619 0.826164
Si Si6 0.555272 0.879227 0.448124
O O1 0.357565 0.540680 0.261117
O O2 0.274371 0.667853 0.266661
O O3 0.320398 0.584717 0.594619
O O4 0.421434 0.674217 0.411758
O O5 0.930102 0.922944 0.431656
O O6 0.000862 0.797835 0.589577
O O7 0.499834 0.075702 0.606031
O O8 0.857613 0.360507 0.447269
O O9 0.999749 0.306066 0.884726
O O10 0.571197 0.928804 0.250000
#
# Coordination Sequence:
#
# PCOD8310464 Si02
#       6
#     8   8   2   4   8   8
#     4  10  19  34  52  79 112 143 182 227 273 332
#     4   9  17  29  49  80 111 143 178 213 258 322
#     4  10  22  40  60  82 104 136 184 248 274 328
#     4   9  20  35  54  76 113 142 181 228 280 328
#     4  10  20  33  57  81 111 148 183 221 281 336
#     4  10  20  38  61  80 105 147 188 228 284 338
#
# _framework density 19.695836
#
# number of rings (size 3 to 8) (size 9 to 14) (size 15 to 20)
#    0.000    2.316    0.000    2.842    0.000    2.105 
#    3.789    0.000    9.263    0.000    0.000    0.000 
#    0.000    0.000    0.000    0.000    0.000    0.000 
#
# Total GULP energy -470890.260941 kJ/mol
# GULP energy per Si atom -12391.848972 kJ/mol
# Density = 1.965101 g / cm^3
# Si number density = 19.695836 Si / 1000 Ang^3
#
#
#
# Elastic Constant Matrix: (Units=GPa)
#
#
# Indices 1 2 3 4 5 6 
#
# 1 88.5092 45.4862 27.1585 0.0000 0.0000 0.0000
# 2 45.4862 88.5090 27.1588 0.0000 0.0000 0.0000
# 3 27.1585 27.1588 74.4708 0.0000 0.0000 0.0000
# 4 0.0000 0.0000 0.0000 24.0693 0.0000 0.0000
# 5 0.0000 0.0000 0.0000 0.0000 24.0695 0.0000
# 6 0.0000 0.0000 0.0000 0.0000 0.0000 22.5912
#
#
#
# Elastic Compliance Matrix: (Units=1/GPa)
#
#
# Indices 1 2 3 4 5 6 
#
# 1 0.016000 -0.007243 -0.003194 0.000000 0.000000 0.000000
# 2 -0.007243 0.016001 -0.003194 0.000000 0.000000 0.000000
# 3 -0.003194 -0.003194 0.015758 0.000000 0.000000 0.000000
# 4 0.000000 0.000000 0.000000 0.041547 0.000000 0.000000
# 5 0.000000 0.000000 0.000000 0.000000 0.041546 0.000000
# 6 0.000000 0.000000 0.000000 0.000000 0.000000 0.044265
#
#
# Mechanical properties :
#
#
# Convention : Reuss Voigt Hill
#
# Bulk Modulus (GPa) = 48.78622 50.12177 49.45399
# Shear Modulus (GPa) = 23.89938 24.25835 24.07886
#
# Velocity S-wave (km/s) = 3.48720 3.51329 3.50027
# Velocity P-wave (km/s) = 6.40607 6.47771 6.44199
#
# Compressibility (1/GPa) = 0.02049759
#
# Stress axis : x y z
#
# Youngs Moduli (GPa) = 62.49814 62.49775 63.46154
#
# Poissons Ratio (x) = 0.45267 0.20268
# Poissons Ratio (y) = 0.45267 0.20269
# Poissons Ratio (z) = 0.19960 0.19961
#
# Static dielectric constant tensor:
#      x y z
#    x 3.466650 0.000000 0.000000 
#    y 0.000000 3.466650 0.000000 
#    z 0.000000 0.000000 3.623060 
# 
# 
# High freq. dielectric constant tensor:
#      x y z
#    x 1.755230 0.000000 0.000000 
#    y 0.000000 1.755230 0.000000 
#    z 0.000000 0.000000 1.772830 
# 
# From -- ./inp_files/639.got.cif
#   From: 2010.03.12/outbox.cif.g09.slc.cpg/sg118_1_cif.got.tgz:639.got - 2010.04.14 02:21:17.
