data_PCOD8310939
_publ_section_title
;
Structure prediction by ZEFSAII (Michael W. Deem and Ramdas Pophale) SiO2 
 PCOD8310939
Probable space group: I -4 M 2
;
_chemical_formula_sum "Si O2"
_cell_formula_units_Z 112
_cell_length_a 13.860662
_cell_length_b 13.860662
_cell_length_c 26.879560
_cell_angle_alpha 90.000000
_cell_angle_beta 90.000000
_cell_angle_gamma 90.000000
_cell_volume 5164.045993
_symmetry_space_group_name_H-M "I -4 M 2"
_symmetry_group_IT_number 119
_symmetry_cell_setting 'tetragonal'
loop_
_space_group_symop_operation_xyz
x,y,z
y,-x,-z
-x,-y,z
-y,x,-z
y,x,-z
-y,-x,-z
-x,y,z
x,-y,z
1/2+x,1/2+y,1/2+z
1/2+y,1/2-x,1/2-z
1/2-x,1/2-y,1/2+z
1/2-y,1/2+x,1/2-z
1/2+y,1/2+x,1/2-z
1/2-y,1/2-x,1/2-z
1/2-x,1/2+y,1/2+z
1/2+x,1/2-y,1/2+z
loop_
_atom_site_type_symbol
_atom_site_label
_atom_site_fract_x
_atom_site_fract_y
_atom_site_fract_z
Si Si1 0.886684 0.606200 0.803263
Si Si2 0.295678 0.607116 0.144081
Si Si3 0.602900 0.889201 0.597831
Si Si4 0.613926 0.891315 0.489655
Si Si5 0.390145 0.729632 0.746684
Si Si6 0.886940 0.112173 0.851192
Si Si7 0.789303 0.303989 0.603805
O O1 0.841901 0.500000 0.813439
O O2 0.848853 0.651148 0.750000
O O3 0.865961 0.672762 0.850003
O O4 0.000000 0.596926 0.796432
O O5 0.324928 0.500000 0.123454
O O6 0.178739 0.621420 0.142397
O O7 0.328783 0.619428 0.200899
O O8 0.331939 0.694725 0.109650
O O9 0.500000 0.841694 0.613979
O O10 0.641830 0.848783 0.544410
O O11 0.583492 0.000000 0.584990
O O12 0.500000 0.888853 0.482505
O O13 0.660817 0.821471 0.449496
O O14 0.653099 0.000000 0.481059
O O15 0.500000 0.767334 0.740999
O O16 0.321212 0.821212 0.750000
O O17 0.364066 0.653552 0.703832
O O18 0.820748 0.172947 0.890764
O O19 0.000000 0.141807 0.853365
O O20 0.874630 0.000000 0.864771
#
# Coordination Sequence:
#
# PCOD8310939 Si02
#       7
#    16  16  16  16  16  16  16
#     4   9  19  34  52  79 111 139 173 223 281 337
#     4  10  22  36  52  75 108 147 192 237 278 326
#     4   8  16  34  58  82 111 143 176 225 291 349
#     4   9  18  34  58  90 119 139 171 226 289 347
#     4  10  20  37  56  79 110 142 187 241 284 329
#     4  10  22  38  54  76 112 158 196 224 269 335
#     4  12  21  32  57  81 110 147 189 227 278 325
#
# _framework density 21.688419
#
# number of rings (size 3 to 8) (size 9 to 14) (size 15 to 20)
#    0.000    2.286    1.429    3.000    2.000    3.000 
#    0.000    2.143    0.000    2.571    0.000    1.000 
#    0.000   14.857    0.000    0.000    0.000    0.000 
#
# Total GULP energy -693805.649647 kJ/mol
# GULP energy per Si atom -12389.386601 kJ/mol
# Density = 2.163906 g / cm^3
# Si number density = 21.688419 Si / 1000 Ang^3
#
#
#
# Elastic Constant Matrix: (Units=GPa)
#
#
# Indices 1 2 3 4 5 6 
#
# 1 63.3453 1.8806 13.8160 0.0000 0.0000 0.0000
# 2 1.8806 63.3454 13.8161 0.0000 0.0000 0.0000
# 3 13.8160 13.8161 75.0448 0.0000 0.0000 0.0000
# 4 0.0000 0.0000 0.0000 23.9988 0.0000 0.0000
# 5 0.0000 0.0000 0.0000 0.0000 23.9988 0.0000
# 6 0.0000 0.0000 0.0000 0.0000 0.0000 22.4673
#
#
#
# Elastic Compliance Matrix: (Units=1/GPa)
#
#
# Indices 1 2 3 4 5 6 
#
# 1 0.016449 0.000179 -0.003061 0.000000 0.000000 0.000000
# 2 0.000179 0.016449 -0.003061 0.000000 0.000000 0.000000
# 3 -0.003061 -0.003061 0.014453 0.000000 0.000000 0.000000
# 4 0.000000 0.000000 0.000000 0.041669 0.000000 0.000000
# 5 0.000000 0.000000 0.000000 0.000000 0.041669 0.000000
# 6 0.000000 0.000000 0.000000 0.000000 0.000000 0.044509
#
#
# Mechanical properties :
#
#
# Convention : Reuss Voigt Hill
#
# Bulk Modulus (GPa) = 28.19782 28.97342 28.58562
# Shear Modulus (GPa) = 25.13768 25.57451 25.35609
#
# Velocity S-wave (km/s) = 3.40816 3.43764 3.42293
# Velocity P-wave (km/s) = 5.34012 5.39856 5.36942
#
# Compressibility (1/GPa) = 0.03546373
#
# Stress axis : x y z
#
# Youngs Moduli (GPa) = 60.79448 60.79454 69.19180
#
# Poissons Ratio (x) = -0.01090 0.21182
# Poissons Ratio (y) = -0.01090 0.21182
# Poissons Ratio (z) = 0.18611 0.18611
#
# Static dielectric constant tensor:
#      x y z
#    x 3.936850 0.000000 0.000000 
#    y 0.000000 3.936850 0.000000 
#    z 0.000000 0.000000 3.873790 
# 
# 
# High freq. dielectric constant tensor:
#      x y z
#    x 1.842790 0.000000 0.000000 
#    y 0.000000 1.842790 0.000000 
#    z 0.000000 0.000000 1.844260 
# 
# From -- ./inp_files/9597.got.cif
#   From: 2010.03.12/outbox.cif.g09.slc.cpg/sg119_5_cif.got.tgz:9597.got - 2010.04.14 02:25:26.
