data_PCOD8310470
_publ_section_title
;
Structure prediction by ZEFSAII (Michael W. Deem and Ramdas Pophale) SiO2 
 PCOD8310470
Probable space group: P -4 N 2
;
_chemical_formula_sum "Si O2"
_cell_formula_units_Z 44
_cell_length_a 14.044788
_cell_length_b 14.044788
_cell_length_c 10.884145
_cell_angle_alpha 90.000000
_cell_angle_beta 90.000000
_cell_angle_gamma 90.000000
_cell_volume 2146.963668
_symmetry_space_group_name_H-M "P -4 N 2"
_symmetry_group_IT_number 118
_symmetry_cell_setting 'tetragonal'
loop_
_space_group_symop_operation_xyz
x,y,z
y,-x,-z
-x,-y,z
-y,x,-z
1/2+y,1/2+x,1/2-z
1/2-y,1/2-x,1/2-z
1/2-x,1/2+y,1/2+z
1/2+x,1/2-y,1/2+z
loop_
_atom_site_type_symbol
_atom_site_label
_atom_site_fract_x
_atom_site_fract_y
_atom_site_fract_z
Si Si1 0.855676 0.801780 0.218963
Si Si2 0.596362 0.811709 0.361718
Si Si3 0.748541 0.373242 0.047295
Si Si4 0.344071 0.946995 0.940441
Si Si5 0.420725 0.739276 0.972859
Si Si6 0.896116 0.396116 0.250000
O O1 0.776692 0.723309 0.250000
O O2 0.798873 0.898542 0.183178
O O3 0.922455 0.761747 0.109668
O O4 0.914528 0.817321 0.343288
O O5 0.613885 0.886116 0.250000
O O6 0.679824 0.815513 0.462086
O O7 0.496058 0.834340 0.425998
O O8 0.722227 0.472494 0.978709
O O9 0.796031 0.398269 0.177565
O O10 0.655348 0.307023 0.066805
O O11 0.407319 0.852933 0.957141
O O12 0.399278 0.014525 0.843279
#
# Coordination Sequence:
#
# PCOD8310470 Si02
#       6
#     8   8   8   8   8   4
#     4   9  16  37  62  80 112 165 195 232 296 364
#     4  10  19  37  62  88 122 159 190 239 309 369
#     4  11  22  38  60  88 121 156 200 250 297 361
#     4  10  20  36  63  92 119 150 202 254 299 352
#     4  11  22  40  62  86 118 164 204 245 303 359
#     4  10  22  35  62 102 116 139 210 268 290 349
#
# _framework density 20.494060000000001
#
# number of rings (size 3 to 8) (size 9 to 14) (size 15 to 20)
#    0.000    1.818    7.273    0.000    0.000    4.000 
#    3.273    0.909    0.000    0.545    0.000    0.000 
#    0.000    0.000    0.000    0.000    0.000    0.000 
#
# Total GULP energy -545398.022570 kJ/mol
# GULP energy per Si atom -12395.409604 kJ/mol
# Density = 2.044741 g / cm^3
# Si number density = 20.494060 Si / 1000 Ang^3
#
#
#
# Elastic Constant Matrix: (Units=GPa)
#
#
# Indices 1 2 3 4 5 6 
#
# 1 81.5124 56.3380 28.3584 0.0000 0.0000 0.0000
# 2 56.3380 81.5130 28.3589 0.0000 0.0000 0.0000
# 3 28.3584 28.3589 75.9834 0.0000 0.0000 0.0000
# 4 0.0000 0.0000 0.0000 25.5233 0.0000 0.0000
# 5 0.0000 0.0000 0.0000 0.0000 25.5234 0.0000
# 6 0.0000 0.0000 0.0000 0.0000 0.0000 16.6940
#
#
#
# Elastic Compliance Matrix: (Units=1/GPa)
#
#
# Indices 1 2 3 4 5 6 
#
# 1 0.024146 -0.015576 -0.003198 0.000000 0.000000 0.000000
# 2 -0.015576 0.024146 -0.003199 0.000000 0.000000 0.000000
# 3 -0.003198 -0.003199 0.015548 0.000000 0.000000 0.000000
# 4 0.000000 0.000000 0.000000 0.039180 0.000000 0.000000
# 5 0.000000 0.000000 0.000000 0.000000 0.039180 0.000000
# 6 0.000000 0.000000 0.000000 0.000000 0.000000 0.059902
#
#
# Mechanical properties :
#
#
# Convention : Reuss Voigt Hill
#
# Bulk Modulus (GPa) = 50.26528 51.67992 50.97260
# Shear Modulus (GPa) = 19.78783 21.94504 20.86643
#
# Velocity S-wave (km/s) = 3.11068 3.27586 3.19434
# Velocity P-wave (km/s) = 6.12224 6.29127 6.20733
#
# Compressibility (1/GPa) = 0.01989445
#
# Stress axis : x y z
#
# Youngs Moduli (GPa) = 41.41412 41.41422 64.31550
#
# Poissons Ratio (x) = 0.64507 0.20571
# Poissons Ratio (y) = 0.64507 0.20573
# Poissons Ratio (z) = 0.13246 0.13247
#
# Static dielectric constant tensor:
#      x y z
#    x 3.766780 0.000000 0.000000 
#    y 0.000000 3.766780 0.000000 
#    z 0.000000 0.000000 4.015420 
# 
# 
# High freq. dielectric constant tensor:
#      x y z
#    x 1.783390 0.000000 0.000000 
#    y 0.000000 1.783390 0.000000 
#    z 0.000000 0.000000 1.792010 
# 
# From -- ./inp_files/3256.got.cif
#   From: 2010.03.12/outbox.cif.g09.slc.cpg/sg118_2_cif.got.tgz:3256.got - 2010.04.14 02:21:17.
