data_PCOD8310768
_publ_section_title
;
Structure prediction by ZEFSAII (Michael W. Deem and Ramdas Pophale) SiO2 
 PCOD8310768
Probable space group: I -4 M 2
;
_chemical_formula_sum "Si O2"
_cell_formula_units_Z 80
_cell_length_a 18.069978
_cell_length_b 18.069978
_cell_length_c 13.220642
_cell_angle_alpha 90.000000
_cell_angle_beta 90.000000
_cell_angle_gamma 90.000000
_cell_volume 4316.858296
_symmetry_space_group_name_H-M "I -4 M 2"
_symmetry_group_IT_number 119
_symmetry_cell_setting 'tetragonal'
loop_
_space_group_symop_operation_xyz
x,y,z
y,-x,-z
-x,-y,z
-y,x,-z
y,x,-z
-y,-x,-z
-x,y,z
x,-y,z
1/2+x,1/2+y,1/2+z
1/2+y,1/2-x,1/2-z
1/2-x,1/2-y,1/2+z
1/2-y,1/2+x,1/2-z
1/2+y,1/2+x,1/2-z
1/2-y,1/2-x,1/2-z
1/2-x,1/2+y,1/2+z
1/2+x,1/2-y,1/2+z
loop_
_atom_site_type_symbol
_atom_site_label
_atom_site_fract_x
_atom_site_fract_y
_atom_site_fract_z
Si Si1 0.345676 0.720199 0.636473
Si Si2 0.214595 0.169048 0.639181
Si Si3 0.919396 0.773850 0.939115
Si Si4 0.742466 0.083806 0.444386
Si Si5 0.582609 0.115682 0.364290
O O1 0.268440 0.761832 0.624628
O O2 0.372113 0.723624 0.752712
O O3 0.335301 0.635713 0.602460
O O4 0.403408 0.753526 0.555388
O O5 0.133997 0.207615 0.630481
O O6 0.235126 0.107307 0.557696
O O7 0.914871 0.704063 0.864794
O O8 0.000000 0.810283 0.936315
O O9 0.653087 0.086886 0.428818
O O10 0.768456 0.000000 0.427297
O O11 0.500000 0.089969 0.405144
O O12 0.588595 0.088595 0.250000
#
# Coordination Sequence:
#
# PCOD8310768 Si02
#       5
#    16  16  16  16  16
#     4  10  18  35  58  74 105 140 177 230 263 308
#     4  10  20  36  55  78 103 139 186 222 267 307
#     4  10  19  32  54  82 107 138 177 218 267 315
#     4  11  21  35  54  79 110 142 179 221 264 315
#     4  11  21  33  49  77 115 148 176 208 255 316
#
# _framework density 18.531997
#
# number of rings (size 3 to 8) (size 9 to 14) (size 15 to 20)
#    0.000    1.600    4.000    3.000    0.000    4.600 
#    0.000    0.000    0.000    9.600    0.000   11.200 
#    0.000    0.000    0.000    0.000    0.000    0.000 
#
# Total GULP energy -495620.652054 kJ/mol
# GULP energy per Si atom -12390.516301 kJ/mol
# Density = 1.848982 g / cm^3
# Si number density = 18.531997 Si / 1000 Ang^3
#
#
#
# Elastic Constant Matrix: (Units=GPa)
#
#
# Indices 1 2 3 4 5 6 
#
# 1 78.2375 23.2850 5.5851 0.0000 0.0000 0.0000
# 2 23.2850 78.2375 5.5851 0.0000 0.0000 0.0000
# 3 5.5851 5.5851 53.9998 0.0000 0.0000 0.0000
# 4 0.0000 0.0000 0.0000 14.2854 0.0000 0.0000
# 5 0.0000 0.0000 0.0000 0.0000 14.2854 0.0000
# 6 0.0000 0.0000 0.0000 0.0000 0.0000 12.7491
#
#
#
# Elastic Compliance Matrix: (Units=1/GPa)
#
#
# Indices 1 2 3 4 5 6 
#
# 1 0.014080 -0.004117 -0.001030 0.000000 0.000000 0.000000
# 2 -0.004117 0.014080 -0.001030 0.000000 0.000000 0.000000
# 3 -0.001030 -0.001030 0.018732 0.000000 0.000000 0.000000
# 4 0.000000 0.000000 0.000000 0.070002 0.000000 0.000000
# 5 0.000000 0.000000 0.000000 0.000000 0.070002 0.000000
# 6 0.000000 0.000000 0.000000 0.000000 0.000000 0.078437
#
#
# Mechanical properties :
#
#
# Convention : Reuss Voigt Hill
#
# Bulk Modulus (GPa) = 28.95480 31.04280 29.99880
# Shear Modulus (GPa) = 17.28898 19.99861 18.64379
#
# Velocity S-wave (km/s) = 3.05770 3.28859 3.17524
# Velocity P-wave (km/s) = 5.30322 5.58633 5.44661
#
# Compressibility (1/GPa) = 0.03453659
#
# Stress axis : x y z
#
# Youngs Moduli (GPa) = 71.02037 71.02037 53.38529
#
# Poissons Ratio (x) = 0.29239 0.05501
# Poissons Ratio (y) = 0.29239 0.05501
# Poissons Ratio (z) = 0.07319 0.07319
#
# Static dielectric constant tensor:
#      x y z
#    x 3.353180 0.000000 0.000000 
#    y 0.000000 3.353180 0.000000 
#    z 0.000000 0.000000 3.704700 
# 
# 
# High freq. dielectric constant tensor:
#      x y z
#    x 1.702100 0.000000 0.000000 
#    y 0.000000 1.702100 0.000000 
#    z 0.000000 0.000000 1.723580 
# 
# From -- ./inp_files/5260.got.cif
#   From: 2010.03.12/outbox.cif.g09.slc.cpg/sg119_3_cif.got.tgz:5260.got - 2010.04.14 02:25:26.
