data_PCOD8310358
_publ_section_title
;
Structure prediction by ZEFSAII (Michael W. Deem and Ramdas Pophale) SiO2 
 PCOD8310358
Probable space group: P -4 B 2
;
_chemical_formula_sum "Si O2"
_cell_formula_units_Z 40
_cell_length_a 14.501225
_cell_length_b 14.501225
_cell_length_c 8.715080
_cell_angle_alpha 90.000000
_cell_angle_beta 90.000000
_cell_angle_gamma 90.000000
_cell_volume 1832.655186
_symmetry_space_group_name_H-M "P -4 B 2"
_symmetry_group_IT_number 117
_symmetry_cell_setting 'tetragonal'
loop_
_space_group_symop_operation_xyz
x,y,z
y,-x,-z
-x,-y,z
-y,x,-z
1/2+y,1/2+x,-z
1/2-y,1/2-x,-z
1/2-x,1/2+y,z
1/2+x,1/2-y,z
loop_
_atom_site_type_symbol
_atom_site_label
_atom_site_fract_x
_atom_site_fract_y
_atom_site_fract_z
Si Si1 0.964531 0.675271 0.426453
Si Si2 0.179228 0.793150 0.227719
Si Si3 0.333305 0.833305 0.000000
Si Si4 0.340000 0.160001 0.500000
Si Si5 0.368841 0.438086 0.470050
Si Si6 0.465063 0.166960 0.094160
O O1 0.887155 0.612846 0.500000
O O2 0.926304 0.779941 0.419173
O O3 0.052565 0.676944 0.539315
O O4 0.001135 0.635568 0.264105
O O5 0.194533 0.715495 0.354094
O O6 0.147280 0.889158 0.305181
O O7 0.100770 0.757152 0.108276
O O8 0.278798 0.800520 0.149964
O O9 0.308902 0.941294 0.993791
O O10 0.390149 0.546019 0.441267
O O11 0.414245 0.085756 0.000000
#
# Coordination Sequence:
#
# PCOD8310358 Si02
#       6
#     8   8   4   4   8   8
#     4  11  24  43  74 111 139 187 246 298 366 425
#     4  11  25  46  70 109 142 188 240 296 359 435
#     4  12  27  46  76  99 148 200 228 294 368 441
#     4  10  23  42  70 102 143 176 234 310 336 421
#     4  11  23  42  69 106 144 187 237 304 353 417
#     4  11  25  48  69 104 153 188 237 303 365 440
#
# _framework density 21.826255
#
# number of rings (size 3 to 8) (size 9 to 14) (size 15 to 20)
#    0.000    1.000    5.000    1.800    4.200    9.600 
#    3.600    0.000    2.200    0.000    0.000    0.000 
#    0.000    0.000    0.000    0.000    0.000    0.000 
#
# Total GULP energy -495840.522087 kJ/mol
# GULP energy per Si atom -12396.013052 kJ/mol
# Density = 2.177658 g / cm^3
# Si number density = 21.826255 Si / 1000 Ang^3
#
#
#
# Elastic Constant Matrix: (Units=GPa)
#
#
# Indices 1 2 3 4 5 6 
#
# 1 150.8457 83.2978 67.8211 0.0000 0.0000 0.0000
# 2 83.2978 150.8452 67.8203 0.0000 0.0000 0.0000
# 3 67.8211 67.8203 95.5228 0.0000 0.0000 0.0000
# 4 0.0000 0.0000 0.0000 33.1957 0.0000 0.0000
# 5 0.0000 0.0000 0.0000 0.0000 33.1967 0.0000
# 6 0.0000 0.0000 0.0000 0.0000 0.0000 34.7644
#
#
#
# Elastic Compliance Matrix: (Units=1/GPa)
#
#
# Indices 1 2 3 4 5 6 
#
# 1 0.011030 -0.003775 -0.005151 0.000000 0.000000 0.000000
# 2 -0.003775 0.011030 -0.005151 0.000000 0.000000 0.000000
# 3 -0.005151 -0.005151 0.017783 0.000000 0.000000 0.000000
# 4 0.000000 0.000000 0.000000 0.030124 0.000000 0.000000
# 5 0.000000 0.000000 0.000000 0.000000 0.030123 0.000000
# 6 0.000000 0.000000 0.000000 0.000000 0.000000 0.028765
#
#
# Mechanical properties :
#
#
# Convention : Reuss Voigt Hill
#
# Bulk Modulus (GPa) = 85.55039 92.78802 89.16921
# Shear Modulus (GPa) = 31.07431 32.11633 31.59532
#
# Velocity S-wave (km/s) = 3.77731 3.84011 3.80884
# Velocity P-wave (km/s) = 7.63579 7.89090 7.76439
#
# Compressibility (1/GPa) = 0.01168902
#
# Stress axis : x y z
#
# Youngs Moduli (GPa) = 90.66474 90.66526 56.23362
#
# Poissons Ratio (x) = 0.34224 0.28966
# Poissons Ratio (y) = 0.34224 0.28965
# Poissons Ratio (z) = 0.46701 0.46700
#
# Static dielectric constant tensor:
#      x y z
#    x 4.254620 0.000000 0.000000 
#    y 0.000000 4.254640 0.000000 
#    z 0.000000 0.000000 3.896770 
# 
# 
# High freq. dielectric constant tensor:
#      x y z
#    x 1.873280 0.000000 0.000000 
#    y 0.000000 1.873280 0.000000 
#    z 0.000000 0.000000 1.832580 
# 
# From -- ./inp_files/1756.got.cif
#   From: 2010.03.12/outbox.cif.g09.slc.cpg/sg117_1_cif.got.tgz:1756.got - 2010.04.14 02:19:01.
