data_PCOD8310162
_publ_section_title
;
Structure prediction by ZEFSAII (Michael W. Deem and Ramdas Pophale) SiO2 
 PCOD8310162
Probable space group: P -4 C 2
;
_chemical_formula_sum "Si O2"
_cell_formula_units_Z 56
_cell_length_a 15.358852
_cell_length_b 15.358852
_cell_length_c 11.892870
_cell_angle_alpha 90.000000
_cell_angle_beta 90.000000
_cell_angle_gamma 90.000000
_cell_volume 2805.460657
_symmetry_space_group_name_H-M "P -4 C 2"
_symmetry_group_IT_number 116
_symmetry_cell_setting 'tetragonal'
loop_
_space_group_symop_operation_xyz
x,y,z
y,-x,-z
-x,-y,z
-y,x,-z
y,x,1/2-z
-y,-x,1/2-z
-x,y,1/2+z
x,-y,1/2+z
loop_
_atom_site_type_symbol
_atom_site_label
_atom_site_fract_x
_atom_site_fract_y
_atom_site_fract_z
Si Si1 0.060421 0.248705 0.044706
Si Si2 0.126281 0.207812 0.503640
Si Si3 0.709064 0.604593 0.335886
Si Si4 0.590640 0.961249 0.617907
Si Si5 0.304611 0.888283 0.717534
Si Si6 0.272460 0.330208 0.577907
Si Si7 0.770481 0.581494 0.798059
O O1 0.110689 0.261955 0.160627
O O2 0.966397 0.205275 0.066937
O O3 0.118376 0.178741 0.975915
O O4 0.054095 0.341731 0.983129
O O5 0.106865 0.226759 0.372586
O O6 0.179224 0.287705 0.555314
O O7 0.633140 0.633140 0.250000
O O8 0.799044 0.643399 0.291664
O O9 0.686525 0.633790 0.462626
O O10 0.715839 0.500904 0.339417
O O11 0.569532 0.873367 0.685573
O O12 0.500000 0.000000 0.568556
O O13 0.630544 0.030161 0.705370
O O14 0.253707 0.406659 0.666923
O O15 0.336362 0.257933 0.627921
#
# Coordination Sequence:
#
# PCOD8310162 Si02
#       7
#     8   8   8   8   8   8   8
#     4  11  22  38  64  86 131 168 210 267 315 390
#     4  10  21  40  61  91 125 167 214 257 315 389
#     4  11  24  40  67  95 127 170 219 263 330 389
#     4  11  22  39  59 100 124 160 215 270 330 384
#     4  10  21  39  60  91 126 164 207 261 325 382
#     4  10  23  43  65  93 129 174 210 264 332 389
#     4  11  23  42  69  93 132 169 216 269 329 392
#
# _framework density 19.961072000000001
#
# number of rings (size 3 to 8) (size 9 to 14) (size 15 to 20)
#    0.000    1.429    2.857    3.000    2.000    0.857 
#    0.000    1.429    0.000    3.429    0.000    0.000 
#    0.000    0.000    0.000    0.000    0.000    0.000 
#
# Total GULP energy -694566.207062 kJ/mol
# GULP energy per Si atom -12402.967983 kJ/mol
# Density = 1.991564 g / cm^3
# Si number density = 19.961072 Si / 1000 Ang^3
#
#
#
# Elastic Constant Matrix: (Units=GPa)
#
#
# Indices 1 2 3 4 5 6 
#
# 1 91.9249 32.8815 24.5371 0.0000 0.0000 0.0000
# 2 32.8815 91.9249 24.5371 0.0000 0.0000 0.0000
# 3 24.5371 24.5371 104.0088 0.0000 0.0000 0.0000
# 4 0.0000 0.0000 0.0000 25.2577 0.0000 0.0000
# 5 0.0000 0.0000 0.0000 0.0000 25.2577 0.0000
# 6 0.0000 0.0000 0.0000 0.0000 0.0000 38.7583
#
#
#
# Elastic Compliance Matrix: (Units=1/GPa)
#
#
# Indices 1 2 3 4 5 6 
#
# 1 0.012884 -0.004053 -0.002084 0.000000 0.000000 0.000000
# 2 -0.004053 0.012884 -0.002084 0.000000 0.000000 0.000000
# 3 -0.002084 -0.002084 0.010598 0.000000 0.000000 0.000000
# 4 0.000000 0.000000 0.000000 0.039592 0.000000 0.000000
# 5 0.000000 0.000000 0.000000 0.000000 0.039592 0.000000
# 6 0.000000 0.000000 0.000000 0.000000 0.000000 0.025801
#
#
# Mechanical properties :
#
#
# Convention : Reuss Voigt Hill
#
# Bulk Modulus (GPa) = 50.18339 50.19664 50.19001
# Shear Modulus (GPa) = 30.40772 31.58162 30.99467
#
# Velocity S-wave (km/s) = 3.90725 3.98195 3.94478
# Velocity P-wave (km/s) = 6.74912 6.80758 6.77841
#
# Compressibility (1/GPa) = 0.01992691
#
# Stress axis : x y z
#
# Youngs Moduli (GPa) = 77.61460 77.61460 94.36074
#
# Poissons Ratio (x) = 0.31453 0.19660
# Poissons Ratio (y) = 0.31453 0.19660
# Poissons Ratio (z) = 0.16171 0.16171
#
# Static dielectric constant tensor:
#      x y z
#    x 3.653890 0.000000 0.000000 
#    y 0.000000 3.653890 0.000000 
#    z 0.000000 0.000000 3.553640 
# 
# 
# High freq. dielectric constant tensor:
#      x y z
#    x 1.779730 0.000000 0.000000 
#    y 0.000000 1.779730 0.000000 
#    z 0.000000 0.000000 1.773910 
# 
# From -- ./inp_files/2009.got.cif
#   From: 2010.03.12/outbox.cif.g09.slc.cpg/sg116_2_cif.got.tgz:2009.got - 2010.04.14 02:15:44.
