data_PCOD8310754
_publ_section_title
;
Structure prediction by ZEFSAII (Michael W. Deem and Ramdas Pophale) SiO2 
 PCOD8310754
Probable space group: I -4 M 2
;
_chemical_formula_sum "Si O2"
_cell_formula_units_Z 128
_cell_length_a 25.400544
_cell_length_b 25.400544
_cell_length_c 11.668821
_cell_angle_alpha 90.000000
_cell_angle_beta 90.000000
_cell_angle_gamma 90.000000
_cell_volume 7528.579030
_symmetry_space_group_name_H-M "I -4 M 2"
_symmetry_group_IT_number 119
_symmetry_cell_setting 'tetragonal'
loop_
_space_group_symop_operation_xyz
x,y,z
y,-x,-z
-x,-y,z
-y,x,-z
y,x,-z
-y,-x,-z
-x,y,z
x,-y,z
1/2+x,1/2+y,1/2+z
1/2+y,1/2-x,1/2-z
1/2-x,1/2-y,1/2+z
1/2-y,1/2+x,1/2-z
1/2+y,1/2+x,1/2-z
1/2-y,1/2-x,1/2-z
1/2-x,1/2+y,1/2+z
1/2+x,1/2-y,1/2+z
loop_
_atom_site_type_symbol
_atom_site_label
_atom_site_fract_x
_atom_site_fract_y
_atom_site_fract_z
Si Si1 0.642332 0.557276 0.999456
Si Si2 0.307249 0.855762 0.057285
Si Si3 0.060007 0.754570 0.371177
Si Si4 0.292876 0.090868 0.403161
Si Si5 0.940521 0.194445 0.734694
Si Si6 0.231589 0.350010 0.303157
Si Si7 0.809435 0.841597 0.122541
Si Si8 0.636476 0.941626 0.211399
O O1 0.629207 0.500000 0.050571
O O2 0.689804 0.580969 0.076676
O O3 0.591383 0.591383 0.000000
O O4 0.653389 0.551314 0.865517
O O5 0.348423 0.808282 0.072663
O O6 0.253758 0.838326 0.118858
O O7 0.332127 0.907377 0.116815
O O8 0.293161 0.866719 0.924931
O O9 0.061033 0.714141 0.476974
O O10 0.096970 0.732766 0.271493
O O11 0.000000 0.758718 0.325697
O O12 0.242612 0.090432 0.321738
O O13 0.335289 0.057775 0.333909
O O14 0.899212 0.172793 0.829523
O O15 0.000000 0.207959 0.784507
O O16 0.194802 0.305199 0.250000
O O17 0.291402 0.328667 0.304511
O O18 0.837250 0.837250 0.000000
O O19 0.579771 0.920230 0.250000
O O20 0.631199 0.000000 0.160304
#
# Coordination Sequence:
#
# PCOD8310754 Si02
#       8
#    16  16  16  16  16  16  16  16
#     4   9  18  32  50  78 104 131 174 218 267 319
#     4  10  21  35  50  75 109 140 180 218 261 329
#     4  10  20  35  54  76 105 141 181 220 262 319
#     4  10  18  32  53  77 101 135 177 217 264 311
#     4  10  19  32  54  76 102 139 182 219 258 318
#     4  11  22  36  52  77 113 147 179 222 271 331
#     4  10  22  35  50  77 114 142 178 219 269 325
#     4  10  20  33  54  77 104 135 172 225 276 320
#
# _framework density 17.001881000000001
#
# number of rings (size 3 to 8) (size 9 to 14) (size 15 to 20)
#    0.000    2.000    2.500    2.625    1.750    0.750 
#    0.000    1.875    0.000    0.750    0.000    0.000 
#    0.000    0.250    0.000    0.000    0.000    0.000 
#
# Total GULP energy -792925.562903 kJ/mol
# GULP energy per Si atom -12389.461920 kJ/mol
# Density = 1.696318 g / cm^3
# Si number density = 17.001881 Si / 1000 Ang^3
#
#
#
# Elastic Constant Matrix: (Units=GPa)
#
#
# Indices 1 2 3 4 5 6 
#
# 1 104.1673 51.5811 45.2737 0.0000 0.0000 0.0000
# 2 51.5811 104.1679 45.2726 0.0000 0.0000 0.0000
# 3 45.2737 45.2726 79.7300 0.0000 0.0000 0.0000
# 4 0.0000 0.0000 0.0000 19.2724 0.0000 0.0000
# 5 0.0000 0.0000 0.0000 0.0000 19.2734 0.0000
# 6 0.0000 0.0000 0.0000 0.0000 0.0000 16.5452
#
#
#
# Elastic Compliance Matrix: (Units=1/GPa)
#
#
# Indices 1 2 3 4 5 6 
#
# 1 0.014301 -0.004716 -0.005443 0.000000 0.000000 0.000000
# 2 -0.004716 0.014300 -0.005442 0.000000 0.000000 0.000000
# 3 -0.005443 -0.005442 0.018723 0.000000 0.000000 0.000000
# 4 0.000000 0.000000 0.000000 0.051888 0.000000 0.000000
# 5 0.000000 0.000000 0.000000 0.000000 0.051885 0.000000
# 6 0.000000 0.000000 0.000000 0.000000 0.000000 0.060441
#
#
# Mechanical properties :
#
#
# Convention : Reuss Voigt Hill
#
# Bulk Modulus (GPa) = 62.02482 63.59111 62.80796
# Shear Modulus (GPa) = 20.15210 20.74737 20.44973
#
# Velocity S-wave (km/s) = 3.44653 3.49707 3.47189
# Velocity P-wave (km/s) = 7.23868 7.33414 7.28656
#
# Compressibility (1/GPa) = 0.01612258
#
# Stress axis : x y z
#
# Youngs Moduli (GPa) = 69.92692 69.92861 53.40990
#
# Poissons Ratio (x) = 0.32977 0.29069
# Poissons Ratio (y) = 0.32976 0.29067
# Poissons Ratio (z) = 0.38059 0.38057
#
# Static dielectric constant tensor:
#      x y z
#    x 3.434170 0.000000 0.000000 
#    y 0.000000 3.434140 0.000000 
#    z 0.000000 0.000000 -2.929310 
# 
# 
# High freq. dielectric constant tensor:
#      x y z
#    x 1.649990 0.000000 0.000000 
#    y 0.000000 1.649990 0.000000 
#    z 0.000000 0.000000 1.650730 
# 
# From -- ./inp_files/4484.got.cif
#   From: 2010.03.12/outbox.cif.g09.slc.cpg/sg119_3_cif.got.tgz:4484.got - 2010.04.14 02:25:26.
