data_PCOD8310167
_publ_section_title
;
Structure prediction by ZEFSAII (Michael W. Deem and Ramdas Pophale) SiO2 
 PCOD8310167
Probable space group: P -4 C 2
;
_chemical_formula_sum "Si O2"
_cell_formula_units_Z 40
_cell_length_a 14.317134
_cell_length_b 14.317134
_cell_length_c 9.256902
_cell_angle_alpha 90.000000
_cell_angle_beta 90.000000
_cell_angle_gamma 90.000000
_cell_volume 1897.482789
_symmetry_space_group_name_H-M "P -4 C 2"
_symmetry_group_IT_number 116
_symmetry_cell_setting 'tetragonal'
loop_
_space_group_symop_operation_xyz
x,y,z
y,-x,-z
-x,-y,z
-y,x,-z
y,x,1/2-z
-y,-x,1/2-z
-x,y,1/2+z
x,-y,1/2+z
loop_
_atom_site_type_symbol
_atom_site_label
_atom_site_fract_x
_atom_site_fract_y
_atom_site_fract_z
Si Si1 0.562959 0.088577 0.681622
Si Si2 0.724491 0.966093 0.787067
Si Si3 0.180234 0.583473 0.123755
Si Si4 0.852614 0.992403 0.533282
Si Si5 0.442357 0.391757 0.906521
O O1 0.514257 0.156279 0.798379
O O2 0.581429 0.145487 0.538493
O O3 0.500000 0.000000 0.642296
O O4 0.661009 0.054071 0.744638
O O5 0.666966 0.869090 0.786706
O O6 0.817688 0.957344 0.689454
O O7 0.757799 0.987876 0.948000
O O8 0.290352 0.602154 0.117366
O O9 0.913139 0.912967 0.453509
O O10 0.442348 0.442348 0.750000
O O11 0.384148 0.452804 0.025197
#
# Coordination Sequence:
#
# PCOD8310167 Si02
#       5
#     8   8   8   8   8
#     4  10  21  39  65  96 135 173 211 270 348 393
#     4  11  22  42  66  96 134 173 221 274 332 391
#     4  11  23  41  67 101 129 172 223 278 331 403
#     4  11  24  43  65  92 132 180 218 263 330 396
#     4  11  24  45  69  93 134 180 220 275 348 409
#
# _framework density 21.080560999999999
#
# number of rings (size 3 to 8) (size 9 to 14) (size 15 to 20)
#    0.000    1.200    2.000    5.400    2.800    3.200 
#    3.600    0.000    0.000    0.000    0.000    0.000 
#    0.000    0.000    0.000    0.000    0.000    0.000 
#
# Total GULP energy -495992.009191 kJ/mol
# GULP energy per Si atom -12399.800230 kJ/mol
# Density = 2.103258 g / cm^3
# Si number density = 21.080561 Si / 1000 Ang^3
#
#
#
# Elastic Constant Matrix: (Units=GPa)
#
#
# Indices 1 2 3 4 5 6 
#
# 1 116.9156 27.9029 38.6281 0.0000 0.0000 0.0000
# 2 27.9029 116.9156 38.6281 0.0000 0.0000 0.0000
# 3 38.6281 38.6281 97.7300 0.0000 0.0000 0.0000
# 4 0.0000 0.0000 0.0000 30.6641 0.0000 0.0000
# 5 0.0000 0.0000 0.0000 0.0000 30.6641 0.0000
# 6 0.0000 0.0000 0.0000 0.0000 0.0000 21.6404
#
#
#
# Elastic Compliance Matrix: (Units=1/GPa)
#
#
# Indices 1 2 3 4 5 6 
#
# 1 0.009992 -0.001242 -0.003459 0.000000 0.000000 0.000000
# 2 -0.001242 0.009992 -0.003459 0.000000 0.000000 0.000000
# 3 -0.003459 -0.003459 0.012966 0.000000 0.000000 0.000000
# 4 0.000000 0.000000 0.000000 0.032611 0.000000 0.000000
# 5 0.000000 0.000000 0.000000 0.000000 0.032611 0.000000
# 6 0.000000 0.000000 0.000000 0.000000 0.000000 0.046210
#
#
# Mechanical properties :
#
#
# Convention : Reuss Voigt Hill
#
# Bulk Modulus (GPa) = 60.12318 60.20880 60.16599
# Shear Modulus (GPa) = 30.07588 31.68719 30.88154
#
# Velocity S-wave (km/s) = 3.78128 3.88125 3.83159
# Velocity P-wave (km/s) = 6.90266 6.97917 6.94102
#
# Compressibility (1/GPa) = 0.01663252
#
# Stress axis : x y z
#
# Youngs Moduli (GPa) = 100.07719 100.07719 77.12312
#
# Poissons Ratio (x) = 0.12430 0.26673
# Poissons Ratio (y) = 0.12430 0.26673
# Poissons Ratio (z) = 0.34612 0.34612
#
# Static dielectric constant tensor:
#      x y z
#    x 3.887120 0.000000 0.000000 
#    y 0.000000 3.887120 0.000000 
#    z 0.000000 0.000000 3.869790 
# 
# 
# High freq. dielectric constant tensor:
#      x y z
#    x 1.821090 0.000000 0.000000 
#    y 0.000000 1.821090 0.000000 
#    z 0.000000 0.000000 1.839520 
# 
# From -- ./inp_files/775.got.cif
#   From: 2010.03.12/outbox.cif.g09.slc.cpg/sg116_1_cif.got.tgz:775.got - 2010.04.14 02:15:44.
