data_PCOD8310918
_publ_section_title
;
Structure prediction by ZEFSAII (Michael W. Deem and Ramdas Pophale) SiO2 
 PCOD8310918
Probable space group: I -4 M 2
;
_chemical_formula_sum "Si O2"
_cell_formula_units_Z 56
_cell_length_a 22.671144
_cell_length_b 22.671144
_cell_length_c 5.216468
_cell_angle_alpha 90.000000
_cell_angle_beta 90.000000
_cell_angle_gamma 90.000000
_cell_volume 2681.164241
_symmetry_space_group_name_H-M "I -4 M 2"
_symmetry_group_IT_number 119
_symmetry_cell_setting 'tetragonal'
loop_
_space_group_symop_operation_xyz
x,y,z
y,-x,-z
-x,-y,z
-y,x,-z
y,x,-z
-y,-x,-z
-x,y,z
x,-y,z
1/2+x,1/2+y,1/2+z
1/2+y,1/2-x,1/2-z
1/2-x,1/2-y,1/2+z
1/2-y,1/2+x,1/2-z
1/2+y,1/2+x,1/2-z
1/2-y,1/2-x,1/2-z
1/2-x,1/2+y,1/2+z
1/2+x,1/2-y,1/2+z
loop_
_atom_site_type_symbol
_atom_site_label
_atom_site_fract_x
_atom_site_fract_y
_atom_site_fract_z
Si Si1 0.792414 0.292414 0.250000
Si Si2 0.253983 0.434580 0.514950
Si Si3 0.817295 0.596897 0.003290
Si Si4 0.821482 0.821482 0.000000
Si Si5 0.566168 0.933833 0.750000
O O1 0.815862 0.330974 0.005467
O O2 0.803530 0.222729 0.229146
O O3 0.281329 0.500000 0.516698
O O4 0.222037 0.424002 0.245018
O O5 0.308915 0.389805 0.567007
O O6 0.206582 0.429461 0.741308
O O7 0.884935 0.575754 0.028190
O O8 0.500000 0.926411 0.634627
#
# Coordination Sequence:
#
# PCOD8310918 Si02
#       5
#     8  16  16   8   8
#     4   9  18  33  56  81 108 138 178 233 276 313
#     4  11  22  38  58  80 110 144 179 225 281 342
#     4  10  22  38  56  78 109 148 188 230 281 329
#     4  10  20  34  58  87 112 138 180 225 276 328
#     4  10  20  35  54  78 112 156 204 244 276 323
#
# _framework density 20.88645
#
# number of rings (size 3 to 8) (size 9 to 14) (size 15 to 20)
#    0.000    1.857    0.000    4.286    0.000   12.571 
#    0.000    4.286    0.000    9.000    0.000    0.000 
#    0.000    9.143    0.000    0.000    0.000    1.143 
#
# Total GULP energy -346873.630803 kJ/mol
# GULP energy per Si atom -12388.343957 kJ/mol
# Density = 2.083891 g / cm^3
# Si number density = 20.886450 Si / 1000 Ang^3
#
#
#
# Elastic Constant Matrix: (Units=GPa)
#
#
# Indices 1 2 3 4 5 6 
#
# 1 142.4570 87.0283 26.5744 0.0000 0.0000 0.0000
# 2 87.0283 142.4607 26.5744 0.0000 0.0000 0.0000
# 3 26.5744 26.5744 81.3291 0.0000 0.0000 0.0000
# 4 0.0000 0.0000 0.0000 12.6780 0.0000 0.0000
# 5 0.0000 0.0000 0.0000 0.0000 12.6784 0.0000
# 6 0.0000 0.0000 0.0000 0.0000 0.0000 31.0240
#
#
#
# Elastic Compliance Matrix: (Units=1/GPa)
#
#
# Indices 1 2 3 4 5 6 
#
# 1 0.011378 -0.006663 -0.001540 0.000000 0.000000 0.000000
# 2 -0.006663 0.011377 -0.001540 0.000000 0.000000 0.000000
# 3 -0.001540 -0.001540 0.013302 0.000000 0.000000 0.000000
# 4 0.000000 0.000000 0.000000 0.078877 0.000000 0.000000
# 5 0.000000 0.000000 0.000000 0.000000 0.078874 0.000000
# 6 0.000000 0.000000 0.000000 0.000000 0.000000 0.032233
#
#
# Mechanical properties :
#
#
# Convention : Reuss Voigt Hill
#
# Bulk Modulus (GPa) = 60.35233 71.84454 66.09843
# Shear Modulus (GPa) = 19.91617 26.34741 23.13179
#
# Velocity S-wave (km/s) = 3.09130 3.55556 3.33153
# Velocity P-wave (km/s) = 6.45753 7.16438 6.82012
#
# Compressibility (1/GPa) = 0.01656937
#
# Stress axis : x y z
#
# Youngs Moduli (GPa) = 87.89207 87.89450 75.17449
#
# Poissons Ratio (x) = 0.58565 0.11580
# Poissons Ratio (y) = 0.58564 0.11579
# Poissons Ratio (z) = 0.13539 0.13539
#
# Static dielectric constant tensor:
#      x y z
#    x 4.103010 0.000000 0.000000 
#    y 0.000000 4.102980 0.000000 
#    z 0.000000 0.000000 3.546310 
# 
# 
# High freq. dielectric constant tensor:
#      x y z
#    x 1.807500 0.000000 0.000000 
#    y 0.000000 1.807500 0.000000 
#    z 0.000000 0.000000 1.808550 
# 
# From -- ./inp_files/715.got.cif
#   From: 2010.03.12/outbox.cif.g09.slc.cpg/sg119_1_cif.got.tgz:715.got - 2010.04.14 02:25:26.
