data_PCOD8310042
_publ_section_title
;
Structure prediction by ZEFSAII (Michael W. Deem and Ramdas Pophale) SiO2 
 PCOD8310042
Probable space group: P -4 M 2
;
_chemical_formula_sum "Si O2"
_cell_formula_units_Z 48
_cell_length_a 9.734586
_cell_length_b 9.734586
_cell_length_c 31.002215
_cell_angle_alpha 90.000000
_cell_angle_beta 90.000000
_cell_angle_gamma 90.000000
_cell_volume 2937.837001
_symmetry_space_group_name_H-M "P -4 M 2"
_symmetry_group_IT_number 115
_symmetry_cell_setting 'tetragonal'
loop_
_space_group_symop_operation_xyz
x,y,z
y,-x,-z
-x,-y,z
-y,x,-z
y,x,-z
-y,-x,-z
-x,y,z
x,-y,z
loop_
_atom_site_type_symbol
_atom_site_label
_atom_site_fract_x
_atom_site_fract_y
_atom_site_fract_z
Si Si1 0.660317 0.159906 0.875036
Si Si2 0.339683 0.159906 0.624964
Si Si3 0.153965 0.836886 0.702307
Si Si4 0.836886 0.846035 0.202307
Si Si5 0.653005 0.336762 0.047385
Si Si6 0.346995 0.336762 0.452615
O O1 0.500000 0.186654 0.867052
O O2 0.739720 0.218695 0.833252
O O3 0.717252 0.242198 0.916414
O O4 0.691271 0.000000 0.883168
O O5 0.500000 0.186654 0.632948
O O6 0.260280 0.218695 0.666748
O O7 0.282748 0.242198 0.583586
O O8 0.308729 0.000000 0.616832
O O9 0.195880 0.782028 0.750000
O O10 0.000000 0.786694 0.690801
O O11 0.158789 0.000000 0.702779
O O12 0.000000 0.841210 0.202779
O O13 0.786695 0.000000 0.190801
O O14 0.500000 0.277020 0.056299
O O15 0.646121 0.500000 0.048077
O O16 0.708149 0.291851 0.000000
O O17 0.291851 0.291851 0.500000
O O18 0.500000 0.277020 0.443701
O O19 0.353879 0.500000 0.451923
#
# Coordination Sequence:
#
# PCOD8310042 Si02
#       6
#     8   8   8   8   8   8
#     4   9  16  25  40  63  84  98 122 167 208 227
#     4   9  16  25  40  63  84  98 122 167 208 227
#     4   8  14  25  40  57  79 108 136 158 188 236
#     4   8  14  25  40  57  79 108 136 158 188 236
#     4   8  14  26  43  59  77 106 138 160 186 234
#     4   8  14  26  43  59  77 106 138 160 186 234
#
# _framework density 16.338550999999999
#
# number of rings (size 3 to 8) (size 9 to 14) (size 15 to 20)
#    0.000    3.667    0.000    2.000    0.000    0.667 
#    0.000    5.000    0.000    4.000    0.000    7.000 
#    0.000    0.000    0.000    0.000    0.000    0.000 
#
# Total GULP energy -594796.376148 kJ/mol
# GULP energy per Si atom -12391.591170 kJ/mol
# Density = 1.630136 g / cm^3
# Si number density = 16.338551 Si / 1000 Ang^3
#
#
#
# Elastic Constant Matrix: (Units=GPa)
#
#
# Indices 1 2 3 4 5 6 
#
# 1 46.6946 24.8435 60.4140 0.0000 0.0000 0.0000
# 2 24.8435 46.6946 60.4140 0.0000 0.0000 0.0000
# 3 60.4140 60.4140 181.3565 0.0000 0.0000 0.0000
# 4 0.0000 0.0000 0.0000 27.4479 0.0000 0.0000
# 5 0.0000 0.0000 0.0000 0.0000 27.4479 0.0000
# 6 0.0000 0.0000 0.0000 0.0000 0.0000 8.6440
#
#
#
# Elastic Compliance Matrix: (Units=1/GPa)
#
#
# Indices 1 2 3 4 5 6 
#
# 1 0.038863 -0.006901 -0.010647 0.000000 0.000000 0.000000
# 2 -0.006901 0.038863 -0.010647 0.000000 0.000000 0.000000
# 3 -0.010647 -0.010647 0.012608 0.000000 0.000000 0.000000
# 4 0.000000 0.000000 0.000000 0.036433 0.000000 0.000000
# 5 0.000000 0.000000 0.000000 0.000000 0.036433 0.000000
# 6 0.000000 0.000000 0.000000 0.000000 0.000000 0.115687
#
#
# Mechanical properties :
#
#
# Convention : Reuss Voigt Hill
#
# Bulk Modulus (GPa) = 29.46177 62.89874 46.18026
# Shear Modulus (GPa) = 14.42621 21.31291 17.86956
#
# Velocity S-wave (km/s) = 2.97468 3.61564 3.31071
# Velocity P-wave (km/s) = 5.46530 7.48406 6.55289
#
# Compressibility (1/GPa) = 0.03394229
#
# Stress axis : x y z
#
# Youngs Moduli (GPa) = 25.73145 25.73145 79.31713
#
# Poissons Ratio (x) = 0.17758 0.84450
# Poissons Ratio (y) = 0.17758 0.84450
# Poissons Ratio (z) = 0.27397 0.27397
#
# Static dielectric constant tensor:
#      x y z
#    x 2.890940 0.000000 0.000000 
#    y 0.000000 2.890940 0.000000 
#    z 0.000000 0.000000 3.633630 
# 
# 
# High freq. dielectric constant tensor:
#      x y z
#    x 1.592050 0.000000 0.000000 
#    y 0.000000 1.592050 0.000000 
#    z 0.000000 0.000000 1.643370 
# 
# From -- ./inp_files/5268.got.cif
#   From: 2010.03.12/outbox.cif.g09.slc.cpg/sg115_3_cif.got.tgz:5268.got - 2010.04.14 02:11:21.
