data_PCOD8310113
_publ_section_title
;
Structure prediction by ZEFSAII (Michael W. Deem and Ramdas Pophale) SiO2 
 PCOD8310113
Probable space group: P -4 C 2
;
_chemical_formula_sum "Si O2"
_cell_formula_units_Z 56
_cell_length_a 11.463246
_cell_length_b 11.463246
_cell_length_c 20.339271
_cell_angle_alpha 90.000000
_cell_angle_beta 90.000000
_cell_angle_gamma 90.000000
_cell_volume 2672.702425
_symmetry_space_group_name_H-M "P -4 C 2"
_symmetry_group_IT_number 116
_symmetry_cell_setting 'tetragonal'
loop_
_space_group_symop_operation_xyz
x,y,z
y,-x,-z
-x,-y,z
-y,x,-z
y,x,1/2-z
-y,-x,1/2-z
-x,y,1/2+z
x,-y,1/2+z
loop_
_atom_site_type_symbol
_atom_site_label
_atom_site_fract_x
_atom_site_fract_y
_atom_site_fract_z
Si Si1 0.087879 0.392810 0.425026
Si Si2 0.528531 0.821406 0.884011
Si Si3 0.686904 0.447982 0.992505
Si Si4 0.493354 0.318897 0.763754
Si Si5 0.817565 0.983648 0.981848
Si Si6 0.910990 0.602159 0.278242
Si Si7 0.025202 0.679875 0.643187
O O1 0.226013 0.431671 0.430167
O O2 0.052555 0.297000 0.478279
O O3 0.070164 0.342204 0.350498
O O4 0.000000 0.500000 0.435827
O O5 0.584722 0.776925 0.950551
O O6 0.495859 0.710305 0.840449
O O7 0.627604 0.896107 0.847088
O O8 0.412250 0.896079 0.897055
O O9 0.579768 0.357977 0.995333
O O10 0.359428 0.359428 0.750000
O O11 0.572880 0.427121 0.750000
O O12 0.536958 0.212678 0.719386
O O13 0.792088 0.018039 0.904926
O O14 0.905924 0.874937 0.981813
O O15 0.000000 0.500000 0.260918
O O16 0.921716 0.697506 0.217828
#
# Coordination Sequence:
#
# PCOD8310113 Si02
#       7
#     8   8   8   8   8   8   8
#     4  11  25  41  68  98 136 172 223 280 335 394
#     4  10  20  37  63  88 122 178 217 252 325 398
#     4  11  26  39  60 100 139 175 214 273 334 404
#     4  10  22  35  58  90 129 170 211 262 326 388
#     4  11  26  46  69  97 129 170 226 288 341 402
#     4  10  21  42  61  95 130 170 221 267 321 396
#     4  10  19  41  68  89 124 173 228 260 323 410
#
# _framework density 20.952577000000002
#
# number of rings (size 3 to 8) (size 9 to 14) (size 15 to 20)
#    0.000    1.571    4.286    0.857    8.000    2.286 
#    2.571    0.714    0.000    1.714    0.000    0.000 
#    0.000    0.000    0.000    0.000    0.000    0.000 
#
# Total GULP energy -693780.361822 kJ/mol
# GULP energy per Si atom -12388.935033 kJ/mol
# Density = 2.090489 g / cm^3
# Si number density = 20.952577 Si / 1000 Ang^3
#
#
#
# Elastic Constant Matrix: (Units=GPa)
#
#
# Indices 1 2 3 4 5 6 
#
# 1 103.6701 44.1825 39.2784 0.0000 0.0000 0.0000
# 2 44.1825 103.6691 39.2784 0.0000 0.0000 0.0000
# 3 39.2784 39.2784 132.6665 0.0000 0.0000 0.0000
# 4 0.0000 0.0000 0.0000 38.3287 0.0000 0.0000
# 5 0.0000 0.0000 0.0000 0.0000 38.3309 0.0000
# 6 0.0000 0.0000 0.0000 0.0000 0.0000 21.9469
#
#
#
# Elastic Compliance Matrix: (Units=1/GPa)
#
#
# Indices 1 2 3 4 5 6 
#
# 1 0.012418 -0.004392 -0.002376 0.000000 0.000000 0.000000
# 2 -0.004392 0.012418 -0.002376 0.000000 0.000000 0.000000
# 3 -0.002376 -0.002376 0.008945 0.000000 0.000000 0.000000
# 4 0.000000 0.000000 0.000000 0.026090 0.000000 0.000000
# 5 0.000000 0.000000 0.000000 0.000000 0.026089 0.000000
# 6 0.000000 0.000000 0.000000 0.000000 0.000000 0.045565
#
#
# Mechanical properties :
#
#
# Convention : Reuss Voigt Hill
#
# Bulk Modulus (GPa) = 64.55008 65.05381 64.80195
# Shear Modulus (GPa) = 32.26267 34.20572 33.23419
#
# Velocity S-wave (km/s) = 3.92828 4.04484 3.98699
# Velocity P-wave (km/s) = 7.17285 7.27529 7.22425
#
# Compressibility (1/GPa) = 0.01549185
#
# Stress axis : x y z
#
# Youngs Moduli (GPa) = 80.52725 80.52641 111.79709
#
# Poissons Ratio (x) = 0.35368 0.26566
# Poissons Ratio (y) = 0.35369 0.26566
# Poissons Ratio (z) = 0.19135 0.19135
#
# Static dielectric constant tensor:
#      x y z
#    x 1.330170 0.000000 0.000000 
#    y 0.000000 1.330450 0.000000 
#    z 0.000000 0.000000 3.991310 
# 
# 
# High freq. dielectric constant tensor:
#      x y z
#    x 1.811290 0.000000 0.000000 
#    y 0.000000 1.811290 0.000000 
#    z 0.000000 0.000000 1.826610 
# 
# From -- ./inp_files/4128.got.cif
#   From: 2010.03.12/outbox.cif.g09.slc.cpg/sg116_3_cif.got.tgz:4128.got - 2010.04.14 02:15:44.
