data_PCOD8310573
_publ_section_title
;
Structure prediction by ZEFSAII (Michael W. Deem and Ramdas Pophale) SiO2 
 PCOD8310573
Probable space group: P -4 N 2
;
_chemical_formula_sum "Si O2"
_cell_formula_units_Z 60
_cell_length_a 11.818264
_cell_length_b 11.818264
_cell_length_c 20.412606
_cell_angle_alpha 90.000000
_cell_angle_beta 90.000000
_cell_angle_gamma 90.000000
_cell_volume 2851.056522
_symmetry_space_group_name_H-M "P -4 N 2"
_symmetry_group_IT_number 118
_symmetry_cell_setting 'tetragonal'
loop_
_space_group_symop_operation_xyz
x,y,z
y,-x,-z
-x,-y,z
-y,x,-z
1/2+y,1/2+x,1/2-z
1/2-y,1/2-x,1/2-z
1/2-x,1/2+y,1/2+z
1/2+x,1/2-y,1/2+z
loop_
_atom_site_type_symbol
_atom_site_label
_atom_site_fract_x
_atom_site_fract_y
_atom_site_fract_z
Si Si1 0.478914 0.878637 0.159519
Si Si2 0.297373 0.797373 0.250000
Si Si3 0.591949 0.089313 0.482982
Si Si4 0.341104 0.441447 0.518930
Si Si5 0.292395 0.674372 0.844260
Si Si6 0.134557 0.134381 0.197794
Si Si7 0.114532 0.123367 0.838701
Si Si8 0.945220 0.842032 0.472447
O O1 0.410190 0.795233 0.206222
O O2 0.406262 0.910312 0.095394
O O3 0.593302 0.813795 0.141341
O O4 0.500000 0.000000 0.194542
O O5 0.189842 0.791583 0.202735
O O6 0.562977 0.214632 0.509542
O O7 0.714419 0.052064 0.505068
O O8 0.500000 0.000000 0.510725
O O9 0.381506 0.571562 0.532195
O O10 0.354818 0.368004 0.584620
O O11 0.232985 0.798048 0.841459
O O12 0.353409 0.650578 0.775688
O O13 0.386350 0.655785 0.900913
O O14 0.005339 0.139186 0.177057
O O15 0.175368 0.007854 0.180644
O O16 0.077238 0.881922 0.473775
#
# Coordination Sequence:
#
# PCOD8310573 Si02
#       8
#     8   4   8   8   8   8   8   8
#     4  11  22  37  63  98 133 162 213 278 349 404
#     4  12  21  38  64 103 132 162 214 292 348 403
#     4  11  26  43  66  99 134 175 219 284 349 397
#     4  11  25  43  68  98 133 184 231 282 340 413
#     4  11  23  42  66  93 132 178 226 279 338 421
#     4  10  23  39  64  92 128 177 220 274 338 402
#     4  11  23  40  63  98 132 171 225 281 345 404
#     4  11  26  44  67  98 135 184 231 275 339 421
#
# _framework density 21.044829
#
# number of rings (size 3 to 8) (size 9 to 14) (size 15 to 20)
#    0.000    1.067    4.000    2.600    9.333    3.200 
#    0.000    0.000    0.000    0.800    0.000    0.000 
#    0.000    0.000    0.000    0.000    0.000    0.000 
#
# Total GULP energy -743765.363583 kJ/mol
# GULP energy per Si atom -12396.089393 kJ/mol
# Density = 2.099693 g / cm^3
# Si number density = 21.044829 Si / 1000 Ang^3
#
#
#
# Elastic Constant Matrix: (Units=GPa)
#
#
# Indices 1 2 3 4 5 6 
#
# 1 118.8455 47.0721 23.6662 0.0000 0.0000 0.0000
# 2 47.0721 118.8455 23.6662 0.0000 0.0000 0.0000
# 3 23.6662 23.6662 73.5294 0.0000 0.0000 0.0000
# 4 0.0000 0.0000 0.0000 20.8817 0.0000 0.0000
# 5 0.0000 0.0000 0.0000 0.0000 20.8817 0.0000
# 6 0.0000 0.0000 0.0000 0.0000 0.0000 31.2028
#
#
#
# Elastic Compliance Matrix: (Units=1/GPa)
#
#
# Indices 1 2 3 4 5 6 
#
# 1 0.010285 -0.003648 -0.002136 0.000000 0.000000 0.000000
# 2 -0.003648 0.010285 -0.002136 0.000000 0.000000 0.000000
# 3 -0.002136 -0.002136 0.014975 0.000000 0.000000 0.000000
# 4 0.000000 0.000000 0.000000 0.047889 0.000000 0.000000
# 5 0.000000 0.000000 0.000000 0.000000 0.047889 0.000000
# 6 0.000000 0.000000 0.000000 0.000000 0.000000 0.032048
#
#
# Mechanical properties :
#
#
# Convention : Reuss Voigt Hill
#
# Bulk Modulus (GPa) = 50.75148 55.55881 53.15515
# Shear Modulus (GPa) = 26.91377 29.04764 27.98070
#
# Velocity S-wave (km/s) = 3.58002 3.71923 3.65029
# Velocity P-wave (km/s) = 6.42316 6.70083 6.56346
#
# Compressibility (1/GPa) = 0.01970386
#
# Stress axis : x y z
#
# Youngs Moduli (GPa) = 97.23288 97.23288 66.77798
#
# Poissons Ratio (x) = 0.35472 0.14264
# Poissons Ratio (y) = 0.35472 0.14264
# Poissons Ratio (z) = 0.20769 0.20769
#
# Static dielectric constant tensor:
#      x y z
#    x 3.890150 0.000000 0.000000 
#    y 0.000000 3.890150 0.000000 
#    z 0.000000 0.000000 3.817400 
# 
# 
# High freq. dielectric constant tensor:
#      x y z
#    x 1.822400 0.000000 0.000000 
#    y 0.000000 1.822400 0.000000 
#    z 0.000000 0.000000 1.821850 
# 
# From -- ./inp_files/5774.got.cif
#   From: 2010.03.12/outbox.cif.g09.slc.cpg/sg118_3_cif.got.tgz:5774.got - 2010.04.14 02:21:17.
