data_PCOD8310739
_publ_section_title
;
Structure prediction by ZEFSAII (Michael W. Deem and Ramdas Pophale) SiO2 
 PCOD8310739
Probable space group: I -4 M 2
;
_chemical_formula_sum "Si O2"
_cell_formula_units_Z 64
_cell_length_a 19.754927
_cell_length_b 19.754927
_cell_length_c 8.479554
_cell_angle_alpha 90.000000
_cell_angle_beta 90.000000
_cell_angle_gamma 90.000000
_cell_volume 3309.206499
_symmetry_space_group_name_H-M "I -4 M 2"
_symmetry_group_IT_number 119
_symmetry_cell_setting 'tetragonal'
loop_
_space_group_symop_operation_xyz
x,y,z
y,-x,-z
-x,-y,z
-y,x,-z
y,x,-z
-y,-x,-z
-x,y,z
x,-y,z
1/2+x,1/2+y,1/2+z
1/2+y,1/2-x,1/2-z
1/2-x,1/2-y,1/2+z
1/2-y,1/2+x,1/2-z
1/2+y,1/2+x,1/2-z
1/2-y,1/2-x,1/2-z
1/2-x,1/2+y,1/2+z
1/2+x,1/2-y,1/2+z
loop_
_atom_site_type_symbol
_atom_site_label
_atom_site_fract_x
_atom_site_fract_y
_atom_site_fract_z
Si Si1 0.423655 0.631181 0.661716
Si Si2 0.288831 0.813577 0.431683
Si Si3 0.424679 0.301071 0.171495
Si Si4 0.269812 0.926161 0.990805
O O1 0.407832 0.592169 0.500000
O O2 0.500000 0.613339 0.711808
O O3 0.375080 0.608327 0.804750
O O4 0.414959 0.711779 0.639281
O O5 0.252267 0.747734 0.500000
O O6 0.299586 0.799586 0.250000
O O7 0.243608 0.881082 0.452884
O O8 0.362634 0.821986 0.517070
O O9 0.500000 0.308159 0.100665
O O10 0.426445 0.264909 0.339305
O O11 0.305627 0.000000 0.964580
#
# Coordination Sequence:
#
# PCOD8310739 Si02
#       4
#    16  16  16  16
#     4   9  15  24  41  66  94 123 160 207 248 278
#     4  10  18  30  49  68  89 121 157 193 236 284
#     4   9  17  27  39  60  91 125 156 184 224 283
#     4   8  14  25  43  67  89 108 143 198 248 284
#
# _framework density 19.339984000000001
#
# number of rings (size 3 to 8) (size 9 to 14) (size 15 to 20)
#    0.000    3.000    0.000    6.000    0.000    1.750 
#    0.000    1.250    0.000    2.250    0.000    5.250 
#    0.000    0.000    0.000    3.500    0.000    6.250 
#
# Total GULP energy -396530.960655 kJ/mol
# GULP energy per Si atom -12391.592520 kJ/mol
# Density = 1.929597 g / cm^3
# Si number density = 19.339984 Si / 1000 Ang^3
#
#
#
# Elastic Constant Matrix: (Units=GPa)
#
#
# Indices 1 2 3 4 5 6 
#
# 1 136.6236 101.7630 23.5342 0.0000 0.0000 0.0000
# 2 101.7630 136.6243 23.5368 0.0000 0.0000 0.0000
# 3 23.5342 23.5368 10.3050 0.0000 0.0000 0.0000
# 4 0.0000 0.0000 0.0000 6.0830 0.0000 0.0000
# 5 0.0000 0.0000 0.0000 0.0000 6.0841 0.0000
# 6 0.0000 0.0000 0.0000 0.0000 0.0000 26.8838
#
#
#
# Elastic Compliance Matrix: (Units=1/GPa)
#
#
# Indices 1 2 3 4 5 6 
#
# 1 0.018162 -0.010522 -0.017444 0.000000 0.000000 0.000000
# 2 -0.010522 0.018164 -0.017456 0.000000 0.000000 0.000000
# 3 -0.017444 -0.017456 0.176747 0.000000 0.000000 0.000000
# 4 0.000000 0.000000 0.000000 0.164392 0.000000 0.000000
# 5 0.000000 0.000000 0.000000 0.000000 0.164364 0.000000
# 6 0.000000 0.000000 0.000000 0.000000 0.000000 0.037197
#
#
# Mechanical properties :
#
#
# Convention : Reuss Voigt Hill
#
# Bulk Modulus (GPa) = 8.18139 64.58010 36.38075
# Shear Modulus (GPa) = 7.03617 16.79143 11.91380
#
# Velocity S-wave (km/s) = 1.90946 2.94976 2.48467
# Velocity P-wave (km/s) = 3.01677 6.71312 5.20417
#
# Compressibility (1/GPa) = 0.12222862
#
# Stress axis : x y z
#
# Youngs Moduli (GPa) = 55.06078 55.05356 5.65779
#
# Poissons Ratio (x) = 0.57930 0.09869
# Poissons Ratio (y) = 0.57938 0.09876
# Poissons Ratio (z) = 0.96046 0.96102
#
# Static dielectric constant tensor:
#      x y z
#    x 3.915520 0.000000 0.000000 
#    y 0.000000 3.915510 0.000000 
#    z 0.000000 0.000000 3.078910 
# 
# 
# High freq. dielectric constant tensor:
#      x y z
#    x 1.738350 0.000000 0.000000 
#    y 0.000000 1.738350 0.000000 
#    z 0.000000 0.000000 1.715200 
# 
# From -- ./inp_files/2265.got.cif
#   From: 2010.03.12/outbox.cif.g09.slc.cpg/sg119_2_cif.got.tgz:2265.got - 2010.04.14 02:25:26.
